# generated using pymatgen
data_Fe4Co5B4H128C127Br6(N11O2)4
_symmetry_space_group_name_H-M   'P 1'
_cell_length_a   21.62200000
_cell_length_b   23.98200000
_cell_length_c   35.30400000
_cell_angle_alpha   90.00000000
_cell_angle_beta   90.00000000
_cell_angle_gamma   90.00000000
_symmetry_Int_Tables_number   1
_chemical_formula_structural   Fe4Co5B4H128C127Br6(N11O2)4
_chemical_formula_sum   'Fe16 Co20 B16 H512 C508 Br24 N176 O32'
_cell_volume   18306.49393642
_cell_formula_units_Z   4
loop_
 _symmetry_equiv_pos_site_id
 _symmetry_equiv_pos_as_xyz
  1  'x, y, z'
loop_
 _atom_site_type_symbol
 _atom_site_label
 _atom_site_symmetry_multiplicity
 _atom_site_fract_x
 _atom_site_fract_y
 _atom_site_fract_z
 _atom_site_occupancy
  Fe  Fe1  1  0.731250  0.474600  0.535160  1
  Fe  Fe2  1  0.768750  0.525400  0.035160  1
  Fe  Fe3  1  0.231250  0.025400  0.464840  1
  Fe  Fe4  1  0.268750  0.974600  0.964840  1
  Fe  Fe5  1  0.417120  0.593050  0.396450  1
  Fe  Fe6  1  0.082880  0.406950  0.896450  1
  Fe  Fe7  1  0.917120  0.906950  0.603550  1
  Fe  Fe8  1  0.582880  0.093050  0.103550  1
  Fe  Fe9  1  0.457620  0.329330  0.547440  1
  Fe  Fe10  1  0.042380  0.670670  0.047440  1
  Fe  Fe11  1  0.957620  0.170670  0.452560  1
  Fe  Fe12  1  0.542380  0.829330  0.952560  1
  Fe  Fe13  1  0.523950  0.697300  0.574170  1
  Fe  Fe14  1  0.976050  0.302700  0.074170  1
  Fe  Fe15  1  0.023950  0.802700  0.425830  1
  Fe  Fe16  1  0.476050  0.197300  0.925830  1
  Co  Co17  1  0.627050  0.337840  0.455130  1
  Co  Co18  1  0.872950  0.662160  0.955130  1
  Co  Co19  1  0.127050  0.162160  0.544870  1
  Co  Co20  1  0.372950  0.837840  0.044870  1
  Co  Co21  1  0.323960  0.663980  0.513270  1
  Co  Co22  1  0.176040  0.336020  0.013270  1
  Co  Co23  1  0.823960  0.836020  0.486730  1
  Co  Co24  1  0.676040  0.163980  0.986730  1
  Co  Co25  1  0.541090  0.495280  0.606560  1
  Co  Co26  1  0.958910  0.504720  0.106560  1
  Co  Co27  1  0.041090  0.004720  0.393440  1
  Co  Co28  1  0.458910  0.995280  0.893440  1
  Co  Co29  1  0.617880  0.621650  0.462280  1
  Co  Co30  1  0.882120  0.378350  0.962280  1
  Co  Co31  1  0.117880  0.878350  0.537720  1
  Co  Co32  1  0.382120  0.121650  0.037720  1
  Co  Co33  1  0.339440  0.410160  0.438990  1
  Co  Co34  1  0.160560  0.589840  0.938990  1
  Co  Co35  1  0.839440  0.089840  0.561010  1
  Co  Co36  1  0.660560  0.910160  0.061010  1
  B  B37  1  0.866800  0.471900  0.567800  1
  B  B38  1  0.633200  0.528100  0.067800  1
  B  B39  1  0.366800  0.028100  0.432200  1
  B  B40  1  0.133200  0.971900  0.932200  1
  B  B41  1  0.385500  0.646700  0.317400  1
  B  B42  1  0.114500  0.353300  0.817400  1
  B  B43  1  0.885500  0.853300  0.682600  1
  B  B44  1  0.614500  0.146700  0.182600  1
  B  B45  1  0.436100  0.222100  0.594200  1
  B  B46  1  0.063900  0.777900  0.094200  1
  B  B47  1  0.936100  0.277900  0.405800  1
  B  B48  1  0.563900  0.722100  0.905800  1
  B  B49  1  0.540000  0.790300  0.634800  1
  B  B50  1  0.960000  0.209700  0.134800  1
  B  B51  1  0.040000  0.709700  0.365200  1
  B  B52  1  0.460000  0.290300  0.865200  1
  H  H53  1  0.564200  0.421900  0.444400  1
  H  H54  1  0.935800  0.578100  0.944400  1
  H  H55  1  0.064200  0.078100  0.555600  1
  H  H56  1  0.435800  0.921900  0.055600  1
  H  H57  1  0.701000  0.371600  0.409900  1
  H  H58  1  0.799000  0.628400  0.909900  1
  H  H59  1  0.201000  0.128400  0.590100  1
  H  H60  1  0.299000  0.871600  0.090100  1
  H  H61  1  0.355400  0.570800  0.525100  1
  H  H62  1  0.144600  0.429200  0.025100  1
  H  H63  1  0.855400  0.929200  0.474900  1
  H  H64  1  0.644600  0.070800  0.974900  1
  H  H65  1  0.312100  0.680100  0.580600  1
  H  H66  1  0.187900  0.319900  0.080600  1
  H  H67  1  0.812100  0.819900  0.419400  1
  H  H68  1  0.687900  0.180100  0.919400  1
  H  H69  1  0.591300  0.499400  0.421800  1
  H  H70  1  0.908700  0.500600  0.921800  1
  H  H71  1  0.091300  0.000600  0.578200  1
  H  H72  1  0.408700  0.999400  0.078200  1
  H  H73  1  0.633300  0.553500  0.374600  1
  H  H74  1  0.866700  0.446500  0.874600  1
  H  H75  1  0.133300  0.946500  0.625400  1
  H  H76  1  0.366700  0.053500  0.125400  1
  H  H77  1  0.676700  0.565900  0.312800  1
  H  H78  1  0.823300  0.434100  0.812800  1
  H  H79  1  0.176700  0.934100  0.687200  1
  H  H80  1  0.323300  0.065900  0.187200  1
  H  H81  1  0.708900  0.527400  0.257100  1
  H  H82  1  0.791100  0.472600  0.757100  1
  H  H83  1  0.208900  0.972600  0.742900  1
  H  H84  1  0.291100  0.027400  0.242900  1
  H  H85  1  0.713700  0.428500  0.248300  1
  H  H86  1  0.786300  0.571500  0.748300  1
  H  H87  1  0.213700  0.071500  0.751700  1
  H  H88  1  0.286300  0.928500  0.251700  1
  H  H89  1  0.681700  0.371300  0.296200  1
  H  H90  1  0.818300  0.628700  0.796200  1
  H  H91  1  0.181700  0.128700  0.703800  1
  H  H92  1  0.318300  0.871300  0.203800  1
  H  H93  1  0.544200  0.366600  0.310500  1
  H  H94  1  0.955800  0.633400  0.810500  1
  H  H95  1  0.044200  0.133400  0.689500  1
  H  H96  1  0.455800  0.866600  0.189500  1
  H  H97  1  0.496500  0.314400  0.263800  1
  H  H98  1  0.003500  0.685600  0.763800  1
  H  H99  1  0.996500  0.185600  0.736200  1
  H  H100  1  0.503500  0.814400  0.236200  1
  H  H101  1  0.524500  0.222300  0.250500  1
  H  H102  1  0.975500  0.777700  0.750500  1
  H  H103  1  0.024500  0.277700  0.749500  1
  H  H104  1  0.475500  0.722300  0.249500  1
  H  H105  1  0.585400  0.176900  0.298200  1
  H  H106  1  0.914600  0.823100  0.798200  1
  H  H107  1  0.085400  0.323100  0.701800  1
  H  H108  1  0.414600  0.676900  0.201800  1
  H  H109  1  0.667000  0.182000  0.345300  1
  H  H110  1  0.833000  0.818000  0.845300  1
  H  H111  1  0.167000  0.318000  0.654700  1
  H  H112  1  0.333000  0.682000  0.154700  1
  H  H113  1  0.713100  0.229900  0.394000  1
  H  H114  1  0.786900  0.770100  0.894000  1
  H  H115  1  0.213100  0.270100  0.606000  1
  H  H116  1  0.286900  0.729900  0.106000  1
  H  H117  1  0.776600  0.294300  0.417300  1
  H  H118  1  0.723400  0.705700  0.917300  1
  H  H119  1  0.276600  0.205700  0.582700  1
  H  H120  1  0.223400  0.794300  0.082700  1
  H  H121  1  0.774800  0.347000  0.445300  1
  H  H122  1  0.725200  0.653000  0.945300  1
  H  H123  1  0.274800  0.153000  0.554700  1
  H  H124  1  0.225200  0.847000  0.054700  1
  H  H125  1  0.817900  0.237100  0.474100  1
  H  H126  1  0.682100  0.762900  0.974100  1
  H  H127  1  0.317900  0.262900  0.525900  1
  H  H128  1  0.182100  0.737100  0.025900  1
  H  H129  1  0.790600  0.189300  0.530500  1
  H  H130  1  0.709400  0.810700  0.030500  1
  H  H131  1  0.290600  0.310700  0.469500  1
  H  H132  1  0.209400  0.689300  0.969500  1
  H  H133  1  0.690500  0.204700  0.555500  1
  H  H134  1  0.809500  0.795300  0.055500  1
  H  H135  1  0.190500  0.295300  0.444500  1
  H  H136  1  0.309500  0.704700  0.944500  1
  H  H137  1  0.619300  0.258600  0.522500  1
  H  H138  1  0.880700  0.741400  0.022500  1
  H  H139  1  0.119300  0.241400  0.477500  1
  H  H140  1  0.380700  0.758600  0.977500  1
  H  H141  1  0.501600  0.382600  0.392200  1
  H  H142  1  0.998400  0.617400  0.892200  1
  H  H143  1  0.001600  0.117400  0.607800  1
  H  H144  1  0.498400  0.882600  0.107800  1
  H  H145  1  0.486400  0.375300  0.436400  1
  H  H146  1  0.013600  0.624700  0.936400  1
  H  H147  1  0.986400  0.124700  0.563600  1
  H  H148  1  0.513600  0.875300  0.063600  1
  H  H149  1  0.455000  0.295200  0.376500  1
  H  H150  1  0.045000  0.704800  0.876500  1
  H  H151  1  0.955000  0.204800  0.623500  1
  H  H152  1  0.545000  0.795200  0.123500  1
  H  H153  1  0.453800  0.202200  0.381700  1
  H  H154  1  0.046200  0.797800  0.881700  1
  H  H155  1  0.953800  0.297800  0.618300  1
  H  H156  1  0.546200  0.702200  0.118300  1
  H  H157  1  0.536000  0.153700  0.411700  1
  H  H158  1  0.964000  0.846300  0.911700  1
  H  H159  1  0.036000  0.346300  0.588300  1
  H  H160  1  0.464000  0.653700  0.088300  1
  H  H161  1  0.612800  0.208000  0.442900  1
  H  H162  1  0.887200  0.792000  0.942900  1
  H  H163  1  0.112800  0.292000  0.557100  1
  H  H164  1  0.387200  0.708000  0.057100  1
  H  H165  1  0.345400  0.726900  0.441100  1
  H  H166  1  0.154600  0.273100  0.941100  1
  H  H167  1  0.845400  0.773100  0.558900  1
  H  H168  1  0.654600  0.226900  0.058900  1
  H  H169  1  0.346400  0.823600  0.424800  1
  H  H170  1  0.153600  0.176400  0.924800  1
  H  H171  1  0.846400  0.676400  0.575200  1
  H  H172  1  0.653600  0.323600  0.075200  1
  H  H173  1  0.321500  0.889800  0.469500  1
  H  H174  1  0.178500  0.110200  0.969500  1
  H  H175  1  0.821500  0.610200  0.530500  1
  H  H176  1  0.678500  0.389800  0.030500  1
  H  H177  1  0.297900  0.861400  0.531600  1
  H  H178  1  0.202100  0.138600  0.031600  1
  H  H179  1  0.797900  0.638600  0.468400  1
  H  H180  1  0.702100  0.361400  0.968400  1
  H  H181  1  0.269300  0.779200  0.573500  1
  H  H182  1  0.230700  0.220800  0.073500  1
  H  H183  1  0.769300  0.720800  0.426500  1
  H  H184  1  0.730700  0.279200  0.926500  1
  H  H185  1  0.341700  0.764700  0.576300  1
  H  H186  1  0.158300  0.235300  0.076300  1
  H  H187  1  0.841700  0.735300  0.423700  1
  H  H188  1  0.658300  0.264700  0.923700  1
  H  H189  1  0.223000  0.721000  0.467300  1
  H  H190  1  0.277000  0.279000  0.967300  1
  H  H191  1  0.723000  0.779000  0.532700  1
  H  H192  1  0.777000  0.221000  0.032700  1
  H  H193  1  0.130100  0.695700  0.441600  1
  H  H194  1  0.369900  0.304300  0.941600  1
  H  H195  1  0.630100  0.804300  0.558400  1
  H  H196  1  0.869900  0.195700  0.058400  1
  H  H197  1  0.092800  0.602800  0.449500  1
  H  H198  1  0.407200  0.397200  0.949500  1
  H  H199  1  0.592800  0.897200  0.550500  1
  H  H200  1  0.907200  0.102800  0.050500  1
  H  H201  1  0.155800  0.539500  0.480200  1
  H  H202  1  0.344200  0.460500  0.980200  1
  H  H203  1  0.655800  0.960500  0.519800  1
  H  H204  1  0.844200  0.039500  0.019800  1
  H  H205  1  0.291800  0.534500  0.491100  1
  H  H206  1  0.208200  0.465500  0.991100  1
  H  H207  1  0.791800  0.965500  0.508900  1
  H  H208  1  0.708200  0.034500  0.008900  1
  H  H209  1  0.248500  0.530900  0.527800  1
  H  H210  1  0.251500  0.469100  0.027800  1
  H  H211  1  0.748500  0.969100  0.472200  1
  H  H212  1  0.751500  0.030900  0.972200  1
  H  H213  1  0.399200  0.531400  0.571400  1
  H  H214  1  0.100800  0.468600  0.071400  1
  H  H215  1  0.899200  0.968600  0.428600  1
  H  H216  1  0.600800  0.031400  0.928600  1
  H  H217  1  0.401400  0.514600  0.638600  1
  H  H218  1  0.098600  0.485400  0.138600  1
  H  H219  1  0.901400  0.985400  0.361400  1
  H  H220  1  0.598600  0.014600  0.861400  1
  H  H221  1  0.371100  0.531900  0.700800  1
  H  H222  1  0.128900  0.468100  0.200800  1
  H  H223  1  0.871100  0.968100  0.299200  1
  H  H224  1  0.628900  0.031900  0.799200  1
  H  H225  1  0.293100  0.576000  0.741400  1
  H  H226  1  0.206900  0.424000  0.241400  1
  H  H227  1  0.793100  0.924000  0.258600  1
  H  H228  1  0.706900  0.076000  0.758600  1
  H  H229  1  0.208300  0.621300  0.717400  1
  H  H230  1  0.291700  0.378700  0.217400  1
  H  H231  1  0.708300  0.878700  0.282600  1
  H  H232  1  0.791700  0.121300  0.782600  1
  H  H233  1  0.195200  0.630800  0.653000  1
  H  H234  1  0.304800  0.369200  0.153000  1
  H  H235  1  0.695200  0.869200  0.347000  1
  H  H236  1  0.804800  0.130800  0.847000  1
  H  H237  1  0.185100  0.748800  0.540300  1
  H  H238  1  0.314900  0.251200  0.040300  1
  H  H239  1  0.685100  0.751200  0.459700  1
  H  H240  1  0.814900  0.248800  0.959700  1
  H  H241  1  0.085000  0.716900  0.543800  1
  H  H242  1  0.415000  0.283100  0.043800  1
  H  H243  1  0.585000  0.783100  0.456200  1
  H  H244  1  0.915000  0.216900  0.956200  1
  H  H245  1  0.015000  0.636400  0.551900  1
  H  H246  1  0.485000  0.363600  0.051900  1
  H  H247  1  0.515000  0.863600  0.448100  1
  H  H248  1  0.985000  0.136400  0.948100  1
  H  H249  1  0.989800  0.553100  0.584700  1
  H  H250  1  0.510200  0.446900  0.084700  1
  H  H251  1  0.489800  0.946900  0.415300  1
  H  H252  1  0.010200  0.053100  0.915300  1
  H  H253  1  0.076600  0.491300  0.593400  1
  H  H254  1  0.423400  0.508700  0.093400  1
  H  H255  1  0.576600  0.008700  0.406600  1
  H  H256  1  0.923400  0.991300  0.906600  1
  H  H257  1  0.173200  0.529600  0.607100  1
  H  H258  1  0.326800  0.470400  0.107100  1
  H  H259  1  0.673200  0.970400  0.392900  1
  H  H260  1  0.826800  0.029600  0.892900  1
  H  H261  1  0.881200  0.563900  0.620700  1
  H  H262  1  0.618800  0.436100  0.120700  1
  H  H263  1  0.381200  0.936100  0.379300  1
  H  H264  1  0.118800  0.063900  0.879300  1
  H  H265  1  0.783800  0.615500  0.639500  1
  H  H266  1  0.716200  0.384500  0.139500  1
  H  H267  1  0.283800  0.884500  0.360500  1
  H  H268  1  0.216200  0.115500  0.860500  1
  H  H269  1  0.704600  0.579000  0.592900  1
  H  H270  1  0.795400  0.421000  0.092900  1
  H  H271  1  0.204600  0.921000  0.407100  1
  H  H272  1  0.295400  0.079000  0.907100  1
  H  H273  1  0.889700  0.366000  0.603100  1
  H  H274  1  0.610300  0.634000  0.103100  1
  H  H275  1  0.389700  0.134000  0.396900  1
  H  H276  1  0.110300  0.866000  0.896900  1
  H  H277  1  0.803600  0.297000  0.601700  1
  H  H278  1  0.696400  0.703000  0.101700  1
  H  H279  1  0.303600  0.203000  0.398300  1
  H  H280  1  0.196400  0.797000  0.898300  1
  H  H281  1  0.718000  0.344500  0.564400  1
  H  H282  1  0.782000  0.655500  0.064400  1
  H  H283  1  0.218000  0.155500  0.435600  1
  H  H284  1  0.282000  0.844500  0.935600  1
  H  H285  1  0.952700  0.489400  0.504300  1
  H  H286  1  0.547300  0.510600  0.004300  1
  H  H287  1  0.452700  0.010600  0.495700  1
  H  H288  1  0.047300  0.989400  0.995700  1
  H  H289  1  0.904300  0.502900  0.439000  1
  H  H290  1  0.595700  0.497100  0.939000  1
  H  H291  1  0.404300  0.997100  0.561000  1
  H  H292  1  0.095700  0.002900  0.061000  1
  H  H293  1  0.789400  0.496500  0.450800  1
  H  H294  1  0.710600  0.503500  0.950800  1
  H  H295  1  0.289400  0.003500  0.549200  1
  H  H296  1  0.210600  0.996500  0.049200  1
  H  H297  1  0.510000  0.505700  0.350200  1
  H  H298  1  0.990000  0.494300  0.850200  1
  H  H299  1  0.010000  0.994300  0.649800  1
  H  H300  1  0.490000  0.005700  0.149800  1
  H  H301  1  0.521300  0.513000  0.277200  1
  H  H302  1  0.978700  0.487000  0.777200  1
  H  H303  1  0.021300  0.987000  0.722800  1
  H  H304  1  0.478700  0.013000  0.222800  1
  H  H305  1  0.454100  0.592400  0.257500  1
  H  H306  1  0.045900  0.407600  0.757500  1
  H  H307  1  0.954100  0.907600  0.742500  1
  H  H308  1  0.545900  0.092400  0.242500  1
  H  H309  1  0.267000  0.556500  0.402000  1
  H  H310  1  0.233000  0.443500  0.902000  1
  H  H311  1  0.767000  0.943500  0.598000  1
  H  H312  1  0.733000  0.056500  0.098000  1
  H  H313  1  0.189900  0.587600  0.357200  1
  H  H314  1  0.310100  0.412400  0.857200  1
  H  H315  1  0.689900  0.912400  0.642800  1
  H  H316  1  0.810100  0.087600  0.142800  1
  H  H317  1  0.250200  0.631800  0.301700  1
  H  H318  1  0.249800  0.368200  0.801700  1
  H  H319  1  0.750200  0.868200  0.698300  1
  H  H320  1  0.749800  0.131800  0.198300  1
  H  H321  1  0.472500  0.719100  0.418900  1
  H  H322  1  0.027500  0.280900  0.918900  1
  H  H323  1  0.972500  0.780900  0.581100  1
  H  H324  1  0.527500  0.219100  0.081100  1
  H  H325  1  0.459500  0.800200  0.380100  1
  H  H326  1  0.040500  0.199800  0.880100  1
  H  H327  1  0.959500  0.699800  0.619900  1
  H  H328  1  0.540500  0.300200  0.119900  1
  H  H329  1  0.413900  0.768000  0.320600  1
  H  H330  1  0.086100  0.232000  0.820600  1
  H  H331  1  0.913900  0.732000  0.679400  1
  H  H332  1  0.586100  0.268000  0.179400  1
  H  H333  1  0.336500  0.241100  0.650200  1
  H  H334  1  0.163500  0.758900  0.150200  1
  H  H335  1  0.836500  0.258900  0.349800  1
  H  H336  1  0.663500  0.741100  0.849800  1
  H  H337  1  0.291600  0.336100  0.649900  1
  H  H338  1  0.208400  0.663900  0.149900  1
  H  H339  1  0.791600  0.163900  0.350100  1
  H  H340  1  0.708400  0.836100  0.850100  1
  H  H341  1  0.343300  0.386100  0.595300  1
  H  H342  1  0.156700  0.613900  0.095300  1
  H  H343  1  0.843300  0.113900  0.404700  1
  H  H344  1  0.656700  0.886100  0.904700  1
  H  H345  1  0.399600  0.129000  0.544800  1
  H  H346  1  0.100400  0.871000  0.044800  1
  H  H347  1  0.899600  0.371000  0.455200  1
  H  H348  1  0.600400  0.629000  0.955200  1
  H  H349  1  0.409400  0.148400  0.475600  1
  H  H350  1  0.090600  0.851600  0.975600  1
  H  H351  1  0.909400  0.351600  0.524400  1
  H  H352  1  0.590600  0.648400  0.024400  1
  H  H353  1  0.435000  0.251000  0.467800  1
  H  H354  1  0.065000  0.749000  0.967800  1
  H  H355  1  0.935000  0.249000  0.532200  1
  H  H356  1  0.565000  0.751000  0.032200  1
  H  H357  1  0.559900  0.196000  0.636200  1
  H  H358  1  0.940100  0.804000  0.136200  1
  H  H359  1  0.059900  0.304000  0.363800  1
  H  H360  1  0.440100  0.696000  0.863800  1
  H  H361  1  0.640100  0.264700  0.626400  1
  H  H362  1  0.859900  0.735300  0.126400  1
  H  H363  1  0.140100  0.235300  0.373600  1
  H  H364  1  0.359900  0.764700  0.873600  1
  H  H365  1  0.594900  0.341200  0.586600  1
  H  H366  1  0.905100  0.658800  0.086600  1
  H  H367  1  0.094900  0.158800  0.413400  1
  H  H368  1  0.405100  0.841200  0.913400  1
  H  H369  1  0.675500  0.673000  0.578900  1
  H  H370  1  0.824500  0.327000  0.078900  1
  H  H371  1  0.175500  0.827000  0.421100  1
  H  H372  1  0.324500  0.173000  0.921100  1
  H  H373  1  0.743700  0.731500  0.623300  1
  H  H374  1  0.756300  0.268500  0.123300  1
  H  H375  1  0.243700  0.768500  0.376700  1
  H  H376  1  0.256300  0.231500  0.876700  1
  H  H377  1  0.675800  0.798400  0.655000  1
  H  H378  1  0.824200  0.201600  0.155000  1
  H  H379  1  0.175800  0.701600  0.345000  1
  H  H380  1  0.324200  0.298400  0.845000  1
  H  H381  1  0.491900  0.897400  0.604600  1
  H  H382  1  0.008100  0.102600  0.104600  1
  H  H383  1  0.991900  0.602600  0.395400  1
  H  H384  1  0.508100  0.397400  0.895400  1
  H  H385  1  0.449100  0.892600  0.540600  1
  H  H386  1  0.050900  0.107400  0.040600  1
  H  H387  1  0.949100  0.607400  0.459400  1
  H  H388  1  0.550900  0.392600  0.959400  1
  H  H389  1  0.464500  0.794300  0.519200  1
  H  H390  1  0.035500  0.205700  0.019200  1
  H  H391  1  0.964500  0.705700  0.480800  1
  H  H392  1  0.535500  0.294300  0.980800  1
  H  H393  1  0.470500  0.766000  0.702800  1
  H  H394  1  0.029500  0.234000  0.202800  1
  H  H395  1  0.970500  0.734000  0.297200  1
  H  H396  1  0.529500  0.266000  0.797200  1
  H  H397  1  0.405200  0.677600  0.698800  1
  H  H398  1  0.094800  0.322400  0.198800  1
  H  H399  1  0.905200  0.822400  0.301200  1
  H  H400  1  0.594800  0.177600  0.801200  1
  H  H401  1  0.424300  0.639100  0.632800  1
  H  H402  1  0.075700  0.360900  0.132800  1
  H  H403  1  0.924300  0.860900  0.367200  1
  H  H404  1  0.575700  0.139100  0.867200  1
  H  H405  1  0.910200  0.470400  0.577700  1
  H  H406  1  0.589800  0.529600  0.077700  1
  H  H407  1  0.410200  0.029600  0.422300  1
  H  H408  1  0.089800  0.970400  0.922300  1
  H  H409  1  0.375700  0.663600  0.292200  1
  H  H410  1  0.124300  0.336400  0.792200  1
  H  H411  1  0.875700  0.836400  0.707800  1
  H  H412  1  0.624300  0.163600  0.207800  1
  H  H413  1  0.428600  0.187500  0.609400  1
  H  H414  1  0.071400  0.812500  0.109400  1
  H  H415  1  0.928600  0.312500  0.390600  1
  H  H416  1  0.571400  0.687500  0.890600  1
  H  H417  1  0.545700  0.819900  0.654400  1
  H  H418  1  0.954300  0.180100  0.154400  1
  H  H419  1  0.045700  0.680100  0.345600  1
  H  H420  1  0.454300  0.319900  0.845600  1
  H  H421  1  0.412100  0.365800  0.326900  1
  H  H422  1  0.087900  0.634200  0.826900  1
  H  H423  1  0.912100  0.134200  0.673100  1
  H  H424  1  0.587900  0.865800  0.173100  1
  H  H425  1  0.428900  0.430300  0.332500  1
  H  H426  1  0.071100  0.569700  0.832500  1
  H  H427  1  0.928900  0.069700  0.667500  1
  H  H428  1  0.571100  0.930300  0.167500  1
  H  H429  1  0.434700  0.402300  0.291500  1
  H  H430  1  0.065300  0.597700  0.791500  1
  H  H431  1  0.934700  0.097700  0.708500  1
  H  H432  1  0.565300  0.902300  0.208500  1
  H  H433  1  0.349600  0.497900  0.318500  1
  H  H434  1  0.150400  0.502100  0.818500  1
  H  H435  1  0.849600  0.002100  0.681500  1
  H  H436  1  0.650400  0.997900  0.181500  1
  H  H437  1  0.318400  0.461100  0.351200  1
  H  H438  1  0.181600  0.538900  0.851200  1
  H  H439  1  0.818400  0.038900  0.648800  1
  H  H440  1  0.681600  0.961100  0.148800  1
  H  H441  1  0.279900  0.476500  0.313900  1
  H  H442  1  0.220100  0.523500  0.813900  1
  H  H443  1  0.779900  0.023500  0.686100  1
  H  H444  1  0.720100  0.976500  0.186100  1
  H  H445  1  0.776400  0.527700  0.386600  1
  H  H446  1  0.723600  0.472300  0.886600  1
  H  H447  1  0.276400  0.972300  0.613400  1
  H  H448  1  0.223600  0.027700  0.113400  1
  H  H449  1  0.793000  0.523000  0.342500  1
  H  H450  1  0.707000  0.477000  0.842500  1
  H  H451  1  0.293000  0.977000  0.657500  1
  H  H452  1  0.207000  0.023000  0.157500  1
  H  H453  1  0.847100  0.522500  0.373500  1
  H  H454  1  0.652900  0.477500  0.873500  1
  H  H455  1  0.347100  0.977500  0.626500  1
  H  H456  1  0.152900  0.022500  0.126500  1
  H  H457  1  0.832200  0.373900  0.344300  1
  H  H458  1  0.667800  0.626100  0.844300  1
  H  H459  1  0.332200  0.126100  0.655700  1
  H  H460  1  0.167800  0.873900  0.155700  1
  H  H461  1  0.885000  0.420400  0.347500  1
  H  H462  1  0.615000  0.579600  0.847500  1
  H  H463  1  0.385000  0.079600  0.652500  1
  H  H464  1  0.115000  0.920400  0.152500  1
  H  H465  1  0.832200  0.425900  0.315900  1
  H  H466  1  0.667800  0.574100  0.815900  1
  H  H467  1  0.332200  0.074100  0.684100  1
  H  H468  1  0.167800  0.925900  0.184100  1
  H  H469  1  0.748400  0.489500  0.678000  1
  H  H470  1  0.751600  0.510500  0.178000  1
  H  H471  1  0.248400  0.010500  0.322000  1
  H  H472  1  0.251600  0.989500  0.822000  1
  H  H473  1  0.715300  0.463200  0.641600  1
  H  H474  1  0.784700  0.536800  0.141600  1
  H  H475  1  0.215300  0.036800  0.358400  1
  H  H476  1  0.284700  0.963200  0.858400  1
  H  H477  1  0.784000  0.444500  0.652700  1
  H  H478  1  0.716000  0.555500  0.152700  1
  H  H479  1  0.284000  0.055500  0.347300  1
  H  H480  1  0.216000  0.944500  0.847300  1
  H  H481  1  0.682300  0.347900  0.654100  1
  H  H482  1  0.817700  0.652100  0.154100  1
  H  H483  1  0.182300  0.152100  0.345900  1
  H  H484  1  0.317700  0.847900  0.845900  1
  H  H485  1  0.641200  0.403400  0.654200  1
  H  H486  1  0.858800  0.596600  0.154200  1
  H  H487  1  0.141200  0.096600  0.345800  1
  H  H488  1  0.358800  0.903400  0.845800  1
  H  H489  1  0.639800  0.362200  0.689900  1
  H  H490  1  0.860200  0.637800  0.189900  1
  H  H491  1  0.139800  0.137800  0.310100  1
  H  H492  1  0.360200  0.862200  0.810100  1
  H  H493  1  0.361100  0.818900  0.627800  1
  H  H494  1  0.138900  0.181100  0.127800  1
  H  H495  1  0.861100  0.681100  0.372200  1
  H  H496  1  0.638900  0.318900  0.872200  1
  H  H497  1  0.372200  0.830500  0.671900  1
  H  H498  1  0.127800  0.169500  0.171900  1
  H  H499  1  0.872200  0.669500  0.328100  1
  H  H500  1  0.627800  0.330500  0.828100  1
  H  H501  1  0.315600  0.859600  0.650400  1
  H  H502  1  0.184400  0.140400  0.150400  1
  H  H503  1  0.815600  0.640400  0.349600  1
  H  H504  1  0.684400  0.359600  0.849600  1
  H  H505  1  0.234700  0.754200  0.703000  1
  H  H506  1  0.265300  0.245800  0.203000  1
  H  H507  1  0.734700  0.745800  0.297000  1
  H  H508  1  0.765300  0.254200  0.797000  1
  H  H509  1  0.277000  0.807000  0.713000  1
  H  H510  1  0.223000  0.193000  0.213000  1
  H  H511  1  0.777000  0.693000  0.287000  1
  H  H512  1  0.723000  0.307000  0.787000  1
  H  H513  1  0.304900  0.745400  0.716000  1
  H  H514  1  0.195100  0.254600  0.216000  1
  H  H515  1  0.804900  0.754600  0.284000  1
  H  H516  1  0.695100  0.245400  0.784000  1
  H  H517  1  0.532100  0.665100  0.336500  1
  H  H518  1  0.967900  0.334900  0.836500  1
  H  H519  1  0.032100  0.834900  0.663500  1
  H  H520  1  0.467900  0.165100  0.163500  1
  H  H521  1  0.602100  0.663000  0.351100  1
  H  H522  1  0.897900  0.337000  0.851100  1
  H  H523  1  0.102100  0.837000  0.648900  1
  H  H524  1  0.397900  0.163000  0.148900  1
  H  H525  1  0.586900  0.651700  0.307400  1
  H  H526  1  0.913100  0.348300  0.807400  1
  H  H527  1  0.086900  0.848300  0.692600  1
  H  H528  1  0.413100  0.151700  0.192600  1
  H  H529  1  0.603400  0.807700  0.348100  1
  H  H530  1  0.896600  0.192300  0.848100  1
  H  H531  1  0.103400  0.692300  0.651900  1
  H  H532  1  0.396600  0.307700  0.151900  1
  H  H533  1  0.660300  0.765200  0.346400  1
  H  H534  1  0.839700  0.234800  0.846400  1
  H  H535  1  0.160300  0.734800  0.653600  1
  H  H536  1  0.339700  0.265200  0.153600  1
  H  H537  1  0.605300  0.755100  0.375900  1
  H  H538  1  0.894700  0.244900  0.875900  1
  H  H539  1  0.105300  0.744900  0.624100  1
  H  H540  1  0.394700  0.255100  0.124100  1
  H  H541  1  0.394700  0.509900  0.484300  1
  H  H542  1  0.105300  0.490100  0.984300  1
  H  H543  1  0.894700  0.990100  0.515700  1
  H  H544  1  0.605300  0.009900  0.015700  1
  H  H545  1  0.397900  0.487300  0.518800  1
  H  H546  1  0.102100  0.512700  0.018800  1
  H  H547  1  0.897900  0.012700  0.481200  1
  H  H548  1  0.602100  0.987300  0.981200  1
  H  H549  1  0.527400  0.442700  0.501800  1
  H  H550  1  0.972600  0.557300  0.001800  1
  H  H551  1  0.027400  0.057300  0.498200  1
  H  H552  1  0.472600  0.942700  0.998200  1
  H  H553  1  0.506500  0.484900  0.484200  1
  H  H554  1  0.993500  0.515100  0.984200  1
  H  H555  1  0.006500  0.015100  0.515800  1
  H  H556  1  0.493500  0.984900  0.015800  1
  H  H557  1  0.446600  0.565800  0.486800  1
  H  H558  1  0.053400  0.434200  0.986800  1
  H  H559  1  0.946600  0.934200  0.513200  1
  H  H560  1  0.553400  0.065800  0.013200  1
  H  H561  1  0.465700  0.565700  0.522800  1
  H  H562  1  0.034300  0.434300  0.022800  1
  H  H563  1  0.965700  0.934300  0.477200  1
  H  H564  1  0.534300  0.065700  0.977200  1
  C  C565  1  0.605600  0.421300  0.395200  1
  C  C566  1  0.894400  0.578700  0.895200  1
  C  C567  1  0.105600  0.078700  0.604800  1
  C  C568  1  0.394400  0.921300  0.104800  1
  C  C569  1  0.606700  0.482500  0.399400  1
  C  C570  1  0.893300  0.517500  0.899400  1
  C  C571  1  0.106700  0.017500  0.600600  1
  C  C572  1  0.393300  0.982500  0.100600  1
  C  C573  1  0.630000  0.514400  0.370900  1
  C  C574  1  0.870000  0.485600  0.870900  1
  C  C575  1  0.130000  0.985600  0.629100  1
  C  C576  1  0.370000  0.014400  0.129100  1
  C  C577  1  0.649300  0.491600  0.336400  1
  C  C578  1  0.850700  0.508400  0.836400  1
  C  C579  1  0.149300  0.008400  0.663600  1
  C  C580  1  0.350700  0.991600  0.163600  1
  C  C581  1  0.674400  0.526700  0.308900  1
  C  C582  1  0.825600  0.473300  0.808900  1
  C  C583  1  0.174400  0.973300  0.691100  1
  C  C584  1  0.325600  0.026700  0.191100  1
  C  C585  1  0.695300  0.503600  0.277000  1
  C  C586  1  0.804700  0.496400  0.777000  1
  C  C587  1  0.195300  0.996400  0.723000  1
  C  C588  1  0.304700  0.003600  0.223000  1
  C  C589  1  0.698200  0.443700  0.271300  1
  C  C590  1  0.801800  0.556300  0.771300  1
  C  C591  1  0.198200  0.056300  0.728700  1
  C  C592  1  0.301800  0.943700  0.228700  1
  C  C593  1  0.678700  0.410600  0.299100  1
  C  C594  1  0.821300  0.589400  0.799100  1
  C  C595  1  0.178700  0.089400  0.700900  1
  C  C596  1  0.321300  0.910600  0.200900  1
  C  C597  1  0.653100  0.433100  0.333200  1
  C  C598  1  0.846900  0.566900  0.833200  1
  C  C599  1  0.153100  0.066900  0.666800  1
  C  C600  1  0.346900  0.933100  0.166800  1
  C  C601  1  0.627800  0.397400  0.361200  1
  C  C602  1  0.872200  0.602600  0.861200  1
  C  C603  1  0.127800  0.102600  0.638800  1
  C  C604  1  0.372200  0.897400  0.138800  1
  C  C605  1  0.633700  0.335400  0.359100  1
  C  C606  1  0.866300  0.664600  0.859100  1
  C  C607  1  0.133700  0.164600  0.640900  1
  C  C608  1  0.366300  0.835400  0.140900  1
  C  C609  1  0.603900  0.304000  0.329600  1
  C  C610  1  0.896100  0.696000  0.829600  1
  C  C611  1  0.103900  0.196000  0.670400  1
  C  C612  1  0.396100  0.804000  0.170400  1
  C  C613  1  0.556000  0.328900  0.306600  1
  C  C614  1  0.944000  0.671100  0.806600  1
  C  C615  1  0.056000  0.171100  0.693400  1
  C  C616  1  0.444000  0.828900  0.193400  1
  C  C617  1  0.527400  0.297000  0.278900  1
  C  C618  1  0.972600  0.703000  0.778900  1
  C  C619  1  0.027400  0.203000  0.721100  1
  C  C620  1  0.472600  0.797000  0.221100  1
  C  C621  1  0.541000  0.241700  0.271700  1
  C  C622  1  0.959000  0.758300  0.771700  1
  C  C623  1  0.041000  0.258300  0.728300  1
  C  C624  1  0.459000  0.741700  0.228300  1
  C  C625  1  0.581000  0.216300  0.297900  1
  C  C626  1  0.919000  0.783700  0.797900  1
  C  C627  1  0.081000  0.283700  0.702100  1
  C  C628  1  0.419000  0.716300  0.202100  1
  C  C629  1  0.613200  0.247800  0.322800  1
  C  C630  1  0.886800  0.752200  0.822800  1
  C  C631  1  0.113200  0.252200  0.677200  1
  C  C632  1  0.386800  0.747800  0.177200  1
  C  C633  1  0.657600  0.220400  0.348800  1
  C  C634  1  0.842400  0.779600  0.848800  1
  C  C635  1  0.157600  0.279600  0.651200  1
  C  C636  1  0.342400  0.720400  0.151200  1
  C  C637  1  0.685400  0.248700  0.377500  1
  C  C638  1  0.814600  0.751300  0.877500  1
  C  C639  1  0.185400  0.251300  0.622500  1
  C  C640  1  0.314600  0.748700  0.122500  1
  C  C641  1  0.673400  0.305500  0.382600  1
  C  C642  1  0.826600  0.694500  0.882600  1
  C  C643  1  0.173400  0.194500  0.617400  1
  C  C644  1  0.326600  0.805500  0.117400  1
  C  C645  1  0.750700  0.314800  0.435800  1
  C  C646  1  0.749300  0.685200  0.935800  1
  C  C647  1  0.250700  0.185200  0.564200  1
  C  C648  1  0.249300  0.814800  0.064200  1
  C  C649  1  0.734800  0.279000  0.466400  1
  C  C650  1  0.765200  0.721000  0.966400  1
  C  C651  1  0.234800  0.221000  0.533600  1
  C  C652  1  0.265200  0.779000  0.033600  1
  C  C653  1  0.777900  0.242100  0.484700  1
  C  C654  1  0.722100  0.757900  0.984700  1
  C  C655  1  0.277900  0.257900  0.515300  1
  C  C656  1  0.222100  0.742100  0.015300  1
  C  C657  1  0.762100  0.213400  0.518200  1
  C  C658  1  0.737900  0.786600  0.018200  1
  C  C659  1  0.262100  0.286600  0.481800  1
  C  C660  1  0.237900  0.713400  0.981800  1
  C  C661  1  0.702400  0.221900  0.532400  1
  C  C662  1  0.797600  0.778100  0.032400  1
  C  C663  1  0.202400  0.278100  0.467600  1
  C  C664  1  0.297600  0.721900  0.967600  1
  C  C665  1  0.660200  0.255700  0.512800  1
  C  C666  1  0.839800  0.744300  0.012800  1
  C  C667  1  0.160200  0.244300  0.487200  1
  C  C668  1  0.339800  0.755700  0.987200  1
  C  C669  1  0.517100  0.367000  0.416300  1
  C  C670  1  0.982900  0.633000  0.916300  1
  C  C671  1  0.017100  0.133000  0.583700  1
  C  C672  1  0.482900  0.867000  0.083700  1
  C  C673  1  0.524900  0.308000  0.412800  1
  C  C674  1  0.975100  0.692000  0.912800  1
  C  C675  1  0.024900  0.192000  0.587200  1
  C  C676  1  0.475100  0.808000  0.087200  1
  C  C677  1  0.484600  0.277100  0.392200  1
  C  C678  1  0.015400  0.722900  0.892200  1
  C  C679  1  0.984600  0.222900  0.607800  1
  C  C680  1  0.515400  0.777100  0.107800  1
  C  C681  1  0.486100  0.222700  0.393600  1
  C  C682  1  0.013900  0.777300  0.893600  1
  C  C683  1  0.986100  0.277300  0.606400  1
  C  C684  1  0.513900  0.722700  0.106400  1
  C  C685  1  0.533900  0.193300  0.412100  1
  C  C686  1  0.966100  0.806700  0.912100  1
  C  C687  1  0.033900  0.306700  0.587900  1
  C  C688  1  0.466100  0.693300  0.087900  1
  C  C689  1  0.578700  0.226100  0.431200  1
  C  C690  1  0.921300  0.773900  0.931200  1
  C  C691  1  0.078700  0.273900  0.568800  1
  C  C692  1  0.421300  0.726100  0.068800  1
  C  C693  1  0.337700  0.754700  0.459700  1
  C  C694  1  0.162300  0.245300  0.959700  1
  C  C695  1  0.837700  0.745300  0.540300  1
  C  C696  1  0.662300  0.254700  0.040300  1
  C  C697  1  0.336800  0.812500  0.450000  1
  C  C698  1  0.163200  0.187500  0.950000  1
  C  C699  1  0.836800  0.687500  0.550000  1
  C  C700  1  0.663200  0.312500  0.050000  1
  C  C701  1  0.322500  0.851400  0.476200  1
  C  C702  1  0.177500  0.148600  0.976200  1
  C  C703  1  0.822500  0.648600  0.523800  1
  C  C704  1  0.677500  0.351400  0.023800  1
  C  C705  1  0.309300  0.834800  0.512900  1
  C  C706  1  0.190700  0.165200  0.012900  1
  C  C707  1  0.809300  0.665200  0.487100  1
  C  C708  1  0.690700  0.334800  0.987100  1
  C  C709  1  0.312900  0.779900  0.521500  1
  C  C710  1  0.187100  0.220100  0.021500  1
  C  C711  1  0.812900  0.720100  0.478500  1
  C  C712  1  0.687100  0.279900  0.978500  1
  C  C713  1  0.303700  0.758800  0.561200  1
  C  C714  1  0.196300  0.241200  0.061200  1
  C  C715  1  0.803700  0.741200  0.438800  1
  C  C716  1  0.696300  0.258800  0.938800  1
  C  C717  1  0.209200  0.683700  0.470300  1
  C  C718  1  0.290800  0.316300  0.970300  1
  C  C719  1  0.709200  0.816300  0.529700  1
  C  C720  1  0.790800  0.183700  0.029700  1
  C  C721  1  0.153900  0.669000  0.455100  1
  C  C722  1  0.346100  0.331000  0.955100  1
  C  C723  1  0.653900  0.831000  0.544900  1
  C  C724  1  0.846100  0.169000  0.044900  1
  C  C725  1  0.131900  0.613700  0.459300  1
  C  C726  1  0.368100  0.386300  0.959300  1
  C  C727  1  0.631900  0.886300  0.540700  1
  C  C728  1  0.868100  0.113700  0.040700  1
  C  C729  1  0.168500  0.577300  0.477500  1
  C  C730  1  0.331500  0.422700  0.977500  1
  C  C731  1  0.668500  0.922700  0.522500  1
  C  C732  1  0.831500  0.077300  0.022500  1
  C  C733  1  0.226000  0.595100  0.492700  1
  C  C734  1  0.274000  0.404900  0.992700  1
  C  C735  1  0.726000  0.904900  0.507300  1
  C  C736  1  0.774000  0.095100  0.007300  1
  C  C737  1  0.271100  0.556900  0.511000  1
  C  C738  1  0.228900  0.443100  0.011000  1
  C  C739  1  0.771100  0.943100  0.489000  1
  C  C740  1  0.728900  0.056900  0.989000  1
  C  C741  1  0.319900  0.577000  0.573000  1
  C  C742  1  0.180100  0.423000  0.073000  1
  C  C743  1  0.819900  0.923000  0.427000  1
  C  C744  1  0.680100  0.077000  0.927000  1
  C  C745  1  0.368000  0.546100  0.587400  1
  C  C746  1  0.132000  0.453900  0.087400  1
  C  C747  1  0.868000  0.953900  0.412600  1
  C  C748  1  0.632000  0.046100  0.912600  1
  C  C749  1  0.369500  0.536900  0.628000  1
  C  C750  1  0.130500  0.463100  0.128000  1
  C  C751  1  0.869500  0.963100  0.372000  1
  C  C752  1  0.630500  0.036900  0.872000  1
  C  C753  1  0.324900  0.560000  0.651600  1
  C  C754  1  0.175100  0.440000  0.151600  1
  C  C755  1  0.824900  0.940000  0.348400  1
  C  C756  1  0.675100  0.060000  0.848400  1
  C  C757  1  0.336600  0.551900  0.691100  1
  C  C758  1  0.163400  0.448100  0.191100  1
  C  C759  1  0.836600  0.948100  0.308900  1
  C  C760  1  0.663400  0.051900  0.808900  1
  C  C761  1  0.288700  0.578200  0.714600  1
  C  C762  1  0.211300  0.421800  0.214600  1
  C  C763  1  0.788700  0.921800  0.285400  1
  C  C764  1  0.711300  0.078200  0.785400  1
  C  C765  1  0.238000  0.605800  0.700500  1
  C  C766  1  0.262000  0.394200  0.200500  1
  C  C767  1  0.738000  0.894200  0.299500  1
  C  C768  1  0.762000  0.105800  0.799500  1
  C  C769  1  0.230100  0.611000  0.662300  1
  C  C770  1  0.269900  0.389000  0.162300  1
  C  C771  1  0.730100  0.889000  0.337700  1
  C  C772  1  0.769900  0.111000  0.837700  1
  C  C773  1  0.274400  0.586700  0.635400  1
  C  C774  1  0.225600  0.413300  0.135400  1
  C  C775  1  0.774400  0.913300  0.364600  1
  C  C776  1  0.725600  0.086700  0.864600  1
  C  C777  1  0.269000  0.595300  0.596700  1
  C  C778  1  0.231000  0.404700  0.096700  1
  C  C779  1  0.769000  0.904700  0.403300  1
  C  C780  1  0.731000  0.095300  0.903300  1
  C  C781  1  0.216300  0.627900  0.580400  1
  C  C782  1  0.283700  0.372100  0.080400  1
  C  C783  1  0.716300  0.872100  0.419600  1
  C  C784  1  0.783700  0.127900  0.919600  1
  C  C785  1  0.226700  0.680800  0.564400  1
  C  C786  1  0.273300  0.319200  0.064400  1
  C  C787  1  0.726700  0.819200  0.435600  1
  C  C788  1  0.773300  0.180800  0.935600  1
  C  C789  1  0.177100  0.713000  0.550700  1
  C  C790  1  0.322900  0.287000  0.050700  1
  C  C791  1  0.677100  0.787000  0.449300  1
  C  C792  1  0.822900  0.213000  0.949300  1
  C  C793  1  0.117800  0.693700  0.552300  1
  C  C794  1  0.382200  0.306300  0.052300  1
  C  C795  1  0.617800  0.806300  0.447700  1
  C  C796  1  0.882200  0.193700  0.947700  1
  C  C797  1  0.104100  0.639900  0.566400  1
  C  C798  1  0.395900  0.360100  0.066400  1
  C  C799  1  0.604100  0.860100  0.433600  1
  C  C800  1  0.895900  0.139900  0.933600  1
  C  C801  1  0.046700  0.616400  0.564700  1
  C  C802  1  0.453300  0.383600  0.064700  1
  C  C803  1  0.546700  0.883600  0.435300  1
  C  C804  1  0.953300  0.116400  0.935300  1
  C  C805  1  0.031300  0.564500  0.580600  1
  C  C806  1  0.468700  0.435500  0.080600  1
  C  C807  1  0.531300  0.935500  0.419400  1
  C  C808  1  0.968700  0.064500  0.919400  1
  C  C809  1  0.083100  0.530200  0.590200  1
  C  C810  1  0.416900  0.469800  0.090200  1
  C  C811  1  0.583100  0.969800  0.409800  1
  C  C812  1  0.916900  0.030200  0.909800  1
  C  C813  1  0.142000  0.551000  0.594900  1
  C  C814  1  0.358000  0.449000  0.094900  1
  C  C815  1  0.642000  0.949000  0.405100  1
  C  C816  1  0.858000  0.051000  0.905100  1
  C  C817  1  0.154700  0.605600  0.580900  1
  C  C818  1  0.345300  0.394400  0.080900  1
  C  C819  1  0.654700  0.894400  0.419100  1
  C  C820  1  0.845300  0.105600  0.919100  1
  C  C821  1  0.841000  0.557400  0.610700  1
  C  C822  1  0.659000  0.442600  0.110700  1
  C  C823  1  0.341000  0.942600  0.389300  1
  C  C824  1  0.159000  0.057400  0.889300  1
  C  C825  1  0.788900  0.587700  0.620600  1
  C  C826  1  0.711100  0.412300  0.120600  1
  C  C827  1  0.288900  0.912300  0.379400  1
  C  C828  1  0.211100  0.087700  0.879400  1
  C  C829  1  0.745900  0.565700  0.594800  1
  C  C830  1  0.754100  0.434300  0.094800  1
  C  C831  1  0.245900  0.934300  0.405200  1
  C  C832  1  0.254100  0.065700  0.905200  1
  C  C833  1  0.850400  0.371900  0.591900  1
  C  C834  1  0.649600  0.628100  0.091900  1
  C  C835  1  0.350400  0.128100  0.408100  1
  C  C836  1  0.149600  0.871900  0.908100  1
  C  C837  1  0.804100  0.333400  0.591000  1
  C  C838  1  0.695900  0.666600  0.091000  1
  C  C839  1  0.304100  0.166600  0.409000  1
  C  C840  1  0.195900  0.833400  0.909000  1
  C  C841  1  0.756900  0.360700  0.570400  1
  C  C842  1  0.743100  0.639300  0.070400  1
  C  C843  1  0.256900  0.139300  0.429600  1
  C  C844  1  0.243100  0.860700  0.929600  1
  C  C845  1  0.909700  0.489500  0.498700  1
  C  C846  1  0.590300  0.510500  0.998700  1
  C  C847  1  0.409700  0.010500  0.501300  1
  C  C848  1  0.090300  0.989500  0.001300  1
  C  C849  1  0.883800  0.496900  0.462500  1
  C  C850  1  0.616200  0.503100  0.962500  1
  C  C851  1  0.383800  0.003100  0.537500  1
  C  C852  1  0.116200  0.996900  0.037500  1
  C  C853  1  0.820500  0.493200  0.469600  1
  C  C854  1  0.679500  0.506800  0.969600  1
  C  C855  1  0.320500  0.006800  0.530400  1
  C  C856  1  0.179500  0.993200  0.030400  1
  C  C857  1  0.662500  0.467900  0.566900  1
  C  C858  1  0.837500  0.532100  0.066900  1
  C  C859  1  0.162500  0.032100  0.433100  1
  C  C860  1  0.337500  0.967900  0.933100  1
  C  C861  1  0.690000  0.531600  0.510500  1
  C  C862  1  0.810000  0.468400  0.010500  1
  C  C863  1  0.190000  0.968400  0.489500  1
  C  C864  1  0.310000  0.031600  0.989500  1
  C  C865  1  0.696100  0.425800  0.499400  1
  C  C866  1  0.803900  0.574200  0.999400  1
  C  C867  1  0.196100  0.074200  0.500600  1
  C  C868  1  0.303900  0.925800  0.000600  1
  C  C869  1  0.489900  0.531700  0.334100  1
  C  C870  1  0.010100  0.468300  0.834100  1
  C  C871  1  0.989900  0.968300  0.665900  1
  C  C872  1  0.510100  0.031700  0.165900  1
  C  C873  1  0.496400  0.535700  0.293100  1
  C  C874  1  0.003600  0.464300  0.793100  1
  C  C875  1  0.996400  0.964300  0.706900  1
  C  C876  1  0.503600  0.035700  0.206900  1
  C  C877  1  0.459400  0.578800  0.282600  1
  C  C878  1  0.040600  0.421200  0.782600  1
  C  C879  1  0.959400  0.921200  0.717400  1
  C  C880  1  0.540600  0.078800  0.217400  1
  C  C881  1  0.276200  0.578600  0.380400  1
  C  C882  1  0.223800  0.421400  0.880400  1
  C  C883  1  0.776200  0.921400  0.619600  1
  C  C884  1  0.723800  0.078600  0.119600  1
  C  C885  1  0.233300  0.593200  0.355400  1
  C  C886  1  0.266700  0.406800  0.855400  1
  C  C887  1  0.733300  0.906800  0.644600  1
  C  C888  1  0.766700  0.093200  0.144600  1
  C  C889  1  0.266300  0.619000  0.325200  1
  C  C890  1  0.233700  0.381000  0.825200  1
  C  C891  1  0.766300  0.881000  0.674800  1
  C  C892  1  0.733700  0.119000  0.174800  1
  C  C893  1  0.452700  0.718300  0.394900  1
  C  C894  1  0.047300  0.281700  0.894900  1
  C  C895  1  0.952700  0.781700  0.605100  1
  C  C896  1  0.547300  0.218300  0.105100  1
  C  C897  1  0.447600  0.763200  0.373800  1
  C  C898  1  0.052400  0.236800  0.873800  1
  C  C899  1  0.947600  0.736800  0.626200  1
  C  C900  1  0.552400  0.263200  0.126200  1
  C  C901  1  0.422500  0.746000  0.342400  1
  C  C902  1  0.077500  0.254000  0.842400  1
  C  C903  1  0.922500  0.754000  0.657600  1
  C  C904  1  0.577500  0.246000  0.157600  1
  C  C905  1  0.494200  0.592900  0.420800  1
  C  C906  1  0.005800  0.407100  0.920800  1
  C  C907  1  0.994200  0.907100  0.579200  1
  C  C908  1  0.505800  0.092900  0.079200  1
  C  C909  1  0.401700  0.518400  0.410900  1
  C  C910  1  0.098300  0.481600  0.910900  1
  C  C911  1  0.901700  0.981600  0.589100  1
  C  C912  1  0.598300  0.018400  0.089100  1
  C  C913  1  0.383500  0.616700  0.440200  1
  C  C914  1  0.116500  0.383300  0.940200  1
  C  C915  1  0.883500  0.883300  0.559800  1
  C  C916  1  0.616500  0.116700  0.059800  1
  C  C917  1  0.347100  0.270300  0.633200  1
  C  C918  1  0.152900  0.729700  0.133200  1
  C  C919  1  0.847100  0.229700  0.366800  1
  C  C920  1  0.652900  0.770300  0.866800  1
  C  C921  1  0.322100  0.321500  0.633300  1
  C  C922  1  0.177900  0.678500  0.133300  1
  C  C923  1  0.822100  0.178500  0.366700  1
  C  C924  1  0.677900  0.821500  0.866700  1
  C  C925  1  0.351800  0.348900  0.602800  1
  C  C926  1  0.148200  0.651100  0.102800  1
  C  C927  1  0.851800  0.151100  0.397200  1
  C  C928  1  0.648200  0.848900  0.897200  1
  C  C929  1  0.412000  0.163200  0.533600  1
  C  C930  1  0.088000  0.836800  0.033600  1
  C  C931  1  0.912000  0.336800  0.466400  1
  C  C932  1  0.588000  0.663200  0.966400  1
  C  C933  1  0.415800  0.174500  0.495500  1
  C  C934  1  0.084200  0.825500  0.995500  1
  C  C935  1  0.915800  0.325500  0.504500  1
  C  C936  1  0.584200  0.674500  0.004500  1
  C  C937  1  0.430900  0.231100  0.490900  1
  C  C938  1  0.069100  0.768900  0.990900  1
  C  C939  1  0.930900  0.268900  0.509100  1
  C  C940  1  0.569100  0.731100  0.009100  1
  C  C941  1  0.555800  0.228900  0.621300  1
  C  C942  1  0.944200  0.771100  0.121300  1
  C  C943  1  0.055800  0.271100  0.378700  1
  C  C944  1  0.444200  0.728900  0.878700  1
  C  C945  1  0.599400  0.266000  0.616400  1
  C  C946  1  0.900600  0.734000  0.116400  1
  C  C947  1  0.099400  0.234000  0.383600  1
  C  C948  1  0.400600  0.766000  0.883600  1
  C  C949  1  0.574400  0.307700  0.593600  1
  C  C950  1  0.925600  0.692300  0.093600  1
  C  C951  1  0.074400  0.192300  0.406400  1
  C  C952  1  0.425600  0.807700  0.906400  1
  C  C953  1  0.523500  0.338000  0.513000  1
  C  C954  1  0.976500  0.662000  0.013000  1
  C  C955  1  0.023500  0.162000  0.487000  1
  C  C956  1  0.476500  0.838000  0.987000  1
  C  C957  1  0.472600  0.400300  0.567900  1
  C  C958  1  0.027400  0.599700  0.067900  1
  C  C959  1  0.972600  0.099700  0.432100  1
  C  C960  1  0.527400  0.900300  0.932100  1
  C  C961  1  0.404300  0.361300  0.510600  1
  C  C962  1  0.095700  0.638700  0.010600  1
  C  C963  1  0.904300  0.138700  0.489400  1
  C  C964  1  0.595700  0.861300  0.989400  1
  C  C965  1  0.661500  0.702100  0.594900  1
  C  C966  1  0.838500  0.297900  0.094900  1
  C  C967  1  0.161500  0.797900  0.405100  1
  C  C968  1  0.338500  0.202100  0.905100  1
  C  C969  1  0.700300  0.735100  0.620000  1
  C  C970  1  0.799700  0.264900  0.120000  1
  C  C971  1  0.200300  0.764900  0.380000  1
  C  C972  1  0.299700  0.235100  0.880000  1
  C  C973  1  0.663500  0.770900  0.637300  1
  C  C974  1  0.836500  0.229100  0.137300  1
  C  C975  1  0.163500  0.729100  0.362700  1
  C  C976  1  0.336500  0.270900  0.862700  1
  C  C977  1  0.491100  0.865300  0.588900  1
  C  C978  1  0.008900  0.134700  0.088900  1
  C  C979  1  0.991100  0.634700  0.411100  1
  C  C980  1  0.508900  0.365300  0.911100  1
  C  C981  1  0.468000  0.863300  0.554500  1
  C  C982  1  0.032000  0.136700  0.054500  1
  C  C983  1  0.968000  0.636700  0.445500  1
  C  C984  1  0.532000  0.363300  0.945500  1
  C  C985  1  0.477600  0.808400  0.543000  1
  C  C986  1  0.022400  0.191600  0.043000  1
  C  C987  1  0.977600  0.691600  0.457000  1
  C  C988  1  0.522400  0.308400  0.957000  1
  C  C989  1  0.467800  0.741400  0.681800  1
  C  C990  1  0.032200  0.258600  0.181800  1
  C  C991  1  0.967800  0.758600  0.318200  1
  C  C992  1  0.532200  0.241400  0.818200  1
  C  C993  1  0.431500  0.692700  0.679800  1
  C  C994  1  0.068500  0.307300  0.179800  1
  C  C995  1  0.931500  0.807300  0.320200  1
  C  C996  1  0.568500  0.192700  0.820200  1
  C  C997  1  0.443000  0.671500  0.643300  1
  C  C998  1  0.057000  0.328500  0.143300  1
  C  C999  1  0.943000  0.828500  0.356700  1
  C  C1000  1  0.557000  0.171500  0.856700  1
  C  C1001  1  0.447500  0.681100  0.552100  1
  C  C1002  1  0.052500  0.318900  0.052100  1
  C  C1003  1  0.947500  0.818900  0.447900  1
  C  C1004  1  0.552500  0.181100  0.947900  1
  C  C1005  1  0.564000  0.688000  0.529500  1
  C  C1006  1  0.936000  0.312000  0.029500  1
  C  C1007  1  0.064000  0.812000  0.470500  1
  C  C1008  1  0.436000  0.188000  0.970500  1
  C  C1009  1  0.534900  0.620700  0.583200  1
  C  C1010  1  0.965100  0.379300  0.083200  1
  C  C1011  1  0.034900  0.879300  0.416800  1
  C  C1012  1  0.465100  0.120700  0.916800  1
  C  C1013  1  0.410900  0.402900  0.315100  1
  C  C1014  1  0.089100  0.597100  0.815100  1
  C  C1015  1  0.910900  0.097100  0.684900  1
  C  C1016  1  0.589100  0.902900  0.184900  1
  C  C1017  1  0.342200  0.419100  0.306400  1
  C  C1018  1  0.157800  0.580900  0.806400  1
  C  C1019  1  0.842200  0.080900  0.693600  1
  C  C1020  1  0.657800  0.919100  0.193600  1
  C  C1021  1  0.321000  0.467100  0.323800  1
  C  C1022  1  0.179000  0.532900  0.823800  1
  C  C1023  1  0.821000  0.032900  0.676200  1
  C  C1024  1  0.679000  0.967100  0.176200  1
  C  C1025  1  0.804500  0.510800  0.368000  1
  C  C1026  1  0.695500  0.489200  0.868000  1
  C  C1027  1  0.304500  0.989200  0.632000  1
  C  C1028  1  0.195500  0.010800  0.132000  1
  C  C1029  1  0.800000  0.447700  0.370500  1
  C  C1030  1  0.700000  0.552300  0.870500  1
  C  C1031  1  0.300000  0.052300  0.629500  1
  C  C1032  1  0.200000  0.947700  0.129500  1
  C  C1033  1  0.841200  0.413800  0.341900  1
  C  C1034  1  0.658800  0.586200  0.841900  1
  C  C1035  1  0.341200  0.086200  0.658100  1
  C  C1036  1  0.158800  0.913800  0.158100  1
  C  C1037  1  0.743600  0.455700  0.662700  1
  C  C1038  1  0.756400  0.544300  0.162700  1
  C  C1039  1  0.243600  0.044300  0.337300  1
  C  C1040  1  0.256400  0.955700  0.837300  1
  C  C1041  1  0.717500  0.409100  0.687200  1
  C  C1042  1  0.782500  0.590900  0.187200  1
  C  C1043  1  0.217500  0.090900  0.312800  1
  C  C1044  1  0.282500  0.909100  0.812800  1
  C  C1045  1  0.665800  0.378000  0.669900  1
  C  C1046  1  0.834200  0.622000  0.169900  1
  C  C1047  1  0.165800  0.122000  0.330100  1
  C  C1048  1  0.334200  0.878000  0.830100  1
  C  C1049  1  0.340800  0.825700  0.652200  1
  C  C1050  1  0.159200  0.174300  0.152200  1
  C  C1051  1  0.840800  0.674300  0.347800  1
  C  C1052  1  0.659200  0.325700  0.847800  1
  C  C1053  1  0.296600  0.772700  0.662800  1
  C  C1054  1  0.203400  0.227300  0.162800  1
  C  C1055  1  0.796600  0.727300  0.337200  1
  C  C1056  1  0.703400  0.272700  0.837200  1
  C  C1057  1  0.276700  0.769600  0.701900  1
  C  C1058  1  0.223300  0.230400  0.201900  1
  C  C1059  1  0.776700  0.730400  0.298100  1
  C  C1060  1  0.723300  0.269600  0.798100  1
  C  C1061  1  0.575200  0.673300  0.329900  1
  C  C1062  1  0.924800  0.326700  0.829900  1
  C  C1063  1  0.075200  0.826700  0.670100  1
  C  C1064  1  0.424800  0.173300  0.170100  1
  C  C1065  1  0.582000  0.734500  0.321700  1
  C  C1066  1  0.918000  0.265500  0.821700  1
  C  C1067  1  0.082000  0.765500  0.678300  1
  C  C1068  1  0.418000  0.234500  0.178300  1
  C  C1069  1  0.615600  0.768600  0.350500  1
  C  C1070  1  0.884400  0.231400  0.850500  1
  C  C1071  1  0.115600  0.731400  0.649500  1
  C  C1072  1  0.384400  0.268600  0.149500  1
  Br  Br1073  1  0.525720  0.490560  0.673770  1
  Br  Br1074  1  0.974280  0.509440  0.173770  1
  Br  Br1075  1  0.025720  0.009440  0.326230  1
  Br  Br1076  1  0.474280  0.990560  0.826230  1
  Br  Br1077  1  0.688300  0.643340  0.411630  1
  Br  Br1078  1  0.811700  0.356660  0.911630  1
  Br  Br1079  1  0.188300  0.856660  0.588370  1
  Br  Br1080  1  0.311700  0.143340  0.088370  1
  Br  Br1081  1  0.231400  0.441100  0.454900  1
  Br  Br1082  1  0.268600  0.558900  0.954900  1
  Br  Br1083  1  0.731400  0.058900  0.545100  1
  Br  Br1084  1  0.768600  0.941100  0.045100  1
  Br  Br1085  1  0.322100  0.339600  0.393510  1
  Br  Br1086  1  0.177900  0.660400  0.893510  1
  Br  Br1087  1  0.822100  0.160400  0.606490  1
  Br  Br1088  1  0.677900  0.839600  0.106490  1
  Br  Br1089  1  0.238200  0.438800  0.442600  1
  Br  Br1090  1  0.261800  0.561200  0.942600  1
  Br  Br1091  1  0.738200  0.061200  0.557400  1
  Br  Br1092  1  0.761800  0.938800  0.057400  1
  Br  Br1093  1  0.351800  0.329100  0.397070  1
  Br  Br1094  1  0.148200  0.670900  0.897070  1
  Br  Br1095  1  0.851800  0.170900  0.602930  1
  Br  Br1096  1  0.648200  0.829100  0.102930  1
  N  N1097  1  0.574600  0.279100  0.433300  1
  N  N1098  1  0.925400  0.720900  0.933300  1
  N  N1099  1  0.074600  0.220900  0.566700  1
  N  N1100  1  0.425400  0.779100  0.066700  1
  N  N1101  1  0.575000  0.392100  0.425680  1
  N  N1102  1  0.925000  0.607900  0.925680  1
  N  N1103  1  0.075000  0.107900  0.574320  1
  N  N1104  1  0.425000  0.892100  0.074320  1
  N  N1105  1  0.693400  0.334900  0.417000  1
  N  N1106  1  0.806600  0.665100  0.917000  1
  N  N1107  1  0.193400  0.165100  0.583000  1
  N  N1108  1  0.306600  0.834900  0.083000  1
  N  N1109  1  0.674500  0.284400  0.480900  1
  N  N1110  1  0.825500  0.715600  0.980900  1
  N  N1111  1  0.174500  0.215600  0.519100  1
  N  N1112  1  0.325500  0.784400  0.019100  1
  N  N1113  1  0.327600  0.741400  0.495300  1
  N  N1114  1  0.172400  0.258600  0.995300  1
  N  N1115  1  0.827600  0.758600  0.504700  1
  N  N1116  1  0.672400  0.241400  0.004700  1
  N  N1117  1  0.245000  0.647900  0.489400  1
  N  N1118  1  0.255000  0.352100  0.989400  1
  N  N1119  1  0.745000  0.852100  0.510600  1
  N  N1120  1  0.755000  0.147900  0.010600  1
  N  N1121  1  0.318600  0.586900  0.533400  1
  N  N1122  1  0.181400  0.413100  0.033400  1
  N  N1123  1  0.818600  0.913100  0.466600  1
  N  N1124  1  0.681400  0.086900  0.966600  1
  N  N1125  1  0.288800  0.697400  0.559100  1
  N  N1126  1  0.211200  0.302600  0.059100  1
  N  N1127  1  0.788800  0.802600  0.440900  1
  N  N1128  1  0.711200  0.197400  0.940900  1
  N  N1129  1  0.767300  0.525100  0.573600  1
  N  N1130  1  0.732700  0.474900  0.073600  1
  N  N1131  1  0.267300  0.974900  0.426400  1
  N  N1132  1  0.232700  0.025100  0.926400  1
  N  N1133  1  0.828400  0.520000  0.586600  1
  N  N1134  1  0.671600  0.480000  0.086600  1
  N  N1135  1  0.328400  0.980000  0.413400  1
  N  N1136  1  0.171600  0.020000  0.913400  1
  N  N1137  1  0.773700  0.411300  0.560500  1
  N  N1138  1  0.726300  0.588700  0.060500  1
  N  N1139  1  0.273700  0.088700  0.439500  1
  N  N1140  1  0.226300  0.911300  0.939500  1
  N  N1141  1  0.833000  0.419000  0.574700  1
  N  N1142  1  0.667000  0.581000  0.074700  1
  N  N1143  1  0.333000  0.081000  0.425300  1
  N  N1144  1  0.167000  0.919000  0.925300  1
  N  N1145  1  0.809200  0.484600  0.505700  1
  N  N1146  1  0.690800  0.515400  0.005700  1
  N  N1147  1  0.309200  0.015400  0.494300  1
  N  N1148  1  0.190800  0.984600  0.994300  1
  N  N1149  1  0.864700  0.482800  0.523600  1
  N  N1150  1  0.635300  0.517200  0.023600  1
  N  N1151  1  0.364700  0.017200  0.476400  1
  N  N1152  1  0.135300  0.982800  0.976400  1
  N  N1153  1  0.333400  0.597300  0.373100  1
  N  N1154  1  0.166600  0.402700  0.873100  1
  N  N1155  1  0.833400  0.902700  0.626900  1
  N  N1156  1  0.666600  0.097300  0.126900  1
  N  N1157  1  0.326300  0.621200  0.337500  1
  N  N1158  1  0.173700  0.378800  0.837500  1
  N  N1159  1  0.826300  0.878800  0.662500  1
  N  N1160  1  0.673700  0.121200  0.162500  1
  N  N1161  1  0.429000  0.672600  0.381000  1
  N  N1162  1  0.071000  0.327400  0.881000  1
  N  N1163  1  0.929000  0.827400  0.619000  1
  N  N1164  1  0.571000  0.172600  0.119000  1
  N  N1165  1  0.410800  0.690500  0.346400  1
  N  N1166  1  0.089200  0.309500  0.846400  1
  N  N1167  1  0.910800  0.809500  0.653600  1
  N  N1168  1  0.589200  0.190500  0.153600  1
  N  N1169  1  0.450200  0.571600  0.344900  1
  N  N1170  1  0.049800  0.428400  0.844900  1
  N  N1171  1  0.950200  0.928400  0.655100  1
  N  N1172  1  0.549800  0.071600  0.155100  1
  N  N1173  1  0.430800  0.599200  0.314500  1
  N  N1174  1  0.069200  0.400800  0.814500  1
  N  N1175  1  0.930800  0.900800  0.685500  1
  N  N1176  1  0.569200  0.099200  0.185500  1
  N  N1177  1  0.517800  0.293400  0.583210  1
  N  N1178  1  0.982200  0.706600  0.083210  1
  N  N1179  1  0.017800  0.206600  0.416790  1
  N  N1180  1  0.482200  0.793400  0.916790  1
  N  N1181  1  0.503000  0.244300  0.602000  1
  N  N1182  1  0.997000  0.755700  0.102000  1
  N  N1183  1  0.003000  0.255700  0.398000  1
  N  N1184  1  0.497000  0.744300  0.898000  1
  N  N1185  1  0.391500  0.317300  0.586700  1
  N  N1186  1  0.108500  0.682700  0.086700  1
  N  N1187  1  0.891500  0.182700  0.413300  1
  N  N1188  1  0.608500  0.817300  0.913300  1
  N  N1189  1  0.389400  0.266700  0.605300  1
  N  N1190  1  0.110600  0.733300  0.105300  1
  N  N1191  1  0.889400  0.233300  0.394700  1
  N  N1192  1  0.610600  0.766700  0.894700  1
  N  N1193  1  0.438800  0.252500  0.528260  1
  N  N1194  1  0.061200  0.747500  0.028260  1
  N  N1195  1  0.938800  0.247500  0.471740  1
  N  N1196  1  0.561200  0.752500  0.971740  1
  N  N1197  1  0.429000  0.209200  0.551500  1
  N  N1198  1  0.071000  0.790800  0.051500  1
  N  N1199  1  0.929000  0.290800  0.448500  1
  N  N1200  1  0.571000  0.709200  0.948500  1
  N  N1201  1  0.604100  0.719100  0.598000  1
  N  N1202  1  0.895900  0.280900  0.098000  1
  N  N1203  1  0.104100  0.780900  0.402000  1
  N  N1204  1  0.395900  0.219100  0.902000  1
  N  N1205  1  0.604300  0.761300  0.624900  1
  N  N1206  1  0.895700  0.238700  0.124900  1
  N  N1207  1  0.104300  0.738700  0.375100  1
  N  N1208  1  0.395700  0.261300  0.875100  1
  N  N1209  1  0.506000  0.778800  0.567800  1
  N  N1210  1  0.994000  0.221200  0.067800  1
  N  N1211  1  0.006000  0.721200  0.432200  1
  N  N1212  1  0.494000  0.278800  0.932200  1
  N  N1213  1  0.513500  0.815100  0.598300  1
  N  N1214  1  0.986500  0.184900  0.098300  1
  N  N1215  1  0.013500  0.684900  0.401700  1
  N  N1216  1  0.486500  0.315100  0.901700  1
  N  N1217  1  0.484700  0.704000  0.625500  1
  N  N1218  1  0.015300  0.296000  0.125500  1
  N  N1219  1  0.984700  0.796000  0.374500  1
  N  N1220  1  0.515300  0.204000  0.874500  1
  N  N1221  1  0.498400  0.746800  0.648500  1
  N  N1222  1  0.001600  0.253200  0.148500  1
  N  N1223  1  0.998400  0.753200  0.351500  1
  N  N1224  1  0.501600  0.246800  0.851500  1
  N  N1225  1  0.671600  0.395500  0.478680  1
  N  N1226  1  0.828400  0.604500  0.978680  1
  N  N1227  1  0.171600  0.104500  0.521320  1
  N  N1228  1  0.328400  0.895500  0.021320  1
  N  N1229  1  0.661600  0.566000  0.492700  1
  N  N1230  1  0.838400  0.434000  0.992700  1
  N  N1231  1  0.161600  0.934000  0.507300  1
  N  N1232  1  0.338400  0.066000  0.007300  1
  N  N1233  1  0.620300  0.466900  0.587590  1
  N  N1234  1  0.879700  0.533100  0.087590  1
  N  N1235  1  0.120300  0.033100  0.412410  1
  N  N1236  1  0.379700  0.966900  0.912410  1
  N  N1237  1  0.541500  0.595900  0.436900  1
  N  N1238  1  0.958500  0.404100  0.936900  1
  N  N1239  1  0.041500  0.904100  0.563100  1
  N  N1240  1  0.458500  0.095900  0.063100  1
  N  N1241  1  0.361500  0.634700  0.468900  1
  N  N1242  1  0.138500  0.365300  0.968900  1
  N  N1243  1  0.861500  0.865300  0.531100  1
  N  N1244  1  0.638500  0.134700  0.031100  1
  N  N1245  1  0.389000  0.473200  0.420200  1
  N  N1246  1  0.111000  0.526800  0.920200  1
  N  N1247  1  0.889000  0.026800  0.579800  1
  N  N1248  1  0.611000  0.973200  0.079800  1
  N  N1249  1  0.590600  0.679700  0.499000  1
  N  N1250  1  0.909400  0.320300  0.999000  1
  N  N1251  1  0.090600  0.820300  0.501000  1
  N  N1252  1  0.409400  0.179700  0.001000  1
  N  N1253  1  0.537700  0.573500  0.590000  1
  N  N1254  1  0.962300  0.426500  0.090000  1
  N  N1255  1  0.037700  0.926500  0.410000  1
  N  N1256  1  0.462300  0.073500  0.910000  1
  N  N1257  1  0.401800  0.673500  0.535700  1
  N  N1258  1  0.098200  0.326500  0.035700  1
  N  N1259  1  0.901800  0.826500  0.464300  1
  N  N1260  1  0.598200  0.173500  0.964300  1
  N  N1261  1  0.484700  0.443800  0.579900  1
  N  N1262  1  0.015300  0.556200  0.079900  1
  N  N1263  1  0.984700  0.056200  0.420100  1
  N  N1264  1  0.515300  0.943800  0.920100  1
  N  N1265  1  0.376500  0.382400  0.486200  1
  N  N1266  1  0.123500  0.617600  0.986200  1
  N  N1267  1  0.876500  0.117600  0.513800  1
  N  N1268  1  0.623500  0.882400  0.013800  1
  N  N1269  1  0.566000  0.341200  0.492700  1
  N  N1270  1  0.934000  0.658800  0.992700  1
  N  N1271  1  0.066000  0.158800  0.507300  1
  N  N1272  1  0.434000  0.841200  0.007300  1
  O  O1273  1  0.311400  0.389900  0.284700  1
  O  O1274  1  0.188600  0.610100  0.784700  1
  O  O1275  1  0.811400  0.110100  0.715300  1
  O  O1276  1  0.688600  0.889900  0.215300  1
  O  O1277  1  0.764000  0.431600  0.394100  1
  O  O1278  1  0.736000  0.568400  0.894100  1
  O  O1279  1  0.264000  0.068400  0.605900  1
  O  O1280  1  0.236000  0.931600  0.105900  1
  O  O1281  1  0.734500  0.394300  0.721400  1
  O  O1282  1  0.765500  0.605700  0.221400  1
  O  O1283  1  0.234500  0.105700  0.278600  1
  O  O1284  1  0.265500  0.894300  0.778600  1
  O  O1285  1  0.288100  0.735400  0.642200  1
  O  O1286  1  0.211900  0.264600  0.142200  1
  O  O1287  1  0.788100  0.764600  0.357800  1
  O  O1288  1  0.711900  0.235400  0.857800  1
  O  O1289  1  0.567000  0.755600  0.292200  1
  O  O1290  1  0.933000  0.244400  0.792200  1
  O  O1291  1  0.067000  0.744400  0.707800  1
  O  O1292  1  0.433000  0.255600  0.207800  1
  O  O1293  1  0.411200  0.514600  0.505800  1
  O  O1294  1  0.088800  0.485400  0.005800  1
  O  O1295  1  0.911200  0.985400  0.494200  1
  O  O1296  1  0.588800  0.014600  0.994200  1
  O  O1297  1  0.541100  0.469000  0.488000  1
  O  O1298  1  0.958900  0.531000  0.988000  1
  O  O1299  1  0.041100  0.031000  0.512000  1
  O  O1300  1  0.458900  0.969000  0.012000  1
  O  O1301  1  0.445400  0.546400  0.506900  1
  O  O1302  1  0.054600  0.453600  0.006900  1
  O  O1303  1  0.945400  0.953600  0.493100  1
  O  O1304  1  0.554600  0.046400  0.993100  1
