
#######################################################################
#
#                 Cambridge Crystallographic Data Centre
#                                CCDC 
#
#######################################################################
#
# If this CIF has been generated from an entry in the Cambridge 
# Structural Database, then it will include bibliographic, chemical, 
# crystal, experimental, refinement or atomic coordinate data resulting 
# from the CCDC's data processing and validation procedures.
#
#######################################################################

data_EZEVEM
_chemical_formula_moiety         
'C112 H92 B4 Br4 Co5 Fe4 N44,18(C3 H6 O1),4(H2 O1)'
_chemical_name_systematic        
"dodecakis(\m-cyano)-tetrakis(hydrogen tripyrazolylborate)-bis(N,N'-bis(pyridin-2-ylmethyl)-1,1'-binaphthalene-2,2'-diamine)-tetrabromo-penta-cobalt-tetra-iron acetone solvate tetrahydrate"
_symmetry_cell_setting           orthorhombic
_symmetry_space_group_name_H-M   'P 21 21 21'
_symmetry_Int_Tables_number      19
_space_group_name_Hall           'P 2ac 2ab'
loop_
_symmetry_equiv_pos_site_id
_symmetry_equiv_pos_as_xyz
1 x,y,z
2 1/2-x,-y,1/2+z
3 1/2+x,1/2-y,-z
4 -x,1/2+y,1/2-z
_cell_length_a                   21.622(2)
_cell_length_b                   23.982(2)
_cell_length_c                   35.304(4)
_cell_angle_alpha                90
_cell_angle_beta                 90
_cell_angle_gamma                90
_cell_volume                     18306.5
_exptl_crystal_colour            green
_exptl_crystal_description       block
_cell_formula_units_Z            4
loop_
_atom_site_label
_atom_site_type_symbol
_atom_site_fract_x
_atom_site_fract_y
_atom_site_fract_z
Br1 Br 0.52572(5) 0.49056(4) 0.67377(2)
Br2 Br 0.68830(4) 0.64334(4) 0.41163(3)
Br3 Br 0.2314(4) 0.4411(3) 0.4549(5)
Br4 Br 0.3221(4) 0.33960(15) 0.39351(6)
Co1 Co 0.62705(4) 0.33784(4) 0.45513(3)
Co2 Co 0.32396(4) 0.66398(4) 0.51327(4)
Co3 Co 0.54109(4) 0.49528(4) 0.60656(3)
Co4 Co 0.61788(4) 0.62165(4) 0.46228(3)
Co5 Co 0.33944(5) 0.41016(4) 0.43899(3)
Fe1 Fe 0.73125(5) 0.47460(4) 0.53516(3)
Fe2 Fe 0.41712(5) 0.59305(5) 0.39645(4)
Fe3 Fe 0.45762(5) 0.32933(4) 0.54744(3)
Fe4 Fe 0.52395(5) 0.69730(4) 0.57417(3)
N1 N 0.5746(5) 0.2791(6) 0.4333(3)
N2 N 0.5750(3) 0.3921(3) 0.42568(19)
H1 H 0.5642 0.4219 0.4444
N3 N 0.6934(3) 0.3349(3) 0.4170(2)
H2 H 0.7010 0.3716 0.4099
N4 N 0.6745(4) 0.2844(3) 0.4809(2)
N5 N 0.3276(3) 0.7414(3) 0.4953(2)
N6 N 0.2450(3) 0.6479(3) 0.4894(2)
N7 N 0.3186(3) 0.5869(2) 0.5334(2)
H3 H 0.3554 0.5708 0.5251
N8 N 0.2888(3) 0.6974(3) 0.5591(2)
H4 H 0.3121 0.6801 0.5806
N9 N 0.7673(3) 0.5251(3) 0.5736(2)
N10 N 0.8284(4) 0.5200(3) 0.5866(3)
N11 N 0.7737(3) 0.4113(3) 0.5605(2)
N12 N 0.8330(3) 0.4190(3) 0.5747(2)
N13 N 0.8092(3) 0.4846(3) 0.5057(2)
N14 N 0.8647(3) 0.4828(3) 0.5236(2)
N15 N 0.3334(3) 0.5973(3) 0.3731(2)
N16 N 0.3263(3) 0.6212(3) 0.3375(2)
N17 N 0.4290(4) 0.6726(3) 0.3810(3)
N18 N 0.4108(4) 0.6905(3) 0.3464(3)
N19 N 0.4502(3) 0.5716(3) 0.3449(2)
N20 N 0.4308(4) 0.5992(3) 0.3145(2)
N21 N 0.5178(3) 0.2934(3) 0.58321(19)
N22 N 0.5030(3) 0.2443(3) 0.6020(2)
N23 N 0.3915(3) 0.3173(3) 0.5867(2)
N24 N 0.3894(3) 0.2667(3) 0.6053(2)
N25 N 0.4388(3) 0.2525(3) 0.52826(17)
N26 N 0.4290(3) 0.2092(3) 0.5515(2)
N27 N 0.6041(3) 0.7191(3) 0.5980(2)
N28 N 0.6043(3) 0.7613(3) 0.6249(2)
N29 N 0.5060(3) 0.7788(3) 0.5678(2)
N30 N 0.5135(3) 0.8151(3) 0.5983(2)
N31 N 0.4847(4) 0.7040(3) 0.6255(2)
N32 N 0.4984(4) 0.7468(3) 0.6485(3)
N33 N 0.6716(3) 0.3955(2) 0.47868(18)
N34 N 0.6616(3) 0.5660(3) 0.4927(2)
N35 N 0.6203(3) 0.4669(2) 0.58759(19)
N36 N 0.5415(3) 0.5959(3) 0.4369(2)
N37 N 0.3615(3) 0.6347(3) 0.4689(2)
N38 N 0.3890(3) 0.4732(2) 0.4202(2)
N39 N 0.5906(3) 0.6797(2) 0.4990(2)
N40 N 0.5377(3) 0.5735(3) 0.5900(2)
N41 N 0.4018(3) 0.6735(3) 0.5357(2)
N42 N 0.4847(3) 0.4438(3) 0.5799(2)
N43 N 0.3765(3) 0.3824(3) 0.48620(19)
N44 N 0.5660(3) 0.3412(3) 0.4927(2)
C1 C 0.6056(3) 0.4213(3) 0.3952(2)
C2 C 0.6067(5) 0.4825(4) 0.3994(3)
H5 H 0.5913 0.4994 0.4218
C3 C 0.6300(4) 0.5144(4) 0.3709(3)
H6 H 0.6333 0.5535 0.3746
C4 C 0.6493(4) 0.4916(4) 0.3364(3)
C5 C 0.6744(5) 0.5267(4) 0.3089(3)
H7 H 0.6767 0.5659 0.3128
C6 C 0.6953(5) 0.5036(5) 0.2770(3)
H8 H 0.7089 0.5274 0.2571
C7 C 0.6982(5) 0.4437(6) 0.2713(4)
H9 H 0.7137 0.4285 0.2483
C8 C 0.6787(5) 0.4106(4) 0.2991(2)
H10 H 0.6817 0.3713 0.2962
C9 C 0.6531(4) 0.4331(4) 0.3332(3)
C10 C 0.6278(3) 0.3974(4) 0.3612(2)
C11 C 0.6337(4) 0.3354(4) 0.3591(2)
C12 C 0.6039(4) 0.3040(4) 0.3296(2)
C13 C 0.5560(4) 0.3289(4) 0.3066(2)
H11 H 0.5442 0.3666 0.3105
C14 C 0.5274(6) 0.2970(5) 0.2789(3)
H12 H 0.4965 0.3144 0.2638
C15 C 0.5410(6) 0.2417(5) 0.2717(3)
H13 H 0.5245 0.2223 0.2505
C16 C 0.5810(6) 0.2163(6) 0.2979(3)
H14 H 0.5854 0.1769 0.2982
C17 C 0.6132(4) 0.2478(4) 0.3228(2)
C18 C 0.6576(4) 0.2204(4) 0.3488(2)
H15 H 0.6670 0.1820 0.3453
C19 C 0.6854(4) 0.2487(4) 0.3775(2)
H16 H 0.7131 0.2299 0.3940
C20 C 0.6734(4) 0.3055(4) 0.3826(2)
C21 C 0.7507(4) 0.3148(3) 0.4358(2)
H17 H 0.7766 0.2943 0.4173
H18 H 0.7748 0.3470 0.4453
C22 C 0.7348(5) 0.2790(4) 0.4664(3)
C23 C 0.7779(5) 0.2421(4) 0.4847(3)
H19 H 0.8179 0.2371 0.4741
C24 C 0.7621(5) 0.2134(4) 0.5182(3)
H20 H 0.7906 0.1893 0.5305
C25 C 0.7024(5) 0.2219(4) 0.5324(3)
H21 H 0.6905 0.2047 0.5555
C26 C 0.6602(5) 0.2557(4) 0.5128(3)
H22 H 0.6193 0.2586 0.5225
C27 C 0.5171(6) 0.3670(6) 0.4163(4)
H23 H 0.5016 0.3826 0.3922
H24 H 0.4864 0.3753 0.4364
C28 C 0.5249(6) 0.3080(7) 0.4128(4)
C29 C 0.4846(6) 0.2771(7) 0.3922(4)
H25 H 0.4550 0.2952 0.3765
C30 C 0.4861(6) 0.2227(7) 0.3936(4)
H26 H 0.4538 0.2022 0.3817
C31 C 0.5339(6) 0.1933(7) 0.4121(3)
H27 H 0.5360 0.1537 0.4117
C32 C 0.5787(6) 0.2261(7) 0.4312(4)
H28 H 0.6128 0.2080 0.4429
C33 C 0.3377(4) 0.7547(3) 0.4597(3)
H29 H 0.3454 0.7269 0.4411
C34 C 0.3368(4) 0.8125(3) 0.4500(3)
H30 H 0.3464 0.8236 0.4248
C35 C 0.3225(4) 0.8514(3) 0.4762(3)
H31 H 0.3215 0.8898 0.4695
C36 C 0.3093(4) 0.8348(4) 0.5129(3)
H32 H 0.2979 0.8614 0.5316
C37 C 0.3129(4) 0.7799(3) 0.5215(3)
C38 C 0.3037(4) 0.7588(4) 0.5612(3)
H33 H 0.2693 0.7792 0.5735
H34 H 0.3417 0.7647 0.5763
C39 C 0.2092(4) 0.6837(4) 0.4703(3)
H35 H 0.2230 0.7210 0.4673
C40 C 0.1539(4) 0.6690(4) 0.4551(3)
H36 H 0.1301 0.6957 0.4416
C41 C 0.1319(4) 0.6137(4) 0.4593(3)
H37 H 0.0928 0.6028 0.4495
C42 C 0.1685(4) 0.5773(4) 0.4775(3)
H38 H 0.1558 0.5395 0.4802
C43 C 0.2260(4) 0.5951(4) 0.4927(3)
C44 C 0.2711(4) 0.5569(4) 0.5110(3)
H39 H 0.2918 0.5345 0.4911
H40 H 0.2485 0.5309 0.5278
C45 C 0.3199(4) 0.5770(4) 0.5730(3)
C46 C 0.3680(5) 0.5461(4) 0.5874(4)
H41 H 0.3992 0.5314 0.5714
C47 C 0.3695(5) 0.5369(5) 0.6280(4)
H42 H 0.4014 0.5146 0.6386
C48 C 0.3249(5) 0.5600(5) 0.6516(3)
C49 C 0.3366(6) 0.5519(5) 0.6911(3)
H43 H 0.3711 0.5319 0.7008
C50 C 0.2887(5) 0.5782(5) 0.7146(3)
H44 H 0.2931 0.5760 0.7414
C51 C 0.2380(5) 0.6058(4) 0.7005(3)
H45 H 0.2083 0.6213 0.7174
C52 C 0.2301(6) 0.6110(5) 0.6623(3)
H46 H 0.1952 0.6308 0.6530
C53 C 0.2744(5) 0.5867(5) 0.6354(3)
C54 C 0.2690(4) 0.5953(3) 0.5967(3)
C55 C 0.2163(4) 0.6279(3) 0.5804(3)
C56 C 0.2267(4) 0.6808(4) 0.5644(3)
C57 C 0.1771(4) 0.7130(4) 0.5507(3)
H47 H 0.1851 0.7488 0.5403
C58 C 0.1178(4) 0.6937(4) 0.5523(3)
H48 H 0.0850 0.7169 0.5438
C59 C 0.1041(4) 0.6399(4) 0.5664(3)
C60 C 0.0467(5) 0.6164(5) 0.5647(4)
H49 H 0.0150 0.6364 0.5519
C61 C 0.0313(5) 0.5645(5) 0.5806(3)
H50 H -0.0102 0.5531 0.5847
C62 C 0.0831(5) 0.5302(5) 0.5902(4)
H51 H 0.0766 0.4913 0.5934
C63 C 0.1420(5) 0.5510(4) 0.5949(3)
H52 H 0.1732 0.5296 0.6071
C64 C 0.1547(4) 0.6056(3) 0.5809(3)
C65 C 0.8410(5) 0.5574(4) 0.6107(3)
H53 H 0.8812 0.5639 0.6207
C66 C 0.7889(5) 0.5877(4) 0.6206(3)
H54 H 0.7838 0.6155 0.6395
C67 C 0.7459(5) 0.5657(4) 0.5948(3)
H55 H 0.7046 0.5790 0.5929
C68 C 0.8504(5) 0.3719(4) 0.5919(3)
H56 H 0.8897 0.3660 0.6031
C69 C 0.8041(5) 0.3334(5) 0.5910(3)
H57 H 0.8036 0.2970 0.6017
C70 C 0.7569(5) 0.3607(4) 0.5704(3)
H58 H 0.7180 0.3445 0.5644
C71 C 0.9097(4) 0.4895(4) 0.4987(4)
H59 H 0.9527 0.4894 0.5043
C72 C 0.8838(4) 0.4969(4) 0.4625(3)
H60 H 0.9043 0.5029 0.4390
C73 C 0.8205(4) 0.4932(3) 0.4696(3)
H61 H 0.7894 0.4965 0.4508
C74 C 0.6625(4) 0.4679(3) 0.5669(2)
C75 C 0.6900(4) 0.5316(4) 0.5105(2)
C76 C 0.6961(3) 0.4258(3) 0.4994(2)
C77 C 0.4899(4) 0.5317(4) 0.3341(3)
H62 H 0.5100 0.5057 0.3502
C78 C 0.4964(5) 0.5357(4) 0.2931(3)
H63 H 0.5213 0.5130 0.2772
C79 C 0.4594(5) 0.5788(4) 0.2826(3)
H64 H 0.4541 0.5924 0.2575
C80 C 0.2762(4) 0.5786(4) 0.3804(3)
H65 H 0.2670 0.5565 0.4020
C81 C 0.2333(4) 0.5932(4) 0.3554(3)
H66 H 0.1899 0.5876 0.3572
C82 C 0.2663(4) 0.6190(4) 0.3252(3)
H67 H 0.2502 0.6318 0.3017
C83 C 0.4527(5) 0.7183(4) 0.3949(4)
H68 H 0.4725 0.7191 0.4189
C84 C 0.4476(5) 0.7632(4) 0.3738(4)
H69 H 0.4595 0.8002 0.3801
C85 C 0.4225(5) 0.7460(4) 0.3424(4)
H70 H 0.4139 0.7680 0.3206
C86 C 0.4942(4) 0.5929(3) 0.4208(2)
C87 C 0.4017(4) 0.5184(4) 0.4109(2)
C88 C 0.3835(4) 0.6167(3) 0.4402(3)
C89 C 0.3471(4) 0.2703(4) 0.6332(2)
H71 H 0.3365 0.2411 0.6502
C90 C 0.3221(4) 0.3215(4) 0.6333(2)
H72 H 0.2916 0.3361 0.6499
C91 C 0.3518(4) 0.3489(4) 0.6028(2)
H73 H 0.3433 0.3861 0.5953
C92 C 0.4120(5) 0.1632(4) 0.5336(3)
H74 H 0.3996 0.1290 0.5448
C93 C 0.4158(6) 0.1745(4) 0.4955(3)
H75 H 0.4094 0.1484 0.4756
C94 C 0.4309(5) 0.2311(4) 0.4909(3)
H76 H 0.4350 0.2510 0.4678
C95 C 0.5558(6) 0.2289(5) 0.6213(3)
H77 H 0.5599 0.1960 0.6362
C96 C 0.5994(5) 0.2660(4) 0.6164(2)
H78 H 0.6401 0.2647 0.6264
C97 C 0.5744(4) 0.3077(4) 0.5936(3)
H79 H 0.5949 0.3412 0.5866
C98 C 0.5235(3) 0.3380(3) 0.5130(2)
C99 C 0.4726(4) 0.4003(3) 0.56790(19)
C100 C 0.4043(3) 0.3613(3) 0.5106(2)
C101 C 0.6615(4) 0.7021(3) 0.5949(3)
H80 H 0.6755 0.6730 0.5789
C102 C 0.7003(5) 0.7351(4) 0.6200(4)
H81 H 0.7437 0.7315 0.6233
C103 C 0.6635(5) 0.7709(4) 0.6373(4)
H82 H 0.6758 0.7984 0.6550
C104 C 0.4911(4) 0.8653(4) 0.5889(3)
H83 H 0.4919 0.8974 0.6046
C105 C 0.4680(4) 0.8633(3) 0.5545(3)
H84 H 0.4491 0.8926 0.5406
C106 C 0.4776(4) 0.8084(3) 0.5430(3)
H85 H 0.4645 0.7943 0.5192
C107 C 0.4678(5) 0.7414(4) 0.6818(3)
H86 H 0.4705 0.7660 0.7028
C108 C 0.4315(5) 0.6927(4) 0.6798(3)
H87 H 0.4052 0.6776 0.6988
C109 C 0.4430(5) 0.6715(4) 0.6433(3)
H88 H 0.4243 0.6391 0.6328
C110 C 0.4475(4) 0.6811(3) 0.5521(2)
C111 C 0.5640(3) 0.6880(3) 0.5295(3)
C112 C 0.5349(3) 0.6207(3) 0.5832(2)
B1 B 0.8668(5) 0.4719(4) 0.5678(3)
H89 H 0.9102 0.4704 0.5777
B2 B 0.3855(6) 0.6467(5) 0.3174(4)
H90 H 0.3757 0.6636 0.2922
B3 B 0.4361(4) 0.2221(4) 0.5942(2)
H91 H 0.4286 0.1875 0.6094
B4 B 0.5400(5) 0.7903(5) 0.6348(3)
H92 H 0.5457 0.8199 0.6544
O1 O 0.3114(6) 0.3899(5) 0.2847(3)
C113 C 0.4109(7) 0.4029(5) 0.3151(4)
H93 H 0.4121 0.3658 0.3269
H94 H 0.4289 0.4303 0.3325
H95 H 0.4347 0.4023 0.2915
C114 C 0.3422(6) 0.4191(5) 0.3064(3)
C115 C 0.3210(6) 0.4671(5) 0.3238(4)
H96 H 0.3496 0.4979 0.3185
H97 H 0.3184 0.4611 0.3512
H98 H 0.2799 0.4765 0.3139
O2 O 0.7640(4) 0.4316(3) 0.3941(2)
C116 C 0.8045(6) 0.5108(5) 0.3680(3)
H99 H 0.7764 0.5277 0.3866
H100 H 0.7930 0.5230 0.3425
H101 H 0.8471 0.5225 0.3735
C117 C 0.8000(6) 0.4477(5) 0.3705(3)
C118 C 0.8412(6) 0.4138(5) 0.3419(3)
H102 H 0.8322 0.3739 0.3443
H103 H 0.8850 0.4204 0.3475
H104 H 0.8322 0.4259 0.3159
O3 O 0.7345(6) 0.3943(6) 0.7214(4)
C119 C 0.7436(10) 0.4557(7) 0.6627(5)
H105 H 0.7484 0.4895 0.6780
H106 H 0.7153 0.4632 0.6416
H107 H 0.7840 0.4445 0.6527
C120 C 0.7175(9) 0.4091(7) 0.6872(6)
C121 C 0.6658(8) 0.3780(7) 0.6699(6)
H108 H 0.6823 0.3479 0.6541
H109 H 0.6412 0.4034 0.6542
H110 H 0.6398 0.3622 0.6899
O4 O 0.2881(4) 0.7354(3) 0.6422(3)
C122 C 0.3408(6) 0.8257(6) 0.6522(4)
H111 H 0.3611 0.8189 0.6278
H112 H 0.3722 0.8305 0.6719
H113 H 0.3156 0.8596 0.6504
C123 C 0.2966(4) 0.7727(4) 0.6628(3)
C124 C 0.2767(4) 0.7696(4) 0.7019(3)
H114 H 0.2347 0.7542 0.7030
H115 H 0.2770 0.8070 0.7130
H116 H 0.3049 0.7454 0.7160
O5 O 0.5670(5) 0.7556(6) 0.2922(3)
C125 C 0.5752(6) 0.6733(5) 0.3299(4)
H117 H 0.5321 0.6651 0.3365
H118 H 0.6021 0.6630 0.3511
H119 H 0.5869 0.6517 0.3074
C126 C 0.5820(6) 0.7345(6) 0.3217(4)
C127 C 0.6156(9) 0.7686(6) 0.3505(6)
H120 H 0.6034 0.8077 0.3481
H121 H 0.6603 0.7652 0.3464
H122 H 0.6053 0.7551 0.3759
O6 O 0.4112(7) 0.5146(8) 0.5058(3)
H123 H 0.3947 0.5099 0.4843
H124 H 0.3979 0.4873 0.5188
O8 O 0.5411(3) 0.4690(3) 0.4880(2)
H127 H 0.5274 0.4427 0.5018
H128 H 0.5065 0.4849 0.4842
loop_
_geom_bond_atom_site_label_1
_geom_bond_atom_site_label_2
_geom_bond_site_symmetry_1
_geom_bond_site_symmetry_2
Br1 Co3 1_555 1_555
Br2 Co4 1_555 1_555
Br3 Co5 1_555 1_555
Br4 Co5 1_555 1_555
Co1 N1 1_555 1_555
Co2 N5 1_555 1_555
Co3 N35 1_555 1_555
Co4 N34 1_555 1_555
Co5 N38 1_555 1_555
Fe1 N9 1_555 1_555
Fe2 N15 1_555 1_555
Fe3 N21 1_555 1_555
Fe4 N27 1_555 1_555
N1 C28 1_555 1_555
N2 Co1 1_555 1_555
H1 N2 1_555 1_555
N3 Co1 1_555 1_555
H2 N3 1_555 1_555
N4 Co1 1_555 1_555
N5 C33 1_555 1_555
N6 Co2 1_555 1_555
N7 Co2 1_555 1_555
H3 N7 1_555 1_555
N8 Co2 1_555 1_555
H4 N8 1_555 1_555
N9 N10 1_555 1_555
N10 C65 1_555 1_555
N11 Fe1 1_555 1_555
N12 N11 1_555 1_555
N13 Fe1 1_555 1_555
N14 N13 1_555 1_555
N15 N16 1_555 1_555
N16 C82 1_555 1_555
N17 Fe2 1_555 1_555
N18 N17 1_555 1_555
N19 Fe2 1_555 1_555
N20 N19 1_555 1_555
N21 N22 1_555 1_555
N22 C95 1_555 1_555
N23 Fe3 1_555 1_555
N24 N23 1_555 1_555
N25 Fe3 1_555 1_555
N26 N25 1_555 1_555
N27 N28 1_555 1_555
N28 C103 1_555 1_555
N29 Fe4 1_555 1_555
N30 N29 1_555 1_555
N31 Fe4 1_555 1_555
N32 N31 1_555 1_555
N33 Co1 1_555 1_555
N34 C75 1_555 1_555
N35 C74 1_555 1_555
N36 Co4 1_555 1_555
N37 Co2 1_555 1_555
N38 C87 1_555 1_555
N39 Co4 1_555 1_555
N40 Co3 1_555 1_555
N41 Co2 1_555 1_555
N42 Co3 1_555 1_555
N43 Co5 1_555 1_555
N44 Co1 1_555 1_555
C1 N2 1_555 1_555
C2 C1 1_555 1_555
H5 C2 1_555 1_555
C3 C2 1_555 1_555
H6 C3 1_555 1_555
C4 C3 1_555 1_555
C5 C4 1_555 1_555
H7 C5 1_555 1_555
C6 C5 1_555 1_555
H8 C6 1_555 1_555
C7 C6 1_555 1_555
H9 C7 1_555 1_555
C8 C7 1_555 1_555
H10 C8 1_555 1_555
C9 C4 1_555 1_555
C10 C1 1_555 1_555
C11 C10 1_555 1_555
C12 C11 1_555 1_555
C13 C12 1_555 1_555
H11 C13 1_555 1_555
C14 C13 1_555 1_555
H12 C14 1_555 1_555
C15 C14 1_555 1_555
H13 C15 1_555 1_555
C16 C15 1_555 1_555
H14 C16 1_555 1_555
C17 C12 1_555 1_555
C18 C17 1_555 1_555
H15 C18 1_555 1_555
C19 C18 1_555 1_555
H16 C19 1_555 1_555
C20 N3 1_555 1_555
C21 N3 1_555 1_555
H17 C21 1_555 1_555
H18 C21 1_555 1_555
C22 N4 1_555 1_555
C23 C22 1_555 1_555
H19 C23 1_555 1_555
C24 C23 1_555 1_555
H20 C24 1_555 1_555
C25 C24 1_555 1_555
H21 C25 1_555 1_555
C26 N4 1_555 1_555
H22 C26 1_555 1_555
C27 N2 1_555 1_555
H23 C27 1_555 1_555
H24 C27 1_555 1_555
C28 C27 1_555 1_555
C29 C28 1_555 1_555
H25 C29 1_555 1_555
C30 C29 1_555 1_555
H26 C30 1_555 1_555
C31 C30 1_555 1_555
H27 C31 1_555 1_555
C32 N1 1_555 1_555
H28 C32 1_555 1_555
C33 H29 1_555 1_555
C34 C33 1_555 1_555
H30 C34 1_555 1_555
C35 C34 1_555 1_555
H31 C35 1_555 1_555
C36 C35 1_555 1_555
H32 C36 1_555 1_555
C37 N5 1_555 1_555
C38 N8 1_555 1_555
H33 C38 1_555 1_555
H34 C38 1_555 1_555
C39 N6 1_555 1_555
H35 C39 1_555 1_555
C40 C39 1_555 1_555
H36 C40 1_555 1_555
C41 C40 1_555 1_555
H37 C41 1_555 1_555
C42 C41 1_555 1_555
H38 C42 1_555 1_555
C43 N6 1_555 1_555
C44 N7 1_555 1_555
H39 C44 1_555 1_555
H40 C44 1_555 1_555
C45 N7 1_555 1_555
C46 C45 1_555 1_555
H41 C46 1_555 1_555
C47 C46 1_555 1_555
H42 C47 1_555 1_555
C48 C47 1_555 1_555
C49 C48 1_555 1_555
H43 C49 1_555 1_555
C50 C49 1_555 1_555
H44 C50 1_555 1_555
C51 C50 1_555 1_555
H45 C51 1_555 1_555
C52 C51 1_555 1_555
H46 C52 1_555 1_555
C53 C48 1_555 1_555
C54 C45 1_555 1_555
C55 C54 1_555 1_555
C56 N8 1_555 1_555
C57 C56 1_555 1_555
H47 C57 1_555 1_555
C58 C57 1_555 1_555
H48 C58 1_555 1_555
C59 C58 1_555 1_555
C60 C59 1_555 1_555
H49 C60 1_555 1_555
C61 C60 1_555 1_555
H50 C61 1_555 1_555
C62 C61 1_555 1_555
H51 C62 1_555 1_555
C63 C62 1_555 1_555
H52 C63 1_555 1_555
C64 C55 1_555 1_555
C65 H53 1_555 1_555
C66 C65 1_555 1_555
H54 C66 1_555 1_555
C67 N9 1_555 1_555
H55 C67 1_555 1_555
C68 N12 1_555 1_555
H56 C68 1_555 1_555
C69 C68 1_555 1_555
H57 C69 1_555 1_555
C70 N11 1_555 1_555
H58 C70 1_555 1_555
C71 N14 1_555 1_555
H59 C71 1_555 1_555
C72 C71 1_555 1_555
H60 C72 1_555 1_555
C73 N13 1_555 1_555
H61 C73 1_555 1_555
C74 Fe1 1_555 1_555
C75 Fe1 1_555 1_555
C76 Fe1 1_555 1_555
C77 N19 1_555 1_555
H62 C77 1_555 1_555
C78 C77 1_555 1_555
H63 C78 1_555 1_555
C79 N20 1_555 1_555
H64 C79 1_555 1_555
C80 N15 1_555 1_555
H65 C80 1_555 1_555
C81 C80 1_555 1_555
H66 C81 1_555 1_555
C82 C81 1_555 1_555
H67 C82 1_555 1_555
C83 N17 1_555 1_555
H68 C83 1_555 1_555
C84 C83 1_555 1_555
H69 C84 1_555 1_555
C85 N18 1_555 1_555
H70 C85 1_555 1_555
C86 Fe2 1_555 1_555
C87 Fe2 1_555 1_555
C88 Fe2 1_555 1_555
C89 N24 1_555 1_555
H71 C89 1_555 1_555
C90 C89 1_555 1_555
H72 C90 1_555 1_555
C91 N23 1_555 1_555
H73 C91 1_555 1_555
C92 N26 1_555 1_555
H74 C92 1_555 1_555
C93 C92 1_555 1_555
H75 C93 1_555 1_555
C94 N25 1_555 1_555
H76 C94 1_555 1_555
C95 H77 1_555 1_555
C96 C95 1_555 1_555
H78 C96 1_555 1_555
C97 N21 1_555 1_555
H79 C97 1_555 1_555
C98 Fe3 1_555 1_555
C99 Fe3 1_555 1_555
C100 Fe3 1_555 1_555
C101 N27 1_555 1_555
H80 C101 1_555 1_555
C102 C101 1_555 1_555
H81 C102 1_555 1_555
C103 C102 1_555 1_555
H82 C103 1_555 1_555
C104 N30 1_555 1_555
H83 C104 1_555 1_555
C105 C104 1_555 1_555
H84 C105 1_555 1_555
C106 N29 1_555 1_555
H85 C106 1_555 1_555
C107 N32 1_555 1_555
H86 C107 1_555 1_555
C108 C107 1_555 1_555
H87 C108 1_555 1_555
C109 N31 1_555 1_555
H88 C109 1_555 1_555
C110 Fe4 1_555 1_555
C111 Fe4 1_555 1_555
C112 Fe4 1_555 1_555
B1 N10 1_555 1_555
H89 B1 1_555 1_555
B2 N16 1_555 1_555
H90 B2 1_555 1_555
B3 N22 1_555 1_555
H91 B3 1_555 1_555
B4 N28 1_555 1_555
H92 B4 1_555 1_555
O1 C114 1_555 1_555
C113 H93 1_555 1_555
H94 C113 1_555 1_555
H95 C113 1_555 1_555
C114 C113 1_555 1_555
C115 C114 1_555 1_555
H96 C115 1_555 1_555
H97 C115 1_555 1_555
H98 C115 1_555 1_555
O2 C117 1_555 1_555
C116 H99 1_555 1_555
H100 C116 1_555 1_555
H101 C116 1_555 1_555
C117 C116 1_555 1_555
C118 C117 1_555 1_555
H102 C118 1_555 1_555
H103 C118 1_555 1_555
H104 C118 1_555 1_555
O3 C120 1_555 1_555
C119 H105 1_555 1_555
H106 C119 1_555 1_555
H107 C119 1_555 1_555
C120 C119 1_555 1_555
C121 C120 1_555 1_555
H108 C121 1_555 1_555
H109 C121 1_555 1_555
H110 C121 1_555 1_555
O4 C123 1_555 1_555
C122 H111 1_555 1_555
H112 C122 1_555 1_555
H113 C122 1_555 1_555
C123 C122 1_555 1_555
C124 C123 1_555 1_555
H114 C124 1_555 1_555
H115 C124 1_555 1_555
H116 C124 1_555 1_555
O5 C126 1_555 1_555
C125 H117 1_555 1_555
H118 C125 1_555 1_555
H119 C125 1_555 1_555
C126 C125 1_555 1_555
C127 C126 1_555 1_555
H120 C127 1_555 1_555
H121 C127 1_555 1_555
H122 C127 1_555 1_555
O6 H123 1_555 1_555
H124 O6 1_555 1_555
O8 H127 1_555 1_555
H128 O8 1_555 1_555
N12 B1 1_555 1_555
N14 B1 1_555 1_555
N18 B2 1_555 1_555
N20 B2 1_555 1_555
N24 B3 1_555 1_555
N26 B3 1_555 1_555
N30 B4 1_555 1_555
N32 B4 1_555 1_555
N33 C76 1_555 1_555
N36 C86 1_555 1_555
N37 C88 1_555 1_555
N39 C111 1_555 1_555
N40 C112 1_555 1_555
N41 C110 1_555 1_555
N42 C99 1_555 1_555
N43 C100 1_555 1_555
N44 C98 1_555 1_555
C8 C9 1_555 1_555
C9 C10 1_555 1_555
C11 C20 1_555 1_555
C16 C17 1_555 1_555
C19 C20 1_555 1_555
C21 C22 1_555 1_555
C25 C26 1_555 1_555
C31 C32 1_555 1_555
C36 C37 1_555 1_555
C37 C38 1_555 1_555
C42 C43 1_555 1_555
C43 C44 1_555 1_555
C52 C53 1_555 1_555
C53 C54 1_555 1_555
C55 C56 1_555 1_555
C59 C64 1_555 1_555
C63 C64 1_555 1_555
C66 C67 1_555 1_555
C69 C70 1_555 1_555
C72 C73 1_555 1_555
C78 C79 1_555 1_555
C84 C85 1_555 1_555
C90 C91 1_555 1_555
C93 C94 1_555 1_555
C96 C97 1_555 1_555
C105 C106 1_555 1_555
C108 C109 1_555 1_555

#END
