
#######################################################################
#
#                 Cambridge Crystallographic Data Centre
#                                CCDC 
#
#######################################################################
#
# If this CIF has been generated from an entry in the Cambridge 
# Structural Database, then it will include bibliographic, chemical, 
# crystal, experimental, refinement or atomic coordinate data resulting 
# from the CCDC's data processing and validation procedures.
#
#######################################################################

data_EZIYOB
_chemical_formula_moiety         'C44 H32 O16 Zn2,2(C1 H4 O1)'
_chemical_name_systematic        
"bis(\m~2~-2,2'-Bi-(3-oxy-1,4-naphthoquinone)-O,O',O'',O''')-tetrakis(methanol)-di-zinc(ii) methanol solvate"
_symmetry_cell_setting           triclinic
_symmetry_space_group_name_H-M   'P -1'
_symmetry_Int_Tables_number      2
_space_group_name_Hall           '-P 1'
loop_
_symmetry_equiv_pos_site_id
_symmetry_equiv_pos_as_xyz
1 x,y,z
2 -x,-y,-z
_cell_length_a                   8.6800(8)
_cell_length_b                   11.2267(11)
_cell_length_c                   11.3502(11)
_cell_angle_alpha                85.631(8)
_cell_angle_beta                 81.781(8)
_cell_angle_gamma                80.144(8)
_cell_volume                     1077.02
_exptl_crystal_colour            red
_exptl_crystal_description       block
_cell_formula_units_Z            1
_chemical_properties_physical    air-sensitive
loop_
_atom_site_label
_atom_site_type_symbol
_atom_site_fract_x
_atom_site_fract_y
_atom_site_fract_z
Zn1 Zn 0.16879(12) 0.32870(8) 0.40116(8)
O1 O -0.0026(6) 0.3306(4) 0.5426(4)
O2 O 0.2821(7) 0.1985(5) 0.5189(5)
O3 O -0.0514(7) 0.2079(5) 0.9490(4)
O4 O 0.0963(6) 0.4688(4) 0.2927(5)
O5 O 0.3864(7) 0.3430(4) 0.2775(5)
O6 O -0.3314(7) 0.1853(4) 0.8230(5)
O7 O 0.2506(8) 0.4800(5) 0.4888(5)
O8 O 0.1141(10) 0.1928(5) 0.3116(7)
C1 C 0.0439(9) 0.2692(6) 0.6370(6)
C2 C 0.2004(9) 0.1917(6) 0.6168(6)
C3 C 0.2581(9) 0.1078(6) 0.7147(6)
C4 C 0.3962(9) 0.0273(7) 0.6965(7)
C5 C 0.4472(11) -0.0539(8) 0.7879(9)
C6 C 0.3522(11) -0.0522(8) 0.8956(8)
C7 C 0.2156(10) 0.0273(7) 0.9152(7)
C8 C 0.1646(9) 0.1087(6) 0.8252(6)
C9 C 0.0162(9) 0.1980(6) 0.8481(6)
C10 C -0.0423(8) 0.2725(6) 0.7489(6)
C11 C -0.1952(9) 0.3511(6) 0.7738(6)
C12 C 0.2126(9) 0.5256(6) 0.2520(6)
C13 C 0.3694(9) 0.4466(6) 0.2333(6)
C14 C 0.5014(9) 0.4985(6) 0.1630(7)
C15 C 0.6438(10) 0.4232(7) 0.1233(7)
C16 C 0.7671(10) 0.4759(8) 0.0605(7)
C17 C 0.7506(10) 0.6008(8) 0.0408(9)
C18 C 0.6134(9) 0.6738(7) 0.0810(8)
C19 C 0.4855(9) 0.6226(6) 0.1406(7)
C20 C -0.3329(9) 0.2975(6) 0.8186(6)
C21 C 0.3081(13) 0.4847(10) 0.5981(8)
C22 C 0.003(2) 0.2051(13) 0.2298(13)
H1 H 0.4586 0.0270 0.6207
H2 H 0.5435 -0.1094 0.7760
H3 H 0.3827 -0.1084 0.9584
H4 H 0.1539 0.0270 0.9915
H5 H 0.6555 0.3383 0.1393
H6 H 0.8626 0.4264 0.0308
H7 H 0.8359 0.6357 -0.0013
H8 H 0.6049 0.7592 0.0684
H9 H 0.2289 0.4757 0.6625
H10 H 0.3444 0.5597 0.6010
H11 H 0.3959 0.4203 0.6041
H12 H -0.0854 0.1657 0.2631
H13 H 0.0496 0.1666 0.1576
H14 H -0.0353 0.2873 0.2114
H18 H 0.169(7) 0.542(6) 0.477(5)
H19 H 0.141(10) 0.136(8) 0.326(8)
C11A C 0.1952(9) 0.6489(6) 0.2262(6)
C10A C 0.0423(8) 0.7275(6) 0.2511(6)
C1A C -0.0439(9) 0.7308(6) 0.3630(6)
O1A O 0.0026(6) 0.6694(4) 0.4574(4)
Zn1A Zn -0.16879(12) 0.67130(8) 0.59884(8)
O2A O -0.2821(7) 0.8015(5) 0.4811(5)
C2A C -0.2004(9) 0.8083(6) 0.3832(6)
C3A C -0.2581(9) 0.8922(6) 0.2853(6)
C4A C -0.3962(9) 0.9727(7) 0.3035(7)
C5A C -0.4472(11) 1.0539(8) 0.2121(9)
C6A C -0.3522(11) 1.0522(8) 0.1044(8)
C7A C -0.2156(10) 0.9727(7) 0.0848(7)
C8A C -0.1646(9) 0.8913(6) 0.1748(6)
C9A C -0.0162(9) 0.8020(6) 0.1519(6)
O3A O 0.0514(7) 0.7921(5) 0.0510(4)
H4A H -0.1539 0.9730 0.0085
H3A H -0.3827 1.1084 0.0416
H2A H -0.5435 1.1094 0.2240
H1A H -0.4586 0.9730 0.3793
O4A O -0.0963(6) 0.5312(4) 0.7073(5)
C12A C -0.2126(9) 0.4744(6) 0.7480(6)
C19A C -0.4855(9) 0.3774(6) 0.8594(7)
C14A C -0.5014(9) 0.5015(6) 0.8370(7)
C13A C -0.3694(9) 0.5534(6) 0.7667(6)
O5A O -0.3864(7) 0.6570(4) 0.7225(5)
O7A O -0.2506(8) 0.5200(5) 0.5112(5)
C21A C -0.3081(13) 0.5153(10) 0.4019(8)
H9A H -0.2289 0.5243 0.3375
H10A H -0.3444 0.4403 0.3990
H11A H -0.3959 0.5797 0.3959
H18A H -0.169(7) 0.458(6) 0.523(5)
O8A O -0.1141(10) 0.8072(5) 0.6884(7)
C22A C -0.003(2) 0.7949(13) 0.7702(13)
H12A H 0.0854 0.8343 0.7369
H13A H -0.0496 0.8334 0.8424
H14A H 0.0353 0.7127 0.7886
H19A H -0.141(10) 0.864(8) 0.674(8)
C15A C -0.6438(10) 0.5768(7) 0.8767(7)
C16A C -0.7671(10) 0.5241(8) 0.9395(7)
C17A C -0.7506(10) 0.3992(8) 0.9592(9)
C18A C -0.6134(9) 0.3262(7) 0.9190(8)
H8A H -0.6049 0.2408 0.9316
H7A H -0.8359 0.3643 1.0013
H6A H -0.8626 0.5736 0.9692
H5A H -0.6555 0.6617 0.8607
C20A C 0.3329(9) 0.7025(6) 0.1814(6)
O6A O 0.3314(7) 0.8147(4) 0.1770(5)
O9 O 0.1910(13) -0.0391(6) 0.3553(8)
C23 C 0.2155(17) -0.1051(11) 0.4611(12)
H15 H 0.1908 -0.0525 0.5254
H16 H 0.3235 -0.1420 0.4570
H17 H 0.1506 -0.1658 0.4739
H20 H 0.232(16) -0.096(12) 0.277(13)
loop_
_geom_bond_atom_site_label_1
_geom_bond_atom_site_label_2
_geom_bond_site_symmetry_1
_geom_bond_site_symmetry_2
Zn1 O1 1_555 1_555
O1 C1 1_555 1_555
O2 Zn1 1_555 1_555
O3 C9 1_555 1_555
O4 Zn1 1_555 1_555
O5 Zn1 1_555 1_555
O6 C20 1_555 1_555
O7 Zn1 1_555 1_555
O8 Zn1 1_555 1_555
O9 C23 1_555 1_555
C1 C2 1_555 1_555
C2 O2 1_555 1_555
C3 C2 1_555 1_555
C4 C3 1_555 1_555
C5 C4 1_555 1_555
C6 C5 1_555 1_555
C7 C6 1_555 1_555
C8 C3 1_555 1_555
C9 C8 1_555 1_555
C10 C1 1_555 1_555
C11 C10 1_555 1_555
C12 O4 1_555 1_555
C13 O5 1_555 1_555
C14 C13 1_555 1_555
C15 C14 1_555 1_555
C16 C15 1_555 1_555
C17 C16 1_555 1_555
C18 C17 1_555 1_555
C19 C14 1_555 1_555
C20 C11 1_555 1_555
C21 O7 1_555 1_555
C22 O8 1_555 1_555
C23 H15 1_555 1_555
H1 C4 1_555 1_555
H2 C5 1_555 1_555
H3 C6 1_555 1_555
H4 C7 1_555 1_555
H5 C15 1_555 1_555
H6 C16 1_555 1_555
H7 C17 1_555 1_555
H8 C18 1_555 1_555
H9 C21 1_555 1_555
H10 C21 1_555 1_555
H11 C21 1_555 1_555
H12 C22 1_555 1_555
H13 C22 1_555 1_555
H14 C22 1_555 1_555
H16 C23 1_555 1_555
H17 C23 1_555 1_555
H18 O7 1_555 1_555
H19 O8 1_555 1_555
H20 O9 1_555 1_555
C11A C12 1_555 1_555
C10A C11A 1_555 1_555
C1A C10A 1_555 1_555
O1A C1A 1_555 1_555
Zn1A O1A 1_555 1_555
O2A Zn1A 1_555 1_555
C2A C1A 1_555 1_555
C3A C2A 1_555 1_555
C4A C3A 1_555 1_555
C5A C4A 1_555 1_555
C6A C5A 1_555 1_555
C7A C6A 1_555 1_555
C8A C3A 1_555 1_555
C9A C10A 1_555 1_555
O3A C9A 1_555 1_555
H4A C7A 1_555 1_555
H3A C6A 1_555 1_555
H2A C5A 1_555 1_555
H1A C4A 1_555 1_555
O4A Zn1A 1_555 1_555
C12A C11 1_555 1_555
C19A C20 1_555 1_555
C14A C19A 1_555 1_555
C13A C12A 1_555 1_555
O5A Zn1A 1_555 1_555
O7A Zn1A 1_555 1_555
C21A O7A 1_555 1_555
H9A C21A 1_555 1_555
H10A C21A 1_555 1_555
H11A C21A 1_555 1_555
H18A O7A 1_555 1_555
O8A Zn1A 1_555 1_555
C22A O8A 1_555 1_555
H12A C22A 1_555 1_555
H13A C22A 1_555 1_555
H14A C22A 1_555 1_555
H19A O8A 1_555 1_555
C15A C14A 1_555 1_555
C16A C15A 1_555 1_555
C17A C16A 1_555 1_555
C18A C19A 1_555 1_555
H8A C18A 1_555 1_555
H7A C17A 1_555 1_555
H6A C16A 1_555 1_555
H5A C15A 1_555 1_555
C20A C19 1_555 1_555
O6A C20A 1_555 1_555
C7 C8 1_555 1_555
C9 C10 1_555 1_555
C12 C13 1_555 1_555
C18 C19 1_555 1_555
C11A C20A 1_555 1_555
O2A C2A 1_555 1_555
C7A C8A 1_555 1_555
C8A C9A 1_555 1_555
O4A C12A 1_555 1_555
C14A C13A 1_555 1_555
C13A O5A 1_555 1_555
C17A C18A 1_555 1_555

#END
