
#######################################################################
#
#                 Cambridge Crystallographic Data Centre
#                                CCDC 
#
#######################################################################
#
# If this CIF has been generated from an entry in the Cambridge 
# Structural Database, then it will include bibliographic, chemical, 
# crystal, experimental, refinement or atomic coordinate data resulting 
# from the CCDC's data processing and validation procedures.
#
#######################################################################

data_EZOBAW
_chemical_formula_moiety         'C80 H48 Ni4 O32,6(C2 H6 O1),10(H2 O1)'
_chemical_name_systematic        
"tetrakis(\m~2~-2,2'-Bi-(3-oxy-1,4-naphthoquinone)-O,O',O'',O''')-octa-aqua-tetra-nickel(ii) ethanol solvate decahydrate"
_symmetry_cell_setting           monoclinic
_symmetry_space_group_name_H-M   'C 2/m'
_symmetry_Int_Tables_number      12
_space_group_name_Hall           '-C 2y'
loop_
_symmetry_equiv_pos_site_id
_symmetry_equiv_pos_as_xyz
1 x,y,z
2 1/2+x,1/2+y,z
3 x,-y,z
4 1/2+x,1/2-y,z
5 -x,-y,-z
6 1/2-x,1/2-y,-z
7 -x,y,-z
8 1/2-x,1/2+y,-z
_cell_length_a                   18.576(2)
_cell_length_b                   21.508(3)
_cell_length_c                   18.1301(18)
_cell_angle_alpha                90
_cell_angle_beta                 116.470(7)
_cell_angle_gamma                90
_cell_volume                     6484.21
_exptl_crystal_colour            red
_exptl_crystal_description       block
_cell_formula_units_Z            2
_chemical_properties_physical    air-sensitive
loop_
_atom_site_label
_atom_site_type_symbol
_atom_site_fract_x
_atom_site_fract_y
_atom_site_fract_z
Ni1 Ni 0.31772(11) 0.5000 0.13165(11)
Ni2 Ni 0.5000 0.67520(9) 0.5000
O1 O 0.3916(4) 0.5708(4) 0.1860(3)
O2 O 0.2401(4) 0.5731(5) 0.0774(4)
O3 O 0.3849(5) 0.7872(4) 0.2107(4)
O4 O 0.4502(2) 0.6753(2) 0.3763(2)
O5 O 0.6026(2) 0.6754(2) 0.4818(3)
O6 O 0.5271(3) 0.6784(4) 0.1634(3)
O7 O 0.2785(4) 0.5000 0.2221(4)
O8 O 0.3486(6) 0.5000 0.0359(5)
O9 O 0.5000 0.5794(4) 0.5000
O10 O 0.5000 0.7707(3) 0.5000
C1 C 0.3600(6) 0.6248(9) 0.1682(5)
C2 C 0.2717(6) 0.6249(8) 0.1047(6)
C3 C 0.2272(7) 0.6850(8) 0.0777(6)
C4 C 0.1523(8) 0.6862(7) 0.0235(7)
C5 C 0.1095(9) 0.7398(17) -0.0017(10)
C6 C 0.1489(13) 0.7922(11) 0.0325(12)
C7 C 0.2272(8) 0.7926(7) 0.0906(6)
C8 C 0.2685(7) 0.7358(10) 0.1157(6)
C9 C 0.3537(6) 0.7366(8) 0.1787(5)
C10 C 0.3964(6) 0.6771(8) 0.2024(5)
C11 C 0.4822(4) 0.6778(4) 0.2643(4)
C12 C 0.5005(4) 0.6775(3) 0.3466(4)
C13 C 0.5878(4) 0.6769(3) 0.4088(4)
C14 C 0.6515(4) 0.6813(3) 0.3825(4)
C15 C 0.7310(5) 0.6824(4) 0.4388(4)
C16 C 0.7897(4) 0.6847(5) 0.4134(7)
C17 C 0.7699(7) 0.6859(6) 0.3320(9)
C18 C 0.6885(6) 0.6817(5) 0.2737(6)
C19 C 0.6301(5) 0.6805(4) 0.2992(5)
C20 C 0.5431(5) 0.6791(4) 0.2373(5)
H1 H 0.1218 0.6461 -0.0045
H2 H 0.0564 0.7427 -0.0402
H3 H 0.1216 0.8366 0.0169
H4 H 0.2587 0.8324 0.1193
H5 H 0.7445 0.6799 0.4965
H6 H 0.8457 0.6877 0.4525
H7 H 0.8105 0.6869 0.3126
H8 H 0.6746 0.6819 0.2158
O1B O 0.3916(4) 0.4292(4) 0.1860(3)
C1B C 0.3600(6) 0.3752(9) 0.1682(5)
C2B C 0.2717(6) 0.3751(8) 0.1047(6)
O2B O 0.2401(4) 0.4269(5) 0.0774(4)
C3B C 0.2272(7) 0.3150(8) 0.0777(6)
C4B C 0.1523(8) 0.3138(7) 0.0235(7)
C5B C 0.1095(9) 0.2602(17) -0.0017(10)
C6B C 0.1489(13) 0.2078(11) 0.0325(12)
C7B C 0.2272(8) 0.2074(7) 0.0906(6)
C8B C 0.2685(7) 0.2642(10) 0.1157(6)
C9B C 0.3537(6) 0.2634(8) 0.1787(5)
O3B O 0.3849(5) 0.2128(4) 0.2107(4)
C10B C 0.3964(6) 0.3229(8) 0.2024(5)
C11B C 0.4822(4) 0.3222(4) 0.2643(4)
C12B C 0.5005(4) 0.3225(3) 0.3466(4)
O4B O 0.4502(2) 0.3247(2) 0.3763(2)
Ni2B Ni 0.5000 0.32480(9) 0.5000
O4D O 0.5498(2) 0.3247(2) 0.6237(2)
C12D C 0.4995(4) 0.3225(3) 0.6534(4)
C11D C 0.5178(4) 0.3222(4) 0.7357(4)
C10D C 0.6036(6) 0.3229(8) 0.7976(5)
C1D C 0.6400(6) 0.3752(9) 0.8318(5)
O1D O 0.6084(4) 0.4292(4) 0.8140(3)
Ni1D Ni 0.68228(11) 0.5000 0.86835(11)
O1F O 0.6084(4) 0.5708(4) 0.8140(3)
C1F C 0.6400(6) 0.6248(9) 0.8318(5)
C2F C 0.7283(6) 0.6249(8) 0.8953(6)
O2F O 0.7599(4) 0.5731(5) 0.9226(4)
O2D O 0.7599(4) 0.4269(5) 0.9226(4)
C2D C 0.7283(6) 0.3751(8) 0.8953(6)
C3D C 0.7728(7) 0.3150(8) 0.9223(6)
C4D C 0.8477(8) 0.3138(7) 0.9765(7)
C5D C 0.8905(9) 0.2602(17) 1.0017(10)
C6D C 0.8511(13) 0.2078(11) 0.9675(12)
C7D C 0.7728(8) 0.2074(7) 0.9094(6)
C8D C 0.7315(7) 0.2642(10) 0.8843(6)
C9D C 0.6463(6) 0.2634(8) 0.8213(5)
O3D O 0.6151(5) 0.2128(4) 0.7893(4)
H4D H 0.7413 0.1676 0.8807
H3D H 0.8784 0.1634 0.9831
H2D H 0.9436 0.2573 1.0402
H1D H 0.8782 0.3539 1.0045
O7D O 0.7215(4) 0.5000 0.7779(4)
O8D O 0.6514(6) 0.5000 0.9641(5)
C3F C 0.7728(7) 0.6850(8) 0.9223(6)
C4F C 0.8477(8) 0.6862(7) 0.9765(7)
C5F C 0.8905(9) 0.7398(17) 1.0017(10)
C6F C 0.8511(13) 0.7922(11) 0.9675(12)
C7F C 0.7728(8) 0.7926(7) 0.9094(6)
C8F C 0.7315(7) 0.7358(10) 0.8843(6)
C9F C 0.6463(6) 0.7366(8) 0.8213(5)
O3F O 0.6151(5) 0.7872(4) 0.7893(4)
C10F C 0.6036(6) 0.6771(8) 0.7976(5)
C11F C 0.5178(4) 0.6778(4) 0.7357(4)
C12F C 0.4995(4) 0.6775(3) 0.6534(4)
O4F O 0.5498(2) 0.6753(2) 0.6237(2)
O5F O 0.3974(2) 0.6754(2) 0.5182(3)
C13F C 0.4122(4) 0.6769(3) 0.5912(4)
C14F C 0.3485(4) 0.6813(3) 0.6175(4)
C15F C 0.2690(5) 0.6824(4) 0.5612(4)
C16F C 0.2103(4) 0.6847(5) 0.5866(7)
C17F C 0.2301(7) 0.6859(6) 0.6680(9)
C18F C 0.3115(6) 0.6817(5) 0.7263(6)
C19F C 0.3699(5) 0.6805(4) 0.7008(5)
C20F C 0.4569(5) 0.6791(4) 0.7627(5)
O6F O 0.4729(3) 0.6784(4) 0.8366(3)
H8F H 0.3254 0.6819 0.7842
H7F H 0.1895 0.6869 0.6874
H6F H 0.1543 0.6877 0.5475
H5F H 0.2555 0.6799 0.5035
H4F H 0.7413 0.8324 0.8807
H3F H 0.8784 0.8366 0.9831
H2F H 0.9436 0.7427 1.0402
H1F H 0.8782 0.6461 1.0045
C20D C 0.4569(5) 0.3209(4) 0.7627(5)
O6D O 0.4729(3) 0.3216(4) 0.8366(3)
C19D C 0.3699(5) 0.3195(4) 0.7008(5)
C14D C 0.3485(4) 0.3187(3) 0.6175(4)
C13D C 0.4122(4) 0.3231(3) 0.5912(4)
O5D O 0.3974(2) 0.3246(2) 0.5182(3)
O5B O 0.6026(2) 0.3246(2) 0.4818(3)
C13B C 0.5878(4) 0.3231(3) 0.4088(4)
C14B C 0.6515(4) 0.3187(3) 0.3825(4)
C15B C 0.7310(5) 0.3176(4) 0.4388(4)
C16B C 0.7897(4) 0.3153(5) 0.4134(7)
C17B C 0.7699(7) 0.3141(6) 0.3320(9)
C18B C 0.6885(6) 0.3183(5) 0.2737(6)
C19B C 0.6301(5) 0.3195(4) 0.2992(5)
C20B C 0.5431(5) 0.3209(4) 0.2373(5)
O6B O 0.5271(3) 0.3216(4) 0.1634(3)
H8B H 0.6746 0.3181 0.2158
H7B H 0.8105 0.3131 0.3126
H6B H 0.8457 0.3123 0.4525
H5B H 0.7445 0.3201 0.4965
O9B O 0.5000 0.4206(4) 0.5000
O10B O 0.5000 0.2293(3) 0.5000
C15D C 0.2690(5) 0.3176(4) 0.5612(4)
C16D C 0.2103(4) 0.3153(5) 0.5866(7)
C17D C 0.2301(7) 0.3141(6) 0.6680(9)
C18D C 0.3115(6) 0.3183(5) 0.7263(6)
H8D H 0.3254 0.3181 0.7842
H7D H 0.1895 0.3131 0.6874
H6D H 0.1543 0.3123 0.5475
H5D H 0.2555 0.3201 0.5035
H4B H 0.2587 0.1676 0.1193
H3B H 0.1216 0.1634 0.0169
H2B H 0.0564 0.2573 -0.0402
H1B H 0.1218 0.3539 -0.0045
O11 O 0.4806(14) 0.5000 0.3556(11)
O12 O 0.4886(8) 0.5770(6) 0.0667(6)
O13 O 0.238(3) 0.5000 -0.111(2)
O14 O 0.3083(5) 0.6056(5) 0.3127(5)
C21 C 0.2466(13) 0.6403(13) 0.3197(14)
C22 C 0.1605(15) 0.6314(14) 0.2534(17)
O15 O 0.4924(6) 0.8290(5) 0.3651(4)
C23 C 0.497(3) 0.8996(12) 0.372(3)
C24 C 0.541(4) 0.926(2) 0.334(5)
loop_
_geom_bond_atom_site_label_1
_geom_bond_atom_site_label_2
_geom_bond_site_symmetry_1
_geom_bond_site_symmetry_2
Ni1 O1 1_555 1_555
Ni2 O4 1_555 1_555
O1 C1 1_555 1_555
O2 Ni1 1_555 1_555
O3 C9 1_555 1_555
O4 C12 1_555 1_555
O5 Ni2 1_555 1_555
O6 C20 1_555 1_555
O7 Ni1 1_555 1_555
O8 Ni1 1_555 1_555
O9 Ni2 1_555 1_555
O10 Ni2 1_555 1_555
O14 C21 1_555 1_555
O15 C23 1_555 1_555
C1 C2 1_555 1_555
C2 O2 1_555 1_555
C3 C2 1_555 1_555
C4 C3 1_555 1_555
C5 C4 1_555 1_555
C6 C5 1_555 1_555
C7 C6 1_555 1_555
C8 C3 1_555 1_555
C9 C8 1_555 1_555
C10 C1 1_555 1_555
C11 C10 1_555 1_555
C12 C11 1_555 1_555
C13 O5 1_555 1_555
C14 C13 1_555 1_555
C15 C14 1_555 1_555
C16 C15 1_555 1_555
C17 C16 1_555 1_555
C18 C17 1_555 1_555
C19 C14 1_555 1_555
C20 C11 1_555 1_555
C21 C22 1_555 1_555
C23 C24 1_555 1_555
H1 C4 1_555 1_555
H2 C5 1_555 1_555
H3 C6 1_555 1_555
H4 C7 1_555 1_555
H5 C15 1_555 1_555
H6 C16 1_555 1_555
H7 C17 1_555 1_555
H8 C18 1_555 1_555
O1B Ni1 1_555 1_555
C1B O1B 1_555 1_555
C2B C1B 1_555 1_555
O2B Ni1 1_555 1_555
C3B C2B 1_555 1_555
C4B C3B 1_555 1_555
C5B C4B 1_555 1_555
C6B C5B 1_555 1_555
C7B C6B 1_555 1_555
C8B C3B 1_555 1_555
C9B C8B 1_555 1_555
O3B C9B 1_555 1_555
C10B C1B 1_555 1_555
C11B C10B 1_555 1_555
C12B C11B 1_555 1_555
O4B C12B 1_555 1_555
Ni2B O4B 1_555 1_555
O4D Ni2B 1_555 1_555
C12D O4D 1_555 1_555
C11D C12D 1_555 1_555
C10D C11D 1_555 1_555
C1D C10D 1_555 1_555
O1D C1D 1_555 1_555
Ni1D O1D 1_555 1_555
O1F Ni1D 1_555 1_555
C1F O1F 1_555 1_555
C2F C1F 1_555 1_555
O2F Ni1D 1_555 1_555
O2D Ni1D 1_555 1_555
C2D C1D 1_555 1_555
C3D C2D 1_555 1_555
C4D C3D 1_555 1_555
C5D C4D 1_555 1_555
C6D C5D 1_555 1_555
C7D C6D 1_555 1_555
C8D C3D 1_555 1_555
C9D C10D 1_555 1_555
O3D C9D 1_555 1_555
H4D C7D 1_555 1_555
H3D C6D 1_555 1_555
H2D C5D 1_555 1_555
H1D C4D 1_555 1_555
O7D Ni1D 1_555 1_555
O8D Ni1D 1_555 1_555
C3F C2F 1_555 1_555
C4F C3F 1_555 1_555
C5F C4F 1_555 1_555
C6F C5F 1_555 1_555
C7F C6F 1_555 1_555
C8F C3F 1_555 1_555
C9F C8F 1_555 1_555
O3F C9F 1_555 1_555
C10F C1F 1_555 1_555
C11F C10F 1_555 1_555
C12F C11F 1_555 1_555
O4F Ni2 1_555 1_555
O5F Ni2 1_555 1_555
C13F C12F 1_555 1_555
C14F C13F 1_555 1_555
C15F C14F 1_555 1_555
C16F C15F 1_555 1_555
C17F C16F 1_555 1_555
C18F C17F 1_555 1_555
C19F C14F 1_555 1_555
C20F C11F 1_555 1_555
O6F C20F 1_555 1_555
H8F C18F 1_555 1_555
H7F C17F 1_555 1_555
H6F C16F 1_555 1_555
H5F C15F 1_555 1_555
H4F C7F 1_555 1_555
H3F C6F 1_555 1_555
H2F C5F 1_555 1_555
H1F C4F 1_555 1_555
C20D C11D 1_555 1_555
O6D C20D 1_555 1_555
C19D C20D 1_555 1_555
C14D C19D 1_555 1_555
C13D C12D 1_555 1_555
O5D Ni2B 1_555 1_555
O5B Ni2B 1_555 1_555
C13B C12B 1_555 1_555
C14B C13B 1_555 1_555
C15B C14B 1_555 1_555
C16B C15B 1_555 1_555
C17B C16B 1_555 1_555
C18B C17B 1_555 1_555
C19B C14B 1_555 1_555
C20B C11B 1_555 1_555
O6B C20B 1_555 1_555
H8B C18B 1_555 1_555
H7B C17B 1_555 1_555
H6B C16B 1_555 1_555
H5B C15B 1_555 1_555
O9B Ni2B 1_555 1_555
O10B Ni2B 1_555 1_555
C15D C14D 1_555 1_555
C16D C15D 1_555 1_555
C17D C16D 1_555 1_555
C18D C19D 1_555 1_555
H8D C18D 1_555 1_555
H7D C17D 1_555 1_555
H6D C16D 1_555 1_555
H5D C15D 1_555 1_555
H4B C7B 1_555 1_555
H3B C6B 1_555 1_555
H2B C5B 1_555 1_555
H1B C4B 1_555 1_555
C7 C8 1_555 1_555
C9 C10 1_555 1_555
C12 C13 1_555 1_555
C18 C19 1_555 1_555
C19 C20 1_555 1_555
C2B O2B 1_555 1_555
C7B C8B 1_555 1_555
C9B C10B 1_555 1_555
C2F O2F 1_555 1_555
O2D C2D 1_555 1_555
C7D C8D 1_555 1_555
C8D C9D 1_555 1_555
C7F C8F 1_555 1_555
C9F C10F 1_555 1_555
C12F O4F 1_555 1_555
O5F C13F 1_555 1_555
C18F C19F 1_555 1_555
C19F C20F 1_555 1_555
C14D C13D 1_555 1_555
C13D O5D 1_555 1_555
O5B C13B 1_555 1_555
C18B C19B 1_555 1_555
C19B C20B 1_555 1_555
C17D C18D 1_555 1_555

#END
