
#######################################################################
#
#                 Cambridge Crystallographic Data Centre
#                                CCDC 
#
#######################################################################
#
# If this CIF has been generated from an entry in the Cambridge 
# Structural Database, then it will include bibliographic, chemical, 
# crystal, experimental, refinement or atomic coordinate data resulting 
# from the CCDC's data processing and validation procedures.
#
#######################################################################

data_FABQOO
_chemical_formula_moiety         
'C57 H72 Fe2 N3 O12 3+,3(Cl4 Fe1 1-),2(C1 H2 Cl2)'
_chemical_name_systematic        
'tris(\m~2~-2,6-bis(4,4-Dimethyl-pentane-1,3-dione)pyridinium)-di-iron tetrachloro-iron(iii) dichloromethane solvate'
_symmetry_cell_setting           monoclinic
_symmetry_space_group_name_H-M   'P 21'
_symmetry_Int_Tables_number      4
_space_group_name_Hall           'P 2yb'
loop_
_symmetry_equiv_pos_site_id
_symmetry_equiv_pos_as_xyz
1 x,y,z
2 -x,1/2+y,-z
_cell_length_a                   14.678(3)
_cell_length_b                   40.001(8)
_cell_length_c                   15.114(3)
_cell_angle_alpha                90
_cell_angle_beta                 111.20(3)
_cell_angle_gamma                90
_cell_volume                     8273.4
_exptl_crystal_colour            'dark red'
_exptl_crystal_description       blocks
_chemical_melting_point          'above 250deg.C.(dec.)'
_cell_formula_units_Z            4
_exptl_crystal_recrystallization_method 'diethyl ether/dichloromethane'
loop_
_atom_site_label
_atom_site_type_symbol
_atom_site_fract_x
_atom_site_fract_y
_atom_site_fract_z
Fe1 Fe 0.81412(6) 0.45342(2) 0.01520(6)
O1 O 0.8250(3) 0.47427(11) 0.1376(3)
C1 C 0.7693(4) 0.49545(17) 0.1546(4)
C2 C 0.6903(5) 0.51211(18) 0.0878(4)
H1 H 0.6497 0.5260 0.1087
C3 C 0.6702(4) 0.50840(17) -0.0113(4)
O2 O 0.7219(3) 0.49035(11) -0.0432(3)
C4 C 0.5873(4) 0.52634(15) -0.0849(4)
C5 C 0.5180(5) 0.50000(19) -0.1478(5)
H2 H 0.5542 0.4855 -0.1758
H3 H 0.4649 0.5111 -0.1984
H4 H 0.4906 0.4865 -0.1093
C6 C 0.5289(5) 0.54920(19) -0.0434(4)
H5 H 0.5029 0.5360 -0.0032
H6 H 0.4748 0.5594 -0.0952
H7 H 0.5718 0.5668 -0.0054
C7 C 0.6310(5) 0.5469(2) -0.1453(5)
H8 H 0.6777 0.5632 -0.1049
H9 H 0.5786 0.5588 -0.1948
H10 H 0.6647 0.5320 -0.1749
O3 O 0.8870(3) 0.41477(11) 0.0866(3)
C8 C 0.8583(4) 0.38452(17) 0.0892(4)
C9 C 0.7656(5) 0.37192(18) 0.0431(5)
H11 H 0.7545 0.3486 0.0460
C10 C 0.6875(4) 0.39278(18) -0.0079(4)
O4 O 0.6965(3) 0.42382(12) -0.0171(3)
C11 C 0.5881(8) 0.3761(3) -0.0556(9)
C12 C 0.5111(10) 0.4031(4) -0.0804(13)
H12 H 0.4465 0.3930 -0.1117
H13 H 0.5236 0.4193 -0.1233
H14 H 0.5131 0.4145 -0.0224
C13 C 0.5936(10) 0.3582(4) -0.1421(10)
H15 H 0.5313 0.3470 -0.1757
H16 H 0.6463 0.3417 -0.1219
H17 H 0.6066 0.3745 -0.1845
C14 C 0.5683(11) 0.3510(4) 0.0104(11)
H18 H 0.5045 0.3405 -0.0218
H19 H 0.5680 0.3625 0.0677
H20 H 0.6194 0.3338 0.0281
O5 O 0.9438(3) 0.47414(11) 0.0326(3)
C19 C 0.9713(4) 0.48704(16) -0.0307(4)
C20 C 0.9262(4) 0.48280(18) -0.1274(4)
H30 H 0.9471 0.4959 -0.1689
C21 C 0.8502(5) 0.45963(17) -0.1661(4)
O6 O 0.8121(3) 0.44380(11) -0.1156(3)
C22 C 0.8088(5) 0.45178(19) -0.2712(4)
C23 C 0.7823(7) 0.4153(2) -0.2863(5)
H31 H 0.8414 0.4017 -0.2585
H32 H 0.7528 0.4107 -0.3544
H33 H 0.7356 0.4097 -0.2557
C24 C 0.7191(7) 0.4727(3) -0.3148(6)
H34 H 0.6715 0.4673 -0.2852
H35 H 0.6904 0.4682 -0.3830
H36 H 0.7366 0.4964 -0.3046
C25 C 0.8832(8) 0.4599(3) -0.3184(5)
H37 H 0.8940 0.4841 -0.3169
H38 H 0.8578 0.4521 -0.3844
H39 H 0.9451 0.4485 -0.2840
Fe2 Fe 1.19798(6) 0.45975(3) 0.39468(6)
O7 O 1.0659(3) 0.47585(12) 0.3807(3)
C26 C 1.0300(4) 0.48126(18) 0.4451(4)
C27 C 1.0740(5) 0.4750(2) 0.5407(4)
H40 H 1.0438 0.4829 0.5828
C28 C 1.1614(4) 0.4575(2) 0.5774(5)
O8 O 1.2085(3) 0.44744(12) 0.5260(3)
C29 C 1.2026(5) 0.4474(2) 0.6819(4)
C30 C 1.1789(7) 0.4724(3) 0.7447(5)
H41 H 1.1079 0.4742 0.7262
H42 H 1.2058 0.4943 0.7378
H43 H 1.2077 0.4651 0.8109
C31 C 1.3135(6) 0.4445(4) 0.7132(6)
H44 H 1.3416 0.4409 0.7819
H45 H 1.3399 0.4651 0.6970
H46 H 1.3300 0.4255 0.6806
C32 C 1.1579(8) 0.4147(3) 0.6885(6)
H47 H 1.1763 0.4084 0.7553
H48 H 1.1812 0.3976 0.6552
H49 H 1.0866 0.4164 0.6593
O9 O 1.1367(3) 0.41936(11) 0.3213(3)
C33 C 1.1693(5) 0.38961(19) 0.3298(4)
C34 C 1.2640(5) 0.3796(2) 0.3802(5)
H50 H 1.2799 0.3565 0.3864
C35 C 1.3381(5) 0.4038(2) 0.4229(5)
O10 O 1.3228(3) 0.43422(14) 0.4208(3)
C36 C 1.4428(6) 0.3911(3) 0.4794(8)
C37 C 1.5114(7) 0.4205(4) 0.4996(14)
H51 H 1.5118 0.4297 0.4397
H52 H 1.5775 0.4132 0.5387
H53 H 1.4896 0.4377 0.5336
C38 C 1.4409(9) 0.3764(4) 0.5732(8)
H54 H 1.5052 0.3670 0.6099
H55 H 1.3914 0.3587 0.5591
H56 H 1.4249 0.3940 0.6101
C39 C 1.4715(7) 0.3644(3) 0.4208(9)
H57 H 1.4657 0.3737 0.3591
H58 H 1.4279 0.3450 0.4112
H59 H 1.5391 0.3573 0.4549
O11 O 1.1794(3) 0.48297(12) 0.2745(3)
C40 C 1.2297(4) 0.50704(17) 0.2576(4)
C41 C 1.3069(4) 0.52292(18) 0.3224(4)
H60 H 1.3422 0.5388 0.3007
C42 C 1.3372(4) 0.51655(18) 0.4224(4)
O12 O 1.2897(3) 0.49739(13) 0.4560(3)
C43 C 1.4275(5) 0.5340(2) 0.4909(5)
C44 C 1.4089(7) 0.5713(2) 0.4832(6)
H61 H 1.3454 0.5760 0.4882
H62 H 1.4087 0.5793 0.4219
H63 H 1.4605 0.5827 0.5346
C45 C 1.4483(6) 0.5221(2) 0.5917(5)
H64 H 1.3946 0.5288 0.6119
H65 H 1.5094 0.5321 0.6342
H66 H 1.4543 0.4977 0.5941
C46 C 1.5152(5) 0.5246(3) 0.4648(5)
H67 H 1.5747 0.5342 0.5114
H68 H 1.5061 0.5334 0.4016
H69 H 1.5212 0.5002 0.4645
N1 N 0.8868(3) 0.49219(14) 0.3097(3)
H70 H 0.9229(9) 0.4815(3) 0.2778(8)
C47 C 0.7975(4) 0.50330(18) 0.2575(4)
C48 C 0.7437(5) 0.5199(2) 0.3019(4)
H71 H 0.6808 0.5287 0.2667
C49 C 0.7846(6) 0.5233(2) 0.3999(5)
H72 H 0.7481 0.5344 0.4318
C50 C 0.8758(5) 0.5112(2) 0.4526(5)
H73 H 0.9020 0.5136 0.5197
C51 C 0.9288(4) 0.49523(18) 0.4049(4)
N2 N 1.0160(4) 0.37879(14) 0.2108(4)
H74 H 1.0139(4) 0.4023(5) 0.2093(4)
C52 C 0.9378(4) 0.36224(17) 0.1507(4)
C53 C 0.9410(5) 0.32782(17) 0.1527(5)
H75 H 0.8879 0.3150 0.1119
C54 C 1.0243(5) 0.31208(19) 0.2162(5)
H76 H 1.0279 0.2884 0.2189
C55 C 1.1015(5) 0.33099(19) 0.2752(5)
H77 H 1.1581 0.3202 0.3177
C56 C 1.0964(4) 0.36424(18) 0.2726(4)
N3 N 1.1100(4) 0.50210(14) 0.1038(3)
H78 H 1.0807(7) 0.4875(3) 0.1344(7)
C57 C 1.0646(4) 0.50647(18) 0.0095(4)
C58 C 1.1052(5) 0.5272(2) -0.0379(4)
H79 H 1.0768 0.5296 -0.1048
C59 C 1.1893(5) 0.5446(2) 0.0149(5)
H80 H 1.2165 0.5602 -0.0161
C60 C 1.2342(5) 0.5395(2) 0.1120(5)
H81 H 1.2920 0.5514 0.1474
C61 C 1.1929(4) 0.51689(17) 0.1567(4)
Fe3 Fe 0.79942(6) 0.72627(2) 0.13589(6)
O13 O 0.8878(3) 0.75978(12) 0.2158(3)
C62 C 0.8963(4) 0.79103(18) 0.2008(4)
C63 C 0.8472(5) 0.80791(19) 0.1197(5)
H82 H 0.8554 0.8314 0.1184
C64 C 0.7843(5) 0.7918(2) 0.0371(4)
O14 O 0.7703(3) 0.76093(13) 0.0332(3)
C65 C 0.7268(9) 0.8139(3) -0.0484(9)
C66 C 0.7964(14) 0.8207(5) -0.0990(17)
H83 H 0.7642 0.8349 -0.1544
H84 H 0.8156 0.7995 -0.1196
H85 H 0.8545 0.8321 -0.0558
C67 C 0.6408(11) 0.7940(4) -0.1117(11)
H86 H 0.6025 0.8076 -0.1664
H87 H 0.5996 0.7875 -0.0760
H88 H 0.6643 0.7739 -0.1338
C68 C 0.6948(13) 0.8473(4) -0.0196(11)
H89 H 0.6585 0.8602 -0.0767
H90 H 0.7526 0.8600 0.0192
H91 H 0.6528 0.8432 0.0170
O15 O 0.8106(3) 0.69990(11) 0.2507(3)
C73 C 0.7416(4) 0.68989(17) 0.2764(4)
C74 C 0.6445(4) 0.69879(19) 0.2377(4)
H101 H 0.5984 0.6873 0.2573
C75 C 0.6121(4) 0.72444(18) 0.1703(4)
O16 O 0.6679(3) 0.73941(12) 0.1374(3)
C80 C 0.5068(8) 0.7373(4) 0.1379(12)
C81 C 0.5006(18) 0.7622(7) 0.2127(12)
H111 H 0.5129 0.7505 0.2729
H112 H 0.4353 0.7723 0.1912
H113 H 0.5497 0.7798 0.2218
C82 C 0.4383(14) 0.7079(5) 0.127(2)
H114 H 0.4546 0.6965 0.1886
H115 H 0.4453 0.6922 0.0804
H116 H 0.3707 0.7159 0.1062
C83 C 0.487(3) 0.7551(7) 0.0446(15)
H117 H 0.5341 0.7733 0.0534
H118 H 0.4205 0.7644 0.0223
H119 H 0.4926 0.7393 -0.0024
O17 O 0.9176(3) 0.70294(11) 0.1332(3)
C84 C 0.9265(4) 0.68406(17) 0.0685(4)
C85 C 0.8529(4) 0.67211(17) -0.0093(4)
H120 H 0.8688 0.6601 -0.0561
C86 C 0.7539(4) 0.67709(17) -0.0221(4)
O18 O 0.7286(3) 0.69451(12) 0.0349(3)
C87 C 0.6694(4) 0.66108(18) -0.1022(4)
C88 C 0.7004(5) 0.6441(2) -0.1765(5)
H121 H 0.7317 0.6606 -0.2044
H122 H 0.6429 0.6348 -0.2262
H123 H 0.7468 0.6262 -0.1467
C89 C 0.5956(6) 0.6890(2) -0.1494(5)
H124 H 0.5717 0.6989 -0.1026
H125 H 0.5405 0.6796 -0.2019
H126 H 0.6276 0.7063 -0.1738
C90 C 0.6227(7) 0.6366(2) -0.0560(6)
H127 H 0.6732 0.6223 -0.0120
H128 H 0.5758 0.6227 -0.1048
H129 H 0.5886 0.6488 -0.0209
Fe4 Fe 1.18631(6) 0.69335(3) 0.49496(6)
O19 O 1.1244(3) 0.73762(12) 0.4499(3)
C91 C 1.1418(5) 0.76554(19) 0.4949(5)
C92 C 1.1949(6) 0.7702(2) 0.5889(5)
H130 H 1.2098 0.7923 0.6130
C93 C 1.2287(5) 0.7422(2) 0.6520(5)
O20 O 1.2188(3) 0.71312(14) 0.6253(3)
C94 C 1.2816(6) 0.7487(2) 0.7588(5)
C95 C 1.2926(9) 0.7155(3) 0.8128(6)
H131 H 1.2279 0.7058 0.8008
H132 H 1.3254 0.7195 0.8810
H133 H 1.3317 0.6999 0.7910
C96 C 1.3828(7) 0.7624(3) 0.7702(6)
H134 H 1.4177 0.7459 0.7464
H135 H 1.4199 0.7668 0.8374
H136 H 1.3754 0.7832 0.7340
C97 C 1.2270(7) 0.7746(3) 0.7948(5)
H137 H 1.2259 0.7960 0.7628
H138 H 1.2602 0.7775 0.8634
H139 H 1.1599 0.7670 0.7814
O21 O 1.0566(3) 0.67441(12) 0.4688(3)
C98 C 1.0303(4) 0.65125(18) 0.5133(4)
C99 C 1.0901(4) 0.63166(19) 0.5839(4)
H140 H 1.0618 0.6172 0.6168
C100 C 1.1934(4) 0.63199(18) 0.6104(4)
O22 O 1.2359(3) 0.65047(13) 0.5697(3)
C101 C 1.2572(5) 0.6085(2) 0.6881(5)
C102 C 1.2332(6) 0.6155(3) 0.7774(5)
H141 H 1.2712 0.6004 0.8284
H142 H 1.1633 0.6118 0.7631
H143 H 1.2497 0.6387 0.7975
C103 C 1.3644(5) 0.6143(2) 0.7068(6)
H144 H 1.3765 0.6119 0.6475
H145 H 1.4036 0.5979 0.7531
H146 H 1.3826 0.6369 0.7321
C104 C 1.2302(5) 0.5726(2) 0.6559(6)
H147 H 1.2365 0.5692 0.5942
H148 H 1.1625 0.5683 0.6502
H149 H 1.2740 0.5573 0.7026
O23 O 1.1681(3) 0.68376(12) 0.3608(3)
C105 C 1.2312(4) 0.68095(17) 0.3219(4)
C106 C 1.3314(4) 0.68408(18) 0.3647(4)
H150 H 1.3717 0.6797 0.3289
C107 C 1.3755(4) 0.69386(18) 0.4623(4)
O24 O 1.3261(3) 0.70105(12) 0.5116(3)
C108 C 1.4869(4) 0.6948(2) 0.5104(4)
C109 C 1.5366(5) 0.7063(2) 0.4437(5)
H151 H 1.5242 0.6901 0.3921
H152 H 1.6072 0.7081 0.4786
H153 H 1.5107 0.7282 0.4173
C110 C 1.5153(5) 0.7171(3) 0.5966(6)
H154 H 1.5866 0.7178 0.6268
H155 H 1.4871 0.7083 0.6416
H156 H 1.4904 0.7398 0.5773
C111 C 1.5168(5) 0.6582(2) 0.5410(6)
H157 H 1.5036 0.6442 0.4845
H158 H 1.4790 0.6499 0.5783
H159 H 1.5867 0.6573 0.5797
N4 N 1.0229(4) 0.78617(15) 0.3521(3)
H160 H 1.0070(5) 0.7632(5) 0.3419(4)
C112 C 0.9725(4) 0.80816(18) 0.2833(4)
C113 C 0.9929(6) 0.84100(19) 0.2991(5)
H161 H 0.9575 0.8571 0.2535
C114 C 1.0662(6) 0.8510(2) 0.3828(5)
H162 H 1.0816 0.8741 0.3938
C115 C 1.1175(5) 0.82750(19) 0.4508(5)
H163 H 1.1680 0.8342 0.5078
C116 C 1.0936(5) 0.79504(19) 0.4336(5)
N5 N 0.8730(3) 0.66595(14) 0.4029(3)
H164 H 0.9101(9) 0.6798(3) 0.3785(6)
C117 C 0.7771(4) 0.66674(18) 0.3606(4)
C118 C 0.7220(5) 0.64633(19) 0.3955(5)
H165 H 0.6527 0.6466 0.3671
C119 C 0.7666(5) 0.6260(2) 0.4701(4)
H166 H 0.7283 0.6120 0.4938
C120 C 0.8691(5) 0.62541(19) 0.5131(4)
H167 H 0.9008 0.6107 0.5643
C121 C 0.9221(4) 0.64661(17) 0.4791(4)
N6 N 1.0894(3) 0.67921(13) 0.1806(3)
H168 H 1.0601(7) 0.6870(2) 0.2227(10)
C122 C 1.0306(4) 0.67431(17) 0.0904(4)
C123 C 1.0731(5) 0.6631(2) 0.0273(5)
H169 H 1.0344 0.6593 -0.0375
C124 C 1.1745(5) 0.6575(2) 0.0611(5)
H170 H 1.2048 0.6499 0.0190
C125 C 1.2303(5) 0.6631(2) 0.1558(4)
H171 H 1.2989 0.6595 0.1785
C126 C 1.1859(4) 0.67401(16) 0.2165(4)
Fe5 Fe 0.7393(5) 0.40490(17) 0.3266(5)
Cl1 Cl 0.7241(5) 0.4365(2) 0.4367(4)
Cl2 Cl 0.6797(3) 0.35541(12) 0.3295(5)
Cl3 Cl 0.8961(5) 0.4027(3) 0.3514(7)
Cl4 Cl 0.6591(6) 0.42805(19) 0.1914(4)
Fe7 Fe 1.02534(8) 0.58426(3) 0.27299(7)
Cl9 Cl 1.0429(3) 0.56707(7) 0.41506(16)
Cl10 Cl 1.16844(16) 0.59662(6) 0.2670(3)
Cl11 Cl 0.95948(14) 0.54446(5) 0.17129(13)
Cl12 Cl 0.93117(15) 0.62830(5) 0.23853(15)
Fe8 Fe 0.88676(7) 0.58491(3) 0.76134(6)
Cl13 Cl 0.89930(15) 0.57237(6) 0.90502(13)
Cl14 Cl 0.73672(14) 0.57838(6) 0.66087(14)
Cl15 Cl 0.98222(15) 0.55304(6) 0.71101(13)
Cl16 Cl 0.93857(17) 0.63619(6) 0.76266(14)
Fe9 Fe 0.49982(6) 0.59448(3) 0.17386(6)
Cl17 Cl 0.48834(12) 0.54067(5) 0.19689(13)
Cl18 Cl 0.64873(12) 0.60449(5) 0.18327(12)
Cl19 Cl 0.38828(13) 0.60958(5) 0.03851(12)
Cl20 Cl 0.46900(12) 0.62137(6) 0.28707(12)
Fe10 Fe 1.11292(7) 0.78280(3) 0.09242(7)
Cl21 Cl 0.98919(14) 0.75766(6) -0.01303(14)
Cl22 Cl 1.23735(13) 0.77889(6) 0.04637(14)
Cl23 Cl 1.08066(15) 0.83605(5) 0.10012(14)
Cl24 Cl 1.14990(14) 0.75867(5) 0.23079(12)
Fe11 Fe 0.78354(12) 0.79970(4) 0.43125(10)
Cl25 Cl 0.7051(3) 0.81684(16) 0.2888(3)
Cl26 Cl 0.8579(3) 0.75187(8) 0.4295(3)
Cl27 Cl 0.6914(2) 0.79083(8) 0.5165(2)
Cl28 Cl 0.8951(2) 0.83660(7) 0.50018(18)
C127 C 1.0573(6) 0.4047(2) -0.0088(5)
H172 H 1.0458 0.3806 -0.0018
H173 H 0.9949 0.4166 -0.0205
Cl29 Cl 1.0920(2) 0.41012(7) -0.10605(17)
Cl30 Cl 1.14392(18) 0.41928(7) 0.09661(16)
C128 C 1.4095(13) 0.4468(5) 0.1219(8)
H174 H 1.4092 0.4228 0.1057
H175 H 1.4774 0.4548 0.1384
Cl31 Cl 1.3412(4) 0.46673(15) 0.0228(3)
Cl32 Cl 1.3832(3) 0.44916(15) 0.2196(3)
C129 C 1.3726(7) 0.7995(2) 0.3637(7)
H176 H 1.3520 0.7817 0.3150
H177 H 1.4426 0.8042 0.3776
Cl33 Cl 1.3574(2) 0.78575(10) 0.4652(3)
Cl34 Cl 1.3049(2) 0.83533(8) 0.3197(2)
C130 C 0.8622(7) 0.7150(3) 0.6503(8)
H178 H 0.8264 0.7287 0.5938
H179 H 0.8402 0.6915 0.6357
Cl35 Cl 0.8317(3) 0.72857(11) 0.7445(3)
Cl36 Cl 0.9860(3) 0.71706(12) 0.6703(4)
loop_
_geom_bond_atom_site_label_1
_geom_bond_atom_site_label_2
_geom_bond_site_symmetry_1
_geom_bond_site_symmetry_2
Fe1 O1 1_555 1_555
O1 C1 1_555 1_555
C1 C2 1_555 1_555
C2 H1 1_555 1_555
C3 C2 1_555 1_555
O2 Fe1 1_555 1_555
C4 C3 1_555 1_555
C5 C4 1_555 1_555
H2 C5 1_555 1_555
H3 C5 1_555 1_555
H4 C5 1_555 1_555
C6 C4 1_555 1_555
H5 C6 1_555 1_555
H6 C6 1_555 1_555
H7 C6 1_555 1_555
C7 C4 1_555 1_555
H8 C7 1_555 1_555
H9 C7 1_555 1_555
H10 C7 1_555 1_555
O3 Fe1 1_555 1_555
C8 O3 1_555 1_555
C9 C8 1_555 1_555
H11 C9 1_555 1_555
C10 C9 1_555 1_555
O4 Fe1 1_555 1_555
C11 C10 1_555 1_555
C12 C11 1_555 1_555
H12 C12 1_555 1_555
H13 C12 1_555 1_555
H14 C12 1_555 1_555
C13 C11 1_555 1_555
H15 C13 1_555 1_555
H16 C13 1_555 1_555
H17 C13 1_555 1_555
C14 C11 1_555 1_555
H18 C14 1_555 1_555
H19 C14 1_555 1_555
H20 C14 1_555 1_555
O5 Fe1 1_555 1_555
C19 O5 1_555 1_555
C20 C19 1_555 1_555
H30 C20 1_555 1_555
C21 C20 1_555 1_555
O6 Fe1 1_555 1_555
C22 C21 1_555 1_555
C23 C22 1_555 1_555
H31 C23 1_555 1_555
H32 C23 1_555 1_555
H33 C23 1_555 1_555
C24 C22 1_555 1_555
H34 C24 1_555 1_555
H35 C24 1_555 1_555
H36 C24 1_555 1_555
C25 C22 1_555 1_555
H37 C25 1_555 1_555
H38 C25 1_555 1_555
H39 C25 1_555 1_555
Fe2 O7 1_555 1_555
O7 C26 1_555 1_555
C26 C27 1_555 1_555
C27 H40 1_555 1_555
C28 C27 1_555 1_555
O8 Fe2 1_555 1_555
C29 C28 1_555 1_555
C30 C29 1_555 1_555
H41 C30 1_555 1_555
H42 C30 1_555 1_555
H43 C30 1_555 1_555
C31 C29 1_555 1_555
H44 C31 1_555 1_555
H45 C31 1_555 1_555
H46 C31 1_555 1_555
C32 C29 1_555 1_555
H47 C32 1_555 1_555
H48 C32 1_555 1_555
H49 C32 1_555 1_555
O9 Fe2 1_555 1_555
C33 O9 1_555 1_555
C34 C33 1_555 1_555
H50 C34 1_555 1_555
C35 C34 1_555 1_555
O10 Fe2 1_555 1_555
C36 C35 1_555 1_555
C37 C36 1_555 1_555
H51 C37 1_555 1_555
H52 C37 1_555 1_555
H53 C37 1_555 1_555
C38 C36 1_555 1_555
H54 C38 1_555 1_555
H55 C38 1_555 1_555
H56 C38 1_555 1_555
C39 C36 1_555 1_555
H57 C39 1_555 1_555
H58 C39 1_555 1_555
H59 C39 1_555 1_555
O11 Fe2 1_555 1_555
C40 O11 1_555 1_555
C41 C40 1_555 1_555
H60 C41 1_555 1_555
C42 C41 1_555 1_555
O12 Fe2 1_555 1_555
C43 C42 1_555 1_555
C44 C43 1_555 1_555
H61 C44 1_555 1_555
H62 C44 1_555 1_555
H63 C44 1_555 1_555
C45 C43 1_555 1_555
H64 C45 1_555 1_555
H65 C45 1_555 1_555
H66 C45 1_555 1_555
C46 C43 1_555 1_555
H67 C46 1_555 1_555
H68 C46 1_555 1_555
H69 C46 1_555 1_555
N1 H70 1_555 1_555
C47 C1 1_555 1_555
C48 C47 1_555 1_555
H71 C48 1_555 1_555
C49 C48 1_555 1_555
H72 C49 1_555 1_555
C50 C49 1_555 1_555
H73 C50 1_555 1_555
C51 C26 1_555 1_555
N2 H74 1_555 1_555
C52 C8 1_555 1_555
C53 C52 1_555 1_555
H75 C53 1_555 1_555
C54 C53 1_555 1_555
H76 C54 1_555 1_555
C55 C54 1_555 1_555
H77 C55 1_555 1_555
C56 C33 1_555 1_555
N3 H78 1_555 1_555
C57 C19 1_555 1_555
C58 C57 1_555 1_555
H79 C58 1_555 1_555
C59 C58 1_555 1_555
H80 C59 1_555 1_555
C60 C59 1_555 1_555
H81 C60 1_555 1_555
C61 C40 1_555 1_555
Fe3 O13 1_555 1_555
O13 C62 1_555 1_555
C62 C63 1_555 1_555
C63 H82 1_555 1_555
C64 C63 1_555 1_555
O14 Fe3 1_555 1_555
C65 C64 1_555 1_555
C66 C65 1_555 1_555
H83 C66 1_555 1_555
H84 C66 1_555 1_555
H85 C66 1_555 1_555
C67 C65 1_555 1_555
H86 C67 1_555 1_555
H87 C67 1_555 1_555
H88 C67 1_555 1_555
C68 C65 1_555 1_555
H89 C68 1_555 1_555
H90 C68 1_555 1_555
H91 C68 1_555 1_555
O15 Fe3 1_555 1_555
C73 O15 1_555 1_555
C74 C73 1_555 1_555
H101 C74 1_555 1_555
C75 C74 1_555 1_555
O16 Fe3 1_555 1_555
C80 C75 1_555 1_555
C81 C80 1_555 1_555
H111 C81 1_555 1_555
H112 C81 1_555 1_555
H113 C81 1_555 1_555
C82 C80 1_555 1_555
H114 C82 1_555 1_555
H115 C82 1_555 1_555
H116 C82 1_555 1_555
C83 C80 1_555 1_555
H117 C83 1_555 1_555
H118 C83 1_555 1_555
H119 C83 1_555 1_555
O17 Fe3 1_555 1_555
C84 O17 1_555 1_555
C85 C84 1_555 1_555
H120 C85 1_555 1_555
C86 C85 1_555 1_555
O18 Fe3 1_555 1_555
C87 C86 1_555 1_555
C88 C87 1_555 1_555
H121 C88 1_555 1_555
H122 C88 1_555 1_555
H123 C88 1_555 1_555
C89 C87 1_555 1_555
H124 C89 1_555 1_555
H125 C89 1_555 1_555
H126 C89 1_555 1_555
C90 C87 1_555 1_555
H127 C90 1_555 1_555
H128 C90 1_555 1_555
H129 C90 1_555 1_555
Fe4 O19 1_555 1_555
O19 C91 1_555 1_555
C91 C92 1_555 1_555
C92 H130 1_555 1_555
C93 C92 1_555 1_555
O20 Fe4 1_555 1_555
C94 C93 1_555 1_555
C95 C94 1_555 1_555
H131 C95 1_555 1_555
H132 C95 1_555 1_555
H133 C95 1_555 1_555
C96 C94 1_555 1_555
H134 C96 1_555 1_555
H135 C96 1_555 1_555
H136 C96 1_555 1_555
C97 C94 1_555 1_555
H137 C97 1_555 1_555
H138 C97 1_555 1_555
H139 C97 1_555 1_555
O21 Fe4 1_555 1_555
C98 O21 1_555 1_555
C99 C98 1_555 1_555
H140 C99 1_555 1_555
C100 C99 1_555 1_555
O22 Fe4 1_555 1_555
C101 C100 1_555 1_555
C102 C101 1_555 1_555
H141 C102 1_555 1_555
H142 C102 1_555 1_555
H143 C102 1_555 1_555
C103 C101 1_555 1_555
H144 C103 1_555 1_555
H145 C103 1_555 1_555
H146 C103 1_555 1_555
C104 C101 1_555 1_555
H147 C104 1_555 1_555
H148 C104 1_555 1_555
H149 C104 1_555 1_555
O23 Fe4 1_555 1_555
C105 O23 1_555 1_555
C106 C105 1_555 1_555
H150 C106 1_555 1_555
C107 C106 1_555 1_555
O24 Fe4 1_555 1_555
C108 C107 1_555 1_555
C109 C108 1_555 1_555
H151 C109 1_555 1_555
H152 C109 1_555 1_555
H153 C109 1_555 1_555
C110 C108 1_555 1_555
H154 C110 1_555 1_555
H155 C110 1_555 1_555
H156 C110 1_555 1_555
C111 C108 1_555 1_555
H157 C111 1_555 1_555
H158 C111 1_555 1_555
H159 C111 1_555 1_555
N4 H160 1_555 1_555
C112 C62 1_555 1_555
C113 C112 1_555 1_555
H161 C113 1_555 1_555
C114 C113 1_555 1_555
H162 C114 1_555 1_555
C115 C114 1_555 1_555
H163 C115 1_555 1_555
C116 C91 1_555 1_555
N5 H164 1_555 1_555
C117 C73 1_555 1_555
C118 C117 1_555 1_555
H165 C118 1_555 1_555
C119 C118 1_555 1_555
H166 C119 1_555 1_555
C120 C119 1_555 1_555
H167 C120 1_555 1_555
C121 C98 1_555 1_555
N6 H168 1_555 1_555
C122 C84 1_555 1_555
C123 C122 1_555 1_555
H169 C123 1_555 1_555
C124 C123 1_555 1_555
H170 C124 1_555 1_555
C125 C124 1_555 1_555
H171 C125 1_555 1_555
C126 C105 1_555 1_555
Fe5 Cl1 1_555 1_555
Cl2 Fe5 1_555 1_555
Cl3 Fe5 1_555 1_555
Cl4 Fe5 1_555 1_555
Fe7 Cl9 1_555 1_555
Cl10 Fe7 1_555 1_555
Cl11 Fe7 1_555 1_555
Cl12 Fe7 1_555 1_555
Fe8 Cl13 1_555 1_555
Cl14 Fe8 1_555 1_555
Cl15 Fe8 1_555 1_555
Cl16 Fe8 1_555 1_555
Fe9 Cl17 1_555 1_555
Cl18 Fe9 1_555 1_555
Cl19 Fe9 1_555 1_555
Cl20 Fe9 1_555 1_555
Fe10 Cl21 1_555 1_555
Cl22 Fe10 1_555 1_555
Cl23 Fe10 1_555 1_555
Cl24 Fe10 1_555 1_555
Fe11 Cl25 1_555 1_555
Cl26 Fe11 1_555 1_555
Cl27 Fe11 1_555 1_555
Cl28 Fe11 1_555 1_555
C127 H172 1_555 1_555
H173 C127 1_555 1_555
Cl29 C127 1_555 1_555
Cl30 C127 1_555 1_555
C128 H174 1_555 1_555
H175 C128 1_555 1_555
Cl31 C128 1_555 1_555
Cl32 C128 1_555 1_555
C129 H176 1_555 1_555
H177 C129 1_555 1_555
Cl33 C129 1_555 1_555
Cl34 C129 1_555 1_555
C130 H178 1_555 1_555
H179 C130 1_555 1_555
Cl35 C130 1_555 1_555
Cl36 C130 1_555 1_555
C3 O2 1_555 1_555
C10 O4 1_555 1_555
C21 O6 1_555 1_555
C28 O8 1_555 1_555
C35 O10 1_555 1_555
C42 O12 1_555 1_555
N1 C51 1_555 1_555
N1 C47 1_555 1_555
C50 C51 1_555 1_555
N2 C56 1_555 1_555
N2 C52 1_555 1_555
C55 C56 1_555 1_555
N3 C57 1_555 1_555
N3 C61 1_555 1_555
C60 C61 1_555 1_555
C64 O14 1_555 1_555
C75 O16 1_555 1_555
C86 O18 1_555 1_555
C93 O20 1_555 1_555
C100 O22 1_555 1_555
C107 O24 1_555 1_555
N4 C116 1_555 1_555
N4 C112 1_555 1_555
C115 C116 1_555 1_555
N5 C121 1_555 1_555
N5 C117 1_555 1_555
C120 C121 1_555 1_555
N6 C122 1_555 1_555
N6 C126 1_555 1_555
C125 C126 1_555 1_555

#END
