
#######################################################################
#
#                 Cambridge Crystallographic Data Centre
#                                CCDC 
#
#######################################################################
#
# If this CIF has been generated from an entry in the Cambridge 
# Structural Database, then it will include bibliographic, chemical, 
# crystal, experimental, refinement or atomic coordinate data resulting 
# from the CCDC's data processing and validation procedures.
#
#######################################################################

data_FADNAZ
_chemical_formula_moiety         'C26 H48 Cu2 N4 O8,C1 H4 O1'
_chemical_name_systematic        
'bis(\m~2~-bis(N-Isopropyl-heptane-1,7-dihydroxamato)-copper(ii)) methanol solvate'
_symmetry_cell_setting           monoclinic
_symmetry_space_group_name_H-M   'P 21/c'
_symmetry_Int_Tables_number      14
_space_group_name_Hall           '-P 2ybc'
loop_
_symmetry_equiv_pos_site_id
_symmetry_equiv_pos_as_xyz
1 x,y,z
2 -x,1/2+y,1/2-z
3 -x,-y,-z
4 x,1/2-y,1/2+z
_cell_length_a                   14.538(2)
_cell_length_b                   10.454(2)
_cell_length_c                   11.177(2)
_cell_angle_alpha                90
_cell_angle_beta                 95.03(1)
_cell_angle_gamma                90
_cell_volume                     1692.14
_exptl_crystal_colour            'dark blue'
_chemical_melting_point          256deg.C(dec)
_cell_formula_units_Z            2
loop_
_atom_site_label
_atom_site_type_symbol
_atom_site_fract_x
_atom_site_fract_y
_atom_site_fract_z
Cu1 Cu 0.21038(3) 0.01450(4) 0.08587(4)
O1 O 0.3035(2) -0.1074(3) 0.1246(2)
O2 O 0.1506(2) -0.0663(2) 0.2118(2)
O3 O 0.2735(2) 0.1006(2) -0.0310(2)
O4 O 0.1155(2) 0.1384(2) 0.0467(2)
N1 N 0.2794(2) -0.1805(3) 0.2193(3)
N2 N 0.2197(2) 0.2006(3) -0.0760(3)
C1 C 0.1996(3) -0.1565(4) 0.2601(3)
C2 C 0.1396(3) 0.2170(3) -0.0323(3)
C3 C 0.3498(3) -0.2728(4) 0.2631(4)
C4 C 0.3703(4) -0.3619(4) 0.1635(5)
C5 C 0.4353(3) -0.2012(5) 0.3140(5)
C6 C 0.2610(3) 0.2779(4) -0.1661(3)
C7 C 0.2860(3) 0.1930(5) -0.2670(4)
C8 C 0.3418(3) 0.3512(5) -0.1099(5)
C9 C 0.0747(3) 0.3224(4) -0.0736(4)
C10 C 0.0141(3) 0.2900(4) -0.1869(4)
C11 C -0.0695(3) 0.3758(4) -0.2041(4)
C12 C 0.1627(3) -0.2325(4) 0.3596(4)
C13 C -0.1259(3) 0.3641(4) -0.3250(4)
H1 H 0.3288 -0.3222 0.3300
H2 H 0.4151 -0.4246 0.1891
H3 H 0.3147 -0.4063 0.1326
H4 H 0.3920 -0.3146 0.0981
H5 H 0.4845 -0.2592 0.3450
H6 H 0.4615 -0.1514 0.2517
H7 H 0.4245 -0.1436 0.3776
H8 H 0.2164 0.3408 -0.1973
H9 H 0.3137 0.2427 -0.3287
H10 H 0.3305 0.1299 -0.2393
H11 H 0.2335 0.1505 -0.3060
H12 H 0.3701 0.4032 -0.1698
H13 H 0.3265 0.4067 -0.0479
H14 H 0.3900 0.2938 -0.0774
H15 H 0.1126 0.3987 -0.0886
H16 H 0.0373 0.3458 -0.0118
H17 H -0.0039 0.2036 -0.1841
H18 H 0.0507 0.2998 -0.2565
H19 H 0.1147 -0.1833 0.3916
H20 H 0.2123 -0.2398 0.4243
H21 H -0.0499 0.4644 -0.1916
H22 H -0.1103 0.3585 -0.1410
H23 H -0.0882 0.3936 -0.3859
H24 H -0.1786 0.4222 -0.3268
C13B C 0.1259(3) -0.3641(4) 0.3250(4)
C12B C -0.1627(3) 0.2325(4) -0.3596(4)
C11B C 0.0695(3) -0.3758(4) 0.2041(4)
H23B H 0.0882 -0.3936 0.3859
H24B H 0.1786 -0.4222 0.3268
C1B C -0.1996(3) 0.1565(4) -0.2601(3)
H19B H -0.1147 0.1833 -0.3916
H20B H -0.2123 0.2398 -0.4243
C10B C -0.0141(3) -0.2900(4) 0.1869(4)
H21B H 0.0499 -0.4644 0.1916
H22B H 0.1103 -0.3585 0.1410
O2B O -0.1506(2) 0.0663(2) -0.2118(2)
N1B N -0.2794(2) 0.1805(3) -0.2193(3)
C9B C -0.0747(3) -0.3224(4) 0.0736(4)
H17B H 0.0039 -0.2036 0.1841
H18B H -0.0507 -0.2998 0.2565
Cu1B Cu -0.21038(3) -0.01450(4) -0.08587(4)
O1B O -0.3035(2) 0.1074(3) -0.1246(2)
C3B C -0.3498(3) 0.2728(4) -0.2631(4)
C2B C -0.1396(3) -0.2170(3) 0.0323(3)
H15B H -0.1126 -0.3987 0.0886
H16B H -0.0373 -0.3458 0.0118
O3B O -0.2735(2) -0.1006(2) 0.0310(2)
O4B O -0.1155(2) -0.1384(2) -0.0467(2)
C4B C -0.3703(4) 0.3619(4) -0.1635(5)
C5B C -0.4353(3) 0.2012(5) -0.3140(5)
H1B H -0.3288 0.3222 -0.3300
N2B N -0.2197(2) -0.2006(3) 0.0760(3)
H2B H -0.4151 0.4246 -0.1891
H3B H -0.3147 0.4063 -0.1326
H4B H -0.3920 0.3146 -0.0981
H5B H -0.4845 0.2592 -0.3450
H6B H -0.4615 0.1514 -0.2517
H7B H -0.4245 0.1436 -0.3776
C6B C -0.2610(3) -0.2779(4) 0.1661(3)
C7B C -0.2860(3) -0.1930(5) 0.2670(4)
C8B C -0.3418(3) -0.3512(5) 0.1099(5)
H8B H -0.2164 -0.3408 0.1973
H9B H -0.3137 -0.2427 0.3287
H10B H -0.3305 -0.1299 0.2393
H11B H -0.2335 -0.1505 0.3060
H12B H -0.3701 -0.4032 0.1698
H13B H -0.3265 -0.4067 0.0479
H14B H -0.3900 -0.2938 0.0774
loop_
_geom_bond_atom_site_label_1
_geom_bond_atom_site_label_2
_geom_bond_site_symmetry_1
_geom_bond_site_symmetry_2
Cu1 O1 1_555 1_555
O1 N1 1_555 1_555
O2 Cu1 1_555 1_555
O3 Cu1 1_555 1_555
O4 Cu1 1_555 1_555
N1 C1 1_555 1_555
N2 O3 1_555 1_555
C1 O2 1_555 1_555
C2 O4 1_555 1_555
C3 N1 1_555 1_555
C4 C3 1_555 1_555
C5 C3 1_555 1_555
C6 N2 1_555 1_555
C7 C6 1_555 1_555
C8 C6 1_555 1_555
C9 C2 1_555 1_555
C10 C9 1_555 1_555
C11 C10 1_555 1_555
C12 C1 1_555 1_555
C13 C11 1_555 1_555
H1 C3 1_555 1_555
H2 C4 1_555 1_555
H3 C4 1_555 1_555
H4 C4 1_555 1_555
H5 C5 1_555 1_555
H6 C5 1_555 1_555
H7 C5 1_555 1_555
H8 C6 1_555 1_555
H9 C7 1_555 1_555
H10 C7 1_555 1_555
H11 C7 1_555 1_555
H12 C8 1_555 1_555
H13 C8 1_555 1_555
H14 C8 1_555 1_555
H15 C9 1_555 1_555
H16 C9 1_555 1_555
H17 C10 1_555 1_555
H18 C10 1_555 1_555
H19 C12 1_555 1_555
H20 C12 1_555 1_555
H21 C11 1_555 1_555
H22 C11 1_555 1_555
H23 C13 1_555 1_555
H24 C13 1_555 1_555
C13B C12 1_555 1_555
C12B C13 1_555 1_555
C11B C13B 1_555 1_555
H23B C13B 1_555 1_555
H24B C13B 1_555 1_555
C1B C12B 1_555 1_555
H19B C12B 1_555 1_555
H20B C12B 1_555 1_555
C10B C11B 1_555 1_555
H21B C11B 1_555 1_555
H22B C11B 1_555 1_555
O2B C1B 1_555 1_555
N1B C1B 1_555 1_555
C9B C10B 1_555 1_555
H17B C10B 1_555 1_555
H18B C10B 1_555 1_555
Cu1B O2B 1_555 1_555
O1B N1B 1_555 1_555
C3B N1B 1_555 1_555
C2B C9B 1_555 1_555
H15B C9B 1_555 1_555
H16B C9B 1_555 1_555
O3B Cu1B 1_555 1_555
O4B Cu1B 1_555 1_555
C4B C3B 1_555 1_555
C5B C3B 1_555 1_555
H1B C3B 1_555 1_555
N2B C2B 1_555 1_555
H2B C4B 1_555 1_555
H3B C4B 1_555 1_555
H4B C4B 1_555 1_555
H5B C5B 1_555 1_555
H6B C5B 1_555 1_555
H7B C5B 1_555 1_555
C6B N2B 1_555 1_555
C7B C6B 1_555 1_555
C8B C6B 1_555 1_555
H8B C6B 1_555 1_555
H9B C7B 1_555 1_555
H10B C7B 1_555 1_555
H11B C7B 1_555 1_555
H12B C8B 1_555 1_555
H13B C8B 1_555 1_555
H14B C8B 1_555 1_555
N2 C2 1_555 1_555
Cu1B O1B 1_555 1_555
C2B O4B 1_555 1_555
O3B N2B 1_555 1_555

#END
