
#######################################################################
#
#                 Cambridge Crystallographic Data Centre
#                                CCDC 
#
#######################################################################
#
# If this CIF has been generated from an entry in the Cambridge 
# Structural Database, then it will include bibliographic, chemical, 
# crystal, experimental, refinement or atomic coordinate data resulting 
# from the CCDC's data processing and validation procedures.
#
#######################################################################

data_FAJQIT
_chemical_formula_moiety         
'C126 H126 N18 O18 Pd3 6+,6(N1 O3 1-),6(C2 H6 O1 S1),10(H2 O1)'
_chemical_name_systematic        
"(MPPM)-bis(\m~3~-N,N',N''-tris(2-(Pyridin-2-yl)ethyl)benzene-1,3,5-tricarboxamide)-bis(\m~3~-tris(3-(pyridin-3-yl)propyl) benzene-1,3,5-tricarboxylate)-tri-palladium(ii) hexanitrate dimethyl sulfoxide solvate decahydrate"
_symmetry_cell_setting           rhombohedral
_symmetry_space_group_name_H-M   'R 3'
_symmetry_Int_Tables_number      146
_space_group_name_Hall           'R 3'
loop_
_symmetry_equiv_pos_site_id
_symmetry_equiv_pos_as_xyz
1 x,y,z
2 -y,x-y,z
3 -x+y,-x,z
4 2/3+x,1/3+y,1/3+z
5 2/3-y,1/3+x-y,1/3+z
6 2/3-x+y,1/3-x,1/3+z
7 1/3+x,2/3+y,2/3+z
8 1/3-y,2/3+x-y,2/3+z
9 1/3-x+y,2/3-x,2/3+z
_cell_length_a                   27.8116(6)
_cell_length_b                   27.8116(6)
_cell_length_c                   21.8154(7)
_cell_angle_alpha                90
_cell_angle_beta                 90
_cell_angle_gamma                120
_cell_volume                     14613.2
_exptl_crystal_colour            yellow
_exptl_crystal_description       block
_cell_formula_units_Z            3
loop_
_atom_site_label
_atom_site_type_symbol
_atom_site_fract_x
_atom_site_fract_y
_atom_site_fract_z
Pd1 Pd 0.278851(14) -0.000051(15) 0.43002(3)
O1 O 0.13566(15) 0.01189(15) 0.3317(2)
O2 O 0.12363(14) -0.01072(15) 0.5275(2)
O3 O 0.03921(15) -0.10298(15) 0.6457(3)
O4 O -0.05179(16) -0.15016(16) 0.6694(2)
O5 O 0.14148(15) 0.10271(14) 0.2118(3)
O6 O 0.09875(16) 0.15100(16) 0.1911(2)
N1 N 0.24587(17) -0.07250(17) 0.3838(2)
N2 N 0.07524(16) -0.07848(17) 0.3553(2)
H1 H 0.0424 -0.1030 0.3696
N3 N 0.31870(16) 0.07272(19) 0.4770(2)
N4 N 0.15387(14) 0.07863(16) 0.5057(2)
H2 H 0.1452 0.1031 0.4922
N5 N 0.25700(16) -0.04426(17) 0.5054(2)
N6 N 0.30169(16) 0.04515(16) 0.3524(2)
C1 C 0.2848(3) -0.0869(3) 0.3659(3)
H3 H 0.3233 -0.0602 0.3677
C2 C 0.2674(4) -0.1407(4) 0.3450(4)
H4 H 0.2940 -0.1517 0.3363
C3 C 0.2094(3) -0.1793(3) 0.3367(3)
H5 H 0.1972 -0.2152 0.3202
C4 C 0.1713(3) -0.1630(2) 0.3534(3)
H6 H 0.1326 -0.1875 0.3481
C5 C 0.1917(2) -0.1077(2) 0.3791(3)
C6 C 0.1500(2) -0.0918(2) 0.3938(3)
H7 H 0.1253 -0.1166 0.4264
H8 H 0.1691 -0.0534 0.4101
C7 C 0.1161(2) -0.0946(2) 0.3409(3)
H9 H 0.1408 -0.0700 0.3082
H10 H 0.0967 -0.1330 0.3248
C8 C 0.0879(2) -0.0266(2) 0.3465(3)
C9 C 0.04143(17) -0.01280(18) 0.3510(2)
C10 C -0.01259(18) -0.05449(18) 0.3504(2)
H11 H -0.0214 -0.0922 0.3496
C11 C 0.3723(3) 0.0863(3) 0.4945(3)
H12 H 0.3845 0.0600 0.4924
C12 C 0.4073(3) 0.1408(4) 0.5155(4)
H13 H 0.4445 0.1516 0.5261
C13 C 0.3896(3) 0.1802(3) 0.5216(3)
H14 H 0.4137 0.2168 0.5360
C14 C 0.3351(2) 0.1622(2) 0.5052(3)
H15 H 0.3208 0.1866 0.5107
C15 C 0.3001(2) 0.1088(2) 0.4808(3)
C16 C 0.2415(2) 0.0914(2) 0.4650(3)
H16 H 0.2226 0.0527 0.4497
H17 H 0.2411 0.1154 0.4316
C17 C 0.2102(2) 0.0953(2) 0.5194(3)
H18 H 0.2110 0.0716 0.5527
H19 H 0.2292 0.1341 0.5344
C18 C 0.1145(2) 0.0261(2) 0.5135(3)
C19 C 0.05375(17) 0.01276(18) 0.5087(2)
C20 C 0.03978(18) 0.05290(18) 0.5102(2)
H20 H 0.0684 0.0907 0.5123
C21 C 0.2827(2) -0.0743(3) 0.5255(4)
H21 H 0.3147 -0.0692 0.5041
C22 C 0.2642(3) -0.1103(3) 0.5740(3)
H22 H 0.2818 -0.1309 0.5850
C23 C 0.2202(2) -0.1157(2) 0.6057(3)
H23 H 0.2067 -0.1413 0.6388
C24 C 0.1935(2) -0.0862(2) 0.5929(3)
C25 C 0.2125(2) -0.0521(2) 0.5444(3)
H24 H 0.1947 -0.0313 0.5352
C26 C 0.1449(2) -0.0940(2) 0.6269(3)
H25 H 0.1446 -0.0586 0.6282
H26 H 0.1469 -0.1051 0.6696
C27 C 0.0877(3) -0.1420(3) 0.5945(4)
H27 H 0.0807 -0.1280 0.5558
H28 H 0.0905 -0.1753 0.5854
C28 C 0.0415(3) -0.1558(2) 0.6401(5)
H29 H 0.0057 -0.1865 0.6247
H30 H 0.0499 -0.1667 0.6801
C29 C -0.0089(2) -0.1061(2) 0.6633(3)
C30 C -0.00398(19) -0.05042(18) 0.6662(2)
C31 C 0.0471(2) -0.0040(2) 0.6643(2)
H31 H 0.0797 -0.0067 0.6619
C32 C 0.3568(2) 0.0743(3) 0.3343(3)
H32 H 0.3833 0.0692 0.3566
C33 C 0.3749(2) 0.1106(3) 0.2850(3)
H33 H 0.4128 0.1304 0.2732
C34 C 0.3355(3) 0.1163(3) 0.2544(3)
H34 H 0.3474 0.1431 0.2225
C35 C 0.2792(2) 0.0855(2) 0.2667(3)
C36 C 0.2642(2) 0.0527(2) 0.3159(3)
H35 H 0.2261 0.0334 0.3269
C37 C 0.2387(2) 0.0932(2) 0.2332(3)
H36 H 0.2027 0.0581 0.2338
H37 H 0.2507 0.1021 0.1900
C38 C 0.2304(2) 0.1434(3) 0.2625(4)
H38 H 0.2119 0.1315 0.3029
H39 H 0.2672 0.1768 0.2689
C39 C 0.1974(3) 0.1575(2) 0.2227(6)
H40 H 0.2169 0.1726 0.1833
H41 H 0.1907 0.1856 0.2424
C40 C 0.0982(2) 0.1062(2) 0.1968(3)
C41 C 0.04692(18) 0.05036(18) 0.1939(2)
C42 C 0.0515(2) 0.0044(2) 0.1964(2)
H42 H 0.0869 0.0071 0.1998
O1A O -0.01189(15) 0.12377(21) 0.3317(2)
N1A N 0.07250(17) 0.31837(24) 0.3838(2)
N2A N 0.07848(17) 0.15372(23) 0.3553(2)
H1A H 0.1030 0.1454 0.3696
C1A C 0.0869(3) 0.3717(4) 0.3659(3)
H3A H 0.0602 0.3835 0.3677
C2A C 0.1407(4) 0.4081(6) 0.3450(4)
H4A H 0.1517 0.4457 0.3363
C3A C 0.1793(3) 0.3887(4) 0.3367(3)
H5A H 0.2152 0.4124 0.3202
C4A C 0.1630(2) 0.3343(4) 0.3534(3)
H6A H 0.1875 0.3201 0.3481
C5A C 0.1077(2) 0.2994(3) 0.3791(3)
C6A C 0.0918(2) 0.2418(3) 0.3938(3)
H7A H 0.1166 0.2419 0.4264
H8A H 0.0534 0.2225 0.4101
C7A C 0.0946(2) 0.2107(3) 0.3409(3)
H9A H 0.0700 0.2108 0.3082
H10A H 0.1330 0.2297 0.3248
C8A C 0.0266(2) 0.1145(3) 0.3465(3)
C9A C 0.01280(18) 0.05423(25) 0.3510(2)
C10A C 0.05449(18) 0.04190(25) 0.3504(2)
H11A H 0.0922 0.0708 0.3496
O1B O -0.12377(21) -0.13566(15) 0.3317(2)
N1B N -0.31837(24) -0.24587(17) 0.3838(2)
N2B N -0.15372(23) -0.07524(16) 0.3553(2)
H1B H -0.1454 -0.0424 0.3696
C1B C -0.3717(4) -0.2848(3) 0.3659(3)
H3B H -0.3835 -0.3233 0.3677
C2B C -0.4081(6) -0.2674(4) 0.3450(4)
H4B H -0.4457 -0.2940 0.3363
C3B C -0.3887(4) -0.2094(3) 0.3367(3)
H5B H -0.4124 -0.1972 0.3202
C4B C -0.3343(4) -0.1713(3) 0.3534(3)
H6B H -0.3201 -0.1326 0.3481
C5B C -0.2994(3) -0.1917(2) 0.3791(3)
C6B C -0.2418(3) -0.1500(2) 0.3938(3)
H7B H -0.2419 -0.1253 0.4264
H8B H -0.2225 -0.1691 0.4101
C7B C -0.2107(3) -0.1161(2) 0.3409(3)
H9B H -0.2108 -0.1408 0.3082
H10B H -0.2297 -0.0967 0.3248
C8B C -0.1145(3) -0.0879(2) 0.3465(3)
C9B C -0.05423(25) -0.04143(17) 0.3510(2)
C10B C -0.04190(25) 0.01259(18) 0.3504(2)
H11B H -0.0708 0.0214 0.3496
O2A O 0.01072(15) 0.13435(21) 0.5275(2)
N3A N -0.07272(19) 0.24598(25) 0.4770(2)
N4A N -0.07863(16) 0.07524(21) 0.5057(2)
H2A H -0.1031 0.0421 0.4922
C11A C -0.0863(3) 0.2860(4) 0.4945(3)
H12A H -0.0600 0.3245 0.4924
C12A C -0.1408(4) 0.2665(5) 0.5155(4)
H13A H -0.1516 0.2929 0.5261
C13A C -0.1802(3) 0.2094(4) 0.5216(3)
H14A H -0.2168 0.1969 0.5360
C14A C -0.1622(2) 0.1729(3) 0.5052(3)
H15A H -0.1866 0.1342 0.5107
C15A C -0.1088(2) 0.1913(3) 0.4808(3)
C16A C -0.0914(2) 0.1501(3) 0.4650(3)
H16A H -0.0527 0.1699 0.4497
H17A H -0.1154 0.1257 0.4316
C17A C -0.0953(2) 0.1149(3) 0.5194(3)
H18A H -0.0716 0.1394 0.5527
H19A H -0.1341 0.0951 0.5344
C18A C -0.0261(2) 0.0884(3) 0.5135(3)
C19A C -0.01276(18) 0.04099(25) 0.5087(2)
C20A C -0.05290(18) -0.01312(25) 0.5102(2)
H20A H -0.0907 -0.0223 0.5123
O2B O -0.13435(21) -0.12363(14) 0.5275(2)
N3B N -0.24598(25) -0.31870(16) 0.4770(2)
N4B N -0.07524(21) -0.15387(14) 0.5057(2)
H2B H -0.0421 -0.1452 0.4922
C11B C -0.2860(4) -0.3723(3) 0.4945(3)
H12B H -0.3245 -0.3845 0.4924
C12B C -0.2665(5) -0.4073(3) 0.5155(4)
H13B H -0.2929 -0.4445 0.5261
C13B C -0.2094(4) -0.3896(3) 0.5216(3)
H14B H -0.1969 -0.4137 0.5360
C14B C -0.1729(3) -0.3351(2) 0.5052(3)
H15B H -0.1342 -0.3208 0.5107
C15B C -0.1913(3) -0.3001(2) 0.4808(3)
C16B C -0.1501(3) -0.2415(2) 0.4650(3)
H16B H -0.1699 -0.2226 0.4497
H17B H -0.1257 -0.2411 0.4316
C17B C -0.1149(3) -0.2102(2) 0.5194(3)
H18B H -0.1394 -0.2110 0.5527
H19B H -0.0951 -0.2292 0.5344
C18B C -0.0884(3) -0.1145(2) 0.5135(3)
C19B C -0.04099(25) -0.05375(17) 0.5087(2)
C20B C 0.01312(25) -0.03978(18) 0.5102(2)
H20B H 0.0223 -0.0684 0.5123
O3A O 0.10298(15) 0.14219(21) 0.6457(3)
O4A O 0.15016(16) 0.09837(23) 0.6694(2)
N5A N 0.04426(17) 0.30126(23) 0.5054(2)
C21A C 0.0743(3) 0.3570(4) 0.5255(4)
H21A H 0.0692 0.3839 0.5041
C22A C 0.1103(3) 0.3745(4) 0.5740(3)
H22A H 0.1309 0.4127 0.5850
C23A C 0.1157(2) 0.3359(3) 0.6057(3)
H23A H 0.1413 0.3480 0.6388
C24A C 0.0862(2) 0.2797(3) 0.5929(3)
C25A C 0.0521(2) 0.2646(3) 0.5444(3)
H24A H 0.0313 0.2260 0.5352
C26A C 0.0940(2) 0.2389(3) 0.6269(3)
H25A H 0.0586 0.2032 0.6282
H26A H 0.1051 0.2520 0.6696
C27A C 0.1420(3) 0.2297(4) 0.5945(4)
H27A H 0.1280 0.2087 0.5558
H28A H 0.1753 0.2658 0.5854
C28A C 0.1558(2) 0.1973(4) 0.6401(5)
H29A H 0.1865 0.1922 0.6247
H30A H 0.1667 0.2166 0.6801
C29A C 0.1061(2) 0.0972(3) 0.6633(3)
C30A C 0.05042(18) 0.04644(26) 0.6662(2)
C31A C 0.0040(2) 0.0511(3) 0.6643(2)
H31A H 0.0067 0.0864 0.6619
O3B O -0.14219(21) -0.03921(15) 0.6457(3)
O4B O -0.09837(23) 0.05179(16) 0.6694(2)
N5B N -0.30126(23) -0.25700(16) 0.5054(2)
C21B C -0.3570(4) -0.2827(2) 0.5255(4)
H21B H -0.3839 -0.3147 0.5041
C22B C -0.3745(4) -0.2642(3) 0.5740(3)
H22B H -0.4127 -0.2818 0.5850
C23B C -0.3359(3) -0.2202(2) 0.6057(3)
H23B H -0.3480 -0.2067 0.6388
C24B C -0.2797(3) -0.1935(2) 0.5929(3)
C25B C -0.2646(3) -0.2125(2) 0.5444(3)
H24B H -0.2260 -0.1947 0.5352
C26B C -0.2389(3) -0.1449(2) 0.6269(3)
H25B H -0.2032 -0.1446 0.6282
H26B H -0.2520 -0.1469 0.6696
C27B C -0.2297(4) -0.0877(3) 0.5945(4)
H27B H -0.2087 -0.0807 0.5558
H28B H -0.2658 -0.0905 0.5854
C28B C -0.1973(4) -0.0415(3) 0.6401(5)
H29B H -0.1922 -0.0057 0.6247
H30B H -0.2166 -0.0499 0.6801
C29B C -0.0972(3) 0.0089(2) 0.6633(3)
C30B C -0.04644(26) 0.00398(19) 0.6662(2)
C31B C -0.0511(3) -0.0471(2) 0.6643(2)
H31B H -0.0864 -0.0797 0.6619
O5A O -0.10271(14) 0.03877(21) 0.2118(3)
O6A O -0.15100(16) -0.05225(23) 0.1911(2)
N6A N -0.04515(16) 0.25654(23) 0.3524(2)
C32A C -0.0743(3) 0.2825(4) 0.3343(3)
H32A H -0.0692 0.3141 0.3566
C33A C -0.1106(3) 0.2643(4) 0.2850(3)
H33A H -0.1304 0.2824 0.2732
C34A C -0.1163(3) 0.2192(4) 0.2544(3)
H34A H -0.1431 0.2043 0.2225
C35A C -0.0855(2) 0.1937(3) 0.2667(3)
C36A C -0.0527(2) 0.2115(3) 0.3159(3)
H35A H -0.0334 0.1927 0.3269
C37A C -0.0932(2) 0.1455(3) 0.2332(3)
H36A H -0.0581 0.1446 0.2338
H37A H -0.1021 0.1486 0.1900
C38A C -0.1434(3) 0.0870(4) 0.2625(4)
H38A H -0.1315 0.0804 0.3029
H39A H -0.1768 0.0904 0.2689
C39A C -0.1575(2) 0.0399(4) 0.2227(6)
H40A H -0.1726 0.0443 0.1833
H41A H -0.1856 0.0051 0.2424
C40A C -0.1062(2) -0.0080(3) 0.1968(3)
C41A C -0.05036(18) -0.00344(25) 0.1939(2)
C42A C -0.0044(2) 0.0471(3) 0.1964(2)
H42A H -0.0071 0.0798 0.1998
O5B O -0.03877(21) -0.14148(15) 0.2118(3)
O6B O 0.05225(23) -0.09875(16) 0.1911(2)
N6B N -0.25654(23) -0.30169(16) 0.3524(2)
C32B C -0.2825(4) -0.3568(2) 0.3343(3)
H32B H -0.3141 -0.3833 0.3566
C33B C -0.2643(4) -0.3749(2) 0.2850(3)
H33B H -0.2824 -0.4128 0.2732
C34B C -0.2192(4) -0.3355(3) 0.2544(3)
H34B H -0.2043 -0.3474 0.2225
C35B C -0.1937(3) -0.2792(2) 0.2667(3)
C36B C -0.2115(3) -0.2642(2) 0.3159(3)
H35B H -0.1927 -0.2261 0.3269
C37B C -0.1455(3) -0.2387(2) 0.2332(3)
H36B H -0.1446 -0.2027 0.2338
H37B H -0.1486 -0.2507 0.1900
C38B C -0.0870(4) -0.2304(2) 0.2625(4)
H38B H -0.0804 -0.2119 0.3029
H39B H -0.0904 -0.2672 0.2689
C39B C -0.0399(4) -0.1974(3) 0.2227(6)
H40B H -0.0443 -0.2169 0.1833
H41B H -0.0051 -0.1907 0.2424
C40B C 0.0080(3) -0.0982(2) 0.1968(3)
C41B C 0.00344(25) -0.04692(18) 0.1939(2)
C42B C -0.0471(3) -0.0515(2) 0.1964(2)
H42B H -0.0798 -0.0869 0.1998
Pd1A Pd 0.000051(15) 0.278902(21) 0.43002(3)
Pd1B Pd -0.278902(21) -0.278851(14) 0.43002(3)
loop_
_geom_bond_atom_site_label_1
_geom_bond_atom_site_label_2
_geom_bond_site_symmetry_1
_geom_bond_site_symmetry_2
Pd1 N1 1_555 1_555
O1 C8 1_555 1_555
O2 C18 1_555 1_555
O3 C28 1_555 1_555
O4 C29 1_555 1_555
O5 C39 1_555 1_555
O6 C40 1_555 1_555
N1 C1 1_555 1_555
N2 H1 1_555 1_555
N3 Pd1 1_555 1_555
N4 H2 1_555 1_555
N5 Pd1 1_555 1_555
N6 Pd1 1_555 1_555
C1 H3 1_555 1_555
C2 C1 1_555 1_555
H4 C2 1_555 1_555
C3 C2 1_555 1_555
H5 C3 1_555 1_555
C4 C3 1_555 1_555
H6 C4 1_555 1_555
C5 N1 1_555 1_555
C6 C5 1_555 1_555
H7 C6 1_555 1_555
H8 C6 1_555 1_555
C7 N2 1_555 1_555
H9 C7 1_555 1_555
H10 C7 1_555 1_555
C8 N2 1_555 1_555
C9 C8 1_555 1_555
C10 C9 1_555 1_555
H11 C10 1_555 1_555
C11 N3 1_555 1_555
H12 C11 1_555 1_555
C12 C11 1_555 1_555
H13 C12 1_555 1_555
C13 C12 1_555 1_555
H14 C13 1_555 1_555
C14 C13 1_555 1_555
H15 C14 1_555 1_555
C15 N3 1_555 1_555
C16 C15 1_555 1_555
H16 C16 1_555 1_555
H17 C16 1_555 1_555
C17 N4 1_555 1_555
H18 C17 1_555 1_555
H19 C17 1_555 1_555
C18 N4 1_555 1_555
C19 C18 1_555 1_555
C20 C19 1_555 1_555
H20 C20 1_555 1_555
C21 N5 1_555 1_555
H21 C21 1_555 1_555
C22 C21 1_555 1_555
H22 C22 1_555 1_555
C23 C22 1_555 1_555
H23 C23 1_555 1_555
C24 C23 1_555 1_555
C25 N5 1_555 1_555
H24 C25 1_555 1_555
C26 C24 1_555 1_555
H25 C26 1_555 1_555
H26 C26 1_555 1_555
C27 C26 1_555 1_555
H27 C27 1_555 1_555
H28 C27 1_555 1_555
C28 C27 1_555 1_555
H29 C28 1_555 1_555
H30 C28 1_555 1_555
C29 O3 1_555 1_555
C30 C29 1_555 1_555
C31 C30 1_555 1_555
H31 C31 1_555 1_555
C32 N6 1_555 1_555
H32 C32 1_555 1_555
C33 C32 1_555 1_555
H33 C33 1_555 1_555
C34 C33 1_555 1_555
H34 C34 1_555 1_555
C35 C34 1_555 1_555
C36 N6 1_555 1_555
H35 C36 1_555 1_555
C37 C35 1_555 1_555
H36 C37 1_555 1_555
H37 C37 1_555 1_555
C38 C37 1_555 1_555
H38 C38 1_555 1_555
H39 C38 1_555 1_555
C39 C38 1_555 1_555
H40 C39 1_555 1_555
H41 C39 1_555 1_555
C40 O5 1_555 1_555
C41 C40 1_555 1_555
C42 C41 1_555 1_555
H42 C42 1_555 1_555
O1A C8A 1_555 1_555
N1A C1A 1_555 1_555
N2A H1A 1_555 1_555
C1A H3A 1_555 1_555
C2A C1A 1_555 1_555
H4A C2A 1_555 1_555
C3A C2A 1_555 1_555
H5A C3A 1_555 1_555
C4A C3A 1_555 1_555
H6A C4A 1_555 1_555
C5A N1A 1_555 1_555
C6A C5A 1_555 1_555
H7A C6A 1_555 1_555
H8A C6A 1_555 1_555
C7A N2A 1_555 1_555
H9A C7A 1_555 1_555
H10A C7A 1_555 1_555
C8A N2A 1_555 1_555
C9A C8A 1_555 1_555
C10A C9 1_555 1_555
H11A C10A 1_555 1_555
O1B C8B 1_555 1_555
N1B C1B 1_555 1_555
N2B H1B 1_555 1_555
C1B H3B 1_555 1_555
C2B C1B 1_555 1_555
H4B C2B 1_555 1_555
C3B C2B 1_555 1_555
H5B C3B 1_555 1_555
C4B C3B 1_555 1_555
H6B C4B 1_555 1_555
C5B N1B 1_555 1_555
C6B C5B 1_555 1_555
H7B C6B 1_555 1_555
H8B C6B 1_555 1_555
C7B N2B 1_555 1_555
H9B C7B 1_555 1_555
H10B C7B 1_555 1_555
C8B N2B 1_555 1_555
C9B C10 1_555 1_555
C10B C9A 1_555 1_555
H11B C10B 1_555 1_555
O2A C18A 1_555 1_555
N3A C11A 1_555 1_555
N4A H2A 1_555 1_555
C11A H12A 1_555 1_555
C12A C11A 1_555 1_555
H13A C12A 1_555 1_555
C13A C12A 1_555 1_555
H14A C13A 1_555 1_555
C14A C13A 1_555 1_555
H15A C14A 1_555 1_555
C15A N3A 1_555 1_555
C16A C15A 1_555 1_555
H16A C16A 1_555 1_555
H17A C16A 1_555 1_555
C17A N4A 1_555 1_555
H18A C17A 1_555 1_555
H19A C17A 1_555 1_555
C18A N4A 1_555 1_555
C19A C20 1_555 1_555
C20A C19A 1_555 1_555
H20A C20A 1_555 1_555
O2B C18B 1_555 1_555
N3B C11B 1_555 1_555
N4B H2B 1_555 1_555
C11B H12B 1_555 1_555
C12B C11B 1_555 1_555
H13B C12B 1_555 1_555
C13B C12B 1_555 1_555
H14B C13B 1_555 1_555
C14B C13B 1_555 1_555
H15B C14B 1_555 1_555
C15B N3B 1_555 1_555
C16B C15B 1_555 1_555
H16B C16B 1_555 1_555
H17B C16B 1_555 1_555
C17B N4B 1_555 1_555
H18B C17B 1_555 1_555
H19B C17B 1_555 1_555
C18B N4B 1_555 1_555
C19B C20A 1_555 1_555
C20B C19 1_555 1_555
H20B C20B 1_555 1_555
O3A C28A 1_555 1_555
O4A C29A 1_555 1_555
N5A C21A 1_555 1_555
C21A H21A 1_555 1_555
C22A C21A 1_555 1_555
H22A C22A 1_555 1_555
C23A C22A 1_555 1_555
H23A C23A 1_555 1_555
C24A C23A 1_555 1_555
C25A N5A 1_555 1_555
H24A C25A 1_555 1_555
C26A C24A 1_555 1_555
H25A C26A 1_555 1_555
H26A C26A 1_555 1_555
C27A C26A 1_555 1_555
H27A C27A 1_555 1_555
H28A C27A 1_555 1_555
C28A C27A 1_555 1_555
H29A C28A 1_555 1_555
H30A C28A 1_555 1_555
C29A O3A 1_555 1_555
C30A C31 1_555 1_555
C31A C30A 1_555 1_555
H31A C31A 1_555 1_555
O3B C28B 1_555 1_555
O4B C29B 1_555 1_555
N5B C21B 1_555 1_555
C21B H21B 1_555 1_555
C22B C21B 1_555 1_555
H22B C22B 1_555 1_555
C23B C22B 1_555 1_555
H23B C23B 1_555 1_555
C24B C23B 1_555 1_555
C25B N5B 1_555 1_555
H24B C25B 1_555 1_555
C26B C24B 1_555 1_555
H25B C26B 1_555 1_555
H26B C26B 1_555 1_555
C27B C26B 1_555 1_555
H27B C27B 1_555 1_555
H28B C27B 1_555 1_555
C28B C27B 1_555 1_555
H29B C28B 1_555 1_555
H30B C28B 1_555 1_555
C29B O3B 1_555 1_555
C30B C31A 1_555 1_555
C31B C30 1_555 1_555
H31B C31B 1_555 1_555
O5A C39A 1_555 1_555
O6A C40A 1_555 1_555
N6A C32A 1_555 1_555
C32A H32A 1_555 1_555
C33A C32A 1_555 1_555
H33A C33A 1_555 1_555
C34A C33A 1_555 1_555
H34A C34A 1_555 1_555
C35A C34A 1_555 1_555
C36A N6A 1_555 1_555
H35A C36A 1_555 1_555
C37A C35A 1_555 1_555
H36A C37A 1_555 1_555
H37A C37A 1_555 1_555
C38A C37A 1_555 1_555
H38A C38A 1_555 1_555
H39A C38A 1_555 1_555
C39A C38A 1_555 1_555
H40A C39A 1_555 1_555
H41A C39A 1_555 1_555
C40A O5A 1_555 1_555
C41A C40A 1_555 1_555
C42A C41 1_555 1_555
H42A C42A 1_555 1_555
O5B C39B 1_555 1_555
O6B C40B 1_555 1_555
N6B C32B 1_555 1_555
C32B H32B 1_555 1_555
C33B C32B 1_555 1_555
H33B C33B 1_555 1_555
C34B C33B 1_555 1_555
H34B C34B 1_555 1_555
C35B C34B 1_555 1_555
C36B N6B 1_555 1_555
H35B C36B 1_555 1_555
C37B C35B 1_555 1_555
H36B C37B 1_555 1_555
H37B C37B 1_555 1_555
C38B C37B 1_555 1_555
H38B C38B 1_555 1_555
H39B C38B 1_555 1_555
C39B C38B 1_555 1_555
H40B C39B 1_555 1_555
H41B C39B 1_555 1_555
C40B O5B 1_555 1_555
C41B C42 1_555 1_555
C42B C41A 1_555 1_555
H42B C42B 1_555 1_555
Pd1A N1A 1_555 1_555
Pd1B N1B 1_555 1_555
C4 C5 1_555 1_555
C6 C7 1_555 1_555
C14 C15 1_555 1_555
C16 C17 1_555 1_555
C24 C25 1_555 1_555
C35 C36 1_555 1_555
C4A C5A 1_555 1_555
C6A C7A 1_555 1_555
C9A C10A 1_555 1_555
C4B C5B 1_555 1_555
C6B C7B 1_555 1_555
C8B C9B 1_555 1_555
C9B C10B 1_555 1_555
N3A Pd1A 1_555 1_555
C14A C15A 1_555 1_555
C16A C17A 1_555 1_555
C18A C19A 1_555 1_555
N3B Pd1B 1_555 1_555
C14B C15B 1_555 1_555
C16B C17B 1_555 1_555
C18B C19B 1_555 1_555
C19B C20B 1_555 1_555
N5A Pd1A 1_555 1_555
C24A C25A 1_555 1_555
C29A C30A 1_555 1_555
N5B Pd1B 1_555 1_555
C24B C25B 1_555 1_555
C29B C30B 1_555 1_555
C30B C31B 1_555 1_555
N6A Pd1A 1_555 1_555
C35A C36A 1_555 1_555
C41A C42A 1_555 1_555
N6B Pd1B 1_555 1_555
C35B C36B 1_555 1_555
C40B C41B 1_555 1_555
C41B C42B 1_555 1_555

#END
