
#######################################################################
#
#                 Cambridge Crystallographic Data Centre
#                                CCDC 
#
#######################################################################
#
# If this CIF has been generated from an entry in the Cambridge 
# Structural Database, then it will include bibliographic, chemical, 
# crystal, experimental, refinement or atomic coordinate data resulting 
# from the CCDC's data processing and validation procedures.
#
#######################################################################

data_FAJQOZ
_chemical_formula_moiety         
'C126 H126 N18 O18 Pd3 6+,6(N1 O3 1-),6(C2 H6 O1 S1),10(H2 O1)'
_chemical_name_systematic        
"(PMMP)-bis(\m~3~-N,N',N''-tris(2-(Pyridin-2-yl)ethyl)benzene-1,3,5-tricarboxamide)-bis(\m~3~-tris(3-(pyridin-3-yl)propyl) benzene-1,3,5-tricarboxylate)-tri-palladium(ii) hexanitrate dimethyl sulfoxide solvate decahydrate"
_symmetry_cell_setting           rhombohedral
_symmetry_space_group_name_H-M   'R 3'
_symmetry_Int_Tables_number      146
_space_group_name_Hall           'R 3'
loop_
_symmetry_equiv_pos_site_id
_symmetry_equiv_pos_as_xyz
1 x,y,z
2 -y,x-y,z
3 -x+y,-x,z
4 2/3+x,1/3+y,1/3+z
5 2/3-y,1/3+x-y,1/3+z
6 2/3-x+y,1/3-x,1/3+z
7 1/3+x,2/3+y,2/3+z
8 1/3-y,2/3+x-y,2/3+z
9 1/3-x+y,2/3-x,2/3+z
_cell_length_a                   27.7229(8)
_cell_length_b                   27.7229(8)
_cell_length_c                   21.4266(8)
_cell_angle_alpha                90
_cell_angle_beta                 90
_cell_angle_gamma                120
_cell_volume                     14261.4
_exptl_crystal_colour            yellow
_exptl_crystal_description       Block
_cell_formula_units_Z            3
loop_
_atom_site_label
_atom_site_type_symbol
_atom_site_fract_x
_atom_site_fract_y
_atom_site_fract_z
Pd1 Pd 0.720388(15) -0.000044(18) 0.38342(3)
O1 O 0.86574(18) -0.01085(17) 0.4833(3)
O2 O 0.87696(17) 0.01074(18) 0.2819(3)
O3 O 0.85826(16) -0.10374(16) 0.6012(3)
O4 O 0.90157(18) -0.15021(19) 0.6236(3)
O5 O 0.96251(17) 0.10399(16) 0.1658(3)
O6 O 1.05153(19) 0.14945(18) 0.1423(3)
N1 N 0.7540(2) 0.07330(19) 0.4296(2)
N2 N 0.92518(19) 0.07804(19) 0.4589(2)
H1 H 0.9585 0.1020 0.4447
N3 N 0.68056(18) -0.07269(19) 0.3366(2)
N4 N 0.84633(17) -0.07843(18) 0.3073(2)
H2 H 0.8558 -0.1028 0.3200
N5 N 0.69733(18) -0.04474(19) 0.4628(3)
N6 N 0.74277(18) 0.04474(19) 0.3029(3)
C1 C 0.7146(3) 0.0884(3) 0.4488(4)
H3 H 0.6760 0.0618 0.4474
C2 C 0.7320(3) 0.1407(3) 0.4693(4)
H4 H 0.7055 0.1515 0.4797
C3 C 0.7910(3) 0.1805(3) 0.4753(4)
H5 H 0.8038 0.2168 0.4914
C4 C 0.8284(3) 0.1632(3) 0.4567(5)
H6 H 0.8674 0.1876 0.4609
C5 C 0.8076(3) 0.1087(3) 0.4315(4)
C6 C 0.8501(3) 0.0917(3) 0.4168(4)
H7 H 0.8306 0.0527 0.4020
H8 H 0.8742 0.1154 0.3825
C7 C 0.8849(3) 0.0963(3) 0.4696(5)
H9 H 0.8603 0.0742 0.5045
H10 H 0.9053 0.1357 0.4831
C8 C 0.9123(2) 0.0251(2) 0.4705(3)
C9 C 0.9577(2) 0.0119(2) 0.4648(2)
C10 C 1.0139(2) 0.05457(19) 0.4647(2)
H11 H 1.0229 0.0924 0.4645
C11 C 0.6288(3) -0.0859(3) 0.3190(4)
H12 H 0.6178 -0.0585 0.3207
C12 C 0.5914(3) -0.1392(4) 0.2986(4)
H13 H 0.5544 -0.1490 0.2875
C13 C 0.6098(3) -0.1805(3) 0.2941(4)
H14 H 0.5847 -0.2176 0.2812
C14 C 0.6659(3) -0.1637(3) 0.3095(4)
H15 H 0.6805 -0.1879 0.3040
C15 C 0.6987(2) -0.1094(2) 0.3333(4)
C16 C 0.7590(2) -0.0915(3) 0.3473(4)
H16 H 0.7780 -0.0522 0.3615
H17 H 0.7598 -0.1143 0.3823
C17 C 0.7890(2) -0.0958(3) 0.2978(4)
H18 H 0.7867 -0.0739 0.2626
H19 H 0.7699 -0.1352 0.2844
C18 C 0.8853(2) -0.0263(3) 0.2974(3)
C19 C 0.94595(19) -0.0127(2) 0.3030(2)
C20 C 0.9860(2) 0.0403(2) 0.3031(2)
H20 H 0.9766 0.0689 0.3032
C21 C 0.6430(2) -0.0748(3) 0.4795(4)
H21 H 0.6160 -0.0707 0.4563
C22 C 0.6256(2) -0.1116(3) 0.5299(4)
H22 H 0.5873 -0.1319 0.5409
C23 C 0.6620(2) -0.1180(3) 0.5619(3)
H23 H 0.6492 -0.1436 0.5957
C24 C 0.7189(2) -0.0892(2) 0.5490(3)
C25 C 0.7329(3) -0.0532(3) 0.5009(4)
H24 H 0.7716 -0.0311 0.4921
C26 C 0.7606(3) -0.0955(2) 0.5817(4)
H25 H 0.7494 -0.1045 0.6260
H26 H 0.7963 -0.0598 0.5805
C27 C 0.7695(3) -0.1435(3) 0.5522(5)
H27 H 0.7328 -0.1775 0.5472
H28 H 0.7861 -0.1316 0.5102
C28 C 0.8048(3) -0.1567(3) 0.5889(5)
H29 H 0.8122 -0.1833 0.5661
H30 H 0.7862 -0.1740 0.6289
C29 C 0.9017(2) -0.1068(2) 0.6178(3)
C30 C 0.9529(2) -0.0505(2) 0.6236(2)
C31 C 0.9485(2) -0.0045(2) 0.6211(3)
H31 H 0.9131 -0.0072 0.6177
C32 C 0.7167(3) 0.0735(3) 0.2846(4)
H32 H 0.6837 0.0668 0.3055
C33 C 0.7364(3) 0.1106(3) 0.2383(3)
H33 H 0.7194 0.1322 0.2293
C34 C 0.7807(3) 0.1177(3) 0.2036(4)
H34 H 0.7928 0.1426 0.1693
C35 C 0.8081(2) 0.0894(2) 0.2175(3)
C36 C 0.7870(3) 0.0535(3) 0.2662(4)
H35 H 0.8044 0.0323 0.2757
C37 C 0.8570(2) 0.0960(2) 0.1823(4)
H36 H 0.8548 0.1060 0.1385
H37 H 0.8570 0.0603 0.1823
C38 C 0.9123(3) 0.1427(3) 0.2128(6)
H38 H 0.9091 0.1763 0.2196
H39 H 0.9171 0.1296 0.2541
C39 C 0.9617(3) 0.1576(3) 0.1745(7)
H40 H 0.9959 0.1858 0.1959
H41 H 0.9588 0.1728 0.1337
C40 C 1.0096(2) 0.1074(2) 0.1489(3)
C41 C 1.0037(2) 0.0509(2) 0.1425(2)
C42 C 0.9521(2) 0.0033(2) 0.1442(3)
H42 H 0.9192 0.0057 0.1465
O1A O 1.01085(17) -0.12341(25) 0.4833(3)
N1A N 0.92670(19) -0.31930(28) 0.4296(2)
N2A N 0.92196(19) -0.15286(27) 0.4589(2)
H1A H 0.8980 -0.1435 0.4447
C1A C 0.9116(3) -0.3738(4) 0.4488(4)
H3A H 0.9382 -0.3858 0.4474
C2A C 0.8593(3) -0.4087(4) 0.4693(4)
H4A H 0.8485 -0.4460 0.4797
C3A C 0.8195(3) -0.3895(4) 0.4753(4)
H5A H 0.7832 -0.4130 0.4914
C4A C 0.8368(3) -0.3348(4) 0.4567(5)
H6A H 0.8124 -0.3202 0.4609
C5A C 0.8913(3) -0.3011(4) 0.4315(4)
C6A C 0.9083(3) -0.2416(4) 0.4168(4)
H7A H 0.9473 -0.2221 0.4020
H8A H 0.8846 -0.2412 0.3825
C7A C 0.9037(3) -0.2114(4) 0.4696(5)
H9A H 0.9258 -0.2139 0.5045
H10A H 0.8643 -0.2304 0.4831
C8A C 0.9749(2) -0.1128(3) 0.4705(3)
C9A C 0.9881(2) -0.0542(3) 0.4648(2)
C10A C 0.94543(19) -0.04067(28) 0.4647(2)
H11A H 0.9076 -0.0695 0.4645
O1B O 1.12341(25) 0.13426(18) 0.4833(3)
N1B N 1.31930(28) 0.2460(2) 0.4296(2)
N2B N 1.15286(27) 0.07482(19) 0.4589(2)
H1B H 1.1435 0.0415 0.4447
C1B C 1.3738(4) 0.2854(3) 0.4488(4)
H3B H 1.3858 0.3240 0.4474
C2B C 1.4087(4) 0.2680(3) 0.4693(4)
H4B H 1.4460 0.2945 0.4797
C3B C 1.3895(4) 0.2090(3) 0.4753(4)
H5B H 1.4130 0.1962 0.4914
C4B C 1.3348(4) 0.1716(3) 0.4567(5)
H6B H 1.3202 0.1326 0.4609
C5B C 1.3011(4) 0.1924(3) 0.4315(4)
C6B C 1.2416(4) 0.1499(3) 0.4168(4)
H7B H 1.2221 0.1694 0.4020
H8B H 1.2412 0.1258 0.3825
C7B C 1.2114(4) 0.1151(3) 0.4696(5)
H9B H 1.2139 0.1397 0.5045
H10B H 1.2304 0.0947 0.4831
C8B C 1.1128(3) 0.0877(2) 0.4705(3)
C9B C 1.0542(3) 0.0423(2) 0.4648(2)
C10B C 1.04067(28) -0.0139(2) 0.4647(2)
H11B H 1.0695 -0.0229 0.4645
O2A O 0.98926(18) -0.13378(25) 0.2819(3)
N3A N 1.07269(19) -0.24675(26) 0.3366(2)
N4A N 1.07843(18) -0.07524(25) 0.3073(2)
H2A H 1.1028 -0.0414 0.3200
C11A C 1.0859(3) -0.2853(4) 0.3190(4)
H12A H 1.0585 -0.3237 0.3207
C12A C 1.1392(4) -0.2694(5) 0.2986(4)
H13A H 1.1490 -0.2966 0.2875
C13A C 1.1805(3) -0.2097(4) 0.2941(4)
H14A H 1.2176 -0.1977 0.2812
C14A C 1.1637(3) -0.1704(4) 0.3095(4)
H15A H 1.1879 -0.1316 0.3040
C15A C 1.1094(2) -0.1919(3) 0.3333(4)
C16A C 1.0915(3) -0.1495(4) 0.3473(4)
H16A H 1.0522 -0.1698 0.3615
H17A H 1.1143 -0.1259 0.3823
C17A C 1.0958(3) -0.1152(4) 0.2978(4)
H18A H 1.0739 -0.1394 0.2626
H19A H 1.1352 -0.0949 0.2844
C18A C 1.0263(3) -0.0884(4) 0.2974(3)
C19A C 1.0127(2) -0.04135(28) 0.3030(2)
C20A C 0.9597(2) -0.0543(3) 0.3031(2)
H20A H 0.9311 -0.0923 0.3032
O2B O 1.13378(25) 0.12304(17) 0.2819(3)
N3B N 1.24675(26) 0.31944(18) 0.3366(2)
N4B N 1.07524(25) 0.15367(17) 0.3073(2)
H2B H 1.0414 0.1442 0.3200
C11B C 1.2853(4) 0.3712(3) 0.3190(4)
H12B H 1.3237 0.3822 0.3207
C12B C 1.2694(5) 0.4086(3) 0.2986(4)
H13B H 1.2966 0.4456 0.2875
C13B C 1.2097(4) 0.3902(3) 0.2941(4)
H14B H 1.1977 0.4153 0.2812
C14B C 1.1704(4) 0.3341(3) 0.3095(4)
H15B H 1.1316 0.3195 0.3040
C15B C 1.1919(3) 0.3013(2) 0.3333(4)
C16B C 1.1495(4) 0.2410(2) 0.3473(4)
H16B H 1.1698 0.2220 0.3615
H17B H 1.1259 0.2402 0.3823
C17B C 1.1152(4) 0.2110(2) 0.2978(4)
H18B H 1.1394 0.2133 0.2626
H19B H 1.0949 0.2301 0.2844
C18B C 1.0884(4) 0.1147(2) 0.2974(3)
C19B C 1.04135(28) 0.05405(19) 0.3030(2)
C20B C 1.0543(3) 0.0140(2) 0.3031(2)
H20B H 1.0923 0.0234 0.3032
O3A O 1.10374(16) -0.03800(23) 0.6012(3)
O4A O 1.15021(19) 0.05178(26) 0.6236(3)
N5A N 1.04474(19) -0.25793(26) 0.4628(3)
C21A C 1.0748(3) -0.2822(4) 0.4795(4)
H21A H 1.0707 -0.3133 0.4563
C22A C 1.1116(3) -0.2628(4) 0.5299(4)
H22A H 1.1319 -0.2808 0.5409
C23A C 1.1180(3) -0.2200(4) 0.5619(3)
H23A H 1.1436 -0.2072 0.5957
C24A C 1.0892(2) -0.1919(3) 0.5490(3)
C25A C 1.0532(3) -0.2139(4) 0.5009(4)
H24A H 1.0311 -0.1973 0.4921
C26A C 1.0955(2) -0.1439(4) 0.5817(4)
H25A H 1.1045 -0.1461 0.6260
H26A H 1.0598 -0.1439 0.5805
C27A C 1.1435(3) -0.0870(4) 0.5522(5)
H27A H 1.1775 -0.0897 0.5472
H28A H 1.1316 -0.0823 0.5102
C28A C 1.1567(3) -0.0385(4) 0.5889(5)
H29A H 1.1833 -0.0045 0.5661
H30A H 1.1740 -0.0398 0.6289
C29A C 1.1068(2) 0.0085(3) 0.6178(3)
C30A C 1.0505(2) 0.0034(3) 0.6236(2)
C31A C 1.0045(2) -0.0470(3) 0.6211(3)
H31A H 1.0072 -0.0797 0.6177
O3B O 1.03800(23) 0.14174(16) 0.6012(3)
O4B O 0.94822(26) 0.09843(18) 0.6236(3)
N5B N 1.25793(26) 0.30267(18) 0.4628(3)
C21B C 1.2822(4) 0.3570(2) 0.4795(4)
H21B H 1.3133 0.3840 0.4563
C22B C 1.2628(4) 0.3744(2) 0.5299(4)
H22B H 1.2808 0.4127 0.5409
C23B C 1.2200(4) 0.3380(2) 0.5619(3)
H23B H 1.2072 0.3508 0.5957
C24B C 1.1919(3) 0.2811(2) 0.5490(3)
C25B C 1.2139(4) 0.2671(3) 0.5009(4)
H24B H 1.1973 0.2284 0.4921
C26B C 1.1439(4) 0.2394(3) 0.5817(4)
H25B H 1.1461 0.2506 0.6260
H26B H 1.1439 0.2037 0.5805
C27B C 1.0870(4) 0.2305(3) 0.5522(5)
H27B H 1.0897 0.2672 0.5472
H28B H 1.0823 0.2139 0.5102
C28B C 1.0385(4) 0.1952(3) 0.5889(5)
H29B H 1.0045 0.1878 0.5661
H30B H 1.0398 0.2138 0.6289
C29B C 0.9915(3) 0.0983(2) 0.6178(3)
C30B C 0.9966(3) 0.0471(2) 0.6236(2)
C31B C 1.0470(3) 0.0515(2) 0.6211(3)
H31B H 1.0797 0.0869 0.6177
O5A O 0.89601(16) -0.14148(23) 0.1658(3)
O6A O 0.85055(18) -0.09792(26) 0.1423(3)
N6A N 0.95526(19) -0.30197(26) 0.3029(3)
C32A C 0.9265(3) -0.3568(4) 0.2846(4)
H32A H 0.9332 -0.3831 0.3055
C33A C 0.8894(3) -0.3742(4) 0.2383(3)
H33A H 0.8678 -0.4128 0.2293
C34A C 0.8823(3) -0.3370(4) 0.2036(4)
H34A H 0.8574 -0.3498 0.1693
C35A C 0.9106(2) -0.2813(3) 0.2175(3)
C36A C 0.9465(3) -0.2665(4) 0.2662(4)
H35A H 0.9677 -0.2279 0.2757
C37A C 0.9040(2) -0.2390(3) 0.1823(4)
H36A H 0.8940 -0.2512 0.1385
H37A H 0.9397 -0.2033 0.1823
C38A C 0.8573(3) -0.2304(4) 0.2128(6)
H38A H 0.8237 -0.2672 0.2196
H39A H 0.8704 -0.2125 0.2541
C39A C 0.8424(3) -0.1959(4) 0.1745(7)
H40A H 0.8142 -0.1899 0.1959
H41A H 0.8272 -0.2140 0.1337
C40A C 0.8926(2) -0.0978(3) 0.1489(3)
C41A C 0.9491(2) -0.0472(3) 0.1425(2)
C42A C 0.9967(2) -0.0512(3) 0.1442(3)
H42A H 0.9943 -0.0865 0.1465
O5B O 1.14148(23) 0.03749(17) 0.1658(3)
O6B O 1.09792(26) -0.05153(19) 0.1423(3)
N6B N 1.30197(26) 0.25723(18) 0.3029(3)
C32B C 1.3568(4) 0.2833(3) 0.2846(4)
H32B H 1.3831 0.3163 0.3055
C33B C 1.3742(4) 0.2636(3) 0.2383(3)
H33B H 1.4128 0.2806 0.2293
C34B C 1.3370(4) 0.2193(3) 0.2036(4)
H34B H 1.3498 0.2072 0.1693
C35B C 1.2813(3) 0.1919(2) 0.2175(3)
C36B C 1.2665(4) 0.2130(3) 0.2662(4)
H35B H 1.2279 0.1956 0.2757
C37B C 1.2390(3) 0.1430(2) 0.1823(4)
H36B H 1.2512 0.1452 0.1385
H37B H 1.2033 0.1430 0.1823
C38B C 1.2304(4) 0.0877(3) 0.2128(6)
H38B H 1.2672 0.0909 0.2196
H39B H 1.2125 0.0829 0.2541
C39B C 1.1959(4) 0.0383(3) 0.1745(7)
H40B H 1.1899 0.0041 0.1959
H41B H 1.2140 0.0412 0.1337
C40B C 1.0978(3) -0.0096(2) 0.1489(3)
C41B C 1.0472(3) -0.0037(2) 0.1425(2)
C42B C 1.0512(3) 0.0479(2) 0.1442(3)
H42B H 1.0865 0.0808 0.1465
Pd1A Pd 1.000044(18) -0.279568(23) 0.38342(3)
Pd1B Pd 1.279568(23) 0.279612(15) 0.38342(3)
loop_
_geom_bond_atom_site_label_1
_geom_bond_atom_site_label_2
_geom_bond_site_symmetry_1
_geom_bond_site_symmetry_2
Pd1 N1 1_555 1_555
O1 C8 1_555 1_555
O2 C18 1_555 1_555
O3 C28 1_555 1_555
O4 C29 1_555 1_555
O5 C39 1_555 1_555
O6 C40 1_555 1_555
N1 C1 1_555 1_555
N2 H1 1_555 1_555
N3 Pd1 1_555 1_555
N4 H2 1_555 1_555
N5 Pd1 1_555 1_555
N6 Pd1 1_555 1_555
C1 H3 1_555 1_555
C2 C1 1_555 1_555
H4 C2 1_555 1_555
C3 C2 1_555 1_555
H5 C3 1_555 1_555
C4 C3 1_555 1_555
H6 C4 1_555 1_555
C5 N1 1_555 1_555
C6 C5 1_555 1_555
H7 C6 1_555 1_555
H8 C6 1_555 1_555
C7 N2 1_555 1_555
H9 C7 1_555 1_555
H10 C7 1_555 1_555
C8 N2 1_555 1_555
C9 C8 1_555 1_555
C10 C9 1_555 1_555
H11 C10 1_555 1_555
C11 N3 1_555 1_555
H12 C11 1_555 1_555
C12 C11 1_555 1_555
H13 C12 1_555 1_555
C13 C12 1_555 1_555
H14 C13 1_555 1_555
C14 C13 1_555 1_555
H15 C14 1_555 1_555
C15 N3 1_555 1_555
C16 C15 1_555 1_555
H16 C16 1_555 1_555
H17 C16 1_555 1_555
C17 N4 1_555 1_555
H18 C17 1_555 1_555
H19 C17 1_555 1_555
C18 N4 1_555 1_555
C19 C18 1_555 1_555
C20 C19 1_555 1_555
H20 C20 1_555 1_555
C21 N5 1_555 1_555
H21 C21 1_555 1_555
C22 C21 1_555 1_555
H22 C22 1_555 1_555
C23 C22 1_555 1_555
H23 C23 1_555 1_555
C24 C23 1_555 1_555
C25 N5 1_555 1_555
H24 C25 1_555 1_555
C26 C24 1_555 1_555
H25 C26 1_555 1_555
H26 C26 1_555 1_555
C27 C26 1_555 1_555
H27 C27 1_555 1_555
H28 C27 1_555 1_555
C28 C27 1_555 1_555
H29 C28 1_555 1_555
H30 C28 1_555 1_555
C29 O3 1_555 1_555
C30 C29 1_555 1_555
C31 C30 1_555 1_555
H31 C31 1_555 1_555
C32 N6 1_555 1_555
H32 C32 1_555 1_555
C33 C32 1_555 1_555
H33 C33 1_555 1_555
C34 C33 1_555 1_555
H34 C34 1_555 1_555
C35 C34 1_555 1_555
C36 N6 1_555 1_555
H35 C36 1_555 1_555
C37 C35 1_555 1_555
H36 C37 1_555 1_555
H37 C37 1_555 1_555
C38 C37 1_555 1_555
H38 C38 1_555 1_555
H39 C38 1_555 1_555
C39 C38 1_555 1_555
H40 C39 1_555 1_555
H41 C39 1_555 1_555
C40 O5 1_555 1_555
C41 C40 1_555 1_555
C42 C41 1_555 1_555
H42 C42 1_555 1_555
O1A C8A 1_555 1_555
N1A C1A 1_555 1_555
N2A H1A 1_555 1_555
C1A H3A 1_555 1_555
C2A C1A 1_555 1_555
H4A C2A 1_555 1_555
C3A C2A 1_555 1_555
H5A C3A 1_555 1_555
C4A C3A 1_555 1_555
H6A C4A 1_555 1_555
C5A N1A 1_555 1_555
C6A C5A 1_555 1_555
H7A C6A 1_555 1_555
H8A C6A 1_555 1_555
C7A N2A 1_555 1_555
H9A C7A 1_555 1_555
H10A C7A 1_555 1_555
C8A N2A 1_555 1_555
C9A C8A 1_555 1_555
C10A C9 1_555 1_555
H11A C10A 1_555 1_555
O1B C8B 1_555 1_555
N1B C1B 1_555 1_555
N2B H1B 1_555 1_555
C1B H3B 1_555 1_555
C2B C1B 1_555 1_555
H4B C2B 1_555 1_555
C3B C2B 1_555 1_555
H5B C3B 1_555 1_555
C4B C3B 1_555 1_555
H6B C4B 1_555 1_555
C5B N1B 1_555 1_555
C6B C5B 1_555 1_555
H7B C6B 1_555 1_555
H8B C6B 1_555 1_555
C7B N2B 1_555 1_555
H9B C7B 1_555 1_555
H10B C7B 1_555 1_555
C8B N2B 1_555 1_555
C9B C10 1_555 1_555
C10B C9A 1_555 1_555
H11B C10B 1_555 1_555
O2A C18A 1_555 1_555
N3A C11A 1_555 1_555
N4A H2A 1_555 1_555
C11A H12A 1_555 1_555
C12A C11A 1_555 1_555
H13A C12A 1_555 1_555
C13A C12A 1_555 1_555
H14A C13A 1_555 1_555
C14A C13A 1_555 1_555
H15A C14A 1_555 1_555
C15A N3A 1_555 1_555
C16A C15A 1_555 1_555
H16A C16A 1_555 1_555
H17A C16A 1_555 1_555
C17A N4A 1_555 1_555
H18A C17A 1_555 1_555
H19A C17A 1_555 1_555
C18A N4A 1_555 1_555
C19A C18A 1_555 1_555
C20A C19 1_555 1_555
H20A C20A 1_555 1_555
O2B C18B 1_555 1_555
N3B C11B 1_555 1_555
N4B H2B 1_555 1_555
C11B H12B 1_555 1_555
C12B C11B 1_555 1_555
H13B C12B 1_555 1_555
C13B C12B 1_555 1_555
H14B C13B 1_555 1_555
C14B C13B 1_555 1_555
H15B C14B 1_555 1_555
C15B N3B 1_555 1_555
C16B C15B 1_555 1_555
H16B C16B 1_555 1_555
H17B C16B 1_555 1_555
C17B N4B 1_555 1_555
H18B C17B 1_555 1_555
H19B C17B 1_555 1_555
C18B N4B 1_555 1_555
C19B C20 1_555 1_555
C20B C19A 1_555 1_555
H20B C20B 1_555 1_555
O3A C28A 1_555 1_555
O4A C29A 1_555 1_555
N5A C21A 1_555 1_555
C21A H21A 1_555 1_555
C22A C21A 1_555 1_555
H22A C22A 1_555 1_555
C23A C22A 1_555 1_555
H23A C23A 1_555 1_555
C24A C23A 1_555 1_555
C25A N5A 1_555 1_555
H24A C25A 1_555 1_555
C26A C24A 1_555 1_555
H25A C26A 1_555 1_555
H26A C26A 1_555 1_555
C27A C26A 1_555 1_555
H27A C27A 1_555 1_555
H28A C27A 1_555 1_555
C28A C27A 1_555 1_555
H29A C28A 1_555 1_555
H30A C28A 1_555 1_555
C29A O3A 1_555 1_555
C30A C29A 1_555 1_555
C31A C30 1_555 1_555
H31A C31A 1_555 1_555
O3B C28B 1_555 1_555
O4B C29B 1_555 1_555
N5B C21B 1_555 1_555
C21B H21B 1_555 1_555
C22B C21B 1_555 1_555
H22B C22B 1_555 1_555
C23B C22B 1_555 1_555
H23B C23B 1_555 1_555
C24B C23B 1_555 1_555
C25B N5B 1_555 1_555
H24B C25B 1_555 1_555
C26B C24B 1_555 1_555
H25B C26B 1_555 1_555
H26B C26B 1_555 1_555
C27B C26B 1_555 1_555
H27B C27B 1_555 1_555
H28B C27B 1_555 1_555
C28B C27B 1_555 1_555
H29B C28B 1_555 1_555
H30B C28B 1_555 1_555
C29B O3B 1_555 1_555
C30B C31 1_555 1_555
C31B C30A 1_555 1_555
H31B C31B 1_555 1_555
O5A C39A 1_555 1_555
O6A C40A 1_555 1_555
N6A C32A 1_555 1_555
C32A H32A 1_555 1_555
C33A C32A 1_555 1_555
H33A C33A 1_555 1_555
C34A C33A 1_555 1_555
H34A C34A 1_555 1_555
C35A C34A 1_555 1_555
C36A N6A 1_555 1_555
H35A C36A 1_555 1_555
C37A C35A 1_555 1_555
H36A C37A 1_555 1_555
H37A C37A 1_555 1_555
C38A C37A 1_555 1_555
H38A C38A 1_555 1_555
H39A C38A 1_555 1_555
C39A C38A 1_555 1_555
H40A C39A 1_555 1_555
H41A C39A 1_555 1_555
C40A O5A 1_555 1_555
C41A C42 1_555 1_555
C42A C41A 1_555 1_555
H42A C42A 1_555 1_555
O5B C39B 1_555 1_555
O6B C40B 1_555 1_555
N6B C32B 1_555 1_555
C32B H32B 1_555 1_555
C33B C32B 1_555 1_555
H33B C33B 1_555 1_555
C34B C33B 1_555 1_555
H34B C34B 1_555 1_555
C35B C34B 1_555 1_555
C36B N6B 1_555 1_555
H35B C36B 1_555 1_555
C37B C35B 1_555 1_555
H36B C37B 1_555 1_555
H37B C37B 1_555 1_555
C38B C37B 1_555 1_555
H38B C38B 1_555 1_555
H39B C38B 1_555 1_555
C39B C38B 1_555 1_555
H40B C39B 1_555 1_555
H41B C39B 1_555 1_555
C40B O5B 1_555 1_555
C41B C42A 1_555 1_555
C42B C41 1_555 1_555
H42B C42B 1_555 1_555
Pd1A N1A 1_555 1_555
Pd1B N1B 1_555 1_555
C4 C5 1_555 1_555
C6 C7 1_555 1_555
C14 C15 1_555 1_555
C16 C17 1_555 1_555
C24 C25 1_555 1_555
C35 C36 1_555 1_555
C4A C5A 1_555 1_555
C6A C7A 1_555 1_555
C9A C10A 1_555 1_555
C4B C5B 1_555 1_555
C6B C7B 1_555 1_555
C8B C9B 1_555 1_555
C9B C10B 1_555 1_555
N3A Pd1A 1_555 1_555
C14A C15A 1_555 1_555
C16A C17A 1_555 1_555
C19A C20A 1_555 1_555
N3B Pd1B 1_555 1_555
C14B C15B 1_555 1_555
C16B C17B 1_555 1_555
C18B C19B 1_555 1_555
C19B C20B 1_555 1_555
N5A Pd1A 1_555 1_555
C24A C25A 1_555 1_555
C30A C31A 1_555 1_555
N5B Pd1B 1_555 1_555
C24B C25B 1_555 1_555
C29B C30B 1_555 1_555
C30B C31B 1_555 1_555
N6A Pd1A 1_555 1_555
C35A C36A 1_555 1_555
C40A C41A 1_555 1_555
N6B Pd1B 1_555 1_555
C35B C36B 1_555 1_555
C40B C41B 1_555 1_555
C41B C42B 1_555 1_555

#END
