
#######################################################################
#
#                 Cambridge Crystallographic Data Centre
#                                CCDC 
#
#######################################################################
#
# If this CIF has been generated from an entry in the Cambridge 
# Structural Database, then it will include bibliographic, chemical, 
# crystal, experimental, refinement or atomic coordinate data resulting 
# from the CCDC's data processing and validation procedures.
#
#######################################################################

data_FAJQUF
_chemical_formula_moiety         
'C126 H126 N18 O18 Pd3 6+,6(N1 O3 1-),6(C2 H6 O1 S1),10(H2 O1)'
_chemical_name_systematic        
"rac-bis(\m~3~-N,N',N''-tris(2-(Pyridin-2-yl)ethyl)benzene-1,3,5-tricarboxamide)-bis(\m~3~-tris(3-(pyridin-3-yl)propyl) benzene-1,3,5-tricarboxylate)-tri-palladium(ii) hexanitrate dimethyl sulfoxide solvate decahydrate"
_symmetry_cell_setting           triclinic
_symmetry_space_group_name_H-M   'P -1'
_symmetry_Int_Tables_number      2
_space_group_name_Hall           '-P 1'
loop_
_symmetry_equiv_pos_site_id
_symmetry_equiv_pos_as_xyz
1 x,y,z
2 -x,-y,-z
_cell_length_a                   16.9628(11)
_cell_length_b                   21.8222(13)
_cell_length_c                   21.8250(14)
_cell_angle_alpha                106.746(4)
_cell_angle_beta                 97.837(4)
_cell_angle_gamma                97.833(5)
_cell_volume                     7531.59
_exptl_crystal_colour            colorless
_exptl_crystal_description       rod
_cell_formula_units_Z            2
loop_
_atom_site_label
_atom_site_type_symbol
_atom_site_fract_x
_atom_site_fract_y
_atom_site_fract_z
O19 O 0.5665(9) 0.4004(7) 0.3379(9)
O20 O 0.5140(7) 0.3418(6) 0.2350(6)
O21 O 0.4428(8) 0.3966(6) 0.2986(8)
N19 N 0.5095(12) 0.3815(8) 0.2930(12)
O22 O 0.7493(7) 0.1063(5) 0.3934(5)
O23 O 0.7467(6) 0.0121(5) 0.4054(5)
O24 O 0.7507(6) 0.0946(4) 0.4893(5)
N20 N 0.7501(7) 0.0724(6) 0.4301(8)
O25 O 0.9358(7) 0.1641(6) 0.1015(5)
O26 O 0.9840(7) 0.2646(6) 0.1576(6)
O27 O 1.0570(8) 0.2055(8) 0.1023(7)
N21 N 0.9915(11) 0.2104(9) 0.1171(8)
O28 O 0.2939(8) 0.1688(8) 0.6388(7)
O29 O 0.2180(18) 0.2228(10) 0.6347(13)
O30 O 0.2981(10) 0.2344(9) 0.5850(9)
N22 N 0.2694(11) 0.2083(8) 0.6108(10)
O31 O 1.2070(8) -0.1438(7) 0.3323(9)
O32 O 1.2068(9) -0.0875(8) 0.2693(8)
O33 O 1.2851(18) -0.1407(12) 0.2688(10)
N23 N 1.2381(14) -0.1126(12) 0.2983(9)
O34 O 0.7824(14) 0.7847(12) 0.0951(12)
O35 O 0.8480(19) 0.7125(13) 0.1107(15)
O36 O 0.9005(17) 0.7751(16) 0.0639(16)
N24 N 0.8435(14) 0.7603(11) 0.0907(11)
O37 O 0.8473(16) 0.2790(9) -0.2846(10)
H127 H 0.8868 0.2823 -0.3036
H128 H 0.8478 0.2476 -0.2696
O38 O 0.3634(15) 0.2130(9) -0.2191(8)
H129 H 0.3827 0.1790 -0.2313
H130 H 0.3326 0.2090 -0.1929
O39 O 0.7507(8) 0.5409(6) -0.0403(6)
H131 H 0.7046 0.5316 -0.0317
H132 H 0.7576 0.5106 -0.0719
Pd1 Pd 0.75010(6) 0.43892(5) 0.06127(5)
Pd2 Pd 1.06315(6) -0.00757(5) 0.26603(5)
Pd3 Pd 0.43692(6) 0.23381(5) 0.50757(5)
O1 O 0.6811(6) 0.2616(4) 0.1103(4)
O2 O 0.8121(5) 0.0258(4) 0.1752(4)
O3 O 0.5487(5) 0.1436(4) 0.3179(5)
O4 O 0.8202(5) 0.3888(4) 0.2382(4)
O5 O 0.9509(5) 0.1838(5) 0.3547(5)
O6 O 0.6870(5) 0.3262(4) 0.4745(4)
O7 O 0.4855(6) 0.1473(4) 0.0684(4)
O8 O 0.4327(5) 0.1240(4) 0.1490(4)
O9 O 0.7043(5) -0.0604(4) -0.0075(4)
O10 O 0.6896(7) 0.0341(5) -0.0255(6)
O11 O 0.5548(5) -0.0294(4) 0.2427(4)
O12 O 0.6009(6) -0.1130(5) 0.1776(5)
O13 O 1.0121(6) 0.4320(5) 0.3496(5)
O14 O 1.0690(6) 0.3511(4) 0.3758(4)
O15 O 0.9459(6) 0.2577(4) 0.5299(4)
O16 O 0.9012(6) 0.3252(4) 0.6137(5)
O17 O 0.7976(5) 0.5077(4) 0.5624(5)
O18 O 0.8103(8) 0.5255(6) 0.4649(6)
N1 N 0.8460(6) 0.4032(5) 0.0240(5)
N2 N 0.7927(6) 0.2208(4) 0.0944(5)
H1 H 0.8253 0.1951 0.1033
N3 N 0.9873(6) -0.0854(4) 0.2722(5)
N4 N 0.7677(6) 0.0221(5) 0.2673(5)
H2 H 0.7453 0.0417 0.2998
N5 N 0.3540(6) 0.2422(5) 0.4346(5)
N6 N 0.5351(6) 0.2325(4) 0.2875(5)
H3 H 0.5582 0.2641 0.2747
N7 N 0.6547(6) 0.4749(5) 0.0960(5)
N8 N 0.7075(7) 0.4047(5) 0.2785(5)
H4 H 0.6764 0.3963 0.3054
N9 N 1.1463(6) 0.0649(4) 0.2578(5)
N10 N 0.9646(6) 0.2117(4) 0.2672(5)
H5 H 0.9415 0.2233 0.2348
N11 N 0.5119(7) 0.2280(5) 0.5874(5)
N12 N 0.7328(5) 0.2342(5) 0.4784(5)
H6 H 0.7570 0.2026 0.4594
N13 N 0.6645(6) 0.3702(5) -0.0082(6)
N14 N 1.0399(8) -0.0434(5) 0.1677(5)
N15 N 0.4130(6) 0.1358(5) 0.4711(5)
N16 N 0.8344(6) 0.5105(5) 0.1309(5)
N17 N 1.0882(5) 0.0276(5) 0.3652(4)
N18 N 0.4614(7) 0.3304(5) 0.5440(5)
C1 C 0.8760(10) 0.4348(7) -0.0182(7)
H7 H 0.8468 0.4639 -0.0323
C2 C 0.9437(10) 0.4244(7) -0.0381(8)
H8 H 0.9637 0.4452 -0.0670
C3 C 0.9837(10) 0.3841(8) -0.0170(8)
H9 H 1.0322 0.3754 -0.0322
C4 C 0.9560(10) 0.3529(7) 0.0279(8)
H10 H 0.9865 0.3250 0.0431
C5 C 0.8861(8) 0.3640(6) 0.0483(7)
C6 C 0.8471(7) 0.3271(6) 0.0886(6)
H11 H 0.8033 0.3488 0.1055
H12 H 0.8880 0.3292 0.1265
C7 C 0.8116(8) 0.2553(5) 0.0506(6)
H13 H 0.7620 0.2524 0.0193
H14 H 0.8513 0.2356 0.0256
C8 C 0.7288(9) 0.2255(6) 0.1224(7)
C9 C 0.7130(8) 0.1891(5) 0.1707(6)
C10 C 0.7529(7) 0.1384(5) 0.1743(6)
H15 H 0.7909 0.1264 0.1469
C11 C 1.0147(8) -0.1433(7) 0.2582(7)
H16 H 1.0639 -0.1450 0.2421
C12 C 0.9765(11) -0.1974(7) 0.2659(8)
H17 H 0.9954 -0.2374 0.2534
C13 C 0.9085(11) -0.1920(8) 0.2928(8)
H18 H 0.8840 -0.2270 0.3056
C14 C 0.8749(9) -0.1371(7) 0.3017(9)
H19 H 0.8225 -0.1368 0.3125
C15 C 0.9173(8) -0.0847(6) 0.2949(7)
C16 C 0.8837(9) -0.0227(6) 0.3009(7)
H20 H 0.8872 0.0015 0.3474
H21 H 0.9163 0.0054 0.2815
C17 C 0.7966(8) -0.0387(6) 0.2663(7)
H22 H 0.7922 -0.0663 0.2207
H23 H 0.7629 -0.0631 0.2882
C18 C 0.7752(7) 0.0474(6) 0.2200(7)
C19 C 0.7369(7) 0.1058(5) 0.2180(6)
C20 C 0.6792(7) 0.1212(5) 0.2563(6)
H24 H 0.6675 0.0982 0.2858
C21 C 0.2757(9) 0.2330(6) 0.4432(7)
H25 H 0.2612 0.2136 0.4748
C22 C 0.2166(9) 0.2525(7) 0.4052(8)
H26 H 0.1623 0.2475 0.4119
C23 C 0.2362(8) 0.2772(6) 0.3612(7)
H27 H 0.1957 0.2883 0.3339
C24 C 0.3170(8) 0.2877(6) 0.3535(8)
H28 H 0.3318 0.3089 0.3233
C25 C 0.3742(8) 0.2679(6) 0.3888(7)
C26 C 0.4580(7) 0.2716(6) 0.3760(6)
H29 H 0.4907 0.2536 0.4053
H30 H 0.4833 0.3176 0.3844
C27 C 0.4560(8) 0.2334(6) 0.3064(7)
H31 H 0.4289 0.1880 0.2986
H32 H 0.4227 0.2519 0.2779
C28 C 0.5724(8) 0.1814(7) 0.2902(7)
C29 C 0.6384(7) 0.1715(6) 0.2506(6)
C30 C 0.6548(7) 0.2032(5) 0.2071(6)
H33 H 0.6250 0.2358 0.2020
C31 C 0.6227(9) 0.5153(7) 0.0688(7)
H34 H 0.6497 0.5319 0.0399
C32 C 0.5521(13) 0.5329(8) 0.0821(9)
H35 H 0.5302 0.5624 0.0630
C33 C 0.5112(11) 0.5086(9) 0.1231(9)
H36 H 0.4608 0.5194 0.1322
C34 C 0.5450(11) 0.4715(8) 0.1473(8)
H37 H 0.5186 0.4541 0.1759
C35 C 0.6153(9) 0.4546(6) 0.1359(7)
C36 C 0.6519(8) 0.4103(6) 0.1710(7)
H38 H 0.6095 0.3730 0.1679
H39 H 0.6953 0.3928 0.1491
C37 C 0.6868(8) 0.4470(6) 0.2422(7)
H40 H 0.7358 0.4788 0.2451
H41 H 0.6467 0.4716 0.2618
C38 C 0.7728(9) 0.3779(6) 0.2726(7)
C39 C 0.7859(7) 0.3316(5) 0.3129(6)
C40 C 0.8445(7) 0.2932(6) 0.2970(6)
H42 H 0.8735 0.2989 0.2642
C41 C 1.2228(8) 0.0553(6) 0.2639(7)
H43 H 1.2352 0.0210 0.2802
C42 C 1.2838(8) 0.0914(7) 0.2483(7)
H44 H 1.3383 0.0853 0.2555
C43 C 1.2626(8) 0.1357(7) 0.2225(7)
H45 H 1.3033 0.1612 0.2097
C44 C 1.1867(8) 0.1466(6) 0.2131(6)
H46 H 1.1742 0.1794 0.1946
C45 C 1.1268(8) 0.1091(6) 0.2311(6)
C46 C 1.0414(6) 0.1247(5) 0.2272(5)
H47 H 1.0172 0.1179 0.1813
H48 H 1.0069 0.0951 0.2438
C47 C 1.0442(7) 0.1930(6) 0.2662(6)
H49 H 1.0710 0.1998 0.3115
H50 H 1.0778 0.2221 0.2485
C48 C 0.9270(8) 0.2113(6) 0.3161(6)
C49 C 0.8620(7) 0.2480(6) 0.3264(6)
C50 C 0.8223(6) 0.2436(5) 0.3771(5)
H51 H 0.8352 0.2147 0.4006
C51 C 0.4791(9) 0.2397(7) 0.6377(9)
H52 H 0.4279 0.2529 0.6373
C52 C 0.5219(11) 0.2321(7) 0.6931(8)
H53 H 0.5014 0.2440 0.7324
C53 C 0.5933(10) 0.2082(7) 0.6936(9)
H54 H 0.6201 0.2007 0.7312
C54 C 0.6232(10) 0.1957(7) 0.6367(8)
H55 H 0.6727 0.1802 0.6339
C55 C 0.5810(8) 0.2061(6) 0.5856(6)
C56 C 0.6144(7) 0.1971(5) 0.5229(6)
H56 H 0.5806 0.2139 0.4930
H57 H 0.6122 0.1502 0.5012
C57 C 0.7029(8) 0.2338(6) 0.5374(6)
H58 H 0.7061 0.2792 0.5649
H59 H 0.7377 0.2128 0.5621
C58 C 0.7240(8) 0.2825(6) 0.4523(6)
C59 C 0.7634(7) 0.2815(5) 0.3939(6)
C60 C 0.7471(7) 0.3233(5) 0.3623(5)
H60 H 0.7070 0.3486 0.3743
C61 C 0.6432(11) 0.3762(8) -0.0690(9)
H61 H 0.6703 0.4112 -0.0804
C62 C 0.5816(11) 0.3303(9) -0.1130(7)
H62 H 0.5689 0.3335 -0.1555
C63 C 0.5387(10) 0.2814(7) -0.0991(8)
H63 H 0.4967 0.2508 -0.1309
C64 C 0.5576(8) 0.2770(6) -0.0367(7)
C65 C 0.6226(8) 0.3222(6) 0.0049(7)
H64 H 0.6381 0.3179 0.0467
C66 C 0.5153(8) 0.2247(6) -0.0141(7)
H65 H 0.5520 0.1941 -0.0099
H66 H 0.4671 0.2001 -0.0475
C67 C 0.4879(8) 0.2525(6) 0.0529(7)
H67 H 0.5365 0.2738 0.0871
H68 H 0.4549 0.2860 0.0499
C68 C 0.4376(9) 0.1983(7) 0.0728(8)
H69 H 0.4279 0.2159 0.1177
H70 H 0.3846 0.1812 0.0429
C69 C 0.4770(8) 0.1156(6) 0.1103(7)
C70 C 0.5291(8) 0.0653(6) 0.0990(7)
C71 C 0.5771(7) 0.0523(6) 0.0578(6)
H71 H 0.5808 0.0779 0.0294
C72 C 1.0975(9) -0.0706(7) 0.1366(9)
H72 H 1.1469 -0.0750 0.1598
C73 C 1.0796(10) -0.0905(8) 0.0712(9)
H73 H 1.1189 -0.1097 0.0490
C74 C 1.0074(12) -0.0858(10) 0.0312(9)
H74 H 0.9989 -0.1007 -0.0150
C75 C 0.9497(12) -0.0573(9) 0.0662(11)
C76 C 0.9659(10) -0.0402(9) 0.1327(9)
H75 H 0.9252 -0.0255 0.1561
C77 C 0.8743(12) -0.0395(9) 0.0223(10)
H76 H 0.8393 -0.0177 0.0511
H77 H 0.8960 -0.0093 -0.0001
C78 C 0.8318(10) -0.0931(9) -0.0207(10)
H78 H 0.8162 -0.1255 0.0012
H79 H 0.8649 -0.1117 -0.0530
C79 C 0.7595(9) -0.0785(7) -0.0536(6)
H80 H 0.7319 -0.1171 -0.0907
H81 H 0.7748 -0.0422 -0.0709
C80 C 0.6747(10) -0.0076(9) 0.0034(8)
C81 C 0.6214(8) 0.0066(6) 0.0518(6)
C82 C 0.6206(7) -0.0341(5) 0.0910(6)
H82 H 0.6508 -0.0683 0.0847
C83 C 0.3748(8) 0.1043(7) 0.5046(7)
H83 H 0.3576 0.1282 0.5425
C84 C 0.3592(8) 0.0371(8) 0.4856(7)
H84 H 0.3328 0.0145 0.5106
C85 C 0.3828(8) 0.0039(6) 0.4301(7)
H85 H 0.3735 -0.0423 0.4167
C86 C 0.4206(7) 0.0369(6) 0.3925(7)
C87 C 0.4354(7) 0.1031(6) 0.4192(6)
H86 H 0.4651 0.1274 0.3974
C88 C 0.4495(8) 0.0000(6) 0.3307(7)
H87 H 0.4093 -0.0403 0.3071
H88 H 0.4527 0.0274 0.3017
C89 C 0.5297(9) -0.0175(6) 0.3458(7)
H89 H 0.5292 -0.0366 0.3817
H90 H 0.5710 0.0230 0.3617
C90 C 0.5553(9) -0.0648(7) 0.2894(7)
H91 H 0.6099 -0.0735 0.3022
H92 H 0.5161 -0.1066 0.2722
C91 C 0.5806(9) -0.0604(8) 0.1899(8)
C92 C 0.5707(8) -0.0218(6) 0.1427(7)
C93 C 0.5276(7) 0.0298(6) 0.1442(7)
H93 H 0.4961 0.0411 0.1772
C94 C 0.8509(9) 0.5691(7) 0.1212(7)
H94 H 0.8202 0.5800 0.0874
C95 C 0.9142(10) 0.6105(7) 0.1632(8)
H95 H 0.9300 0.6515 0.1572
C96 C 0.9591(9) 0.5972(7) 0.2161(7)
H96 H 1.0002 0.6303 0.2461
C97 C 0.9433(9) 0.5349(6) 0.2246(7)
C98 C 0.8767(9) 0.4935(6) 0.1785(6)
H97 H 0.8606 0.4510 0.1812
C99 C 0.9881(9) 0.5162(7) 0.2782(7)
H98 H 0.9534 0.5126 0.3104
H99 H 1.0372 0.5496 0.3007
C100 C 1.0118(9) 0.4504(7) 0.2474(8)
H100 H 0.9625 0.4170 0.2261
H101 H 1.0444 0.4539 0.2138
C101 C 1.0609(9) 0.4304(7) 0.3001(7)
H102 H 1.0722 0.3861 0.2818
H103 H 1.1131 0.4611 0.3186
C102 C 1.0228(8) 0.3907(7) 0.3827(7)
C103 C 0.9744(8) 0.3976(6) 0.4356(7)
C104 C 0.9735(7) 0.3552(6) 0.4723(6)
H104 H 1.0063 0.3227 0.4651
C105 C 1.1276(8) -0.0051(7) 0.3987(8)
H105 H 1.1453 -0.0434 0.3760
C106 C 1.1425(8) 0.0158(6) 0.4650(7)
H106 H 1.1708 -0.0082 0.4877
C107 C 1.1185(8) 0.0687(7) 0.4989(7)
H107 H 1.1269 0.0807 0.5450
C108 C 1.0798(7) 0.1078(6) 0.4652(7)
C109 C 1.0669(7) 0.0842(6) 0.3993(7)
H108 H 1.0415 0.1084 0.3752
C110 C 1.0492(8) 0.1669(6) 0.5000(6)
H109 H 1.0882 0.1911 0.5408
H110 H 1.0464 0.1958 0.4724
C111 C 0.9689(8) 0.1515(6) 0.5160(7)
H111 H 0.9689 0.1163 0.5362
H112 H 0.9281 0.1351 0.4752
C112 C 0.9448(8) 0.2090(6) 0.5615(7)
H113 H 0.8900 0.1968 0.5701
H114 H 0.9835 0.2251 0.6035
C113 C 0.9207(9) 0.3137(7) 0.5605(8)
C114 C 0.9250(7) 0.3595(6) 0.5199(6)
C115 C 0.8809(7) 0.4100(7) 0.5340(7)
H115 H 0.8528 0.4168 0.5695
C116 C 0.4062(9) 0.3642(9) 0.5705(7)
H116 H 0.3562 0.3410 0.5740
C117 C 0.4212(11) 0.4330(9) 0.5931(8)
H117 H 0.3850 0.4548 0.6171
C118 C 0.4896(11) 0.4705(9) 0.5807(10)
H118 H 0.4960 0.5163 0.5898
C119 C 0.5482(11) 0.4337(8) 0.5535(9)
C120 C 0.5316(9) 0.3640(6) 0.5397(8)
H119 H 0.5729 0.3405 0.5268
C121 C 0.6213(12) 0.4752(9) 0.5298(10)
H120 H 0.6551 0.4458 0.5072
H121 H 0.5982 0.4976 0.5001
C122 C 0.6660(11) 0.5194(9) 0.5863(9)
H122 H 0.6789 0.4963 0.6183
H123 H 0.6327 0.5516 0.6047
C123 C 0.7431(9) 0.5550(6) 0.5775(8)
H124 H 0.7325 0.5735 0.5414
H125 H 0.7680 0.5910 0.6178
C124 C 0.8203(10) 0.4978(7) 0.5066(10)
C125 C 0.8792(9) 0.4486(6) 0.4957(7)
C126 C 0.9222(8) 0.4427(6) 0.4470(6)
H126 H 0.9169 0.4697 0.4200
loop_
_geom_bond_atom_site_label_1
_geom_bond_atom_site_label_2
_geom_bond_site_symmetry_1
_geom_bond_site_symmetry_2
Pd1 N1 1_555 1_555
Pd2 N3 1_555 1_555
Pd3 N5 1_555 1_555
O1 C8 1_555 1_555
O2 C18 1_555 1_555
O3 C28 1_555 1_555
O4 C38 1_555 1_555
O5 C48 1_555 1_555
O6 C58 1_555 1_555
O7 C68 1_555 1_555
O8 C69 1_555 1_555
O9 C79 1_555 1_555
O10 C80 1_555 1_555
O11 C90 1_555 1_555
O12 C91 1_555 1_555
O13 C101 1_555 1_555
O14 C102 1_555 1_555
O15 C112 1_555 1_555
O16 C113 1_555 1_555
O17 C123 1_555 1_555
O18 C124 1_555 1_555
N1 C1 1_555 1_555
N2 H1 1_555 1_555
N3 C11 1_555 1_555
N4 H2 1_555 1_555
N5 C21 1_555 1_555
N6 H3 1_555 1_555
N7 Pd1 1_555 1_555
N8 H4 1_555 1_555
N9 Pd2 1_555 1_555
N10 H5 1_555 1_555
N11 Pd3 1_555 1_555
N12 H6 1_555 1_555
N13 Pd1 1_555 1_555
N14 Pd2 1_555 1_555
N15 Pd3 1_555 1_555
N16 Pd1 1_555 1_555
N17 Pd2 1_555 1_555
N18 Pd3 1_555 1_555
C1 H7 1_555 1_555
C2 C1 1_555 1_555
H8 C2 1_555 1_555
C3 C2 1_555 1_555
H9 C3 1_555 1_555
C4 C3 1_555 1_555
H10 C4 1_555 1_555
C5 N1 1_555 1_555
C6 C5 1_555 1_555
H11 C6 1_555 1_555
H12 C6 1_555 1_555
C7 N2 1_555 1_555
H13 C7 1_555 1_555
H14 C7 1_555 1_555
C8 N2 1_555 1_555
C9 C8 1_555 1_555
C10 C9 1_555 1_555
H15 C10 1_555 1_555
C11 H16 1_555 1_555
C12 C11 1_555 1_555
H17 C12 1_555 1_555
C13 C12 1_555 1_555
H18 C13 1_555 1_555
C14 C13 1_555 1_555
H19 C14 1_555 1_555
C15 N3 1_555 1_555
C16 C15 1_555 1_555
H20 C16 1_555 1_555
H21 C16 1_555 1_555
C17 N4 1_555 1_555
H22 C17 1_555 1_555
H23 C17 1_555 1_555
C18 N4 1_555 1_555
C19 C10 1_555 1_555
C20 C19 1_555 1_555
H24 C20 1_555 1_555
C21 H25 1_555 1_555
C22 C21 1_555 1_555
H26 C22 1_555 1_555
C23 C22 1_555 1_555
H27 C23 1_555 1_555
C24 C23 1_555 1_555
H28 C24 1_555 1_555
C25 N5 1_555 1_555
C26 C25 1_555 1_555
H29 C26 1_555 1_555
H30 C26 1_555 1_555
C27 N6 1_555 1_555
H31 C27 1_555 1_555
H32 C27 1_555 1_555
C28 N6 1_555 1_555
C29 C20 1_555 1_555
C30 C9 1_555 1_555
H33 C30 1_555 1_555
C31 N7 1_555 1_555
H34 C31 1_555 1_555
C32 C31 1_555 1_555
H35 C32 1_555 1_555
C33 C32 1_555 1_555
H36 C33 1_555 1_555
C34 C33 1_555 1_555
H37 C34 1_555 1_555
C35 N7 1_555 1_555
C36 C35 1_555 1_555
H38 C36 1_555 1_555
H39 C36 1_555 1_555
C37 N8 1_555 1_555
H40 C37 1_555 1_555
H41 C37 1_555 1_555
C38 N8 1_555 1_555
C39 C38 1_555 1_555
C40 C39 1_555 1_555
H42 C40 1_555 1_555
C41 N9 1_555 1_555
H43 C41 1_555 1_555
C42 C41 1_555 1_555
H44 C42 1_555 1_555
C43 C42 1_555 1_555
H45 C43 1_555 1_555
C44 C43 1_555 1_555
H46 C44 1_555 1_555
C45 N9 1_555 1_555
C46 C45 1_555 1_555
H47 C46 1_555 1_555
H48 C46 1_555 1_555
C47 N10 1_555 1_555
H49 C47 1_555 1_555
H50 C47 1_555 1_555
C48 N10 1_555 1_555
C49 C40 1_555 1_555
C50 C49 1_555 1_555
H51 C50 1_555 1_555
C51 N11 1_555 1_555
H52 C51 1_555 1_555
C52 C51 1_555 1_555
H53 C52 1_555 1_555
C53 C52 1_555 1_555
H54 C53 1_555 1_555
C54 C53 1_555 1_555
H55 C54 1_555 1_555
C55 N11 1_555 1_555
C56 C55 1_555 1_555
H56 C56 1_555 1_555
H57 C56 1_555 1_555
C57 N12 1_555 1_555
H58 C57 1_555 1_555
H59 C57 1_555 1_555
C58 N12 1_555 1_555
C59 C50 1_555 1_555
C60 C39 1_555 1_555
H60 C60 1_555 1_555
C61 N13 1_555 1_555
H61 C61 1_555 1_555
C62 C61 1_555 1_555
H62 C62 1_555 1_555
C63 C62 1_555 1_555
H63 C63 1_555 1_555
C64 C63 1_555 1_555
C65 N13 1_555 1_555
H64 C65 1_555 1_555
C66 C64 1_555 1_555
H65 C66 1_555 1_555
H66 C66 1_555 1_555
C67 C66 1_555 1_555
H67 C67 1_555 1_555
H68 C67 1_555 1_555
C68 C67 1_555 1_555
H69 C68 1_555 1_555
H70 C68 1_555 1_555
C69 O7 1_555 1_555
C70 C69 1_555 1_555
C71 C70 1_555 1_555
H71 C71 1_555 1_555
C72 N14 1_555 1_555
H72 C72 1_555 1_555
C73 C72 1_555 1_555
H73 C73 1_555 1_555
C74 C73 1_555 1_555
H74 C74 1_555 1_555
C75 C74 1_555 1_555
C76 N14 1_555 1_555
H75 C76 1_555 1_555
C77 C75 1_555 1_555
H76 C77 1_555 1_555
H77 C77 1_555 1_555
C78 C77 1_555 1_555
H78 C78 1_555 1_555
H79 C78 1_555 1_555
C79 C78 1_555 1_555
H80 C79 1_555 1_555
H81 C79 1_555 1_555
C80 O9 1_555 1_555
C81 C71 1_555 1_555
C82 C81 1_555 1_555
H82 C82 1_555 1_555
C83 N15 1_555 1_555
H83 C83 1_555 1_555
C84 C83 1_555 1_555
H84 C84 1_555 1_555
C85 C84 1_555 1_555
H85 C85 1_555 1_555
C86 C85 1_555 1_555
C87 N15 1_555 1_555
H86 C87 1_555 1_555
C88 C86 1_555 1_555
H87 C88 1_555 1_555
H88 C88 1_555 1_555
C89 C88 1_555 1_555
H89 C89 1_555 1_555
H90 C89 1_555 1_555
C90 C89 1_555 1_555
H91 C90 1_555 1_555
H92 C90 1_555 1_555
C91 O11 1_555 1_555
C92 C82 1_555 1_555
C93 C70 1_555 1_555
H93 C93 1_555 1_555
C94 N16 1_555 1_555
H94 C94 1_555 1_555
C95 C94 1_555 1_555
H95 C95 1_555 1_555
C96 C95 1_555 1_555
H96 C96 1_555 1_555
C97 C96 1_555 1_555
C98 N16 1_555 1_555
H97 C98 1_555 1_555
C99 C97 1_555 1_555
H98 C99 1_555 1_555
H99 C99 1_555 1_555
C100 C99 1_555 1_555
H100 C100 1_555 1_555
H101 C100 1_555 1_555
C101 C100 1_555 1_555
H102 C101 1_555 1_555
H103 C101 1_555 1_555
C102 O13 1_555 1_555
C103 C102 1_555 1_555
C104 C103 1_555 1_555
H104 C104 1_555 1_555
C105 N17 1_555 1_555
H105 C105 1_555 1_555
C106 C105 1_555 1_555
H106 C106 1_555 1_555
C107 C106 1_555 1_555
H107 C107 1_555 1_555
C108 C107 1_555 1_555
C109 N17 1_555 1_555
H108 C109 1_555 1_555
C110 C108 1_555 1_555
H109 C110 1_555 1_555
H110 C110 1_555 1_555
C111 C110 1_555 1_555
H111 C111 1_555 1_555
H112 C111 1_555 1_555
C112 C111 1_555 1_555
H113 C112 1_555 1_555
H114 C112 1_555 1_555
C113 O15 1_555 1_555
C114 C104 1_555 1_555
C115 C114 1_555 1_555
H115 C115 1_555 1_555
C116 N18 1_555 1_555
H116 C116 1_555 1_555
C117 C116 1_555 1_555
H117 C117 1_555 1_555
C118 C117 1_555 1_555
H118 C118 1_555 1_555
C119 C118 1_555 1_555
C120 N18 1_555 1_555
H119 C120 1_555 1_555
C121 C119 1_555 1_555
H120 C121 1_555 1_555
H121 C121 1_555 1_555
C122 C121 1_555 1_555
H122 C122 1_555 1_555
H123 C122 1_555 1_555
C123 C122 1_555 1_555
H124 C123 1_555 1_555
H125 C123 1_555 1_555
C124 O17 1_555 1_555
C125 C115 1_555 1_555
C126 C103 1_555 1_555
H126 C126 1_555 1_555
O19 N19 1_555 1_555
O20 N19 1_555 1_555
O21 N19 1_555 1_555
O22 N20 1_555 1_555
O23 N20 1_555 1_555
O24 N20 1_555 1_555
O25 N21 1_555 1_555
O26 N21 1_555 1_555
O27 N21 1_555 1_555
O28 N22 1_555 1_555
O29 N22 1_555 1_555
O30 N22 1_555 1_555
O31 N23 1_555 1_555
O32 N23 1_555 1_555
O33 N23 1_555 1_555
O34 N24 1_555 1_555
O35 N24 1_555 1_555
O36 N24 1_555 1_555
O37 H127 1_555 1_555
H128 O37 1_555 1_555
O38 H129 1_555 1_555
H130 O38 1_555 1_555
O39 H131 1_555 1_555
H132 O39 1_555 1_555
C4 C5 1_555 1_555
C6 C7 1_555 1_555
C14 C15 1_555 1_555
C16 C17 1_555 1_555
C18 C19 1_555 1_555
C24 C25 1_555 1_555
C26 C27 1_555 1_555
C28 C29 1_555 1_555
C29 C30 1_555 1_555
C34 C35 1_555 1_555
C36 C37 1_555 1_555
C44 C45 1_555 1_555
C46 C47 1_555 1_555
C48 C49 1_555 1_555
C54 C55 1_555 1_555
C56 C57 1_555 1_555
C58 C59 1_555 1_555
C59 C60 1_555 1_555
C64 C65 1_555 1_555
C75 C76 1_555 1_555
C80 C81 1_555 1_555
C86 C87 1_555 1_555
C91 C92 1_555 1_555
C92 C93 1_555 1_555
C97 C98 1_555 1_555
C108 C109 1_555 1_555
C113 C114 1_555 1_555
C119 C120 1_555 1_555
C124 C125 1_555 1_555
C125 C126 1_555 1_555

#END
