
#######################################################################
#
#                 Cambridge Crystallographic Data Centre
#                                CCDC 
#
#######################################################################
#
# If this CIF has been generated from an entry in the Cambridge 
# Structural Database, then it will include bibliographic, chemical, 
# crystal, experimental, refinement or atomic coordinate data resulting 
# from the CCDC's data processing and validation procedures.
#
#######################################################################

data_FAJREQ
_chemical_formula_moiety         
'C114 H126 N30 O12 Pd3 6+,6(N1 O3 1-),10(C2 H6 O1 S1),3(C4 H8 O2),0.5(C7 H8)'
_chemical_name_systematic        
"bis(\m~3~-N,N',N''-tris(3-(1H-Imidazol-1-yl)propyl)benzene-1,3,5-tricarboxamide)-bis(\m~3~-N,N',N''-tris(2-(pyridin-2-yl)ethyl)benzene-1,3,5-tricarboxamide)-tri-palladium(ii) hexanitrate dimethyl sulfoxide ethyl acetate toluene solvate"
_symmetry_cell_setting           monoclinic
_symmetry_space_group_name_H-M   'P 21/n'
_symmetry_Int_Tables_number      14
_space_group_name_Hall           '-P 2yn'
loop_
_symmetry_equiv_pos_site_id
_symmetry_equiv_pos_as_xyz
1 x,y,z
2 1/2-x,1/2+y,1/2-z
3 -x,-y,-z
4 1/2+x,1/2-y,1/2+z
_cell_length_a                   18.6682(3)
_cell_length_b                   29.5322(5)
_cell_length_c                   25.5576(4)
_cell_angle_alpha                90
_cell_angle_beta                 102.2230(10)
_cell_angle_gamma                90
_cell_volume                     13770.8
_exptl_crystal_colour            colorless
_exptl_crystal_description       block
_cell_formula_units_Z            4
loop_
_atom_site_label
_atom_site_type_symbol
_atom_site_fract_x
_atom_site_fract_y
_atom_site_fract_z
Pd1 Pd 0.45540(3) 0.873592(17) 0.13034(2)
Pd2 Pd 0.98370(3) 0.881672(17) -0.12843(3)
Pd3 Pd 0.75085(3) 0.483654(19) 0.01853(3)
O1 O 0.6813(3) 0.81641(17) 0.14406(19)
O2 O 0.9253(3) 0.80260(17) 0.0097(2)
O3 O 0.7925(4) 0.6268(2) 0.0842(4)
O4 O 0.5238(3) 0.78512(18) 0.0087(2)
O5 O 0.7822(4) 0.8117(3) -0.1163(3)
O6 O 0.6498(5) 0.6102(3) -0.0838(3)
O7 O 0.7653(4) 0.7347(3) 0.2478(4)
O8 O 0.9506(7) 0.8639(3) 0.1365(3)
O9 O 0.9883(4) 0.6490(3) 0.1305(3)
O10 O 0.4320(4) 0.6837(2) -0.1030(3)
O11 O 0.6866(4) 0.7635(2) -0.2541(4)
O12 O 0.5115(4) 0.5873(2) -0.2462(3)
N1 N 0.4097(3) 0.8181(2) 0.1558(2)
N2 N 0.6254(3) 0.7492(2) 0.1315(3)
H1 H 0.6248 0.7223 0.1166
N3 N 0.9535(3) 0.94145(19) -0.1021(3)
N4 N 0.8488(4) 0.8580(2) 0.0192(3)
H2 H 0.8077 0.8651 0.0288
N5 N 0.8314(4) 0.4863(2) -0.0222(3)
N6 N 0.8536(4) 0.6412(2) 0.0227(3)
H3 H 0.8661 0.6618 0.0014
N7 N 0.5003(3) 0.93112(17) 0.1081(2)
N8 N 0.5863(4) 0.8417(2) -0.0189(2)
H4 H 0.6223 0.8498 -0.0342
N9 N 1.0198(4) 0.8240(2) -0.1546(2)
N10 N 0.8097(6) 0.7377(5) -0.1351(3)
H5 H 0.8057 0.7083 -0.1312
N11 N 0.6641(4) 0.4799(2) 0.0565(2)
N12 N 0.6007(5) 0.6245(2) -0.0131(5)
H6 H 0.5863 0.6462 0.0060
N13 N 0.5248(3) 0.87658(16) 0.2027(2)
N14 N 0.6261(3) 0.88503(17) 0.2622(2)
N15 N 0.8001(5) 0.8033(5) 0.2635(5)
H7 H 0.8284 0.8251 0.2560
N16 N 1.0629(3) 0.8766(2) -0.0624(3)
N17 N 1.1323(4) 0.8526(4) 0.0122(3)
N18 N 1.0489(5) 0.8226(3) 0.1365(3)
H8 H 1.0738 0.7971 0.1425
N19 N 0.8226(4) 0.4879(2) 0.0896(3)
N20 N 0.8772(8) 0.5080(5) 0.1671(4)
N21 N 0.9589(4) 0.6285(3) 0.2084(4)
H9 H 0.9419 0.6383 0.2360
N22 N 0.3867(3) 0.8711(2) 0.0580(2)
N23 N 0.3205(3) 0.8464(2) -0.0187(3)
N24 N 0.4176(4) 0.7562(2) -0.1274(4)
H10 H 0.4234 0.7771 -0.1508
N25 N 0.9051(3) 0.8868(2) -0.1959(3)
N26 N 0.8031(5) 0.8991(3) -0.2536(5)
N27 N 0.6244(3) 0.8152(2) -0.2208(3)
H11 H 0.5835 0.8199 -0.2097
N28 N 0.6816(3) 0.4761(2) -0.0522(3)
N29 N 0.6279(4) 0.4872(3) -0.1356(3)
N30 N 0.6313(5) 0.5984(2) -0.2404(3)
H12 H 0.6692 0.6167 -0.2321
C1 C 0.3545(4) 0.8243(3) 0.1827(3)
H13 H 0.3390 0.8544 0.1872
C2 C 0.3207(5) 0.7907(4) 0.2031(4)
H14 H 0.2812 0.7965 0.2203
C3 C 0.3470(6) 0.7449(5) 0.1980(4)
H15 H 0.3264 0.7199 0.2130
C4 C 0.4022(5) 0.7388(3) 0.1709(3)
H16 H 0.4188 0.7091 0.1654
C5 C 0.4345(4) 0.7764(3) 0.1511(3)
C6 C 0.4944(4) 0.7684(2) 0.1221(3)
H17 H 0.4995 0.7951 0.0998
H18 H 0.4821 0.7420 0.0981
C7 C 0.5678(5) 0.7597(3) 0.1619(3)
H19 H 0.5820 0.7868 0.1845
H20 H 0.5623 0.7339 0.1856
C8 C 0.6765(4) 0.7773(2) 0.1255(3)
C9 C 0.7310(4) 0.7621(2) 0.0938(2)
C10 C 0.7707(4) 0.7944(2) 0.0721(2)
H21 H 0.7615 0.8256 0.0767
C11 C 0.9864(4) 0.9792(3) -0.1164(4)
H22 H 1.0156 0.9761 -0.1425
C12 C 0.9800(6) 1.0210(3) -0.0956(6)
H23 H 1.0050 1.0463 -0.1064
C13 C 0.9363(8) 1.0260(3) -0.0585(7)
H24 H 0.9330 1.0538 -0.0403
C14 C 0.8993(8) 0.9892(3) -0.0500(7)
H25 H 0.8638 0.9924 -0.0285
C15 C 0.9086(5) 0.9469(3) -0.0700(5)
C16 C 0.8685(6) 0.9049(3) -0.0572(6)
H26 H 0.8150 0.9101 -0.0669
H27 H 0.8803 0.8789 -0.0784
C17 C 0.8905(6) 0.8946(3) 0.0000(5)
H28 H 0.8854 0.9224 0.0205
H29 H 0.9430 0.8862 0.0081
C18 C 0.8700(4) 0.8152(2) 0.0226(3)
C19 C 0.8227(4) 0.7821(2) 0.0443(3)
C20 C 0.8356(3) 0.7362(2) 0.0382(3)
H30 H 0.8708 0.7273 0.0182
C21 C 0.8604(5) 0.4463(3) -0.0343(5)
H31 H 0.8464 0.4191 -0.0194
C22 C 0.9115(6) 0.4443(4) -0.0687(5)
H32 H 0.9281 0.4162 -0.0798
C23 C 0.9347(9) 0.4836(4) -0.0845(7)
H33 H 0.9681 0.4834 -0.1078
C24 C 0.9127(8) 0.5229(4) -0.0687(6)
H34 H 0.9346 0.5501 -0.0776
C25 C 0.8570(7) 0.5253(3) -0.0387(5)
C26 C 0.8260(6) 0.5697(3) -0.0249(4)
H35 H 0.8151 0.5892 -0.0571
H36 H 0.7796 0.5642 -0.0130
C27 C 0.8784(6) 0.5932(4) 0.0181(5)
H37 H 0.9279 0.5930 0.0098
H38 H 0.8811 0.5772 0.0525
C28 C 0.8144(5) 0.6540(3) 0.0566(4)
C29 C 0.7993(4) 0.7033(2) 0.0603(3)
C30 C 0.7455(4) 0.7168(2) 0.0874(3)
H39 H 0.7183 0.6945 0.1017
C31 C 0.4719(4) 0.9705(2) 0.1238(3)
H40 H 0.4362 0.9692 0.1453
C32 C 0.4949(5) 1.0118(2) 0.1085(3)
H41 H 0.4752 1.0391 0.1193
C33 C 0.5463(5) 1.0131(2) 0.0777(4)
H42 H 0.5627 1.0414 0.0668
C34 C 0.5741(4) 0.9737(2) 0.0627(3)
H43 H 0.6103 0.9746 0.0416
C35 C 0.5500(3) 0.9319(2) 0.0780(3)
C36 C 0.5793(4) 0.8890(2) 0.0607(3)
H44 H 0.5708 0.8643 0.0849
H45 H 0.6329 0.8921 0.0641
C37 C 0.5435(4) 0.8759(2) 0.0018(3)
H46 H 0.4934 0.8641 0.0003
H47 H 0.5394 0.9032 -0.0211
C38 C 0.5713(4) 0.7993(3) -0.0144(3)
C39 C 0.6164(5) 0.7653(3) -0.0390(3)
C40 C 0.6692(5) 0.7801(3) -0.0652(3)
H48 H 0.6758 0.8119 -0.0671
C41 C 1.0794(6) 0.8276(3) -0.1784(4)
H49 H 1.1003 0.8566 -0.1815
C42 C 1.1091(6) 0.7903(4) -0.1975(4)
H50 H 1.1500 0.7924 -0.2140
C43 C 1.0754(12) 0.7487(5) -0.1912(5)
H51 H 1.0940 0.7221 -0.2045
C44 C 1.0202(9) 0.7446(4) -0.1682(5)
H52 H 1.0005 0.7155 -0.1639
C45 C 0.9900(7) 0.7824(3) -0.1499(4)
C46 C 0.9280(6) 0.7787(3) -0.1213(3)
H53 H 0.9191 0.8082 -0.1054
H54 H 0.9395 0.7559 -0.0923
C47 C 0.8615(7) 0.7643(4) -0.1624(4)
H55 H 0.8767 0.7453 -0.1900
H56 H 0.8361 0.7914 -0.1803
C48 C 0.7715(4) 0.7720(2) -0.1187(3)
C49 C 0.7154(8) 0.7517(4) -0.0900(5)
C50 C 0.6981(5) 0.7104(5) -0.0845(3)
H57 H 0.7254 0.6899 -0.1012
C51 C 0.6489(5) 0.4400(3) 0.0709(3)
H58 H 0.6781 0.4157 0.0629
C52 C 0.5938(6) 0.4297(3) 0.0969(3)
H59 H 0.5846 0.4002 0.1088
C53 C 0.5525(6) 0.4686(5) 0.1038(5)
H60 H 0.5092 0.4646 0.1172
C54 C 0.5707(6) 0.5098(4) 0.0926(5)
H61 H 0.5459 0.5352 0.1030
C55 C 0.6260(5) 0.5153(3) 0.0656(3)
C56 C 0.6423(5) 0.5595(3) 0.0508(4)
H62 H 0.6912 0.5593 0.0416
H63 H 0.6448 0.5798 0.0819
C57 C 0.5851(6) 0.5786(4) 0.0024(4)
H64 H 0.5831 0.5584 -0.0287
H65 H 0.5362 0.5783 0.0115
C58 C 0.6354(7) 0.6396(5) -0.0543(5)
C59 C 0.6466(7) 0.6880(3) -0.0588(4)
C60 C 0.6046(4) 0.7200(3) -0.0327(3)
H66 H 0.5708 0.7097 -0.0123
C61 C 0.5954(4) 0.8858(2) 0.2110(3)
H67 H 0.6209 0.8922 0.1834
C62 C 0.5087(4) 0.8701(2) 0.2531(3)
H68 H 0.4615 0.8644 0.2601
C63 C 0.5725(4) 0.8733(2) 0.2901(3)
H69 H 0.5791 0.8685 0.3275
C64 C 0.7046(4) 0.8937(3) 0.2856(3)
H70 H 0.7105 0.9242 0.3017
H71 H 0.7332 0.8923 0.2571
C65 C 0.7321(10) 0.8589(5) 0.3273(5)
H72 H 0.6968 0.8555 0.3509
H73 H 0.7795 0.8689 0.3495
C66 C 0.7426(7) 0.8119(5) 0.3008(7)
H74 H 0.6939 0.8033 0.2793
H75 H 0.7544 0.7898 0.3304
C67 C 0.8030(8) 0.7613(5) 0.2444(6)
C68 C 0.8645(6) 0.7609(3) 0.2154(4)
C69 C 0.8993(6) 0.7948(4) 0.1932(4)
H76 H 0.8846 0.8252 0.1970
C70 C 1.0706(4) 0.8410(4) -0.0273(3)
H77 H 1.0411 0.8146 -0.0292
C71 C 1.1214(5) 0.9085(3) -0.0493(5)
H78 H 1.1298 0.9349 -0.0683
C72 C 1.1621(6) 0.8916(4) -0.0026(5)
H79 H 1.2057 0.9053 0.0170
C73 C 1.1623(5) 0.8238(5) 0.0585(4)
H80 H 1.2143 0.8167 0.0591
H81 H 1.1347 0.7949 0.0559
C74 C 1.1557(7) 0.8505(5) 0.1132(5)
H82 H 1.1759 0.8309 0.1441
H83 H 1.1867 0.8780 0.1162
C75 C 1.0749(7) 0.8655(4) 0.1174(5)
H84 H 1.0756 0.8903 0.1435
H85 H 1.0450 0.8746 0.0822
C76 C 0.9881(8) 0.8287(5) 0.1423(5)
C77 C 0.9531(7) 0.7872(3) 0.1662(4)
C78 C 0.9747(6) 0.7412(3) 0.1576(3)
H86 H 1.0112 0.7348 0.1378
C79 C 0.8187(6) 0.5141(3) 0.1307(4)
H87 H 0.7795 0.5340 0.1331
C80 C 0.8871(7) 0.4636(3) 0.1028(4)
H88 H 0.9075 0.4423 0.0822
C81 C 0.9139(9) 0.4792(4) 0.1547(6)
H89 H 0.9570 0.4678 0.1776
C82 C 0.8750(8) 0.5322(6) 0.2170(5)
H90 H 0.8349 0.5547 0.2097
H91 H 0.8633 0.5102 0.2432
C83 C 0.9380(8) 0.5535(4) 0.2391(5)
H92 H 0.9723 0.5304 0.2580
H93 H 0.9271 0.5744 0.2667
C84 C 0.9776(7) 0.5797(3) 0.2053(5)
H94 H 0.9636 0.5692 0.1678
H95 H 1.0311 0.5754 0.2178
C85 C 0.9674(5) 0.6574(3) 0.1705(5)
C86 C 0.9401(7) 0.7070(3) 0.1796(4)
C87 C 0.8850(5) 0.7140(4) 0.2074(4)
H96 H 0.8614 0.6894 0.2207
C88 C 0.3581(4) 0.8338(2) 0.0304(3)
H97 H 0.3636 0.8036 0.0434
C89 C 0.3673(4) 0.9075(3) 0.0237(3)
H98 H 0.3798 0.9383 0.0319
C90 C 0.3266(4) 0.8916(3) -0.0246(3)
H99 H 0.3068 0.9090 -0.0555
C91 C 0.2806(5) 0.8163(4) -0.0597(3)
H100 H 0.2345 0.8313 -0.0776
H101 H 0.2674 0.7885 -0.0423
C92 C 0.3218(7) 0.8037(5) -0.1001(5)
H102 H 0.2869 0.7935 -0.1328
H103 H 0.3476 0.8307 -0.1097
C93 C 0.3742(5) 0.7685(4) -0.0828(4)
H104 H 0.3486 0.7412 -0.0737
H105 H 0.4092 0.7785 -0.0502
C94 C 0.4452(4) 0.7159(3) -0.1308(4)
C95 C 0.4978(4) 0.7099(2) -0.1674(3)
C96 C 0.5395(4) 0.7450(2) -0.1823(3)
H106 H 0.5324 0.7750 -0.1710
C97 C 0.8377(5) 0.9048(2) -0.1991(4)
H107 H 0.8182 0.9182 -0.1714
C98 C 0.9085(6) 0.8716(4) -0.2448(5)
H108 H 0.9508 0.8581 -0.2532
C99 C 0.8488(7) 0.8773(5) -0.2788(6)
H109 H 0.8385 0.8679 -0.3151
C100 C 0.7225(6) 0.9109(3) -0.2715(5)
H110 H 0.7081 0.9316 -0.2451
H111 H 0.7145 0.9267 -0.3064
C101 C 0.6757(7) 0.8694(4) -0.2768(6)
H112 H 0.6265 0.8757 -0.2989
H113 H 0.6984 0.8445 -0.2936
C102 C 0.6712(7) 0.8581(5) -0.2262(6)
H114 H 0.6502 0.8842 -0.2102
H115 H 0.7214 0.8532 -0.2050
C103 C 0.6391(4) 0.7729(3) -0.2308(4)
C104 C 0.5914(4) 0.7369(2) -0.2134(3)
C105 C 0.6024(4) 0.6931(2) -0.2276(2)
H116 H 0.6392 0.6868 -0.2472
C106 C 0.6698(5) 0.5046(3) -0.0924(4)
H117 H 0.6892 0.5344 -0.0905
C107 C 0.6084(5) 0.4465(3) -0.1219(4)
H118 H 0.5766 0.4262 -0.1446
C108 C 0.6417(5) 0.4386(3) -0.0698(4)
H119 H 0.6377 0.4120 -0.0497
C109 C 0.6044(6) 0.5126(4) -0.1895(5)
H120 H 0.5662 0.4952 -0.2141
H121 H 0.5843 0.5427 -0.1836
C110 C 0.6650(7) 0.5172(3) -0.2110(4)
H122 H 0.6792 0.4877 -0.2242
H123 H 0.7067 0.5292 -0.1841
C111 C 0.6419(7) 0.5520(4) -0.2592(5)
H124 H 0.6803 0.5525 -0.2806
H125 H 0.5958 0.5415 -0.2828
C112 C 0.5672(6) 0.6126(3) -0.2358(4)
C113 C 0.5613(4) 0.6577(2) -0.2139(3)
C114 C 0.5091(4) 0.6672(2) -0.1832(3)
H126 H 0.4810 0.6431 -0.1732
loop_
_geom_bond_atom_site_label_1
_geom_bond_atom_site_label_2
_geom_bond_site_symmetry_1
_geom_bond_site_symmetry_2
Pd1 N1 1_555 1_555
Pd2 N3 1_555 1_555
Pd3 N5 1_555 1_555
O1 C8 1_555 1_555
O2 C18 1_555 1_555
O3 C28 1_555 1_555
O4 C38 1_555 1_555
O5 C48 1_555 1_555
O6 C58 1_555 1_555
O7 C67 1_555 1_555
O8 C76 1_555 1_555
O9 C85 1_555 1_555
O10 C94 1_555 1_555
O11 C103 1_555 1_555
O12 C112 1_555 1_555
N1 C1 1_555 1_555
N2 H1 1_555 1_555
N3 C11 1_555 1_555
N4 H2 1_555 1_555
N5 C21 1_555 1_555
N6 H3 1_555 1_555
N7 Pd1 1_555 1_555
N8 H4 1_555 1_555
N9 Pd2 1_555 1_555
N10 H5 1_555 1_555
N11 Pd3 1_555 1_555
N12 H6 1_555 1_555
N13 Pd1 1_555 1_555
N14 C61 1_555 1_555
N15 H7 1_555 1_555
N16 Pd2 1_555 1_555
N17 C70 1_555 1_555
N18 H8 1_555 1_555
N19 Pd3 1_555 1_555
N20 C79 1_555 1_555
N21 H9 1_555 1_555
N22 Pd1 1_555 1_555
N23 C88 1_555 1_555
N24 H10 1_555 1_555
N25 Pd2 1_555 1_555
N26 C97 1_555 1_555
N27 H11 1_555 1_555
N28 Pd3 1_555 1_555
N29 C106 1_555 1_555
N30 H12 1_555 1_555
C1 H13 1_555 1_555
C2 C1 1_555 1_555
H14 C2 1_555 1_555
C3 C2 1_555 1_555
H15 C3 1_555 1_555
C4 C3 1_555 1_555
H16 C4 1_555 1_555
C5 N1 1_555 1_555
C6 C5 1_555 1_555
H17 C6 1_555 1_555
H18 C6 1_555 1_555
C7 N2 1_555 1_555
H19 C7 1_555 1_555
H20 C7 1_555 1_555
C8 N2 1_555 1_555
C9 C8 1_555 1_555
C10 C9 1_555 1_555
H21 C10 1_555 1_555
C11 H22 1_555 1_555
C12 C11 1_555 1_555
H23 C12 1_555 1_555
C13 C12 1_555 1_555
H24 C13 1_555 1_555
C14 C13 1_555 1_555
H25 C14 1_555 1_555
C15 N3 1_555 1_555
C16 C15 1_555 1_555
H26 C16 1_555 1_555
H27 C16 1_555 1_555
C17 N4 1_555 1_555
H28 C17 1_555 1_555
H29 C17 1_555 1_555
C18 N4 1_555 1_555
C19 C10 1_555 1_555
C20 C19 1_555 1_555
H30 C20 1_555 1_555
C21 H31 1_555 1_555
C22 C21 1_555 1_555
H32 C22 1_555 1_555
C23 C22 1_555 1_555
H33 C23 1_555 1_555
C24 C23 1_555 1_555
H34 C24 1_555 1_555
C25 N5 1_555 1_555
C26 C25 1_555 1_555
H35 C26 1_555 1_555
H36 C26 1_555 1_555
C27 N6 1_555 1_555
H37 C27 1_555 1_555
H38 C27 1_555 1_555
C28 N6 1_555 1_555
C29 C20 1_555 1_555
C30 C9 1_555 1_555
H39 C30 1_555 1_555
C31 N7 1_555 1_555
H40 C31 1_555 1_555
C32 C31 1_555 1_555
H41 C32 1_555 1_555
C33 C32 1_555 1_555
H42 C33 1_555 1_555
C34 C33 1_555 1_555
H43 C34 1_555 1_555
C35 N7 1_555 1_555
C36 C35 1_555 1_555
H44 C36 1_555 1_555
H45 C36 1_555 1_555
C37 N8 1_555 1_555
H46 C37 1_555 1_555
H47 C37 1_555 1_555
C38 N8 1_555 1_555
C39 C38 1_555 1_555
C40 C39 1_555 1_555
H48 C40 1_555 1_555
C41 N9 1_555 1_555
H49 C41 1_555 1_555
C42 C41 1_555 1_555
H50 C42 1_555 1_555
C43 C42 1_555 1_555
H51 C43 1_555 1_555
C44 C43 1_555 1_555
H52 C44 1_555 1_555
C45 N9 1_555 1_555
C46 C45 1_555 1_555
H53 C46 1_555 1_555
H54 C46 1_555 1_555
C47 N10 1_555 1_555
H55 C47 1_555 1_555
H56 C47 1_555 1_555
C48 N10 1_555 1_555
C49 C40 1_555 1_555
C50 C49 1_555 1_555
H57 C50 1_555 1_555
C51 N11 1_555 1_555
H58 C51 1_555 1_555
C52 C51 1_555 1_555
H59 C52 1_555 1_555
C53 C52 1_555 1_555
H60 C53 1_555 1_555
C54 C53 1_555 1_555
H61 C54 1_555 1_555
C55 N11 1_555 1_555
C56 C55 1_555 1_555
H62 C56 1_555 1_555
H63 C56 1_555 1_555
C57 N12 1_555 1_555
H64 C57 1_555 1_555
H65 C57 1_555 1_555
C58 N12 1_555 1_555
C59 C50 1_555 1_555
C60 C39 1_555 1_555
H66 C60 1_555 1_555
C61 N13 1_555 1_555
H67 C61 1_555 1_555
C62 N13 1_555 1_555
H68 C62 1_555 1_555
C63 N14 1_555 1_555
H69 C63 1_555 1_555
C64 N14 1_555 1_555
H70 C64 1_555 1_555
H71 C64 1_555 1_555
C65 C64 1_555 1_555
H72 C65 1_555 1_555
H73 C65 1_555 1_555
C66 N15 1_555 1_555
H74 C66 1_555 1_555
H75 C66 1_555 1_555
C67 N15 1_555 1_555
C68 C67 1_555 1_555
C69 C68 1_555 1_555
H76 C69 1_555 1_555
C70 N16 1_555 1_555
H77 C70 1_555 1_555
C71 N16 1_555 1_555
H78 C71 1_555 1_555
C72 N17 1_555 1_555
H79 C72 1_555 1_555
C73 N17 1_555 1_555
H80 C73 1_555 1_555
H81 C73 1_555 1_555
C74 C73 1_555 1_555
H82 C74 1_555 1_555
H83 C74 1_555 1_555
C75 N18 1_555 1_555
H84 C75 1_555 1_555
H85 C75 1_555 1_555
C76 N18 1_555 1_555
C77 C69 1_555 1_555
C78 C77 1_555 1_555
H86 C78 1_555 1_555
C79 N19 1_555 1_555
H87 C79 1_555 1_555
C80 N19 1_555 1_555
H88 C80 1_555 1_555
C81 N20 1_555 1_555
H89 C81 1_555 1_555
C82 N20 1_555 1_555
H90 C82 1_555 1_555
H91 C82 1_555 1_555
C83 C82 1_555 1_555
H92 C83 1_555 1_555
H93 C83 1_555 1_555
C84 N21 1_555 1_555
H94 C84 1_555 1_555
H95 C84 1_555 1_555
C85 N21 1_555 1_555
C86 C78 1_555 1_555
C87 C68 1_555 1_555
H96 C87 1_555 1_555
C88 N22 1_555 1_555
H97 C88 1_555 1_555
C89 N22 1_555 1_555
H98 C89 1_555 1_555
C90 N23 1_555 1_555
H99 C90 1_555 1_555
C91 N23 1_555 1_555
H100 C91 1_555 1_555
H101 C91 1_555 1_555
C92 C91 1_555 1_555
H102 C92 1_555 1_555
H103 C92 1_555 1_555
C93 N24 1_555 1_555
H104 C93 1_555 1_555
H105 C93 1_555 1_555
C94 N24 1_555 1_555
C95 C94 1_555 1_555
C96 C95 1_555 1_555
H106 C96 1_555 1_555
C97 N25 1_555 1_555
H107 C97 1_555 1_555
C98 N25 1_555 1_555
H108 C98 1_555 1_555
C99 N26 1_555 1_555
H109 C99 1_555 1_555
C100 N26 1_555 1_555
H110 C100 1_555 1_555
H111 C100 1_555 1_555
C101 C100 1_555 1_555
H112 C101 1_555 1_555
H113 C101 1_555 1_555
C102 N27 1_555 1_555
H114 C102 1_555 1_555
H115 C102 1_555 1_555
C103 N27 1_555 1_555
C104 C96 1_555 1_555
C105 C104 1_555 1_555
H116 C105 1_555 1_555
C106 N28 1_555 1_555
H117 C106 1_555 1_555
C107 N29 1_555 1_555
H118 C107 1_555 1_555
C108 N28 1_555 1_555
H119 C108 1_555 1_555
C109 N29 1_555 1_555
H120 C109 1_555 1_555
H121 C109 1_555 1_555
C110 C109 1_555 1_555
H122 C110 1_555 1_555
H123 C110 1_555 1_555
C111 N30 1_555 1_555
H124 C111 1_555 1_555
H125 C111 1_555 1_555
C112 N30 1_555 1_555
C113 C105 1_555 1_555
C114 C95 1_555 1_555
H126 C114 1_555 1_555
C4 C5 1_555 1_555
C6 C7 1_555 1_555
C14 C15 1_555 1_555
C16 C17 1_555 1_555
C18 C19 1_555 1_555
C24 C25 1_555 1_555
C26 C27 1_555 1_555
C28 C29 1_555 1_555
C29 C30 1_555 1_555
C34 C35 1_555 1_555
C36 C37 1_555 1_555
C44 C45 1_555 1_555
C46 C47 1_555 1_555
C48 C49 1_555 1_555
C54 C55 1_555 1_555
C56 C57 1_555 1_555
C58 C59 1_555 1_555
C59 C60 1_555 1_555
C62 C63 1_555 1_555
C65 C66 1_555 1_555
C71 C72 1_555 1_555
C74 C75 1_555 1_555
C76 C77 1_555 1_555
C80 C81 1_555 1_555
C83 C84 1_555 1_555
C85 C86 1_555 1_555
C86 C87 1_555 1_555
C89 C90 1_555 1_555
C92 C93 1_555 1_555
C98 C99 1_555 1_555
C101 C102 1_555 1_555
C103 C104 1_555 1_555
C107 C108 1_555 1_555
C110 C111 1_555 1_555
C112 C113 1_555 1_555
C113 C114 1_555 1_555

#END
