# generated using pymatgen
data_H42PdC38(N5O2)2
_symmetry_space_group_name_H-M   'P 1'
_cell_length_a   18.66820000
_cell_length_b   25.55760000
_cell_length_c   29.53220000
_cell_angle_alpha   90.00000000
_cell_angle_beta   90.00000000
_cell_angle_gamma   102.22300000
_symmetry_Int_Tables_number   1
_chemical_formula_structural   H42PdC38(N5O2)2
_chemical_formula_sum   'H504 Pd12 C456 N120 O48'
_cell_volume   13770.82572313
_cell_formula_units_Z   12
loop_
 _symmetry_equiv_pos_site_id
 _symmetry_equiv_pos_as_xyz
  1  'x, y, z'
loop_
 _atom_site_type_symbol
 _atom_site_label
 _atom_site_symmetry_multiplicity
 _atom_site_fract_x
 _atom_site_fract_y
 _atom_site_fract_z
 _atom_site_occupancy
  H  H1  1  0.375200  0.883400  0.277700  1
  H  H2  1  0.124800  0.616600  0.777700  1
  H  H3  1  0.624800  0.116600  0.722300  1
  H  H4  1  0.875200  0.383400  0.222300  1
  H  H5  1  0.192300  0.971200  0.134900  1
  H  H6  1  0.307700  0.528800  0.634900  1
  H  H7  1  0.807700  0.028800  0.865100  1
  H  H8  1  0.692300  0.471200  0.365100  1
  H  H9  1  0.133900  0.998600  0.338200  1
  H  H10  1  0.366100  0.501400  0.838200  1
  H  H11  1  0.866100  0.001400  0.661800  1
  H  H12  1  0.633900  0.498600  0.161800  1
  H  H13  1  0.377700  0.034200  0.150200  1
  H  H14  1  0.122300  0.465800  0.650200  1
  H  H15  1  0.622300  0.965800  0.849800  1
  H  H16  1  0.877700  0.534200  0.349800  1
  H  H17  1  0.194300  0.131200  0.291700  1
  H  H18  1  0.305700  0.368800  0.791700  1
  H  H19  1  0.805700  0.868800  0.708300  1
  H  H20  1  0.694300  0.631200  0.208300  1
  H  H21  1  0.413700  0.994000  0.353800  1
  H  H22  1  0.086300  0.506000  0.853800  1
  H  H23  1  0.586300  0.006000  0.646200  1
  H  H24  1  0.913700  0.494000  0.146200  1
  H  H25  1  0.171600  0.744000  0.174900  1
  H  H26  1  0.328400  0.756000  0.674900  1
  H  H27  1  0.828400  0.256000  0.825100  1
  H  H28  1  0.671600  0.244000  0.325100  1
  H  H29  1  0.926200  0.857500  0.202900  1
  H  H30  1  0.573800  0.642500  0.702900  1
  H  H31  1  0.073800  0.142500  0.797100  1
  H  H32  1  0.426200  0.357500  0.297100  1
  H  H33  1  0.058100  0.764000  0.361700  1
  H  H34  1  0.441900  0.736000  0.861700  1
  H  H35  1  0.941900  0.236000  0.638300  1
  H  H36  1  0.558100  0.264000  0.138300  1
  H  H37  1  0.576600  0.150800  0.222900  1
  H  H38  1  0.923400  0.349200  0.722900  1
  H  H39  1  0.423400  0.849200  0.777100  1
  H  H40  1  0.076600  0.650800  0.277100  1
  H  H41  1  0.416500  0.209700  0.180100  1
  H  H42  1  0.083500  0.290300  0.680100  1
  H  H43  1  0.583500  0.790300  0.819900  1
  H  H44  1  0.916500  0.709700  0.319900  1
  H  H45  1  0.330800  0.232100  0.383300  1
  H  H46  1  0.169200  0.267900  0.883300  1
  H  H47  1  0.669200  0.767900  0.616700  1
  H  H48  1  0.830800  0.732100  0.116700  1
  H  H49  1  0.661000  0.812800  0.145600  1
  H  H50  1  0.839000  0.687200  0.645600  1
  H  H51  1  0.339000  0.187200  0.854400  1
  H  H52  1  0.161000  0.312800  0.354400  1
  H  H53  1  0.718800  0.779700  0.203500  1
  H  H54  1  0.781200  0.720300  0.703500  1
  H  H55  1  0.281200  0.220300  0.796500  1
  H  H56  1  0.218800  0.279700  0.296500  1
  H  H57  1  0.673600  0.787000  0.280100  1
  H  H58  1  0.826400  0.713000  0.780100  1
  H  H59  1  0.326400  0.213000  0.719900  1
  H  H60  1  0.173600  0.287000  0.219900  1
  H  H61  1  0.581200  0.834600  0.290900  1
  H  H62  1  0.918800  0.665400  0.790900  1
  H  H63  1  0.418800  0.165400  0.709100  1
  H  H64  1  0.081200  0.334600  0.209100  1
  H  H65  1  0.500500  0.900200  0.204900  1
  H  H66  1  0.999500  0.599800  0.704900  1
  H  H67  1  0.499500  0.099800  0.795100  1
  H  H68  1  0.000500  0.400200  0.295100  1
  H  H69  1  0.517900  0.901900  0.258000  1
  H  H70  1  0.982100  0.598100  0.758000  1
  H  H71  1  0.482100  0.098100  0.742000  1
  H  H72  1  0.017900  0.401900  0.242000  1
  H  H73  1  0.418000  0.815500  0.213200  1
  H  H74  1  0.082000  0.684500  0.713200  1
  H  H75  1  0.582000  0.184500  0.786800  1
  H  H76  1  0.918000  0.315500  0.286800  1
  H  H77  1  0.437700  0.814400  0.266100  1
  H  H78  1  0.062300  0.685600  0.766100  1
  H  H79  1  0.562300  0.185600  0.733900  1
  H  H80  1  0.937700  0.314400  0.233900  1
  H  H81  1  0.238500  0.923300  0.174400  1
  H  H82  1  0.261500  0.576700  0.674400  1
  H  H83  1  0.761500  0.076700  0.825600  1
  H  H84  1  0.738500  0.423300  0.325600  1
  H  H85  1  0.984400  0.142500  0.023900  1
  H  H86  1  0.515600  0.357500  0.523900  1
  H  H87  1  0.015600  0.857500  0.976100  1
  H  H88  1  0.484400  0.642500  0.476100  1
  H  H89  1  0.995000  0.106400  0.953700  1
  H  H90  1  0.505000  0.393600  0.453700  1
  H  H91  1  0.005000  0.893600  0.046300  1
  H  H92  1  0.495000  0.606400  0.546300  1
  H  H93  1  0.067000  0.040300  0.946200  1
  H  H94  1  0.433000  0.459700  0.446200  1
  H  H95  1  0.933000  0.959700  0.053800  1
  H  H96  1  0.567000  0.540300  0.553800  1
  H  H97  1  0.136200  0.028500  0.007600  1
  H  H98  1  0.363800  0.471500  0.507600  1
  H  H99  1  0.863800  0.971500  0.992400  1
  H  H100  1  0.636200  0.528500  0.492400  1
  H  H101  1  0.185000  0.066900  0.089900  1
  H  H102  1  0.315000  0.433100  0.589900  1
  H  H103  1  0.815000  0.933100  0.910100  1
  H  H104  1  0.685000  0.566900  0.410100  1
  H  H105  1  0.119700  0.078400  0.121100  1
  H  H106  1  0.380300  0.421600  0.621100  1
  H  H107  1  0.880300  0.921600  0.878900  1
  H  H108  1  0.619700  0.578400  0.378900  1
  H  H109  1  0.114600  0.979500  0.077600  1
  H  H110  1  0.385400  0.520500  0.577600  1
  H  H111  1  0.885400  0.020500  0.922400  1
  H  H112  1  0.614600  0.479500  0.422400  1
  H  H113  1  0.057000  0.991900  0.113800  1
  H  H114  1  0.443000  0.508100  0.613800  1
  H  H115  1  0.943000  0.008100  0.886200  1
  H  H116  1  0.557000  0.491900  0.386200  1
  H  H117  1  0.129200  0.981800  0.272700  1
  H  H118  1  0.370800  0.518200  0.772700  1
  H  H119  1  0.870800  0.018200  0.727300  1
  H  H120  1  0.629200  0.481800  0.227300  1
  H  H121  1  0.153600  0.019400  0.580900  1
  H  H122  1  0.346400  0.480600  0.080900  1
  H  H123  1  0.846400  0.980600  0.419100  1
  H  H124  1  0.653600  0.519400  0.919100  1
  H  H125  1  0.071900  0.079800  0.583800  1
  H  H126  1  0.428100  0.420200  0.083800  1
  H  H127  1  0.928100  0.920200  0.416200  1
  H  H128  1  0.571900  0.579800  0.916200  1
  H  H129  1  0.031900  0.107800  0.516600  1
  H  H130  1  0.468100  0.392200  0.016600  1
  H  H131  1  0.968100  0.892200  0.483400  1
  H  H132  1  0.531900  0.607800  0.983400  1
  H  H133  1  0.065400  0.077600  0.449900  1
  H  H134  1  0.434600  0.422400  0.949900  1
  H  H135  1  0.934600  0.922400  0.550100  1
  H  H136  1  0.565400  0.577600  0.050100  1
  H  H137  1  0.184900  0.057100  0.410800  1
  H  H138  1  0.315100  0.442900  0.910800  1
  H  H139  1  0.815100  0.942900  0.589200  1
  H  H140  1  0.684900  0.557100  0.089200  1
  H  H141  1  0.220400  0.013000  0.435800  1
  H  H142  1  0.279600  0.487000  0.935800  1
  H  H143  1  0.779600  0.987000  0.564200  1
  H  H144  1  0.720400  0.513000  0.064200  1
  H  H145  1  0.072100  0.990200  0.407000  1
  H  H146  1  0.427900  0.509800  0.907000  1
  H  H147  1  0.927900  0.009800  0.593000  1
  H  H148  1  0.572100  0.490200  0.093000  1
  H  H149  1  0.118900  0.947500  0.422800  1
  H  H150  1  0.381100  0.552500  0.922800  1
  H  H151  1  0.881100  0.052500  0.577200  1
  H  H152  1  0.618900  0.447500  0.077200  1
  H  H153  1  0.281700  0.898300  0.305500  1
  H  H154  1  0.218300  0.601700  0.805500  1
  H  H155  1  0.718300  0.101700  0.694500  1
  H  H156  1  0.781700  0.398300  0.194500  1
  H  H157  1  0.563800  0.854700  0.030800  1
  H  H158  1  0.936200  0.645300  0.530800  1
  H  H159  1  0.436200  0.145300  0.969200  1
  H  H160  1  0.063800  0.354700  0.469200  1
  H  H161  1  0.524800  0.880700  0.960900  1
  H  H162  1  0.975200  0.619300  0.460900  1
  H  H163  1  0.475200  0.119300  0.039100  1
  H  H164  1  0.024800  0.380700  0.539100  1
  H  H165  1  0.437300  0.933200  0.958600  1
  H  H166  1  0.062700  0.566800  0.458600  1
  H  H167  1  0.562700  0.066800  0.041400  1
  H  H168  1  0.937300  0.433200  0.541400  1
  H  H169  1  0.389700  0.958400  0.025400  1
  H  H170  1  0.110300  0.541600  0.525400  1
  H  H171  1  0.610300  0.041600  0.974600  1
  H  H172  1  0.889700  0.458400  0.474600  1
  H  H173  1  0.429200  0.915100  0.135700  1
  H  H174  1  0.070800  0.584900  0.635700  1
  H  H175  1  0.570800  0.084900  0.864300  1
  H  H176  1  0.929200  0.415100  0.364300  1
  H  H177  1  0.367100  0.935900  0.107900  1
  H  H178  1  0.132900  0.564100  0.607900  1
  H  H179  1  0.632900  0.064100  0.892100  1
  H  H180  1  0.867100  0.435900  0.392100  1
  H  H181  1  0.506600  0.999700  0.135900  1
  H  H182  1  0.993400  0.500300  0.635900  1
  H  H183  1  0.493400  0.000300  0.864100  1
  H  H184  1  0.006600  0.499700  0.364100  1
  H  H185  1  0.460600  0.021100  0.096800  1
  H  H186  1  0.039400  0.478900  0.596800  1
  H  H187  1  0.539400  0.978900  0.903200  1
  H  H188  1  0.960600  0.521100  0.403200  1
  H  H189  1  0.324200  0.067100  0.188100  1
  H  H190  1  0.175800  0.432900  0.688100  1
  H  H191  1  0.675800  0.932900  0.811900  1
  H  H192  1  0.824200  0.567100  0.311900  1
  H  H193  1  0.899700  0.181500  0.143400  1
  H  H194  1  0.600300  0.318500  0.643400  1
  H  H195  1  0.100300  0.818500  0.856600  1
  H  H196  1  0.399700  0.681500  0.356600  1
  H  H197  1  0.850000  0.214000  0.207600  1
  H  H198  1  0.650000  0.286000  0.707600  1
  H  H199  1  0.150000  0.786000  0.792400  1
  H  H200  1  0.350000  0.714000  0.292400  1
  H  H201  1  0.906000  0.204500  0.277900  1
  H  H202  1  0.594000  0.295500  0.777900  1
  H  H203  1  0.094000  0.795500  0.722100  1
  H  H204  1  0.406000  0.704500  0.222100  1
  H  H205  1  0.999500  0.163900  0.284500  1
  H  H206  1  0.500500  0.336100  0.784500  1
  H  H207  1  0.000500  0.836100  0.715500  1
  H  H208  1  0.499500  0.663900  0.215500  1
  H  H209  1  0.080900  0.105400  0.191800  1
  H  H210  1  0.419100  0.394600  0.691800  1
  H  H211  1  0.919100  0.894600  0.808200  1
  H  H212  1  0.580900  0.605400  0.308200  1
  H  H213  1  0.060500  0.092300  0.244100  1
  H  H214  1  0.439500  0.407700  0.744100  1
  H  H215  1  0.939500  0.907700  0.755900  1
  H  H216  1  0.560500  0.592300  0.255900  1
  H  H217  1  0.123300  0.190000  0.254700  1
  H  H218  1  0.376700  0.310000  0.754700  1
  H  H219  1  0.876700  0.810000  0.745300  1
  H  H220  1  0.623300  0.690000  0.245300  1
  H  H221  1  0.163900  0.180300  0.208600  1
  H  H222  1  0.336100  0.319700  0.708600  1
  H  H223  1  0.836100  0.819700  0.791400  1
  H  H224  1  0.663900  0.680300  0.291400  1
  H  H225  1  0.274600  0.101200  0.310100  1
  H  H226  1  0.225400  0.398800  0.810100  1
  H  H227  1  0.725400  0.898800  0.689900  1
  H  H228  1  0.774600  0.601200  0.189900  1
  H  H229  1  0.321900  0.937100  0.584300  1
  H  H230  1  0.178100  0.562900  0.084300  1
  H  H231  1  0.678100  0.062900  0.415700  1
  H  H232  1  0.821900  0.437100  0.915700  1
  H  H233  1  0.415400  0.891200  0.599800  1
  H  H234  1  0.084600  0.608800  0.099800  1
  H  H235  1  0.584600  0.108800  0.400200  1
  H  H236  1  0.915400  0.391200  0.900200  1
  H  H237  1  0.490800  0.882800  0.535400  1
  H  H238  1  0.009200  0.617200  0.035400  1
  H  H239  1  0.509200  0.117200  0.464600  1
  H  H240  1  0.990800  0.382800  0.964600  1
  H  H241  1  0.454100  0.897000  0.464800  1
  H  H242  1  0.045900  0.603000  0.964800  1
  H  H243  1  0.545900  0.103000  0.535200  1
  H  H244  1  0.954100  0.397000  0.035200  1
  H  H245  1  0.308800  0.958400  0.440700  1
  H  H246  1  0.191200  0.541600  0.940700  1
  H  H247  1  0.691200  0.041600  0.559300  1
  H  H248  1  0.808800  0.458400  0.059300  1
  H  H249  1  0.355200  0.918100  0.420200  1
  H  H250  1  0.144800  0.581900  0.920200  1
  H  H251  1  0.644800  0.081900  0.579800  1
  H  H252  1  0.855200  0.418100  0.079800  1
  H  H253  1  0.416900  0.028700  0.441600  1
  H  H254  1  0.083100  0.471300  0.941600  1
  H  H255  1  0.583100  0.971300  0.558400  1
  H  H256  1  0.916900  0.528700  0.058400  1
  H  H257  1  0.463800  0.988500  0.421700  1
  H  H258  1  0.036200  0.511500  0.921700  1
  H  H259  1  0.536200  0.011500  0.578300  1
  H  H260  1  0.963800  0.488500  0.078300  1
  H  H261  1  0.429200  0.012300  0.290300  1
  H  H262  1  0.070800  0.487700  0.790300  1
  H  H263  1  0.570800  0.987700  0.709700  1
  H  H264  1  0.929200  0.512300  0.209700  1
  H  H265  1  0.379100  0.816600  0.107800  1
  H  H266  1  0.120900  0.683400  0.607800  1
  H  H267  1  0.620900  0.183400  0.892200  1
  H  H268  1  0.879100  0.316600  0.392200  1
  H  H269  1  0.538500  0.739900  0.135600  1
  H  H270  1  0.961500  0.760100  0.635600  1
  H  H271  1  0.461500  0.260100  0.864400  1
  H  H272  1  0.038500  0.239900  0.364400  1
  H  H273  1  0.420900  0.672500  0.131500  1
  H  H274  1  0.079100  0.827500  0.631500  1
  H  H275  1  0.579100  0.327500  0.868500  1
  H  H276  1  0.920900  0.172500  0.368500  1
  H  H277  1  0.289500  0.698300  0.075800  1
  H  H278  1  0.210500  0.801700  0.575800  1
  H  H279  1  0.710500  0.301700  0.924200  1
  H  H280  1  0.789500  0.198300  0.424200  1
  H  H281  1  0.266800  0.742900  0.107700  1
  H  H282  1  0.233200  0.757100  0.607700  1
  H  H283  1  0.733200  0.257100  0.892300  1
  H  H284  1  0.766800  0.242900  0.392300  1
  H  H285  1  0.303200  0.649100  0.144500  1
  H  H286  1  0.196800  0.850900  0.644500  1
  H  H287  1  0.696800  0.350900  0.855500  1
  H  H288  1  0.803200  0.149100  0.355500  1
  H  H289  1  0.220500  0.650500  0.131100  1
  H  H290  1  0.279500  0.849500  0.631100  1
  H  H291  1  0.779500  0.349500  0.868900  1
  H  H292  1  0.720500  0.150500  0.368900  1
  H  H293  1  0.306100  0.720700  0.196700  1
  H  H294  1  0.193900  0.779300  0.696700  1
  H  H295  1  0.693900  0.279300  0.803300  1
  H  H296  1  0.806100  0.220700  0.303300  1
  H  H297  1  0.245600  0.669600  0.210200  1
  H  H298  1  0.254400  0.830400  0.710200  1
  H  H299  1  0.754400  0.330400  0.789800  1
  H  H300  1  0.745600  0.169600  0.289800  1
  H  H301  1  0.115400  0.803000  0.174800  1
  H  H302  1  0.384600  0.697000  0.674800  1
  H  H303  1  0.884600  0.197000  0.825200  1
  H  H304  1  0.615400  0.303000  0.325200  1
  H  H305  1  0.958900  0.029200  0.185400  1
  H  H306  1  0.541100  0.470800  0.685400  1
  H  H307  1  0.041100  0.970800  0.814600  1
  H  H308  1  0.458900  0.529200  0.314600  1
  H  H309  1  0.870200  0.068300  0.065100  1
  H  H310  1  0.629800  0.431700  0.565100  1
  H  H311  1  0.129800  0.931700  0.934900  1
  H  H312  1  0.370200  0.568300  0.434900  1
  H  H313  1  0.794300  0.983000  0.094700  1
  H  H314  1  0.705700  0.517000  0.594700  1
  H  H315  1  0.205700  0.017000  0.905300  1
  H  H316  1  0.294300  0.483000  0.405300  1
  H  H317  1  0.785700  0.940900  0.183300  1
  H  H318  1  0.714300  0.559100  0.683300  1
  H  H319  1  0.214300  0.059100  0.816700  1
  H  H320  1  0.285700  0.440900  0.316700  1
  H  H321  1  0.865300  0.944100  0.205100  1
  H  H322  1  0.634700  0.555900  0.705100  1
  H  H323  1  0.134700  0.055900  0.794900  1
  H  H324  1  0.365300  0.444100  0.294900  1
  H  H325  1  0.824100  0.855900  0.169100  1
  H  H326  1  0.675900  0.644100  0.669100  1
  H  H327  1  0.175900  0.144100  0.830900  1
  H  H328  1  0.324100  0.355900  0.330900  1
  H  H329  1  0.813300  0.883800  0.122000  1
  H  H330  1  0.686700  0.616200  0.622000  1
  H  H331  1  0.186700  0.116200  0.878000  1
  H  H332  1  0.313300  0.383800  0.378000  1
  H  H333  1  0.924400  0.856500  0.109700  1
  H  H334  1  0.575600  0.643500  0.609700  1
  H  H335  1  0.075600  0.143500  0.890300  1
  H  H336  1  0.424400  0.356500  0.390300  1
  H  H337  1  0.955000  0.917800  0.125400  1
  H  H338  1  0.545000  0.582200  0.625400  1
  H  H339  1  0.045000  0.082200  0.874600  1
  H  H340  1  0.455000  0.417800  0.374600  1
  H  H341  1  0.988800  0.862200  0.265200  1
  H  H342  1  0.511200  0.637800  0.765200  1
  H  H343  1  0.011200  0.137800  0.734800  1
  H  H344  1  0.488800  0.362200  0.234800  1
  H  H345  1  0.220500  0.866900  0.466000  1
  H  H346  1  0.279500  0.633100  0.966000  1
  H  H347  1  0.779500  0.133100  0.534000  1
  H  H348  1  0.720500  0.366900  0.034000  1
  H  H349  1  0.092500  0.917800  0.557700  1
  H  H350  1  0.407500  0.582200  0.057700  1
  H  H351  1  0.907500  0.082200  0.442300  1
  H  H352  1  0.592500  0.417800  0.942300  1
  H  H353  1  0.043000  0.822400  0.532200  1
  H  H354  1  0.457000  0.677600  0.032200  1
  H  H355  1  0.957000  0.177600  0.467800  1
  H  H356  1  0.543000  0.322400  0.967800  1
  H  H357  1  0.165100  0.790300  0.445300  1
  H  H358  1  0.334900  0.709700  0.945300  1
  H  H359  1  0.834900  0.209700  0.554700  1
  H  H360  1  0.665100  0.290300  0.054700  1
  H  H361  1  0.136700  0.756800  0.489800  1
  H  H362  1  0.363300  0.743200  0.989800  1
  H  H363  1  0.863300  0.243200  0.510200  1
  H  H364  1  0.636700  0.256800  0.010200  1
  H  H365  1  0.027700  0.742000  0.469600  1
  H  H366  1  0.472300  0.758000  0.969600  1
  H  H367  1  0.972300  0.258000  0.530400  1
  H  H368  1  0.527700  0.242000  0.030400  1
  H  H369  1  0.072900  0.733300  0.425600  1
  H  H370  1  0.427100  0.766700  0.925600  1
  H  H371  1  0.927100  0.266700  0.574400  1
  H  H372  1  0.572900  0.233300  0.074400  1
  H  H373  1  0.036400  0.832200  0.430800  1
  H  H374  1  0.463600  0.667800  0.930800  1
  H  H375  1  0.963600  0.167800  0.569200  1
  H  H376  1  0.536400  0.332200  0.069200  1
  H  H377  1  0.968900  0.782200  0.424600  1
  H  H378  1  0.531100  0.717800  0.924600  1
  H  H379  1  0.031100  0.217800  0.575400  1
  H  H380  1  0.468900  0.282200  0.075400  1
  H  H381  1  0.138600  0.779300  0.310600  1
  H  H382  1  0.361400  0.720700  0.810600  1
  H  H383  1  0.861400  0.220700  0.689400  1
  H  H384  1  0.638600  0.279300  0.189400  1
  H  H385  1  0.636400  0.956600  0.196400  1
  H  H386  1  0.863600  0.543400  0.696400  1
  H  H387  1  0.363600  0.043400  0.803600  1
  H  H388  1  0.136400  0.456600  0.303600  1
  H  H389  1  0.620200  0.968100  0.061700  1
  H  H390  1  0.879800  0.531900  0.561700  1
  H  H391  1  0.379800  0.031900  0.938300  1
  H  H392  1  0.120200  0.468100  0.438300  1
  H  H393  1  0.693200  0.055500  0.091000  1
  H  H394  1  0.806800  0.444500  0.591000  1
  H  H395  1  0.306800  0.944500  0.909000  1
  H  H396  1  0.193200  0.555500  0.409000  1
  H  H397  1  0.765500  0.077600  0.168700  1
  H  H398  1  0.734500  0.422400  0.668700  1
  H  H399  1  0.234500  0.922400  0.831300  1
  H  H400  1  0.265500  0.577600  0.331300  1
  H  H401  1  0.732600  0.042300  0.211500  1
  H  H402  1  0.767400  0.457700  0.711500  1
  H  H403  1  0.267400  0.957700  0.788500  1
  H  H404  1  0.232600  0.542300  0.288500  1
  H  H405  1  0.713100  0.132800  0.206500  1
  H  H406  1  0.786900  0.367200  0.706500  1
  H  H407  1  0.286900  0.867200  0.793500  1
  H  H408  1  0.213100  0.632800  0.293500  1
  H  H409  1  0.652400  0.109700  0.169300  1
  H  H410  1  0.847600  0.390300  0.669300  1
  H  H411  1  0.347600  0.890300  0.830700  1
  H  H412  1  0.152400  0.609700  0.330700  1
  H  H413  1  0.651400  0.073700  0.258800  1
  H  H414  1  0.848600  0.426300  0.758800  1
  H  H415  1  0.348600  0.926300  0.741200  1
  H  H416  1  0.151400  0.573700  0.241200  1
  H  H417  1  0.590800  0.050200  0.221500  1
  H  H418  1  0.909200  0.449800  0.721500  1
  H  H419  1  0.409200  0.949800  0.778500  1
  H  H420  1  0.090800  0.550200  0.278500  1
  H  H421  1  0.467600  0.171000  0.225000  1
  H  H422  1  0.032400  0.329000  0.725000  1
  H  H423  1  0.532400  0.829000  0.775000  1
  H  H424  1  0.967600  0.671000  0.275000  1
  H  H425  1  0.181800  0.171400  0.081800  1
  H  H426  1  0.318200  0.328600  0.581800  1
  H  H427  1  0.818200  0.828600  0.918200  1
  H  H428  1  0.681800  0.671400  0.418200  1
  H  H429  1  0.049200  0.253200  0.141900  1
  H  H430  1  0.450800  0.246800  0.641900  1
  H  H431  1  0.950800  0.746800  0.858100  1
  H  H432  1  0.549200  0.753200  0.358100  1
  H  H433  1  0.161500  0.315100  0.132100  1
  H  H434  1  0.338500  0.184900  0.632100  1
  H  H435  1  0.838500  0.684900  0.867900  1
  H  H436  1  0.661500  0.815100  0.367900  1
  H  H437  1  0.291900  0.245100  0.068400  1
  H  H438  1  0.208100  0.254900  0.568400  1
  H  H439  1  0.708100  0.754900  0.931600  1
  H  H440  1  0.791900  0.745100  0.431600  1
  H  H441  1  0.285500  0.306400  0.073300  1
  H  H442  1  0.214500  0.193600  0.573300  1
  H  H443  1  0.714500  0.693600  0.926700  1
  H  H444  1  0.785500  0.806400  0.426700  1
  H  H445  1  0.373500  0.298900  0.124300  1
  H  H446  1  0.126500  0.201100  0.624300  1
  H  H447  1  0.626500  0.701100  0.875700  1
  H  H448  1  0.873500  0.798900  0.375700  1
  H  H449  1  0.301600  0.293600  0.155500  1
  H  H450  1  0.198400  0.206400  0.655500  1
  H  H451  1  0.698400  0.706400  0.844500  1
  H  H452  1  0.801600  0.793600  0.344500  1
  H  H453  1  0.349800  0.210200  0.115800  1
  H  H454  1  0.150200  0.289800  0.615800  1
  H  H455  1  0.650200  0.789800  0.884200  1
  H  H456  1  0.849800  0.710200  0.384200  1
  H  H457  1  0.278600  0.205000  0.146800  1
  H  H458  1  0.221400  0.295000  0.646800  1
  H  H459  1  0.721400  0.795000  0.853200  1
  H  H460  1  0.778600  0.705000  0.353200  1
  H  H461  1  0.360800  0.247200  0.313200  1
  H  H462  1  0.139200  0.252800  0.813200  1
  H  H463  1  0.639200  0.752800  0.686800  1
  H  H464  1  0.860800  0.747200  0.186800  1
  H  H465  1  0.310800  0.090500  0.465600  1
  H  H466  1  0.189200  0.409500  0.965600  1
  H  H467  1  0.689200  0.909500  0.534400  1
  H  H468  1  0.810800  0.590500  0.034400  1
  H  H469  1  0.423400  0.144600  0.573800  1
  H  H470  1  0.076600  0.355400  0.073800  1
  H  H471  1  0.576600  0.855400  0.426200  1
  H  H472  1  0.923400  0.644600  0.926200  1
  H  H473  1  0.362300  0.049700  0.588000  1
  H  H474  1  0.137700  0.450300  0.088000  1
  H  H475  1  0.637700  0.950300  0.412000  1
  H  H476  1  0.862300  0.549700  0.912000  1
  H  H477  1  0.433800  0.214100  0.504800  1
  H  H478  1  0.066200  0.285900  0.004800  1
  H  H479  1  0.566200  0.785900  0.495200  1
  H  H480  1  0.933800  0.714100  0.995200  1
  H  H481  1  0.415700  0.183600  0.457300  1
  H  H482  1  0.084300  0.316400  0.957300  1
  H  H483  1  0.584300  0.816400  0.542700  1
  H  H484  1  0.915700  0.683600  0.042700  1
  H  H485  1  0.320800  0.224200  0.512300  1
  H  H486  1  0.179200  0.275800  0.012300  1
  H  H487  1  0.679200  0.775800  0.487700  1
  H  H488  1  0.820800  0.724200  0.987700  1
  H  H489  1  0.293300  0.184100  0.470800  1
  H  H490  1  0.206700  0.315900  0.970800  1
  H  H491  1  0.706700  0.815900  0.529200  1
  H  H492  1  0.793300  0.684100  0.029200  1
  H  H493  1  0.319700  0.280600  0.447500  1
  H  H494  1  0.180300  0.219400  0.947500  1
  H  H495  1  0.680300  0.719400  0.552500  1
  H  H496  1  0.819700  0.780600  0.052500  1
  H  H497  1  0.404200  0.282800  0.458500  1
  H  H498  1  0.095800  0.217200  0.958500  1
  H  H499  1  0.595800  0.717200  0.541500  1
  H  H500  1  0.904200  0.782800  0.041500  1
  H  H501  1  0.519000  0.173200  0.356900  1
  H  H502  1  0.981000  0.326800  0.856900  1
  H  H503  1  0.481000  0.826800  0.643100  1
  H  H504  1  0.019000  0.673200  0.143100  1
  Pd  Pd505  1  0.544600  0.869660  0.126408  1
  Pd  Pd506  1  0.955400  0.630340  0.626408  1
  Pd  Pd507  1  0.455400  0.130340  0.873592  1
  Pd  Pd508  1  0.044600  0.369660  0.373592  1
  Pd  Pd509  1  0.016300  0.128430  0.118328  1
  Pd  Pd510  1  0.483700  0.371570  0.618328  1
  Pd  Pd511  1  0.983700  0.871570  0.881672  1
  Pd  Pd512  1  0.516300  0.628430  0.381672  1
  Pd  Pd513  1  0.249150  0.981470  0.516346  1
  Pd  Pd514  1  0.250850  0.518530  0.016346  1
  Pd  Pd515  1  0.750850  0.018530  0.483654  1
  Pd  Pd516  1  0.749150  0.481470  0.983654  1
  C  C517  1  0.645500  0.817300  0.175700  1
  C  C518  1  0.854500  0.682700  0.675700  1
  C  C519  1  0.354500  0.182700  0.824300  1
  C  C520  1  0.145500  0.317300  0.324300  1
  C  C521  1  0.679300  0.796900  0.209300  1
  C  C522  1  0.820700  0.703100  0.709300  1
  C  C523  1  0.320700  0.203100  0.790700  1
  C  C524  1  0.179300  0.296900  0.290700  1
  C  C525  1  0.653000  0.802000  0.255100  1
  C  C526  1  0.847000  0.698000  0.755100  1
  C  C527  1  0.347000  0.198000  0.744900  1
  C  C528  1  0.153000  0.302000  0.244900  1
  C  C529  1  0.597800  0.829100  0.261200  1
  C  C530  1  0.902200  0.670900  0.761200  1
  C  C531  1  0.402200  0.170900  0.738800  1
  C  C532  1  0.097800  0.329100  0.238800  1
  C  C533  1  0.565500  0.848900  0.223600  1
  C  C534  1  0.934500  0.651100  0.723600  1
  C  C535  1  0.434500  0.151100  0.776400  1
  C  C536  1  0.065500  0.348900  0.276400  1
  C  C537  1  0.505600  0.877900  0.231600  1
  C  C538  1  0.994400  0.622100  0.731600  1
  C  C539  1  0.494400  0.122100  0.768400  1
  C  C540  1  0.005600  0.377900  0.268400  1
  C  C541  1  0.432200  0.838100  0.240300  1
  C  C542  1  0.067800  0.661900  0.740300  1
  C  C543  1  0.567800  0.161900  0.759700  1
  C  C544  1  0.932200  0.338100  0.259700  1
  C  C545  1  0.323500  0.874500  0.222700  1
  C  C546  1  0.176500  0.625500  0.722700  1
  C  C547  1  0.676500  0.125500  0.777300  1
  C  C548  1  0.823500  0.374500  0.277300  1
  C  C549  1  0.269000  0.906200  0.237900  1
  C  C550  1  0.231000  0.593800  0.737900  1
  C  C551  1  0.731000  0.093800  0.762100  1
  C  C552  1  0.769000  0.406200  0.262100  1
  C  C553  1  0.229300  0.927900  0.205600  1
  C  C554  1  0.270700  0.572100  0.705600  1
  C  C555  1  0.770700  0.072100  0.794400  1
  C  C556  1  0.729300  0.427900  0.294400  1
  C  C557  1  0.013600  0.116400  0.020800  1
  C  C558  1  0.486400  0.383600  0.520800  1
  C  C559  1  0.986400  0.883600  0.979200  1
  C  C560  1  0.513600  0.616400  0.479200  1
  C  C561  1  0.020000  0.095600  0.979000  1
  C  C562  1  0.480000  0.404400  0.479000  1
  C  C563  1  0.980000  0.904400  0.021000  1
  C  C564  1  0.520000  0.595600  0.521000  1
  C  C565  1  0.063700  0.058500  0.974000  1
  C  C566  1  0.436300  0.441500  0.474000  1
  C  C567  1  0.936300  0.941500  0.026000  1
  C  C568  1  0.563700  0.558500  0.526000  1
  C  C569  1  0.100700  0.050000  0.010800  1
  C  C570  1  0.399300  0.450000  0.510800  1
  C  C571  1  0.899300  0.950000  0.989200  1
  C  C572  1  0.600700  0.550000  0.489200  1
  C  C573  1  0.091400  0.070000  0.053100  1
  C  C574  1  0.408600  0.430000  0.553100  1
  C  C575  1  0.908600  0.930000  0.946900  1
  C  C576  1  0.591400  0.570000  0.446900  1
  C  C577  1  0.131500  0.057200  0.095100  1
  C  C578  1  0.368500  0.442800  0.595100  1
  C  C579  1  0.868500  0.942800  0.904900  1
  C  C580  1  0.631500  0.557200  0.404900  1
  C  C581  1  0.109500  0.000000  0.105400  1
  C  C582  1  0.390500  0.500000  0.605400  1
  C  C583  1  0.890500  0.000000  0.894600  1
  C  C584  1  0.609500  0.500000  0.394600  1
  C  C585  1  0.130000  0.977400  0.184800  1
  C  C586  1  0.370000  0.522600  0.684800  1
  C  C587  1  0.870000  0.022600  0.815200  1
  C  C588  1  0.630000  0.477400  0.315200  1
  C  C589  1  0.177300  0.955700  0.217900  1
  C  C590  1  0.322700  0.544300  0.717900  1
  C  C591  1  0.822700  0.044300  0.782100  1
  C  C592  1  0.677300  0.455700  0.282100  1
  C  C593  1  0.164400  0.961800  0.263800  1
  C  C594  1  0.335600  0.538200  0.763800  1
  C  C595  1  0.835600  0.038200  0.736200  1
  C  C596  1  0.664400  0.461800  0.236200  1
  C  C597  1  0.139600  0.034300  0.553700  1
  C  C598  1  0.360400  0.465700  0.053700  1
  C  C599  1  0.860400  0.965700  0.446300  1
  C  C600  1  0.639600  0.534300  0.946300  1
  C  C601  1  0.088500  0.068700  0.555700  1
  C  C602  1  0.411500  0.431300  0.055700  1
  C  C603  1  0.911500  0.931300  0.444300  1
  C  C604  1  0.588500  0.568700  0.944300  1
  C  C605  1  0.065300  0.084500  0.516400  1
  C  C606  1  0.434700  0.415500  0.016400  1
  C  C607  1  0.934700  0.915500  0.483600  1
  C  C608  1  0.565300  0.584500  0.983600  1
  C  C609  1  0.087300  0.068700  0.477100  1
  C  C610  1  0.412700  0.431300  0.977100  1
  C  C611  1  0.912700  0.931300  0.522900  1
  C  C612  1  0.587300  0.568700  0.022900  1
  C  C613  1  0.143000  0.038700  0.474700  1
  C  C614  1  0.357000  0.461300  0.974700  1
  C  C615  1  0.857000  0.961300  0.525300  1
  C  C616  1  0.643000  0.538700  0.025300  1
  C  C617  1  0.174000  0.024900  0.430300  1
  C  C618  1  0.326000  0.475100  0.930300  1
  C  C619  1  0.826000  0.975100  0.569700  1
  C  C620  1  0.674000  0.524900  0.069700  1
  C  C621  1  0.121600  0.981900  0.406800  1
  C  C622  1  0.378400  0.518100  0.906800  1
  C  C623  1  0.878400  0.018100  0.593200  1
  C  C624  1  0.621600  0.481900  0.093200  1
  C  C625  1  0.185600  0.943400  0.346000  1
  C  C626  1  0.314400  0.556600  0.846000  1
  C  C627  1  0.814400  0.056600  0.654000  1
  C  C628  1  0.685600  0.443400  0.154000  1
  C  C629  1  0.200700  0.939700  0.296700  1
  C  C630  1  0.299300  0.560300  0.796700  1
  C  C631  1  0.799300  0.060300  0.703300  1
  C  C632  1  0.700700  0.439700  0.203300  1
  C  C633  1  0.254500  0.912600  0.283200  1
  C  C634  1  0.245500  0.587400  0.783200  1
  C  C635  1  0.745500  0.087400  0.716800  1
  C  C636  1  0.754500  0.412600  0.216800  1
  C  C637  1  0.528100  0.876200  0.029500  1
  C  C638  1  0.971900  0.623800  0.529500  1
  C  C639  1  0.471900  0.123800  0.970500  1
  C  C640  1  0.028100  0.376200  0.470500  1
  C  C641  1  0.505100  0.891500  0.988200  1
  C  C642  1  0.994900  0.608500  0.488200  1
  C  C643  1  0.494900  0.108500  0.011800  1
  C  C644  1  0.005100  0.391500  0.511800  1
  C  C645  1  0.453700  0.922300  0.986900  1
  C  C646  1  0.046300  0.577700  0.486900  1
  C  C647  1  0.546300  0.077700  0.013100  1
  C  C648  1  0.953700  0.422300  0.513100  1
  C  C649  1  0.425900  0.937300  0.026300  1
  C  C650  1  0.074100  0.562700  0.526300  1
  C  C651  1  0.574100  0.062700  0.973700  1
  C  C652  1  0.925900  0.437300  0.473700  1
  C  C653  1  0.450000  0.922000  0.068100  1
  C  C654  1  0.050000  0.578000  0.568100  1
  C  C655  1  0.550000  0.078000  0.931900  1
  C  C656  1  0.950000  0.422000  0.431900  1
  C  C657  1  0.420700  0.939300  0.111000  1
  C  C658  1  0.079300  0.560700  0.611000  1
  C  C659  1  0.579300  0.060700  0.889000  1
  C  C660  1  0.920700  0.439300  0.389000  1
  C  C661  1  0.456500  0.998200  0.124100  1
  C  C662  1  0.043500  0.501800  0.624100  1
  C  C663  1  0.543500  0.001800  0.875900  1
  C  C664  1  0.956500  0.498200  0.375900  1
  C  C665  1  0.428700  0.014400  0.200700  1
  C  C666  1  0.071300  0.485600  0.700700  1
  C  C667  1  0.571300  0.985600  0.799300  1
  C  C668  1  0.928700  0.514400  0.299300  1
  C  C669  1  0.383600  0.039000  0.234700  1
  C  C670  1  0.116400  0.461000  0.734700  1
  C  C671  1  0.616400  0.961000  0.765300  1
  C  C672  1  0.883600  0.539000  0.265300  1
  C  C673  1  0.330800  0.065200  0.219900  1
  C  C674  1  0.169200  0.434800  0.719900  1
  C  C675  1  0.669200  0.934800  0.780100  1
  C  C676  1  0.830800  0.565200  0.280100  1
  C  C677  1  0.920600  0.178400  0.172400  1
  C  C678  1  0.579400  0.321600  0.672400  1
  C  C679  1  0.079400  0.821600  0.827600  1
  C  C680  1  0.420600  0.678400  0.327600  1
  C  C681  1  0.890900  0.197500  0.209700  1
  C  C682  1  0.609100  0.302500  0.709700  1
  C  C683  1  0.109100  0.802500  0.790300  1
  C  C684  1  0.390900  0.697500  0.290300  1
  C  C685  1  0.924600  0.191200  0.251300  1
  C  C686  1  0.575400  0.308800  0.751300  1
  C  C687  1  0.075400  0.808800  0.748700  1
  C  C688  1  0.424600  0.691200  0.248700  1
  C  C689  1  0.979800  0.168200  0.255400  1
  C  C690  1  0.520200  0.331800  0.755400  1
  C  C691  1  0.020200  0.831800  0.744600  1
  C  C692  1  0.479800  0.668200  0.244600  1
  C  C693  1  0.010000  0.149900  0.217600  1
  C  C694  1  0.490000  0.350100  0.717600  1
  C  C695  1  0.990000  0.850100  0.782400  1
  C  C696  1  0.510000  0.649900  0.282400  1
  C  C697  1  0.072000  0.121300  0.221300  1
  C  C698  1  0.428000  0.378700  0.721300  1
  C  C699  1  0.928000  0.878700  0.778700  1
  C  C700  1  0.572000  0.621300  0.278700  1
  C  C701  1  0.138500  0.162400  0.235700  1
  C  C702  1  0.361500  0.337600  0.735700  1
  C  C703  1  0.861500  0.837600  0.764300  1
  C  C704  1  0.638500  0.662400  0.264300  1
  C  C705  1  0.228500  0.118700  0.228000  1
  C  C706  1  0.271500  0.381300  0.728000  1
  C  C707  1  0.771500  0.881300  0.772000  1
  C  C708  1  0.728500  0.618700  0.272000  1
  C  C709  1  0.284600  0.090000  0.248300  1
  C  C710  1  0.215400  0.410000  0.748300  1
  C  C711  1  0.715400  0.910000  0.751700  1
  C  C712  1  0.784600  0.590000  0.251700  1
  C  C713  1  0.301900  0.084500  0.289600  1
  C  C714  1  0.198100  0.415500  0.789600  1
  C  C715  1  0.698100  0.915500  0.710400  1
  C  C716  1  0.801900  0.584500  0.210400  1
  C  C717  1  0.351100  0.929100  0.560000  1
  C  C718  1  0.148900  0.570900  0.060000  1
  C  C719  1  0.648900  0.070900  0.440000  1
  C  C720  1  0.851100  0.429100  0.940000  1
  C  C721  1  0.406200  0.903100  0.570300  1
  C  C722  1  0.093800  0.596900  0.070300  1
  C  C723  1  0.593800  0.096900  0.429700  1
  C  C724  1  0.906200  0.403100  0.929700  1
  C  C725  1  0.447500  0.896200  0.531400  1
  C  C726  1  0.052500  0.603800  0.031400  1
  C  C727  1  0.552500  0.103800  0.468600  1
  C  C728  1  0.947500  0.396200  0.968600  1
  C  C729  1  0.429300  0.907400  0.490200  1
  C  C730  1  0.070700  0.592600  0.990200  1
  C  C731  1  0.570700  0.092600  0.509800  1
  C  C732  1  0.929300  0.407400  0.009800  1
  C  C733  1  0.374000  0.934400  0.484700  1
  C  C734  1  0.126000  0.565600  0.984700  1
  C  C735  1  0.626000  0.065600  0.515300  1
  C  C736  1  0.874000  0.434400  0.015300  1
  C  C737  1  0.357700  0.949200  0.440500  1
  C  C738  1  0.142300  0.550800  0.940500  1
  C  C739  1  0.642300  0.050800  0.559500  1
  C  C740  1  0.857700  0.449200  0.059500  1
  C  C741  1  0.414900  0.997600  0.421400  1
  C  C742  1  0.085100  0.502400  0.921400  1
  C  C743  1  0.585100  0.002400  0.578600  1
  C  C744  1  0.914900  0.497600  0.078600  1
  C  C745  1  0.364600  0.054300  0.360400  1
  C  C746  1  0.135400  0.445700  0.860400  1
  C  C747  1  0.635400  0.945700  0.639600  1
  C  C748  1  0.864600  0.554300  0.139600  1
  C  C749  1  0.353400  0.058800  0.312000  1
  C  C750  1  0.146600  0.441200  0.812000  1
  C  C751  1  0.646600  0.941200  0.688000  1
  C  C752  1  0.853400  0.558800  0.188000  1
  C  C753  1  0.395400  0.032700  0.280000  1
  C  C754  1  0.104600  0.467300  0.780000  1
  C  C755  1  0.604600  0.967300  0.720000  1
  C  C756  1  0.895400  0.532700  0.220000  1
  C  C757  1  0.404600  0.789000  0.114200  1
  C  C758  1  0.095400  0.711000  0.614200  1
  C  C759  1  0.595400  0.211000  0.885800  1
  C  C760  1  0.904600  0.289000  0.385800  1
  C  C761  1  0.491300  0.746900  0.129900  1
  C  C762  1  0.008700  0.753100  0.629900  1
  C  C763  1  0.508700  0.253100  0.870100  1
  C  C764  1  0.991300  0.246900  0.370100  1
  C  C765  1  0.427500  0.709900  0.126700  1
  C  C766  1  0.072500  0.790100  0.626700  1
  C  C767  1  0.572500  0.290100  0.873300  1
  C  C768  1  0.927500  0.209900  0.373300  1
  C  C769  1  0.295400  0.714400  0.106300  1
  C  C770  1  0.204600  0.785600  0.606300  1
  C  C771  1  0.704600  0.285600  0.893700  1
  C  C772  1  0.795400  0.214400  0.393700  1
  C  C773  1  0.267900  0.672700  0.141100  1
  C  C774  1  0.232100  0.827300  0.641100  1
  C  C775  1  0.732100  0.327300  0.858900  1
  C  C776  1  0.767900  0.172700  0.358900  1
  C  C777  1  0.257400  0.699200  0.188100  1
  C  C778  1  0.242600  0.800800  0.688100  1
  C  C779  1  0.742600  0.300800  0.811900  1
  C  C780  1  0.757400  0.199200  0.311900  1
  C  C781  1  0.197000  0.755600  0.238700  1
  C  C782  1  0.303000  0.744400  0.738700  1
  C  C783  1  0.803000  0.244400  0.761300  1
  C  C784  1  0.697000  0.255600  0.261300  1
  C  C785  1  0.135500  0.784600  0.239100  1
  C  C786  1  0.364500  0.715400  0.739100  1
  C  C787  1  0.864500  0.215400  0.760900  1
  C  C788  1  0.635500  0.284600  0.260900  1
  C  C789  1  0.100700  0.806800  0.205200  1
  C  C790  1  0.399300  0.693200  0.705200  1
  C  C791  1  0.899300  0.193200  0.794800  1
  C  C792  1  0.600700  0.306800  0.294800  1
  C  C793  1  0.929400  0.027300  0.159000  1
  C  C794  1  0.570600  0.472700  0.659000  1
  C  C795  1  0.070600  0.972700  0.841000  1
  C  C796  1  0.429400  0.527300  0.341000  1
  C  C797  1  0.878600  0.049300  0.091500  1
  C  C798  1  0.621400  0.450700  0.591500  1
  C  C799  1  0.121400  0.950700  0.908500  1
  C  C800  1  0.378600  0.549300  0.408500  1
  C  C801  1  0.837900  0.002600  0.108400  1
  C  C802  1  0.662100  0.497400  0.608400  1
  C  C803  1  0.162100  0.997400  0.891600  1
  C  C804  1  0.337900  0.502600  0.391600  1
  C  C805  1  0.837700  0.941500  0.176200  1
  C  C806  1  0.662300  0.558500  0.676200  1
  C  C807  1  0.162300  0.058500  0.823800  1
  C  C808  1  0.337700  0.441500  0.323800  1
  C  C809  1  0.844300  0.886800  0.149500  1
  C  C810  1  0.655700  0.613200  0.649500  1
  C  C811  1  0.155700  0.113200  0.850500  1
  C  C812  1  0.344300  0.386800  0.350500  1
  C  C813  1  0.925100  0.882600  0.134500  1
  C  C814  1  0.574900  0.617400  0.634500  1
  C  C815  1  0.074900  0.117400  0.865500  1
  C  C816  1  0.425100  0.382600  0.365500  1
  C  C817  1  0.011900  0.857700  0.171300  1
  C  C818  1  0.488100  0.642300  0.671300  1
  C  C819  1  0.988100  0.142300  0.828700  1
  C  C820  1  0.511900  0.357700  0.328700  1
  C  C821  1  0.046900  0.833800  0.212800  1
  C  C822  1  0.453100  0.666200  0.712800  1
  C  C823  1  0.953100  0.166200  0.787200  1
  C  C824  1  0.546900  0.333800  0.287200  1
  C  C825  1  0.025300  0.842400  0.258800  1
  C  C826  1  0.474700  0.657600  0.758800  1
  C  C827  1  0.974700  0.157600  0.741200  1
  C  C828  1  0.525300  0.342400  0.241200  1
  C  C829  1  0.181300  0.869300  0.485900  1
  C  C830  1  0.318700  0.630700  0.985900  1
  C  C831  1  0.818700  0.130700  0.514100  1
  C  C832  1  0.681300  0.369300  0.014100  1
  C  C833  1  0.112900  0.897200  0.536400  1
  C  C834  1  0.387100  0.602800  0.036400  1
  C  C835  1  0.887100  0.102800  0.463600  1
  C  C836  1  0.612900  0.397200  0.963600  1
  C  C837  1  0.086100  0.845300  0.520800  1
  C  C838  1  0.413900  0.654700  0.020800  1
  C  C839  1  0.913900  0.154700  0.479200  1
  C  C840  1  0.586100  0.345300  0.979200  1
  C  C841  1  0.125000  0.783000  0.467800  1
  C  C842  1  0.375000  0.717000  0.967800  1
  C  C843  1  0.875000  0.217000  0.532200  1
  C  C844  1  0.625000  0.283000  0.032200  1
  C  C845  1  0.062000  0.760900  0.446500  1
  C  C846  1  0.438000  0.739100  0.946500  1
  C  C847  1  0.938000  0.239100  0.553500  1
  C  C848  1  0.562000  0.260900  0.053500  1
  C  C849  1  0.022400  0.794700  0.420300  1
  C  C850  1  0.477600  0.705300  0.920300  1
  C  C851  1  0.977600  0.205300  0.579700  1
  C  C852  1  0.522400  0.294700  0.079700  1
  C  C853  1  0.032600  0.829500  0.342600  1
  C  C854  1  0.467400  0.670500  0.842600  1
  C  C855  1  0.967400  0.170500  0.657400  1
  C  C856  1  0.532600  0.329500  0.157400  1
  C  C857  1  0.059900  0.820400  0.293000  1
  C  C858  1  0.440100  0.679600  0.793000  1
  C  C859  1  0.940100  0.179600  0.707000  1
  C  C860  1  0.559900  0.320400  0.207000  1
  C  C861  1  0.115000  0.792600  0.286000  1
  C  C862  1  0.385000  0.707400  0.786000  1
  C  C863  1  0.885000  0.207400  0.714000  1
  C  C864  1  0.615000  0.292600  0.214000  1
  C  C865  1  0.641900  0.969600  0.166200  1
  C  C866  1  0.858100  0.530400  0.666200  1
  C  C867  1  0.358100  0.030400  0.833800  1
  C  C868  1  0.141900  0.469600  0.333800  1
  C  C869  1  0.632700  0.976300  0.092500  1
  C  C870  1  0.867300  0.523700  0.592500  1
  C  C871  1  0.367300  0.023700  0.907500  1
  C  C872  1  0.132700  0.476300  0.407500  1
  C  C873  1  0.673400  0.024600  0.108400  1
  C  C874  1  0.826600  0.475400  0.608400  1
  C  C875  1  0.326600  0.975400  0.891600  1
  C  C876  1  0.173400  0.524600  0.391600  1
  C  C877  1  0.719400  0.059700  0.183700  1
  C  C878  1  0.780600  0.440300  0.683700  1
  C  C879  1  0.280600  0.940300  0.816300  1
  C  C880  1  0.219400  0.559700  0.316300  1
  C  C881  1  0.678200  0.100100  0.196300  1
  C  C882  1  0.821800  0.399900  0.696300  1
  C  C883  1  0.321800  0.899900  0.803700  1
  C  C884  1  0.178200  0.600100  0.303700  1
  C  C885  1  0.625800  0.082800  0.231500  1
  C  C886  1  0.874200  0.417200  0.731500  1
  C  C887  1  0.374200  0.917200  0.768500  1
  C  C888  1  0.125800  0.582800  0.268500  1
  C  C889  1  0.554800  0.130800  0.284100  1
  C  C890  1  0.945200  0.369200  0.784100  1
  C  C891  1  0.445200  0.869200  0.715900  1
  C  C892  1  0.054800  0.630800  0.215900  1
  C  C893  1  0.502200  0.167400  0.290100  1
  C  C894  1  0.997800  0.332600  0.790100  1
  C  C895  1  0.497800  0.832600  0.709900  1
  C  C896  1  0.002200  0.667400  0.209900  1
  C  C897  1  0.460500  0.182300  0.255000  1
  C  C898  1  0.039500  0.317700  0.755000  1
  C  C899  1  0.539500  0.817700  0.745000  1
  C  C900  1  0.960500  0.682300  0.245000  1
  C  C901  1  0.162300  0.199100  0.095200  1
  C  C902  1  0.337700  0.300900  0.595200  1
  C  C903  1  0.837700  0.800900  0.904800  1
  C  C904  1  0.662300  0.699100  0.404800  1
  C  C905  1  0.091500  0.244800  0.128400  1
  C  C906  1  0.408500  0.255200  0.628400  1
  C  C907  1  0.908500  0.755200  0.871600  1
  C  C908  1  0.591500  0.744800  0.371600  1
  C  C909  1  0.151200  0.278800  0.122700  1
  C  C910  1  0.348800  0.221200  0.622700  1
  C  C911  1  0.848800  0.721200  0.877300  1
  C  C912  1  0.651200  0.778800  0.377300  1
  C  C913  1  0.277500  0.271500  0.089100  1
  C  C914  1  0.222500  0.228500  0.589100  1
  C  C915  1  0.722500  0.728500  0.910900  1
  C  C916  1  0.777500  0.771500  0.410900  1
  C  C917  1  0.324300  0.276800  0.130600  1
  C  C918  1  0.175700  0.223200  0.630600  1
  C  C919  1  0.675700  0.723200  0.869400  1
  C  C920  1  0.824300  0.776800  0.369400  1
  C  C921  1  0.328800  0.226200  0.141900  1
  C  C922  1  0.171200  0.273800  0.641900  1
  C  C923  1  0.671200  0.773800  0.858100  1
  C  C924  1  0.828800  0.726200  0.358100  1
  C  C925  1  0.360900  0.230800  0.227100  1
  C  C926  1  0.139100  0.269200  0.727100  1
  C  C927  1  0.639100  0.769200  0.772900  1
  C  C928  1  0.860900  0.730800  0.272900  1
  C  C929  1  0.408600  0.213400  0.263100  1
  C  C930  1  0.091400  0.286600  0.763100  1
  C  C931  1  0.591400  0.786600  0.736900  1
  C  C932  1  0.908600  0.713400  0.236900  1
  C  C933  1  0.397600  0.227600  0.306900  1
  C  C934  1  0.102400  0.272400  0.806900  1
  C  C935  1  0.602400  0.772400  0.693100  1
  C  C936  1  0.897600  0.727600  0.193100  1
  C  C937  1  0.330200  0.092400  0.495400  1
  C  C938  1  0.169800  0.407600  0.995400  1
  C  C939  1  0.669800  0.907600  0.504600  1
  C  C940  1  0.830200  0.592400  0.004600  1
  C  C941  1  0.391600  0.121900  0.553500  1
  C  C942  1  0.108400  0.378100  0.053500  1
  C  C943  1  0.608400  0.878100  0.446500  1
  C  C944  1  0.891600  0.621900  0.946500  1
  C  C945  1  0.358300  0.069800  0.561400  1
  C  C946  1  0.141700  0.430200  0.061400  1
  C  C947  1  0.641700  0.930200  0.438600  1
  C  C948  1  0.858300  0.569800  0.938600  1
  C  C949  1  0.395600  0.189500  0.487400  1
  C  C950  1  0.104400  0.310500  0.987400  1
  C  C951  1  0.604400  0.810500  0.512600  1
  C  C952  1  0.895600  0.689500  0.012600  1
  C  C953  1  0.335000  0.211000  0.482800  1
  C  C954  1  0.165000  0.289000  0.982800  1
  C  C955  1  0.665000  0.789000  0.517200  1
  C  C956  1  0.835000  0.711000  0.017200  1
  C  C957  1  0.358100  0.259200  0.448000  1
  C  C958  1  0.141900  0.240800  0.948000  1
  C  C959  1  0.641900  0.740800  0.552000  1
  C  C960  1  0.858100  0.759200  0.052000  1
  C  C961  1  0.432800  0.235800  0.387400  1
  C  C962  1  0.067200  0.264200  0.887400  1
  C  C963  1  0.567200  0.764200  0.612600  1
  C  C964  1  0.932800  0.735800  0.112600  1
  C  C965  1  0.438700  0.213900  0.342300  1
  C  C966  1  0.061300  0.286100  0.842300  1
  C  C967  1  0.561300  0.786100  0.657700  1
  C  C968  1  0.938700  0.713900  0.157700  1
  C  C969  1  0.490900  0.183200  0.332800  1
  C  C970  1  0.009100  0.316800  0.832800  1
  C  C971  1  0.509100  0.816800  0.667200  1
  C  C972  1  0.990900  0.683200  0.167200  1
  N  N973  1  0.590300  0.844200  0.181900  1
  N  N974  1  0.909700  0.655800  0.681900  1
  N  N975  1  0.409700  0.155800  0.818100  1
  N  N976  1  0.090300  0.344200  0.318100  1
  N  N977  1  0.374600  0.868500  0.250800  1
  N  N978  1  0.125400  0.631500  0.750800  1
  N  N979  1  0.625400  0.131500  0.749200  1
  N  N980  1  0.874600  0.368500  0.249200  1
  N  N981  1  0.046500  0.102100  0.058550  1
  N  N982  1  0.453500  0.397900  0.558550  1
  N  N983  1  0.953500  0.897900  0.941450  1
  N  N984  1  0.546500  0.602100  0.441450  1
  N  N985  1  0.151200  0.980800  0.142000  1
  N  N986  1  0.348800  0.519200  0.642000  1
  N  N987  1  0.848800  0.019200  0.858000  1
  N  N988  1  0.651200  0.480800  0.358000  1
  N  N989  1  0.168600  0.022200  0.513700  1
  N  N990  1  0.331400  0.477800  0.013700  1
  N  N991  1  0.831400  0.977800  0.486300  1
  N  N992  1  0.668600  0.522200  0.986300  1
  N  N993  1  0.146400  0.977300  0.358800  1
  N  N994  1  0.353600  0.522700  0.858800  1
  N  N995  1  0.853600  0.022700  0.641200  1
  N  N996  1  0.646400  0.477300  0.141200  1
  N  N997  1  0.499700  0.891900  0.068880  1
  N  N998  1  0.000300  0.608100  0.568880  1
  N  N999  1  0.500300  0.108100  0.931120  1
  N  N1000  1  0.999700  0.391900  0.431120  1
  N  N1001  1  0.413700  0.018900  0.158300  1
  N  N1002  1  0.086300  0.481100  0.658300  1
  N  N1003  1  0.586300  0.981100  0.841700  1
  N  N1004  1  0.913700  0.518900  0.341700  1
  N  N1005  1  0.980200  0.154600  0.176000  1
  N  N1006  1  0.519800  0.345400  0.676000  1
  N  N1007  1  0.019800  0.845400  0.824000  1
  N  N1008  1  0.480200  0.654600  0.324000  1
  N  N1009  1  0.190300  0.135100  0.262300  1
  N  N1010  1  0.309700  0.364900  0.762300  1
  N  N1011  1  0.809700  0.864900  0.737700  1
  N  N1012  1  0.690300  0.635100  0.237700  1
  N  N1013  1  0.335900  0.943500  0.520100  1
  N  N1014  1  0.164100  0.556500  0.020100  1
  N  N1015  1  0.664100  0.056500  0.479900  1
  N  N1016  1  0.835900  0.443500  0.979900  1
  N  N1017  1  0.399300  0.013100  0.375500  1
  N  N1018  1  0.100700  0.486900  0.875500  1
  N  N1019  1  0.600700  0.986900  0.624500  1
  N  N1020  1  0.899300  0.513100  0.124500  1
  N  N1021  1  0.475200  0.797300  0.123420  1
  N  N1022  1  0.024800  0.702700  0.623420  1
  N  N1023  1  0.524800  0.202700  0.876580  1
  N  N1024  1  0.975200  0.297300  0.376580  1
  N  N1025  1  0.373900  0.737800  0.114970  1
  N  N1026  1  0.126100  0.762200  0.614970  1
  N  N1027  1  0.626100  0.262200  0.885030  1
  N  N1028  1  0.873900  0.237800  0.385030  1
  N  N1029  1  0.199900  0.736500  0.196700  1
  N  N1030  1  0.300100  0.763500  0.696700  1
  N  N1031  1  0.800100  0.263500  0.803300  1
  N  N1032  1  0.699900  0.236500  0.303300  1
  N  N1033  1  0.937100  0.062400  0.123400  1
  N  N1034  1  0.562900  0.437600  0.623400  1
  N  N1035  1  0.062900  0.937600  0.876600  1
  N  N1036  1  0.437100  0.562400  0.376600  1
  N  N1037  1  0.867700  0.987800  0.147400  1
  N  N1038  1  0.632300  0.512200  0.647400  1
  N  N1039  1  0.132300  0.012200  0.852600  1
  N  N1040  1  0.367700  0.487800  0.352600  1
  N  N1041  1  0.951100  0.863500  0.177400  1
  N  N1042  1  0.548900  0.636500  0.677400  1
  N  N1043  1  0.048900  0.136500  0.822600  1
  N  N1044  1  0.451100  0.363500  0.322600  1
  N  N1045  1  0.177400  0.910400  0.512100  1
  N  N1046  1  0.322600  0.589600  0.012100  1
  N  N1047  1  0.822600  0.089600  0.487900  1
  N  N1048  1  0.677400  0.410400  0.987900  1
  N  N1049  1  0.122800  0.832900  0.492000  1
  N  N1050  1  0.377200  0.667100  0.992000  1
  N  N1051  1  0.877200  0.167100  0.508000  1
  N  N1052  1  0.622800  0.332900  0.008000  1
  N  N1053  1  0.041100  0.791600  0.371500  1
  N  N1054  1  0.458900  0.708400  0.871500  1
  N  N1055  1  0.958900  0.208400  0.628500  1
  N  N1056  1  0.541100  0.291600  0.128500  1
  N  N1057  1  0.613300  0.942000  0.128900  1
  N  N1058  1  0.886700  0.558000  0.628900  1
  N  N1059  1  0.386700  0.058000  0.871100  1
  N  N1060  1  0.113300  0.442000  0.371100  1
  N  N1061  1  0.679500  0.018700  0.153600  1
  N  N1062  1  0.820500  0.481300  0.653600  1
  N  N1063  1  0.320500  0.981300  0.846400  1
  N  N1064  1  0.179500  0.518700  0.346400  1
  N  N1065  1  0.582400  0.127400  0.243800  1
  N  N1066  1  0.917600  0.372600  0.743800  1
  N  N1067  1  0.417600  0.872600  0.756200  1
  N  N1068  1  0.082400  0.627400  0.256200  1
  N  N1069  1  0.094900  0.195900  0.113200  1
  N  N1070  1  0.405100  0.304100  0.613200  1
  N  N1071  1  0.905100  0.804100  0.886800  1
  N  N1072  1  0.594900  0.695900  0.386800  1
  N  N1073  1  0.196900  0.253600  0.100900  1
  N  N1074  1  0.303100  0.246400  0.600900  1
  N  N1075  1  0.803100  0.746400  0.899100  1
  N  N1076  1  0.696900  0.753600  0.399100  1
  N  N1077  1  0.375600  0.220800  0.184800  1
  N  N1078  1  0.124400  0.279200  0.684800  1
  N  N1079  1  0.624400  0.779200  0.815200  1
  N  N1080  1  0.875600  0.720800  0.315200  1
  N  N1081  1  0.318400  0.052200  0.523900  1
  N  N1082  1  0.181600  0.447800  0.023900  1
  N  N1083  1  0.681600  0.947800  0.476100  1
  N  N1084  1  0.818400  0.552200  0.976100  1
  N  N1085  1  0.372100  0.135600  0.512800  1
  N  N1086  1  0.127900  0.364400  0.012800  1
  N  N1087  1  0.627900  0.864400  0.487200  1
  N  N1088  1  0.872100  0.635600  0.987200  1
  N  N1089  1  0.368700  0.240400  0.401600  1
  N  N1090  1  0.131300  0.259600  0.901600  1
  N  N1091  1  0.631300  0.759600  0.598400  1
  N  N1092  1  0.868700  0.740400  0.098400  1
  O  O1093  1  0.318700  0.855940  0.183590  1
  O  O1094  1  0.181300  0.644060  0.683590  1
  O  O1095  1  0.681300  0.144060  0.816410  1
  O  O1096  1  0.818700  0.355940  0.316410  1
  O  O1097  1  0.074700  0.990300  0.197400  1
  O  O1098  1  0.425300  0.509700  0.697400  1
  O  O1099  1  0.925300  0.009700  0.802600  1
  O  O1100  1  0.574700  0.490300  0.302600  1
  O  O1101  1  0.207500  0.915800  0.373200  1
  O  O1102  1  0.292500  0.584200  0.873200  1
  O  O1103  1  0.792500  0.084200  0.626800  1
  O  O1104  1  0.707500  0.415800  0.126800  1
  O  O1105  1  0.476200  0.991300  0.214880  1
  O  O1106  1  0.023800  0.508700  0.714880  1
  O  O1107  1  0.523800  0.008700  0.785120  1
  O  O1108  1  0.976200  0.491300  0.285120  1
  O  O1109  1  0.217800  0.116300  0.188300  1
  O  O1110  1  0.282200  0.383700  0.688300  1
  O  O1111  1  0.782200  0.883700  0.811700  1
  O  O1112  1  0.717800  0.616300  0.311700  1
  O  O1113  1  0.350200  0.083800  0.389800  1
  O  O1114  1  0.149800  0.416200  0.889800  1
  O  O1115  1  0.649800  0.916200  0.610200  1
  O  O1116  1  0.850200  0.583800  0.110200  1
  O  O1117  1  0.234700  0.752200  0.265300  1
  O  O1118  1  0.265300  0.747800  0.765300  1
  O  O1119  1  0.765300  0.247800  0.734700  1
  O  O1120  1  0.734700  0.252200  0.234700  1
  O  O1121  1  0.049400  0.863500  0.136100  1
  O  O1122  1  0.450600  0.636500  0.636100  1
  O  O1123  1  0.950600  0.136500  0.863900  1
  O  O1124  1  0.549400  0.363500  0.363900  1
  O  O1125  1  0.011700  0.869500  0.351000  1
  O  O1126  1  0.488300  0.630500  0.851000  1
  O  O1127  1  0.988300  0.130500  0.649000  1
  O  O1128  1  0.511700  0.369500  0.149000  1
  O  O1129  1  0.568000  0.103000  0.316300  1
  O  O1130  1  0.932000  0.397000  0.816300  1
  O  O1131  1  0.432000  0.897000  0.683700  1
  O  O1132  1  0.068000  0.603000  0.183700  1
  O  O1133  1  0.313400  0.254100  0.236500  1
  O  O1134  1  0.186600  0.245900  0.736500  1
  O  O1135  1  0.686600  0.745900  0.763500  1
  O  O1136  1  0.813400  0.754100  0.263500  1
  O  O1137  1  0.488500  0.246200  0.412700  1
  O  O1138  1  0.011500  0.253800  0.912700  1
  O  O1139  1  0.511500  0.753800  0.587300  1
  O  O1140  1  0.988500  0.746200  0.087300  1
