# generated using pymatgen
data_H43PdC37N13O10
_symmetry_space_group_name_H-M   'P 1'
_cell_length_a   16.47700000
_cell_length_b   27.52100000
_cell_length_c   32.96100000
_cell_angle_alpha   90.00000000
_cell_angle_beta   93.87600000
_cell_angle_gamma   90.00000000
_symmetry_Int_Tables_number   1
_chemical_formula_structural   H43PdC37N13O10
_chemical_formula_sum   'H516 Pd12 C444 N156 O120'
_cell_volume   14912.42332382
_cell_formula_units_Z   12
loop_
 _symmetry_equiv_pos_site_id
 _symmetry_equiv_pos_as_xyz
  1  'x, y, z'
loop_
 _atom_site_type_symbol
 _atom_site_label
 _atom_site_symmetry_multiplicity
 _atom_site_fract_x
 _atom_site_fract_y
 _atom_site_fract_z
 _atom_site_occupancy
  H  H1  1  0.482500  0.436100  0.355600  1
  H  H2  1  0.517500  0.936100  0.144400  1
  H  H3  1  0.517500  0.563900  0.644400  1
  H  H4  1  0.482500  0.063900  0.855600  1
  H  H5  1  0.570400  0.403300  0.181200  1
  H  H6  1  0.429600  0.903300  0.318800  1
  H  H7  1  0.429600  0.596700  0.818800  1
  H  H8  1  0.570400  0.096700  0.681200  1
  H  H9  1  0.213500  0.459200  0.212800  1
  H  H10  1  0.786500  0.959200  0.287200  1
  H  H11  1  0.786500  0.540800  0.787200  1
  H  H12  1  0.213500  0.040800  0.712800  1
  H  H13  1  0.351900  0.609500  0.230300  1
  H  H14  1  0.648100  0.109500  0.269700  1
  H  H15  1  0.648100  0.390500  0.769700  1
  H  H16  1  0.351900  0.890500  0.730300  1
  H  H17  1  0.710000  0.611300  0.304700  1
  H  H18  1  0.290000  0.111300  0.195300  1
  H  H19  1  0.290000  0.388700  0.695300  1
  H  H20  1  0.710000  0.888700  0.804700  1
  H  H21  1  0.629400  0.540500  0.124200  1
  H  H22  1  0.370600  0.040500  0.375800  1
  H  H23  1  0.370600  0.459500  0.875800  1
  H  H24  1  0.629400  0.959500  0.624200  1
  H  H25  1  0.180500  0.345500  0.340300  1
  H  H26  1  0.819500  0.845500  0.159700  1
  H  H27  1  0.819500  0.654500  0.659700  1
  H  H28  1  0.180500  0.154500  0.840300  1
  H  H29  1  0.561300  0.348300  0.351800  1
  H  H30  1  0.438700  0.848300  0.148200  1
  H  H31  1  0.438700  0.651700  0.648200  1
  H  H32  1  0.561300  0.151700  0.851800  1
  H  H33  1  0.211100  0.284400  0.230000  1
  H  H34  1  0.788900  0.784400  0.270000  1
  H  H35  1  0.788900  0.715600  0.770000  1
  H  H36  1  0.211100  0.215600  0.730000  1
  H  H37  1  0.430600  0.723000  0.278200  1
  H  H38  1  0.569400  0.223000  0.221800  1
  H  H39  1  0.569400  0.277000  0.721800  1
  H  H40  1  0.430600  0.777000  0.778200  1
  H  H41  1  0.760400  0.686600  0.142700  1
  H  H42  1  0.239600  0.186600  0.357300  1
  H  H43  1  0.239600  0.313400  0.857300  1
  H  H44  1  0.760400  0.813400  0.642700  1
  H  H45  1  0.545700  0.684300  0.100600  1
  H  H46  1  0.454300  0.184300  0.399400  1
  H  H47  1  0.454300  0.315700  0.899400  1
  H  H48  1  0.545700  0.815700  0.600600  1
  H  H49  1  0.274600  0.529400  0.520200  1
  H  H50  1  0.725400  0.029400  0.979800  1
  H  H51  1  0.725400  0.470600  0.479800  1
  H  H52  1  0.274600  0.970600  0.020200  1
  H  H53  1  0.352000  0.493700  0.572700  1
  H  H54  1  0.648000  0.993700  0.927300  1
  H  H55  1  0.648000  0.506300  0.427300  1
  H  H56  1  0.352000  0.006300  0.072700  1
  H  H57  1  0.439800  0.431700  0.560200  1
  H  H58  1  0.560200  0.931700  0.939800  1
  H  H59  1  0.560200  0.568300  0.439800  1
  H  H60  1  0.439800  0.068300  0.060200  1
  H  H61  1  0.446600  0.403200  0.493600  1
  H  H62  1  0.553400  0.903200  0.006400  1
  H  H63  1  0.553400  0.596800  0.506400  1
  H  H64  1  0.446600  0.096800  0.993600  1
  H  H65  1  0.316600  0.439500  0.408500  1
  H  H66  1  0.683400  0.939500  0.091500  1
  H  H67  1  0.683400  0.560500  0.591500  1
  H  H68  1  0.316600  0.060500  0.908500  1
  H  H69  1  0.387300  0.401500  0.422200  1
  H  H70  1  0.612700  0.901500  0.077800  1
  H  H71  1  0.612700  0.598500  0.577800  1
  H  H72  1  0.387300  0.098500  0.922200  1
  H  H73  1  0.416100  0.503200  0.405800  1
  H  H74  1  0.583900  0.003200  0.094200  1
  H  H75  1  0.583900  0.496800  0.594200  1
  H  H76  1  0.416100  0.996800  0.905800  1
  H  H77  1  0.486900  0.465600  0.419900  1
  H  H78  1  0.513100  0.965600  0.080100  1
  H  H79  1  0.513100  0.534400  0.580100  1
  H  H80  1  0.486900  0.034400  0.919900  1
  H  H81  1  0.531300  0.449600  0.301100  1
  H  H82  1  0.468700  0.949600  0.198900  1
  H  H83  1  0.468700  0.550400  0.698900  1
  H  H84  1  0.531300  0.050400  0.801100  1
  H  H85  1  0.007600  0.377400  0.188400  1
  H  H86  1  0.992400  0.877400  0.311600  1
  H  H87  1  0.992400  0.622600  0.811600  1
  H  H88  1  0.007600  0.122600  0.688400  1
  H  H89  1  0.000800  0.337900  0.125400  1
  H  H90  1  0.999200  0.837900  0.374600  1
  H  H91  1  0.999200  0.662100  0.874600  1
  H  H92  1  0.000800  0.162100  0.625400  1
  H  H93  1  0.883800  0.344000  0.083900  1
  H  H94  1  0.116200  0.844000  0.416100  1
  H  H95  1  0.116200  0.656000  0.916100  1
  H  H96  1  0.883800  0.156000  0.583900  1
  H  H97  1  0.770100  0.380700  0.105900  1
  H  H98  1  0.229900  0.880700  0.394100  1
  H  H99  1  0.229900  0.619300  0.894100  1
  H  H100  1  0.770100  0.119300  0.605900  1
  H  H101  1  0.720800  0.447000  0.154700  1
  H  H102  1  0.279200  0.947000  0.345300  1
  H  H103  1  0.279200  0.553000  0.845300  1
  H  H104  1  0.720800  0.053000  0.654700  1
  H  H105  1  0.766600  0.449700  0.199200  1
  H  H106  1  0.233400  0.949700  0.300800  1
  H  H107  1  0.233400  0.550300  0.800800  1
  H  H108  1  0.766600  0.050300  0.699200  1
  H  H109  1  0.683600  0.361800  0.171200  1
  H  H110  1  0.316400  0.861800  0.328800  1
  H  H111  1  0.316400  0.638200  0.828800  1
  H  H112  1  0.683600  0.138200  0.671200  1
  H  H113  1  0.715000  0.373400  0.217300  1
  H  H114  1  0.285000  0.873400  0.282700  1
  H  H115  1  0.285000  0.626600  0.782700  1
  H  H116  1  0.715000  0.126600  0.717300  1
  H  H117  1  0.464600  0.444100  0.181700  1
  H  H118  1  0.535400  0.944100  0.318300  1
  H  H119  1  0.535400  0.555900  0.818300  1
  H  H120  1  0.464600  0.055900  0.681700  1
  H  H121  1  0.090200  0.433900  0.002000  1
  H  H122  1  0.909800  0.933900  0.498000  1
  H  H123  1  0.909800  0.566100  0.998000  1
  H  H124  1  0.090200  0.066100  0.502000  1
  H  H125  1  0.951600  0.438700  0.007800  1
  H  H126  1  0.048400  0.938700  0.492200  1
  H  H127  1  0.048400  0.561300  0.992200  1
  H  H128  1  0.951600  0.061300  0.507800  1
  H  H129  1  0.901600  0.471000  0.066200  1
  H  H130  1  0.098400  0.971000  0.433800  1
  H  H131  1  0.098400  0.529000  0.933800  1
  H  H132  1  0.901600  0.029000  0.566200  1
  H  H133  1  0.990300  0.495800  0.119700  1
  H  H134  1  0.009700  0.995800  0.380300  1
  H  H135  1  0.009700  0.504200  0.880300  1
  H  H136  1  0.990300  0.004200  0.619700  1
  H  H137  1  0.130800  0.514800  0.142700  1
  H  H138  1  0.869200  0.014800  0.357300  1
  H  H139  1  0.869200  0.485200  0.857300  1
  H  H140  1  0.130800  0.985200  0.642700  1
  H  H141  1  0.204300  0.499000  0.116200  1
  H  H142  1  0.795700  0.999000  0.383800  1
  H  H143  1  0.795700  0.501000  0.883800  1
  H  H144  1  0.204300  0.001000  0.616200  1
  H  H145  1  0.117600  0.434900  0.165000  1
  H  H146  1  0.882400  0.934900  0.335000  1
  H  H147  1  0.882400  0.565100  0.835000  1
  H  H148  1  0.117600  0.065100  0.665000  1
  H  H149  1  0.188800  0.418000  0.137600  1
  H  H150  1  0.811200  0.918000  0.362400  1
  H  H151  1  0.811200  0.582000  0.862400  1
  H  H152  1  0.188800  0.082000  0.637600  1
  H  H153  1  0.294600  0.464800  0.263100  1
  H  H154  1  0.705400  0.964800  0.236900  1
  H  H155  1  0.705400  0.535200  0.736900  1
  H  H156  1  0.294600  0.035200  0.763100  1
  H  H157  1  0.206500  0.528700  0.336100  1
  H  H158  1  0.793500  0.028700  0.163900  1
  H  H159  1  0.793500  0.471300  0.663900  1
  H  H160  1  0.206500  0.971300  0.836100  1
  H  H161  1  0.134600  0.623100  0.418600  1
  H  H162  1  0.865400  0.123100  0.081400  1
  H  H163  1  0.865400  0.376900  0.581400  1
  H  H164  1  0.134600  0.876900  0.918600  1
  H  H165  1  0.090500  0.654400  0.351900  1
  H  H166  1  0.909500  0.154400  0.148100  1
  H  H167  1  0.909500  0.345600  0.648100  1
  H  H168  1  0.090500  0.845600  0.851900  1
  H  H169  1  0.120000  0.631600  0.277600  1
  H  H170  1  0.880000  0.131600  0.222400  1
  H  H171  1  0.880000  0.368400  0.722400  1
  H  H172  1  0.120000  0.868400  0.777600  1
  H  H173  1  0.090500  0.576200  0.274400  1
  H  H174  1  0.909500  0.076200  0.225600  1
  H  H175  1  0.909500  0.423800  0.725600  1
  H  H176  1  0.090500  0.923800  0.774400  1
  H  H177  1  0.228000  0.549800  0.270000  1
  H  H178  1  0.772000  0.049800  0.230000  1
  H  H179  1  0.772000  0.450200  0.730000  1
  H  H180  1  0.228000  0.950200  0.770000  1
  H  H181  1  0.204300  0.587600  0.234200  1
  H  H182  1  0.795700  0.087600  0.265800  1
  H  H183  1  0.795700  0.412400  0.765800  1
  H  H184  1  0.204300  0.912400  0.734200  1
  H  H185  1  0.268200  0.650700  0.274600  1
  H  H186  1  0.731800  0.150700  0.225400  1
  H  H187  1  0.731800  0.349300  0.725400  1
  H  H188  1  0.268200  0.849300  0.774600  1
  H  H189  1  0.296000  0.610900  0.308300  1
  H  H190  1  0.704000  0.110900  0.191700  1
  H  H191  1  0.704000  0.389100  0.691700  1
  H  H192  1  0.296000  0.889100  0.808300  1
  H  H193  1  0.585100  0.594400  0.290000  1
  H  H194  1  0.414900  0.094400  0.210000  1
  H  H195  1  0.414900  0.405600  0.710000  1
  H  H196  1  0.585100  0.905600  0.790000  1
  H  H197  1  0.806600  0.505200  0.291700  1
  H  H198  1  0.193400  0.005200  0.208300  1
  H  H199  1  0.193400  0.494800  0.708300  1
  H  H200  1  0.806600  0.994800  0.791700  1
  H  H201  1  0.040500  0.476500  0.311300  1
  H  H202  1  0.959500  0.976500  0.188700  1
  H  H203  1  0.959500  0.523500  0.688700  1
  H  H204  1  0.040500  0.023500  0.811300  1
  H  H205  1  0.005200  0.532000  0.363900  1
  H  H206  1  0.994800  0.032000  0.136100  1
  H  H207  1  0.994800  0.468000  0.636100  1
  H  H208  1  0.005200  0.968000  0.863900  1
  H  H209  1  0.857400  0.564700  0.387400  1
  H  H210  1  0.142600  0.064700  0.112600  1
  H  H211  1  0.142600  0.435300  0.612600  1
  H  H212  1  0.857400  0.935300  0.887400  1
  H  H213  1  0.781300  0.557400  0.355100  1
  H  H214  1  0.218700  0.057400  0.144900  1
  H  H215  1  0.218700  0.442600  0.644900  1
  H  H216  1  0.781300  0.942600  0.855100  1
  H  H217  1  0.818600  0.639200  0.357500  1
  H  H218  1  0.181400  0.139200  0.142500  1
  H  H219  1  0.181400  0.360800  0.642500  1
  H  H220  1  0.818600  0.860800  0.857500  1
  H  H221  1  0.909500  0.625700  0.347900  1
  H  H222  1  0.090500  0.125700  0.152100  1
  H  H223  1  0.090500  0.374300  0.652100  1
  H  H224  1  0.909500  0.874300  0.847900  1
  H  H225  1  0.838000  0.657900  0.290500  1
  H  H226  1  0.162000  0.157900  0.209500  1
  H  H227  1  0.162000  0.342100  0.709500  1
  H  H228  1  0.838000  0.842100  0.790500  1
  H  H229  1  0.867000  0.603600  0.281900  1
  H  H230  1  0.133000  0.103600  0.218100  1
  H  H231  1  0.133000  0.396400  0.718100  1
  H  H232  1  0.867000  0.896400  0.781900  1
  H  H233  1  0.664200  0.565800  0.178800  1
  H  H234  1  0.335800  0.065800  0.321200  1
  H  H235  1  0.335800  0.434200  0.821200  1
  H  H236  1  0.664200  0.934200  0.678800  1
  H  H237  1  0.416000  0.467500  0.093300  1
  H  H238  1  0.584000  0.967500  0.406700  1
  H  H239  1  0.584000  0.532500  0.906700  1
  H  H240  1  0.416000  0.032500  0.593300  1
  H  H241  1  0.362700  0.383000  0.997000  1
  H  H242  1  0.637300  0.883000  0.503000  1
  H  H243  1  0.637300  0.617000  0.003000  1
  H  H244  1  0.362700  0.117000  0.497000  1
  H  H245  1  0.512800  0.380000  0.012800  1
  H  H246  1  0.487200  0.880000  0.487200  1
  H  H247  1  0.487200  0.620000  0.987200  1
  H  H248  1  0.512800  0.120000  0.512800  1
  H  H249  1  0.607100  0.409300  0.074700  1
  H  H250  1  0.392900  0.909300  0.425300  1
  H  H251  1  0.392900  0.590700  0.925300  1
  H  H252  1  0.607100  0.090700  0.574700  1
  H  H253  1  0.567800  0.443400  0.107500  1
  H  H254  1  0.432200  0.943400  0.392500  1
  H  H255  1  0.432200  0.556600  0.892500  1
  H  H256  1  0.567800  0.056600  0.607500  1
  H  H257  1  0.604700  0.477100  0.029500  1
  H  H258  1  0.395300  0.977100  0.470500  1
  H  H259  1  0.395300  0.522900  0.970500  1
  H  H260  1  0.604700  0.022900  0.529500  1
  H  H261  1  0.666667  0.482600  0.068700  1
  H  H262  1  0.333333  0.982600  0.431300  1
  H  H263  1  0.333333  0.517400  0.931300  1
  H  H264  1  0.666667  0.017400  0.568700  1
  H  H265  1  0.592800  0.557600  0.054400  1
  H  H266  1  0.407200  0.057600  0.445600  1
  H  H267  1  0.407200  0.442400  0.945600  1
  H  H268  1  0.592800  0.942400  0.554400  1
  H  H269  1  0.509000  0.530200  0.061400  1
  H  H270  1  0.491000  0.030200  0.438600  1
  H  H271  1  0.491000  0.469800  0.938600  1
  H  H272  1  0.509000  0.969800  0.561400  1
  H  H273  1  0.423800  0.565300  0.194500  1
  H  H274  1  0.576200  0.065300  0.305500  1
  H  H275  1  0.576200  0.434700  0.805500  1
  H  H276  1  0.423800  0.934700  0.694500  1
  H  H277  1  0.157900  0.452500  0.371700  1
  H  H278  1  0.842100  0.952500  0.128300  1
  H  H279  1  0.842100  0.547500  0.628300  1
  H  H280  1  0.157900  0.047500  0.871700  1
  H  H281  1  0.137900  0.466700  0.490300  1
  H  H282  1  0.862100  0.966700  0.009700  1
  H  H283  1  0.862100  0.533300  0.509700  1
  H  H284  1  0.137900  0.033300  0.990300  1
  H  H285  1  0.038900  0.403700  0.464800  1
  H  H286  1  0.961100  0.903700  0.035200  1
  H  H287  1  0.961100  0.596300  0.535200  1
  H  H288  1  0.038900  0.096300  0.964800  1
  H  H289  1  0.057100  0.389700  0.352300  1
  H  H290  1  0.942900  0.889700  0.147700  1
  H  H291  1  0.942900  0.610300  0.647700  1
  H  H292  1  0.057100  0.110300  0.852300  1
  H  H293  1  0.984600  0.385600  0.382100  1
  H  H294  1  0.015400  0.885600  0.117900  1
  H  H295  1  0.015400  0.614400  0.617900  1
  H  H296  1  0.984600  0.114400  0.882100  1
  H  H297  1  0.041300  0.320700  0.414800  1
  H  H298  1  0.958700  0.820700  0.085200  1
  H  H299  1  0.958700  0.679300  0.585200  1
  H  H300  1  0.041300  0.179300  0.914800  1
  H  H301  1  0.046000  0.309900  0.367500  1
  H  H302  1  0.954000  0.809900  0.132500  1
  H  H303  1  0.954000  0.690100  0.632500  1
  H  H304  1  0.046000  0.190100  0.867500  1
  H  H305  1  0.177600  0.340100  0.420600  1
  H  H306  1  0.822400  0.840100  0.079400  1
  H  H307  1  0.822400  0.659900  0.579400  1
  H  H308  1  0.177600  0.159900  0.920600  1
  H  H309  1  0.163600  0.286200  0.403800  1
  H  H310  1  0.836400  0.786200  0.096200  1
  H  H311  1  0.836400  0.713800  0.596200  1
  H  H312  1  0.163600  0.213800  0.903800  1
  H  H313  1  0.439800  0.327200  0.355000  1
  H  H314  1  0.560200  0.827200  0.145000  1
  H  H315  1  0.560200  0.672800  0.645000  1
  H  H316  1  0.439800  0.172800  0.855000  1
  H  H317  1  0.851200  0.406000  0.324200  1
  H  H318  1  0.148800  0.906000  0.175800  1
  H  H319  1  0.148800  0.594000  0.675800  1
  H  H320  1  0.851200  0.094000  0.824200  1
  H  H321  1  0.895500  0.320800  0.232300  1
  H  H322  1  0.104500  0.820800  0.267700  1
  H  H323  1  0.104500  0.679200  0.767700  1
  H  H324  1  0.895500  0.179200  0.732300  1
  H  H325  1  0.864800  0.268000  0.289100  1
  H  H326  1  0.135200  0.768000  0.210900  1
  H  H327  1  0.135200  0.732000  0.710900  1
  H  H328  1  0.864800  0.232000  0.789100  1
  H  H329  1  0.822900  0.343600  0.379000  1
  H  H330  1  0.177100  0.843600  0.121000  1
  H  H331  1  0.177100  0.656400  0.621000  1
  H  H332  1  0.822900  0.156400  0.879000  1
  H  H333  1  0.842800  0.288100  0.368800  1
  H  H334  1  0.157200  0.788100  0.131200  1
  H  H335  1  0.157200  0.711900  0.631200  1
  H  H336  1  0.842800  0.211900  0.868800  1
  H  H337  1  0.715300  0.278000  0.334600  1
  H  H338  1  0.284700  0.778000  0.165400  1
  H  H339  1  0.284700  0.722000  0.665400  1
  H  H340  1  0.715300  0.222000  0.834600  1
  H  H341  1  0.702000  0.299300  0.378800  1
  H  H342  1  0.298000  0.799300  0.121200  1
  H  H343  1  0.298000  0.700700  0.621200  1
  H  H344  1  0.702000  0.200700  0.878800  1
  H  H345  1  0.689700  0.378500  0.349400  1
  H  H346  1  0.310300  0.878500  0.150600  1
  H  H347  1  0.310300  0.621500  0.650600  1
  H  H348  1  0.689700  0.121500  0.849400  1
  H  H349  1  0.694400  0.354300  0.305600  1
  H  H350  1  0.305600  0.854300  0.194400  1
  H  H351  1  0.305600  0.645700  0.694400  1
  H  H352  1  0.694400  0.145700  0.805600  1
  H  H353  1  0.449500  0.330700  0.233400  1
  H  H354  1  0.550500  0.830700  0.266600  1
  H  H355  1  0.550500  0.669300  0.766600  1
  H  H356  1  0.449500  0.169300  0.733400  1
  H  H357  1  0.305600  0.361600  0.108100  1
  H  H358  1  0.694400  0.861600  0.391900  1
  H  H359  1  0.694400  0.638400  0.891900  1
  H  H360  1  0.305600  0.138400  0.608100  1
  H  H361  1  0.131400  0.348700  0.020100  1
  H  H362  1  0.868600  0.848700  0.479900  1
  H  H363  1  0.868600  0.651300  0.979900  1
  H  H364  1  0.131400  0.151300  0.520100  1
  H  H365  1  0.164900  0.267200  0.047900  1
  H  H366  1  0.835100  0.767200  0.452100  1
  H  H367  1  0.835100  0.732800  0.952100  1
  H  H368  1  0.164900  0.232800  0.547900  1
  H  H369  1  0.320100  0.276200  0.133700  1
  H  H370  1  0.679900  0.776200  0.366300  1
  H  H371  1  0.679900  0.723800  0.866300  1
  H  H372  1  0.320100  0.223800  0.633700  1
  H  H373  1  0.289500  0.234900  0.101900  1
  H  H374  1  0.710500  0.734900  0.398100  1
  H  H375  1  0.710500  0.765100  0.898100  1
  H  H376  1  0.289500  0.265100  0.601900  1
  H  H377  1  0.157200  0.238800  0.126500  1
  H  H378  1  0.842800  0.738800  0.373500  1
  H  H379  1  0.842800  0.761200  0.873500  1
  H  H380  1  0.157200  0.261200  0.626500  1
  H  H381  1  0.223400  0.223200  0.161700  1
  H  H382  1  0.776600  0.723200  0.338300  1
  H  H383  1  0.776600  0.776800  0.838300  1
  H  H384  1  0.223400  0.276800  0.661700  1
  H  H385  1  0.174900  0.321400  0.154500  1
  H  H386  1  0.825100  0.821400  0.345500  1
  H  H387  1  0.825100  0.678600  0.845500  1
  H  H388  1  0.174900  0.178600  0.654500  1
  H  H389  1  0.120100  0.283700  0.177300  1
  H  H390  1  0.879900  0.783700  0.322700  1
  H  H391  1  0.879900  0.716300  0.822700  1
  H  H392  1  0.120100  0.216300  0.677300  1
  H  H393  1  0.231200  0.328000  0.284400  1
  H  H394  1  0.768800  0.828000  0.215600  1
  H  H395  1  0.768800  0.672000  0.715600  1
  H  H396  1  0.231200  0.172000  0.784400  1
  H  H397  1  0.367500  0.584000  0.374600  1
  H  H398  1  0.632500  0.084000  0.125400  1
  H  H399  1  0.632500  0.416000  0.625400  1
  H  H400  1  0.367500  0.916000  0.874600  1
  H  H401  1  0.330000  0.613400  0.489900  1
  H  H402  1  0.670000  0.113400  0.010100  1
  H  H403  1  0.670000  0.386600  0.510100  1
  H  H404  1  0.330000  0.886600  0.989900  1
  H  H405  1  0.418500  0.677800  0.465100  1
  H  H406  1  0.581500  0.177800  0.034900  1
  H  H407  1  0.581500  0.322200  0.534900  1
  H  H408  1  0.418500  0.822200  0.965100  1
  H  H409  1  0.479200  0.650300  0.361300  1
  H  H410  1  0.520800  0.150300  0.138700  1
  H  H411  1  0.520800  0.349700  0.638700  1
  H  H412  1  0.479200  0.849700  0.861300  1
  H  H413  1  0.501700  0.687600  0.397800  1
  H  H414  1  0.498300  0.187600  0.102200  1
  H  H415  1  0.498300  0.312400  0.602200  1
  H  H416  1  0.501700  0.812400  0.897800  1
  H  H417  1  0.370100  0.725900  0.383300  1
  H  H418  1  0.629900  0.225900  0.116700  1
  H  H419  1  0.629900  0.274100  0.616700  1
  H  H420  1  0.370100  0.774100  0.883300  1
  H  H421  1  0.356900  0.691600  0.344100  1
  H  H422  1  0.643100  0.191600  0.155900  1
  H  H423  1  0.643100  0.308400  0.655900  1
  H  H424  1  0.356900  0.808400  0.844100  1
  H  H425  1  0.410900  0.774200  0.332100  1
  H  H426  1  0.589100  0.274200  0.167900  1
  H  H427  1  0.589100  0.225800  0.667900  1
  H  H428  1  0.410900  0.725800  0.832100  1
  H  H429  1  0.494900  0.755200  0.353500  1
  H  H430  1  0.505100  0.255200  0.146500  1
  H  H431  1  0.505100  0.244800  0.646500  1
  H  H432  1  0.494900  0.744800  0.853500  1
  H  H433  1  0.684600  0.710000  0.264300  1
  H  H434  1  0.315400  0.210000  0.235700  1
  H  H435  1  0.315400  0.290000  0.735700  1
  H  H436  1  0.684600  0.790000  0.764300  1
  H  H437  1  0.839700  0.524800  0.182000  1
  H  H438  1  0.160300  0.024800  0.318000  1
  H  H439  1  0.160300  0.475200  0.818000  1
  H  H440  1  0.839700  0.975200  0.682000  1
  H  H441  1  0.067200  0.502600  0.224200  1
  H  H442  1  0.932800  0.002600  0.275800  1
  H  H443  1  0.932800  0.497400  0.775800  1
  H  H444  1  0.067200  0.997400  0.724200  1
  H  H445  1  0.064000  0.579600  0.187700  1
  H  H446  1  0.936000  0.079600  0.312300  1
  H  H447  1  0.936000  0.420400  0.812300  1
  H  H448  1  0.064000  0.920400  0.687700  1
  H  H449  1  0.932400  0.613000  0.127600  1
  H  H450  1  0.067600  0.113000  0.372400  1
  H  H451  1  0.067600  0.387000  0.872400  1
  H  H452  1  0.932400  0.887000  0.627600  1
  H  H453  1  0.848500  0.607500  0.148800  1
  H  H454  1  0.151500  0.107500  0.351200  1
  H  H455  1  0.151500  0.392500  0.851200  1
  H  H456  1  0.848500  0.892500  0.648800  1
  H  H457  1  0.983800  0.663500  0.177600  1
  H  H458  1  0.016200  0.163500  0.322400  1
  H  H459  1  0.016200  0.336500  0.822400  1
  H  H460  1  0.983800  0.836500  0.677600  1
  H  H461  1  0.908600  0.653200  0.204700  1
  H  H462  1  0.091400  0.153200  0.295300  1
  H  H463  1  0.091400  0.346800  0.795300  1
  H  H464  1  0.908600  0.846800  0.704700  1
  H  H465  1  0.902500  0.729600  0.168300  1
  H  H466  1  0.097500  0.229600  0.331700  1
  H  H467  1  0.097500  0.270400  0.831700  1
  H  H468  1  0.902500  0.770400  0.668300  1
  H  H469  1  0.887700  0.698800  0.127200  1
  H  H470  1  0.112300  0.198800  0.372800  1
  H  H471  1  0.112300  0.301200  0.872800  1
  H  H472  1  0.887700  0.801200  0.627200  1
  H  H473  1  0.634900  0.700700  0.142700  1
  H  H474  1  0.365100  0.200700  0.357300  1
  H  H475  1  0.365100  0.299300  0.857300  1
  H  H476  1  0.634900  0.799300  0.642700  1
  H  H477  1  0.323600  0.538200  0.091000  1
  H  H478  1  0.676400  0.038200  0.409000  1
  H  H479  1  0.676400  0.461800  0.909000  1
  H  H480  1  0.323600  0.961800  0.591000  1
  H  H481  1  0.202600  0.531600  0.984400  1
  H  H482  1  0.797400  0.031600  0.515600  1
  H  H483  1  0.797400  0.468400  0.015600  1
  H  H484  1  0.202600  0.968400  0.484400  1
  H  H485  1  0.244500  0.618000  0.998100  1
  H  H486  1  0.755500  0.118000  0.501900  1
  H  H487  1  0.755500  0.382000  0.001900  1
  H  H488  1  0.244500  0.882000  0.498100  1
  H  H489  1  0.291400  0.663400  0.074800  1
  H  H490  1  0.708600  0.163400  0.425200  1
  H  H491  1  0.708600  0.336600  0.925200  1
  H  H492  1  0.291400  0.836600  0.574800  1
  H  H493  1  0.351600  0.628100  0.101200  1
  H  H494  1  0.648400  0.128100  0.398800  1
  H  H495  1  0.648400  0.371900  0.898800  1
  H  H496  1  0.351600  0.871900  0.601200  1
  H  H497  1  0.382900  0.660000  0.021800  1
  H  H498  1  0.617100  0.160000  0.478200  1
  H  H499  1  0.617100  0.340000  0.978200  1
  H  H500  1  0.382900  0.840000  0.521800  1
  H  H501  1  0.444100  0.629200  0.051300  1
  H  H502  1  0.555900  0.129200  0.448700  1
  H  H503  1  0.555900  0.370800  0.948700  1
  H  H504  1  0.444100  0.870800  0.551300  1
  H  H505  1  0.473900  0.717300  0.045800  1
  H  H506  1  0.526100  0.217300  0.454200  1
  H  H507  1  0.526100  0.282700  0.954200  1
  H  H508  1  0.473900  0.782700  0.545800  1
  H  H509  1  0.399100  0.725900  0.073500  1
  H  H510  1  0.600900  0.225900  0.426500  1
  H  H511  1  0.600900  0.274100  0.926500  1
  H  H512  1  0.399100  0.774100  0.573500  1
  H  H513  1  0.453000  0.702400  0.219200  1
  H  H514  1  0.547000  0.202400  0.280800  1
  H  H515  1  0.547000  0.297600  0.780800  1
  H  H516  1  0.453000  0.797600  0.719200  1
  Pd  Pd517  1  0.251730  0.527972  0.431888  1
  Pd  Pd518  1  0.748270  0.027972  0.068112  1
  Pd  Pd519  1  0.748270  0.472028  0.568112  1
  Pd  Pd520  1  0.251730  0.972028  0.931888  1
  Pd  Pd521  1  0.907630  0.438617  0.237969  1
  Pd  Pd522  1  0.092370  0.938617  0.262031  1
  Pd  Pd523  1  0.092370  0.561383  0.762031  1
  Pd  Pd524  1  0.907630  0.061383  0.737969  1
  Pd  Pd525  1  0.242180  0.445152  0.051207  1
  Pd  Pd526  1  0.757820  0.945152  0.448793  1
  Pd  Pd527  1  0.757820  0.554848  0.948793  1
  Pd  Pd528  1  0.242180  0.054848  0.551207  1
  C  C529  1  0.312100  0.504600  0.514410  1
  C  C530  1  0.687900  0.004600  0.985590  1
  C  C531  1  0.687900  0.495400  0.485590  1
  C  C532  1  0.312100  0.995400  0.014410  1
  C  C533  1  0.356800  0.482800  0.545640  1
  C  C534  1  0.643200  0.982800  0.954360  1
  C  C535  1  0.643200  0.517200  0.454360  1
  C  C536  1  0.356800  0.017200  0.045640  1
  C  C537  1  0.407500  0.446200  0.538500  1
  C  C538  1  0.592500  0.946200  0.961500  1
  C  C539  1  0.592500  0.553800  0.461500  1
  C  C540  1  0.407500  0.053800  0.038500  1
  C  C541  1  0.412400  0.429800  0.499000  1
  C  C542  1  0.587600  0.929800  0.001000  1
  C  C543  1  0.587600  0.570200  0.501000  1
  C  C544  1  0.412400  0.070200  0.999000  1
  C  C545  1  0.367000  0.452500  0.467450  1
  C  C546  1  0.633000  0.952500  0.032550  1
  C  C547  1  0.633000  0.547500  0.532550  1
  C  C548  1  0.367000  0.047500  0.967450  1
  C  C549  1  0.370500  0.436000  0.423300  1
  C  C550  1  0.629500  0.936000  0.076700  1
  C  C551  1  0.629500  0.564000  0.576700  1
  C  C552  1  0.370500  0.064000  0.923300  1
  C  C553  1  0.433500  0.468800  0.404400  1
  C  C554  1  0.566500  0.968800  0.095600  1
  C  C555  1  0.566500  0.531200  0.595600  1
  C  C556  1  0.433500  0.031200  0.904400  1
  C  C557  1  0.389300  0.467900  0.331530  1
  C  C558  1  0.610700  0.967900  0.168470  1
  C  C559  1  0.610700  0.532100  0.668470  1
  C  C560  1  0.389300  0.032100  0.831530  1
  C  C561  1  0.411200  0.460100  0.288630  1
  C  C562  1  0.588800  0.960100  0.211370  1
  C  C563  1  0.588800  0.539900  0.711370  1
  C  C564  1  0.411200  0.039900  0.788630  1
  C  C565  1  0.490300  0.451430  0.279430  1
  C  C566  1  0.509700  0.951430  0.220570  1
  C  C567  1  0.509700  0.548570  0.720570  1
  C  C568  1  0.490300  0.048570  0.779430  1
  C  C569  1  0.958500  0.378200  0.171500  1
  C  C570  1  0.041500  0.878200  0.328500  1
  C  C571  1  0.041500  0.621800  0.828500  1
  C  C572  1  0.958500  0.121800  0.671500  1
  C  C573  1  0.955200  0.355200  0.134100  1
  C  C574  1  0.044800  0.855200  0.365900  1
  C  C575  1  0.044800  0.644800  0.865900  1
  C  C576  1  0.955200  0.144800  0.634100  1
  C  C577  1  0.885800  0.358100  0.110300  1
  C  C578  1  0.114200  0.858100  0.389700  1
  C  C579  1  0.114200  0.641900  0.889700  1
  C  C580  1  0.885800  0.141900  0.610300  1
  C  C581  1  0.819100  0.380400  0.122900  1
  C  C582  1  0.180900  0.880400  0.377100  1
  C  C583  1  0.180900  0.619600  0.877100  1
  C  C584  1  0.819100  0.119600  0.622900  1
  C  C585  1  0.822300  0.402800  0.160740  1
  C  C586  1  0.177700  0.902800  0.339260  1
  C  C587  1  0.177700  0.597200  0.839260  1
  C  C588  1  0.822300  0.097200  0.660740  1
  C  C589  1  0.749100  0.427500  0.176600  1
  C  C590  1  0.250900  0.927500  0.323400  1
  C  C591  1  0.250900  0.572500  0.823400  1
  C  C592  1  0.749100  0.072500  0.676600  1
  C  C593  1  0.690500  0.388000  0.191800  1
  C  C594  1  0.309500  0.888000  0.308200  1
  C  C595  1  0.309500  0.612000  0.808200  1
  C  C596  1  0.690500  0.112000  0.691800  1
  C  C597  1  0.599200  0.433100  0.232880  1
  C  C598  1  0.400800  0.933100  0.267120  1
  C  C599  1  0.400800  0.566900  0.767120  1
  C  C600  1  0.599200  0.066900  0.732880  1
  C  C601  1  0.512300  0.445320  0.240370  1
  C  C602  1  0.487700  0.945320  0.259630  1
  C  C603  1  0.487700  0.554680  0.759630  1
  C  C604  1  0.512300  0.054680  0.740370  1
  C  C605  1  0.450900  0.447800  0.209090  1
  C  C606  1  0.549100  0.947800  0.290910  1
  C  C607  1  0.549100  0.552200  0.790910  1
  C  C608  1  0.450900  0.052200  0.709090  1
  C  C609  1  0.069900  0.445300  0.026600  1
  C  C610  1  0.930100  0.945300  0.473400  1
  C  C611  1  0.930100  0.554700  0.973400  1
  C  C612  1  0.069900  0.054700  0.526600  1
  C  C613  1  0.988200  0.449100  0.029600  1
  C  C614  1  0.011800  0.949100  0.470400  1
  C  C615  1  0.011800  0.550900  0.970400  1
  C  C616  1  0.988200  0.050900  0.529600  1
  C  C617  1  0.958600  0.467900  0.064300  1
  C  C618  1  0.041400  0.967900  0.435700  1
  C  C619  1  0.041400  0.532100  0.935700  1
  C  C620  1  0.958600  0.032100  0.564300  1
  C  C621  1  0.010200  0.482100  0.095800  1
  C  C622  1  0.989800  0.982100  0.404200  1
  C  C623  1  0.989800  0.517900  0.904200  1
  C  C624  1  0.010200  0.017900  0.595800  1
  C  C625  1  0.093900  0.476000  0.092200  1
  C  C626  1  0.906100  0.976000  0.407800  1
  C  C627  1  0.906100  0.524000  0.907800  1
  C  C628  1  0.093900  0.024000  0.592200  1
  C  C629  1  0.152700  0.487800  0.126790  1
  C  C630  1  0.847300  0.987800  0.373210  1
  C  C631  1  0.847300  0.512200  0.873210  1
  C  C632  1  0.152700  0.012200  0.626790  1
  C  C633  1  0.169300  0.445200  0.153980  1
  C  C634  1  0.830700  0.945200  0.346020  1
  C  C635  1  0.830700  0.554800  0.846020  1
  C  C636  1  0.169300  0.054800  0.653980  1
  C  C637  1  0.309700  0.455900  0.181700  1
  C  C638  1  0.690300  0.955900  0.318300  1
  C  C639  1  0.690300  0.544100  0.818300  1
  C  C640  1  0.309700  0.044100  0.681700  1
  C  C641  1  0.370300  0.455620  0.217210  1
  C  C642  1  0.629700  0.955620  0.282790  1
  C  C643  1  0.629700  0.544380  0.782790  1
  C  C644  1  0.370300  0.044380  0.717210  1
  C  C645  1  0.349800  0.460800  0.257200  1
  C  C646  1  0.650200  0.960800  0.242800  1
  C  C647  1  0.650200  0.539200  0.742800  1
  C  C648  1  0.349800  0.039200  0.757200  1
  C  C649  1  0.184300  0.556300  0.348580  1
  C  C650  1  0.815700  0.056300  0.151420  1
  C  C651  1  0.815700  0.443700  0.651420  1
  C  C652  1  0.184300  0.943700  0.848580  1
  C  C653  1  0.144400  0.608100  0.393400  1
  C  C654  1  0.855600  0.108100  0.106600  1
  C  C655  1  0.855600  0.391900  0.606600  1
  C  C656  1  0.144400  0.891900  0.893400  1
  C  C657  1  0.120200  0.625300  0.357300  1
  C  C658  1  0.879800  0.125300  0.142700  1
  C  C659  1  0.879800  0.374700  0.642700  1
  C  C660  1  0.120200  0.874700  0.857300  1
  C  C661  1  0.135400  0.597700  0.284810  1
  C  C662  1  0.864600  0.097700  0.215190  1
  C  C663  1  0.864600  0.402300  0.715190  1
  C  C664  1  0.135400  0.902300  0.784810  1
  C  C665  1  0.213900  0.584100  0.263990  1
  C  C666  1  0.786100  0.084100  0.236010  1
  C  C667  1  0.786100  0.415900  0.736010  1
  C  C668  1  0.213900  0.915900  0.763990  1
  C  C669  1  0.283600  0.616200  0.278780  1
  C  C670  1  0.716400  0.116200  0.221220  1
  C  C671  1  0.716400  0.383800  0.721220  1
  C  C672  1  0.283600  0.883800  0.778780  1
  C  C673  1  0.425400  0.589800  0.273710  1
  C  C674  1  0.574600  0.089800  0.226290  1
  C  C675  1  0.574600  0.410200  0.726290  1
  C  C676  1  0.425400  0.910200  0.773710  1
  C  C677  1  0.492700  0.582550  0.246180  1
  C  C678  1  0.507300  0.082550  0.253820  1
  C  C679  1  0.507300  0.417450  0.753820  1
  C  C680  1  0.492700  0.917450  0.746180  1
  C  C681  1  0.573800  0.587800  0.261910  1
  C  C682  1  0.426200  0.087800  0.238090  1
  C  C683  1  0.426200  0.412200  0.738090  1
  C  C684  1  0.573800  0.912200  0.761910  1
  C  C685  1  0.861000  0.504700  0.303180  1
  C  C686  1  0.139000  0.004700  0.196820  1
  C  C687  1  0.139000  0.495300  0.696820  1
  C  C688  1  0.861000  0.995300  0.803180  1
  C  C689  1  0.987700  0.489500  0.314230  1
  C  C690  1  0.012300  0.989500  0.185770  1
  C  C691  1  0.012300  0.510500  0.685770  1
  C  C692  1  0.987700  0.010500  0.814230  1
  C  C693  1  0.969400  0.519500  0.342590  1
  C  C694  1  0.030600  0.019500  0.157410  1
  C  C695  1  0.030600  0.480500  0.657410  1
  C  C696  1  0.969400  0.980500  0.842590  1
  C  C697  1  0.839800  0.565900  0.358100  1
  C  C698  1  0.160200  0.065900  0.141900  1
  C  C699  1  0.160200  0.434100  0.641900  1
  C  C700  1  0.839800  0.934100  0.858100  1
  C  C701  1  0.851800  0.616500  0.342200  1
  C  C702  1  0.148200  0.116500  0.157800  1
  C  C703  1  0.148200  0.383500  0.657800  1
  C  C704  1  0.851800  0.883500  0.842200  1
  C  C705  1  0.830100  0.623400  0.297680  1
  C  C706  1  0.169900  0.123400  0.202320  1
  C  C707  1  0.169900  0.376600  0.702320  1
  C  C708  1  0.830100  0.876600  0.797680  1
  C  C709  1  0.726400  0.593800  0.247870  1
  C  C710  1  0.273600  0.093800  0.252130  1
  C  C711  1  0.273600  0.406200  0.752130  1
  C  C712  1  0.726400  0.906200  0.747870  1
  C  C713  1  0.637200  0.583300  0.236680  1
  C  C714  1  0.362800  0.083300  0.263320  1
  C  C715  1  0.362800  0.416700  0.763320  1
  C  C716  1  0.637200  0.916700  0.736680  1
  C  C717  1  0.620500  0.570200  0.195860  1
  C  C718  1  0.379500  0.070200  0.304140  1
  C  C719  1  0.379500  0.429800  0.804140  1
  C  C720  1  0.620500  0.929800  0.695860  1
  C  C721  1  0.421000  0.446300  0.070870  1
  C  C722  1  0.579000  0.946300  0.429130  1
  C  C723  1  0.579000  0.553700  0.929130  1
  C  C724  1  0.421000  0.053700  0.570870  1
  C  C725  1  0.392400  0.400100  0.018200  1
  C  C726  1  0.607600  0.900100  0.481800  1
  C  C727  1  0.607600  0.599900  0.981800  1
  C  C728  1  0.392400  0.099900  0.518200  1
  C  C729  1  0.474500  0.398100  0.027000  1
  C  C730  1  0.525500  0.898100  0.473000  1
  C  C731  1  0.525500  0.601900  0.973000  1
  C  C732  1  0.474500  0.101900  0.527000  1
  C  C733  1  0.571300  0.437700  0.078000  1
  C  C734  1  0.428700  0.937700  0.422000  1
  C  C735  1  0.428700  0.562300  0.922000  1
  C  C736  1  0.571300  0.062300  0.578000  1
  C  C737  1  0.608200  0.481200  0.059400  1
  C  C738  1  0.391800  0.981200  0.440600  1
  C  C739  1  0.391800  0.518800  0.940600  1
  C  C740  1  0.608200  0.018800  0.559400  1
  C  C741  1  0.567900  0.531100  0.069680  1
  C  C742  1  0.432100  0.031100  0.430320  1
  C  C743  1  0.432100  0.468900  0.930320  1
  C  C744  1  0.567900  0.968900  0.569680  1
  C  C745  1  0.519100  0.549500  0.137200  1
  C  C746  1  0.480900  0.049500  0.362800  1
  C  C747  1  0.480900  0.450500  0.862800  1
  C  C748  1  0.519100  0.950500  0.637200  1
  C  C749  1  0.542000  0.563400  0.180060  1
  C  C750  1  0.458000  0.063400  0.319940  1
  C  C751  1  0.458000  0.436600  0.819940  1
  C  C752  1  0.542000  0.936600  0.680060  1
  C  C753  1  0.478200  0.569800  0.205340  1
  C  C754  1  0.521800  0.069800  0.294660  1
  C  C755  1  0.521800  0.430200  0.794660  1
  C  C756  1  0.478200  0.930200  0.705340  1
  C  C757  1  0.140800  0.448500  0.398480  1
  C  C758  1  0.859200  0.948500  0.101520  1
  C  C759  1  0.859200  0.551500  0.601520  1
  C  C760  1  0.140800  0.051500  0.898480  1
  C  C761  1  0.129600  0.456400  0.462800  1
  C  C762  1  0.870400  0.956400  0.037200  1
  C  C763  1  0.870400  0.543600  0.537200  1
  C  C764  1  0.129600  0.043600  0.962800  1
  C  C765  1  0.075500  0.421400  0.449400  1
  C  C766  1  0.924500  0.921400  0.050600  1
  C  C767  1  0.924500  0.578600  0.550600  1
  C  C768  1  0.075500  0.078600  0.949400  1
  C  C769  1  0.044100  0.382200  0.380500  1
  C  C770  1  0.955900  0.882200  0.119500  1
  C  C771  1  0.955900  0.617800  0.619500  1
  C  C772  1  0.044100  0.117800  0.880500  1
  C  C773  1  0.068000  0.330700  0.390100  1
  C  C774  1  0.932000  0.830700  0.109900  1
  C  C775  1  0.932000  0.669300  0.609900  1
  C  C776  1  0.068000  0.169300  0.890100  1
  C  C777  1  0.156100  0.320900  0.396800  1
  C  C778  1  0.843900  0.820900  0.103200  1
  C  C779  1  0.843900  0.679100  0.603200  1
  C  C780  1  0.156100  0.179100  0.896800  1
  C  C781  1  0.284100  0.322600  0.363180  1
  C  C782  1  0.715900  0.822600  0.136820  1
  C  C783  1  0.715900  0.677400  0.636820  1
  C  C784  1  0.284100  0.177400  0.863180  1
  C  C785  1  0.330200  0.328200  0.325730  1
  C  C786  1  0.669800  0.828200  0.174270  1
  C  C787  1  0.669800  0.671800  0.674270  1
  C  C788  1  0.330200  0.171800  0.825730  1
  C  C789  1  0.411700  0.328100  0.328850  1
  C  C790  1  0.588300  0.828100  0.171150  1
  C  C791  1  0.588300  0.671900  0.671150  1
  C  C792  1  0.411700  0.171900  0.828850  1
  C  C793  1  0.858300  0.377900  0.308000  1
  C  C794  1  0.141700  0.877900  0.192000  1
  C  C795  1  0.141700  0.622100  0.692000  1
  C  C796  1  0.858300  0.122100  0.808000  1
  C  C797  1  0.882700  0.331600  0.258500  1
  C  C798  1  0.117300  0.831600  0.241500  1
  C  C799  1  0.117300  0.668400  0.741500  1
  C  C800  1  0.882700  0.168400  0.758500  1
  C  C801  1  0.865200  0.302500  0.289100  1
  C  C802  1  0.134800  0.802500  0.210900  1
  C  C803  1  0.134800  0.697500  0.710900  1
  C  C804  1  0.865200  0.197500  0.789100  1
  C  C805  1  0.814000  0.317700  0.358400  1
  C  C806  1  0.186000  0.817700  0.141600  1
  C  C807  1  0.186000  0.682300  0.641600  1
  C  C808  1  0.814000  0.182300  0.858400  1
  C  C809  1  0.723400  0.306900  0.352200  1
  C  C810  1  0.276600  0.806900  0.147800  1
  C  C811  1  0.276600  0.693100  0.647800  1
  C  C812  1  0.723400  0.193100  0.852200  1
  C  C813  1  0.676200  0.348900  0.333333  1
  C  C814  1  0.323800  0.848900  0.166667  1
  C  C815  1  0.323800  0.651100  0.666667  1
  C  C816  1  0.676200  0.151100  0.833333  1
  C  C817  1  0.549400  0.328900  0.295800  1
  C  C818  1  0.450600  0.828900  0.204200  1
  C  C819  1  0.450600  0.671100  0.704200  1
  C  C820  1  0.549400  0.171100  0.795800  1
  C  C821  1  0.456400  0.329400  0.293710  1
  C  C822  1  0.543600  0.829400  0.206290  1
  C  C823  1  0.543600  0.670600  0.706290  1
  C  C824  1  0.456400  0.170600  0.793710  1
  C  C825  1  0.418800  0.329770  0.256770  1
  C  C826  1  0.581200  0.829770  0.243230  1
  C  C827  1  0.581200  0.670230  0.743230  1
  C  C828  1  0.418800  0.170230  0.756770  1
  C  C829  1  0.266000  0.348300  0.088870  1
  C  C830  1  0.734000  0.848300  0.411130  1
  C  C831  1  0.734000  0.651700  0.911130  1
  C  C832  1  0.266000  0.151700  0.588870  1
  C  C833  1  0.172400  0.341300  0.040900  1
  C  C834  1  0.827600  0.841300  0.459100  1
  C  C835  1  0.827600  0.658700  0.959100  1
  C  C836  1  0.172400  0.158700  0.540900  1
  C  C837  1  0.189100  0.296900  0.057100  1
  C  C838  1  0.810900  0.796900  0.442900  1
  C  C839  1  0.810900  0.703100  0.942900  1
  C  C840  1  0.189100  0.203100  0.557100  1
  C  C841  1  0.272400  0.264100  0.116800  1
  C  C842  1  0.727600  0.764100  0.383200  1
  C  C843  1  0.727600  0.735900  0.883200  1
  C  C844  1  0.272400  0.235900  0.616800  1
  C  C845  1  0.204400  0.250500  0.144000  1
  C  C846  1  0.795600  0.750500  0.356000  1
  C  C847  1  0.795600  0.749500  0.856000  1
  C  C848  1  0.204400  0.249500  0.644000  1
  C  C849  1  0.176400  0.290800  0.170400  1
  C  C850  1  0.823600  0.790800  0.329600  1
  C  C851  1  0.823600  0.709200  0.829600  1
  C  C852  1  0.176400  0.209200  0.670400  1
  C  C853  1  0.292600  0.326100  0.210700  1
  C  C854  1  0.707400  0.826100  0.289300  1
  C  C855  1  0.707400  0.673900  0.789300  1
  C  C856  1  0.292600  0.173900  0.710700  1
  C  C857  1  0.333100  0.328800  0.252460  1
  C  C858  1  0.666900  0.828800  0.247540  1
  C  C859  1  0.666900  0.671200  0.747540  1
  C  C860  1  0.333100  0.171200  0.752460  1
  C  C861  1  0.289000  0.328300  0.286970  1
  C  C862  1  0.711000  0.828300  0.213030  1
  C  C863  1  0.711000  0.671700  0.713030  1
  C  C864  1  0.289000  0.171700  0.786970  1
  C  C865  1  0.369600  0.599100  0.400590  1
  C  C866  1  0.630400  0.099100  0.099410  1
  C  C867  1  0.630400  0.400900  0.599410  1
  C  C868  1  0.369600  0.900900  0.900590  1
  C  C869  1  0.349200  0.615500  0.463400  1
  C  C870  1  0.650800  0.115500  0.036600  1
  C  C871  1  0.650800  0.384500  0.536600  1
  C  C872  1  0.349200  0.884500  0.963400  1
  C  C873  1  0.397600  0.650600  0.450000  1
  C  C874  1  0.602400  0.150600  0.050000  1
  C  C875  1  0.602400  0.349400  0.550000  1
  C  C876  1  0.397600  0.849400  0.950000  1
  C  C877  1  0.456200  0.670900  0.382400  1
  C  C878  1  0.543800  0.170900  0.117600  1
  C  C879  1  0.543800  0.329100  0.617600  1
  C  C880  1  0.456200  0.829100  0.882400  1
  C  C881  1  0.398400  0.708300  0.362200  1
  C  C882  1  0.601600  0.208300  0.137800  1
  C  C883  1  0.601600  0.291700  0.637800  1
  C  C884  1  0.398400  0.791700  0.862200  1
  C  C885  1  0.445200  0.745000  0.337200  1
  C  C886  1  0.554800  0.245000  0.162800  1
  C  C887  1  0.554800  0.255000  0.662800  1
  C  C888  1  0.445200  0.755000  0.837200  1
  C  C889  1  0.543200  0.713100  0.291600  1
  C  C890  1  0.456800  0.213100  0.208400  1
  C  C891  1  0.456800  0.286900  0.708400  1
  C  C892  1  0.543200  0.786900  0.791600  1
  C  C893  1  0.566300  0.707100  0.247700  1
  C  C894  1  0.433700  0.207100  0.252300  1
  C  C895  1  0.433700  0.292900  0.752300  1
  C  C896  1  0.566300  0.792900  0.747700  1
  C  C897  1  0.646400  0.707900  0.241500  1
  C  C898  1  0.353600  0.207900  0.258500  1
  C  C899  1  0.353600  0.292100  0.758500  1
  C  C900  1  0.646400  0.792100  0.741500  1
  C  C901  1  0.896600  0.528600  0.187900  1
  C  C902  1  0.103400  0.028600  0.312100  1
  C  C903  1  0.103400  0.471400  0.812100  1
  C  C904  1  0.896600  0.971400  0.687900  1
  C  C905  1  0.020700  0.517200  0.210600  1
  C  C906  1  0.979300  0.017200  0.289400  1
  C  C907  1  0.979300  0.482800  0.789400  1
  C  C908  1  0.020700  0.982800  0.710600  1
  C  C909  1  0.018700  0.559000  0.191000  1
  C  C910  1  0.981300  0.059000  0.309000  1
  C  C911  1  0.981300  0.441000  0.809000  1
  C  C912  1  0.018700  0.941000  0.691000  1
  C  C913  1  0.908100  0.611100  0.154200  1
  C  C914  1  0.091900  0.111100  0.345800  1
  C  C915  1  0.091900  0.388900  0.845800  1
  C  C916  1  0.908100  0.888900  0.654200  1
  C  C917  1  0.924700  0.656800  0.176400  1
  C  C918  1  0.075300  0.156800  0.323600  1
  C  C919  1  0.075300  0.343200  0.823600  1
  C  C920  1  0.924700  0.843200  0.676400  1
  C  C921  1  0.879700  0.698900  0.156700  1
  C  C922  1  0.120300  0.198900  0.343300  1
  C  C923  1  0.120300  0.301100  0.843300  1
  C  C924  1  0.879700  0.801100  0.656700  1
  C  C925  1  0.764700  0.710400  0.198100  1
  C  C926  1  0.235300  0.210400  0.301900  1
  C  C927  1  0.235300  0.289600  0.801900  1
  C  C928  1  0.764700  0.789600  0.698100  1
  C  C929  1  0.675100  0.705700  0.202800  1
  C  C930  1  0.324900  0.205700  0.297200  1
  C  C931  1  0.324900  0.294300  0.797200  1
  C  C932  1  0.675100  0.794300  0.702800  1
  C  C933  1  0.617500  0.702100  0.169500  1
  C  C934  1  0.382500  0.202100  0.330500  1
  C  C935  1  0.382500  0.297900  0.830500  1
  C  C936  1  0.617500  0.797900  0.669500  1
  C  C937  1  0.296400  0.547500  0.065900  1
  C  C938  1  0.703600  0.047500  0.434100  1
  C  C939  1  0.703600  0.452500  0.934100  1
  C  C940  1  0.296400  0.952500  0.565900  1
  C  C941  1  0.231700  0.543700  0.008100  1
  C  C942  1  0.768300  0.043700  0.491900  1
  C  C943  1  0.768300  0.456300  0.991900  1
  C  C944  1  0.231700  0.956300  0.508100  1
  C  C945  1  0.254800  0.591300  0.016100  1
  C  C946  1  0.745200  0.091300  0.483900  1
  C  C947  1  0.745200  0.408700  0.983900  1
  C  C948  1  0.254800  0.908700  0.516100  1
  C  C949  1  0.332100  0.637100  0.073100  1
  C  C950  1  0.667900  0.137100  0.426900  1
  C  C951  1  0.667900  0.362900  0.926900  1
  C  C952  1  0.332100  0.862900  0.573100  1
  C  C953  1  0.402000  0.654900  0.050600  1
  C  C954  1  0.598000  0.154900  0.449400  1
  C  C955  1  0.598000  0.345100  0.949400  1
  C  C956  1  0.402000  0.845100  0.550600  1
  C  C957  1  0.442100  0.702600  0.067100  1
  C  C958  1  0.557900  0.202600  0.432900  1
  C  C959  1  0.557900  0.297400  0.932900  1
  C  C960  1  0.442100  0.797400  0.567100  1
  C  C961  1  0.472000  0.700400  0.140100  1
  C  C962  1  0.528000  0.200400  0.359900  1
  C  C963  1  0.528000  0.299600  0.859900  1
  C  C964  1  0.472000  0.799600  0.640100  1
  C  C965  1  0.535700  0.700600  0.175800  1
  C  C966  1  0.464300  0.200600  0.324200  1
  C  C967  1  0.464300  0.299400  0.824200  1
  C  C968  1  0.535700  0.799400  0.675800  1
  C  C969  1  0.509500  0.703200  0.214900  1
  C  C970  1  0.490500  0.203200  0.285100  1
  C  C971  1  0.490500  0.296800  0.785100  1
  C  C972  1  0.509500  0.796800  0.714900  1
  N  N973  1  0.118900  0.399700  0.271400  1
  N  N974  1  0.881100  0.899700  0.228600  1
  N  N975  1  0.881100  0.600300  0.728600  1
  N  N976  1  0.118900  0.100300  0.771400  1
  N  N977  1  0.381400  0.632200  0.570100  1
  N  N978  1  0.618600  0.132200  0.929900  1
  N  N979  1  0.618600  0.367800  0.429900  1
  N  N980  1  0.381400  0.867800  0.070100  1
  N  N981  1  0.484900  0.708000  0.934500  1
  N  N982  1  0.515100  0.208000  0.565500  1
  N  N983  1  0.515100  0.292000  0.065500  1
  N  N984  1  0.484900  0.792000  0.434500  1
  N  N985  1  0.220600  0.449700  0.913800  1
  N  N986  1  0.779400  0.949700  0.586200  1
  N  N987  1  0.779400  0.550300  0.086200  1
  N  N988  1  0.220600  0.050300  0.413800  1
  N  N989  1  0.130000  0.624700  0.509100  1
  N  N990  1  0.870000  0.124700  0.990900  1
  N  N991  1  0.870000  0.375300  0.490900  1
  N  N992  1  0.130000  0.875300  0.009100  1
  N  N993  1  0.126200  0.648300  0.130100  1
  N  N994  1  0.873800  0.148300  0.369900  1
  N  N995  1  0.873800  0.351700  0.869900  1
  N  N996  1  0.126200  0.851700  0.630100  1
  N  N997  1  0.319900  0.491620  0.475830  1
  N  N998  1  0.680100  0.991620  0.024170  1
  N  N999  1  0.680100  0.508380  0.524170  1
  N  N1000  1  0.319900  0.008380  0.975830  1
  N  N1001  1  0.441100  0.454500  0.361330  1
  N  N1002  1  0.558900  0.954500  0.138670  1
  N  N1003  1  0.558900  0.545500  0.638670  1
  N  N1004  1  0.441100  0.045500  0.861330  1
  N  N1005  1  0.892900  0.401790  0.184410  1
  N  N1006  1  0.107100  0.901790  0.315590  1
  N  N1007  1  0.107100  0.598210  0.815590  1
  N  N1008  1  0.892900  0.098210  0.684410  1
  N  N1009  1  0.611400  0.407930  0.199300  1
  N  N1010  1  0.388600  0.907930  0.300700  1
  N  N1011  1  0.388600  0.592070  0.800700  1
  N  N1012  1  0.611400  0.092070  0.699300  1
  N  N1013  1  0.122500  0.457500  0.058060  1
  N  N1014  1  0.877500  0.957500  0.441940  1
  N  N1015  1  0.877500  0.542500  0.941940  1
  N  N1016  1  0.122500  0.042500  0.558060  1
  N  N1017  1  0.229600  0.454500  0.188190  1
  N  N1018  1  0.770400  0.954500  0.311810  1
  N  N1019  1  0.770400  0.545500  0.811810  1
  N  N1020  1  0.229600  0.045500  0.688190  1
  N  N1021  1  0.186400  0.564710  0.389160  1
  N  N1022  1  0.813600  0.064710  0.110840  1
  N  N1023  1  0.813600  0.435290  0.610840  1
  N  N1024  1  0.186400  0.935290  0.889160  1
  N  N1025  1  0.145800  0.593280  0.328840  1
  N  N1026  1  0.854200  0.093280  0.171160  1
  N  N1027  1  0.854200  0.406720  0.671160  1
  N  N1028  1  0.145800  0.906720  0.828840  1
  N  N1029  1  0.355500  0.605400  0.256810  1
  N  N1030  1  0.644500  0.105400  0.243190  1
  N  N1031  1  0.644500  0.394600  0.743190  1
  N  N1032  1  0.355500  0.894600  0.756810  1
  N  N1033  1  0.919300  0.479010  0.288740  1
  N  N1034  1  0.080700  0.979010  0.211260  1
  N  N1035  1  0.080700  0.520990  0.711260  1
  N  N1036  1  0.919300  0.020990  0.788740  1
  N  N1037  1  0.887100  0.529830  0.335720  1
  N  N1038  1  0.112900  0.029830  0.164280  1
  N  N1039  1  0.112900  0.470170  0.664280  1
  N  N1040  1  0.887100  0.970170  0.835720  1
  N  N1041  1  0.747000  0.609620  0.286740  1
  N  N1042  1  0.253000  0.109620  0.213260  1
  N  N1043  1  0.253000  0.390380  0.713260  1
  N  N1044  1  0.747000  0.890380  0.786740  1
  N  N1045  1  0.360600  0.431100  0.045670  1
  N  N1046  1  0.639400  0.931100  0.454330  1
  N  N1047  1  0.639400  0.568900  0.954330  1
  N  N1048  1  0.360600  0.068900  0.545670  1
  N  N1049  1  0.490500  0.426900  0.059640  1
  N  N1050  1  0.509500  0.926900  0.440360  1
  N  N1051  1  0.509500  0.573100  0.940360  1
  N  N1052  1  0.490500  0.073100  0.559640  1
  N  N1053  1  0.579300  0.540600  0.113040  1
  N  N1054  1  0.420700  0.040600  0.386960  1
  N  N1055  1  0.420700  0.459400  0.886960  1
  N  N1056  1  0.579300  0.959400  0.613040  1
  N  N1057  1  0.170400  0.474440  0.431160  1
  N  N1058  1  0.829600  0.974440  0.068840  1
  N  N1059  1  0.829600  0.525560  0.568840  1
  N  N1060  1  0.170400  0.025560  0.931160  1
  N  N1061  1  0.085700  0.417410  0.408420  1
  N  N1062  1  0.914300  0.917410  0.091580  1
  N  N1063  1  0.914300  0.582590  0.591580  1
  N  N1064  1  0.085700  0.082590  0.908420  1
  N  N1065  1  0.204500  0.332100  0.362250  1
  N  N1066  1  0.795500  0.832100  0.137750  1
  N  N1067  1  0.795500  0.667900  0.637750  1
  N  N1068  1  0.204500  0.167900  0.862250  1
  N  N1069  1  0.879700  0.379210  0.270080  1
  N  N1070  1  0.120300  0.879210  0.229920  1
  N  N1071  1  0.120300  0.620790  0.729920  1
  N  N1072  1  0.879700  0.120790  0.770080  1
  N  N1073  1  0.847600  0.332800  0.320990  1
  N  N1074  1  0.152400  0.832800  0.179010  1
  N  N1075  1  0.152400  0.667200  0.679010  1
  N  N1076  1  0.847600  0.167200  0.820990  1
  N  N1077  1  0.588900  0.342800  0.330330  1
  N  N1078  1  0.411100  0.842800  0.169670  1
  N  N1079  1  0.411100  0.657200  0.669670  1
  N  N1080  1  0.588900  0.157200  0.830330  1
  N  N1081  1  0.226100  0.373700  0.060180  1
  N  N1082  1  0.773900  0.873700  0.439820  1
  N  N1083  1  0.773900  0.626300  0.939820  1
  N  N1084  1  0.226100  0.126300  0.560180  1
  N  N1085  1  0.244200  0.301400  0.087760  1
  N  N1086  1  0.755800  0.801400  0.412240  1
  N  N1087  1  0.755800  0.698600  0.912240  1
  N  N1088  1  0.244200  0.198600  0.587760  1
  N  N1089  1  0.226000  0.298680  0.207800  1
  N  N1090  1  0.774000  0.798680  0.292200  1
  N  N1091  1  0.774000  0.701320  0.792200  1
  N  N1092  1  0.226000  0.201320  0.707800  1
  N  N1093  1  0.332300  0.583310  0.432350  1
  N  N1094  1  0.667700  0.083310  0.067650  1
  N  N1095  1  0.667700  0.416690  0.567650  1
  N  N1096  1  0.332300  0.916690  0.932350  1
  N  N1097  1  0.410800  0.639720  0.410590  1
  N  N1098  1  0.589200  0.139720  0.089410  1
  N  N1099  1  0.589200  0.360280  0.589410  1
  N  N1100  1  0.410800  0.860280  0.910590  1
  N  N1101  1  0.468500  0.726000  0.298210  1
  N  N1102  1  0.531500  0.226000  0.201790  1
  N  N1103  1  0.531500  0.274000  0.701790  1
  N  N1104  1  0.468500  0.774000  0.798210  1
  N  N1105  1  0.941000  0.498100  0.207580  1
  N  N1106  1  0.059000  0.998100  0.292420  1
  N  N1107  1  0.059000  0.501900  0.792420  1
  N  N1108  1  0.941000  0.001900  0.707580  1
  N  N1109  1  0.940100  0.567700  0.176170  1
  N  N1110  1  0.059900  0.067700  0.323830  1
  N  N1111  1  0.059900  0.432300  0.823830  1
  N  N1112  1  0.940100  0.932300  0.676170  1
  N  N1113  1  0.794300  0.696900  0.162670  1
  N  N1114  1  0.205700  0.196900  0.337330  1
  N  N1115  1  0.205700  0.303100  0.837330  1
  N  N1116  1  0.794300  0.803100  0.662670  1
  N  N1117  1  0.259600  0.517900  0.041830  1
  N  N1118  1  0.740400  0.017900  0.458170  1
  N  N1119  1  0.740400  0.482100  0.958170  1
  N  N1120  1  0.259600  0.982100  0.541830  1
  N  N1121  1  0.293100  0.593900  0.052110  1
  N  N1122  1  0.706900  0.093900  0.447890  1
  N  N1123  1  0.706900  0.406100  0.947890  1
  N  N1124  1  0.293100  0.906100  0.552110  1
  N  N1125  1  0.495600  0.694100  0.103480  1
  N  N1126  1  0.504400  0.194100  0.396520  1
  N  N1127  1  0.504400  0.305900  0.896520  1
  N  N1128  1  0.495600  0.805900  0.603480  1
  O  O1129  1  0.104900  0.405400  0.237000  1
  O  O1130  1  0.895100  0.905400  0.263000  1
  O  O1131  1  0.895100  0.594600  0.763000  1
  O  O1132  1  0.104900  0.094600  0.737000  1
  O  O1133  1  0.157200  0.426200  0.293700  1
  O  O1134  1  0.842800  0.926200  0.206300  1
  O  O1135  1  0.842800  0.573800  0.706300  1
  O  O1136  1  0.157200  0.073800  0.793700  1
  O  O1137  1  0.094000  0.359000  0.287320  1
  O  O1138  1  0.906000  0.859000  0.212680  1
  O  O1139  1  0.906000  0.641000  0.712680  1
  O  O1140  1  0.094000  0.141000  0.787320  1
  O  O1141  1  0.433300  0.613000  0.592900  1
  O  O1142  1  0.566700  0.113000  0.907100  1
  O  O1143  1  0.566700  0.387000  0.407100  1
  O  O1144  1  0.433300  0.887000  0.092900  1
  O  O1145  1  0.399700  0.673500  0.555100  1
  O  O1146  1  0.600300  0.173500  0.944900  1
  O  O1147  1  0.600300  0.326500  0.444900  1
  O  O1148  1  0.399700  0.826500  0.055100  1
  O  O1149  1  0.308300  0.615600  0.561940  1
  O  O1150  1  0.691700  0.115600  0.938060  1
  O  O1151  1  0.691700  0.384400  0.438060  1
  O  O1152  1  0.308300  0.884400  0.061940  1
  O  O1153  1  0.554300  0.713500  0.921800  1
  O  O1154  1  0.445700  0.213500  0.578200  1
  O  O1155  1  0.445700  0.286500  0.078200  1
  O  O1156  1  0.554300  0.786500  0.421800  1
  O  O1157  1  0.436600  0.681300  0.916300  1
  O  O1158  1  0.563400  0.181300  0.583700  1
  O  O1159  1  0.563400  0.318700  0.083700  1
  O  O1160  1  0.436600  0.818700  0.416300  1
  O  O1161  1  0.461400  0.729200  0.965600  1
  O  O1162  1  0.538600  0.229200  0.534400  1
  O  O1163  1  0.538600  0.270800  0.034400  1
  O  O1164  1  0.461400  0.770800  0.465600  1
  O  O1165  1  0.207400  0.488200  0.899600  1
  O  O1166  1  0.792600  0.988200  0.600400  1
  O  O1167  1  0.792600  0.511800  0.100400  1
  O  O1168  1  0.207400  0.011800  0.399600  1
  O  O1169  1  0.261000  0.417900  0.893800  1
  O  O1170  1  0.739000  0.917900  0.606200  1
  O  O1171  1  0.739000  0.582100  0.106200  1
  O  O1172  1  0.261000  0.082100  0.393800  1
  O  O1173  1  0.199900  0.437300  0.946300  1
  O  O1174  1  0.800100  0.937300  0.553700  1
  O  O1175  1  0.800100  0.562700  0.053700  1
  O  O1176  1  0.199900  0.062700  0.446300  1
  O  O1177  1  0.129200  0.578300  0.496400  1
  O  O1178  1  0.870800  0.078300  0.003600  1
  O  O1179  1  0.870800  0.421700  0.503600  1
  O  O1180  1  0.129200  0.921700  0.996400  1
  O  O1181  1  0.151200  0.662200  0.486500  1
  O  O1182  1  0.848800  0.162200  0.013500  1
  O  O1183  1  0.848800  0.337800  0.513500  1
  O  O1184  1  0.151200  0.837800  0.986500  1
  O  O1185  1  0.107400  0.633500  0.546000  1
  O  O1186  1  0.892600  0.133500  0.954000  1
  O  O1187  1  0.892600  0.366500  0.454000  1
  O  O1188  1  0.107400  0.866500  0.046000  1
  O  O1189  1  0.090200  0.621700  0.107700  1
  O  O1190  1  0.909800  0.121700  0.392300  1
  O  O1191  1  0.909800  0.378300  0.892300  1
  O  O1192  1  0.090200  0.878300  0.607700  1
  O  O1193  1  0.145800  0.690700  0.118900  1
  O  O1194  1  0.854200  0.190700  0.381100  1
  O  O1195  1  0.854200  0.309300  0.881100  1
  O  O1196  1  0.145800  0.809300  0.618900  1
  O  O1197  1  0.155300  0.635200  0.164300  1
  O  O1198  1  0.844700  0.135200  0.335700  1
  O  O1199  1  0.844700  0.364800  0.835700  1
  O  O1200  1  0.155300  0.864800  0.664300  1
  O  O1201  1  0.322300  0.487580  0.337770  1
  O  O1202  1  0.677700  0.987580  0.162230  1
  O  O1203  1  0.677700  0.512420  0.662230  1
  O  O1204  1  0.322300  0.012420  0.837770  1
  O  O1205  1  0.654900  0.445550  0.257500  1
  O  O1206  1  0.345100  0.945550  0.242500  1
  O  O1207  1  0.345100  0.554450  0.742500  1
  O  O1208  1  0.654900  0.054450  0.757500  1
  O  O1209  1  0.332100  0.456700  0.146310  1
  O  O1210  1  0.667900  0.956700  0.353690  1
  O  O1211  1  0.667900  0.543300  0.853690  1
  O  O1212  1  0.332100  0.043300  0.646310  1
  O  O1213  1  0.436200  0.582560  0.310790  1
  O  O1214  1  0.563800  0.082560  0.189210  1
  O  O1215  1  0.563800  0.417440  0.689210  1
  O  O1216  1  0.436200  0.917440  0.810790  1
  O  O1217  1  0.777000  0.589300  0.223500  1
  O  O1218  1  0.223000  0.089300  0.276500  1
  O  O1219  1  0.223000  0.410700  0.776500  1
  O  O1220  1  0.777000  0.910700  0.723500  1
  O  O1221  1  0.447700  0.546000  0.124710  1
  O  O1222  1  0.552300  0.046000  0.375290  1
  O  O1223  1  0.552300  0.454000  0.875290  1
  O  O1224  1  0.447700  0.954000  0.624710  1
  O  O1225  1  0.320300  0.307100  0.394280  1
  O  O1226  1  0.679700  0.807100  0.105720  1
  O  O1227  1  0.679700  0.692900  0.605720  1
  O  O1228  1  0.320300  0.192900  0.894280  1
  O  O1229  1  0.584700  0.317500  0.265620  1
  O  O1230  1  0.415300  0.817500  0.234380  1
  O  O1231  1  0.415300  0.682500  0.734380  1
  O  O1232  1  0.584700  0.182500  0.765620  1
  O  O1233  1  0.320000  0.346860  0.181440  1
  O  O1234  1  0.680000  0.846860  0.318560  1
  O  O1235  1  0.680000  0.653140  0.818560  1
  O  O1236  1  0.320000  0.153140  0.681440  1
  O  O1237  1  0.596100  0.708300  0.319610  1
  O  O1238  1  0.403900  0.208300  0.180390  1
  O  O1239  1  0.403900  0.291700  0.680390  1
  O  O1240  1  0.596100  0.791700  0.819610  1
  O  O1241  1  0.807800  0.725400  0.227260  1
  O  O1242  1  0.192200  0.225400  0.272740  1
  O  O1243  1  0.192200  0.274600  0.772740  1
  O  O1244  1  0.807800  0.774600  0.727260  1
  O  O1245  1  0.400000  0.707700  0.145910  1
  O  O1246  1  0.600000  0.207700  0.354090  1
  O  O1247  1  0.600000  0.292300  0.854090  1
  O  O1248  1  0.400000  0.792300  0.645910  1
