
#######################################################################
#
#                 Cambridge Crystallographic Data Centre
#                                CCDC 
#
#######################################################################
#
# If this CIF has been generated from an entry in the Cambridge 
# Structural Database, then it will include bibliographic, chemical, 
# crystal, experimental, refinement or atomic coordinate data resulting 
# from the CCDC's data processing and validation procedures.
#
#######################################################################

data_FAJRIU
_chemical_formula_moiety         
'C111 H129 N33 O12 Pd3 6+,6(N1 O3 1-),3(C3 H6 O1),10(H2 O1)'
_chemical_name_systematic        
"tris(\m~3~-N,N',N''-tris(3-(1H-Imidazol-1-yl)propyl)benzene-1,3,5-tricarboxamide)-(\m~3~-N,N',N''-tris(2-(pyridin-2-yl)ethyl)benzene-1,3,5-tricarboxamide)-tri-palladium(ii) hexanitrate acetone solvate decahydrate"
_symmetry_cell_setting           monoclinic
_symmetry_space_group_name_H-M   'P 21/c'
_symmetry_Int_Tables_number      14
_space_group_name_Hall           '-P 2ybc'
loop_
_symmetry_equiv_pos_site_id
_symmetry_equiv_pos_as_xyz
1 x,y,z
2 -x,1/2+y,1/2-z
3 -x,-y,-z
4 x,1/2-y,1/2+z
_cell_length_a                   16.477(2)
_cell_length_b                   27.521(4)
_cell_length_c                   32.961(4)
_cell_angle_alpha                90
_cell_angle_beta                 93.876(8)
_cell_angle_gamma                90
_cell_volume                     14912.4
_exptl_crystal_colour            colorless
_exptl_crystal_description       block
_cell_formula_units_Z            4
loop_
_atom_site_label
_atom_site_type_symbol
_atom_site_fract_x
_atom_site_fract_y
_atom_site_fract_z
O13 O 0.1049(5) 0.4054(3) 0.2370(2)
O14 O 0.1572(4) 0.4262(3) 0.2937(3)
O15 O 0.0940(4) 0.3590(3) 0.28732(19)
N34 N 0.1189(4) 0.3997(3) 0.2714(3)
O16 O 0.4333(5) 0.6130(3) 0.5929(2)
O17 O 0.3997(5) 0.6735(3) 0.5551(3)
O18 O 0.3083(5) 0.6156(3) 0.56194(19)
N35 N 0.3814(6) 0.6322(4) 0.5701(2)
O19 O 0.5543(6) 0.7135(3) 0.9218(2)
O20 O 0.4366(6) 0.6813(3) 0.9163(2)
O21 O 0.4614(6) 0.7292(3) 0.9656(2)
N36 N 0.4849(7) 0.7080(3) 0.9345(2)
O22 O 0.2074(7) 0.4882(6) 0.8996(4)
O23 O 0.2610(5) 0.4179(6) 0.8938(3)
O24 O 0.1999(7) 0.4373(4) 0.9463(3)
N37 N 0.2206(5) 0.4497(6) 0.9138(4)
O25 O 0.1292(4) 0.5783(3) 0.4964(2)
O26 O 0.1512(7) 0.6622(4) 0.4865(3)
O27 O 0.1074(8) 0.6335(5) 0.5460(3)
N38 N 0.1300(7) 0.6247(5) 0.5091(3)
O28 O 0.0902(11) 0.6217(8) 0.1077(7)
O29 O 0.1458(16) 0.6907(7) 0.1189(7)
O30 O 0.1553(8) 0.6352(8) 0.1643(5)
N39 N 0.1262(11) 0.6483(9) 0.1301(7)
Pd1 Pd 0.25173(3) 0.527972(16) 0.431888(13)
Pd2 Pd 0.90763(3) 0.438617(18) 0.237969(15)
Pd3 Pd 0.24218(3) 0.445152(18) 0.051207(14)
O1 O 0.3223(3) 0.48758(19) 0.33777(13)
O2 O 0.6549(3) 0.44555(17) 0.25750(14)
O3 O 0.3321(3) 0.4567(2) 0.14631(13)
O4 O 0.4362(3) 0.58256(18) 0.31079(13)
O5 O 0.7770(3) 0.5893(2) 0.22350(15)
O6 O 0.4477(3) 0.5460(2) 0.12471(15)
O7 O 0.3203(3) 0.3071(2) 0.39428(15)
O8 O 0.5847(3) 0.3175(2) 0.26562(15)
O9 O 0.3200(3) 0.34686(17) 0.18144(13)
O10 O 0.5961(3) 0.7083(2) 0.31961(16)
O11 O 0.8078(3) 0.72540(18) 0.22726(15)
O12 O 0.4000(4) 0.7077(2) 0.14591(17)
N1 N 0.3199(3) 0.49162(18) 0.47583(14)
N2 N 0.4411(3) 0.4545(2) 0.36133(15)
H1 H 0.4825 0.4361 0.3556
N3 N 0.8929(3) 0.40179(18) 0.18441(16)
N4 N 0.6114(3) 0.40793(19) 0.19930(15)
H2 H 0.5704 0.4033 0.1812
N5 N 0.1225(3) 0.4575(2) 0.05806(16)
N6 N 0.2296(3) 0.4545(2) 0.18819(15)
H3 H 0.2135 0.4592 0.2128
N7 N 0.1864(3) 0.56471(16) 0.38916(14)
N8 N 0.1458(3) 0.59328(18) 0.32884(15)
N9 N 0.3555(3) 0.6054(2) 0.25681(16)
H4 H 0.3519 0.6095 0.2303
N10 N 0.9193(3) 0.47901(17) 0.28874(14)
N11 N 0.8871(3) 0.52983(19) 0.33572(15)
N12 N 0.7470(3) 0.60962(18) 0.28674(15)
H5 H 0.7100 0.6113 0.3047
N13 N 0.3606(3) 0.4311(2) 0.04567(15)
N14 N 0.4905(3) 0.4269(2) 0.05964(16)
N15 N 0.5793(3) 0.5406(2) 0.11304(16)
H6 H 0.6294 0.5405 0.1242
N16 N 0.1704(3) 0.47444(17) 0.43116(15)
N17 N 0.0857(3) 0.41741(19) 0.40842(15)
N18 N 0.2045(3) 0.3321(2) 0.36225(15)
H7 H 0.1805 0.3455 0.3403
N19 N 0.8797(3) 0.37921(19) 0.27008(17)
N20 N 0.8476(3) 0.3328(2) 0.32099(17)
N21 N 0.5889(3) 0.3428(2) 0.33033(18)
H8 H 0.5613 0.3483 0.3518
N22 N 0.2261(4) 0.3737(2) 0.06018(16)
N23 N 0.2442(4) 0.3014(2) 0.08776(17)
N24 N 0.2260(3) 0.29868(19) 0.20780(16)
H9 H 0.2111 0.2844 0.2300
N25 N 0.3323(3) 0.58331(18) 0.43235(15)
N26 N 0.4108(3) 0.63972(19) 0.41059(15)
N27 N 0.4685(4) 0.7260(2) 0.29821(18)
H10 H 0.4306 0.7230 0.2782
N28 N 0.9410(3) 0.4981(2) 0.20758(16)
N29 N 0.9401(3) 0.5677(2) 0.17617(16)
N30 N 0.7943(4) 0.6969(2) 0.16267(19)
H11 H 0.7604 0.6866 0.1427
N31 N 0.2596(3) 0.5179(2) 0.04183(17)
N32 N 0.2931(4) 0.5939(2) 0.05211(19)
N33 N 0.4956(5) 0.6941(2) 0.10348(18)
H12 H 0.5457 0.6843 0.1006
C1 C 0.3121(4) 0.5046(2) 0.51441(17)
H13 H 0.2746 0.5294 0.5202
C2 C 0.3568(4) 0.4828(3) 0.54564(19)
H14 H 0.3520 0.4937 0.5727
C3 C 0.4075(5) 0.4462(3) 0.5385(2)
H15 H 0.4398 0.4317 0.5602
C4 C 0.4124(5) 0.4298(3) 0.4990(2)
H16 H 0.4466 0.4032 0.4936
C5 C 0.3670(4) 0.4525(3) 0.46745(19)
C6 C 0.3705(5) 0.4360(2) 0.4233(2)
H17 H 0.3166 0.4395 0.4085
H18 H 0.3873 0.4015 0.4222
C7 C 0.4335(4) 0.4688(2) 0.4044(2)
H19 H 0.4161 0.5032 0.4058
H20 H 0.4869 0.4656 0.4199
C8 C 0.3893(4) 0.4679(2) 0.33153(18)
C9 C 0.4112(3) 0.4601(2) 0.28863(16)
C10 C 0.4903(3) 0.45143(19) 0.27943(17)
H21 H 0.5313 0.4496 0.3011
C11 C 0.9585(4) 0.3782(3) 0.1715(2)
H22 H 1.0076 0.3774 0.1884
C12 C 0.9552(5) 0.3552(3) 0.1341(3)
H23 H 1.0008 0.3379 0.1254
C13 C 0.8858(5) 0.3581(3) 0.1103(2)
H24 H 0.8838 0.3440 0.0839
C14 C 0.8191(5) 0.3804(3) 0.1229(2)
H25 H 0.7701 0.3807 0.1059
C15 C 0.8223(4) 0.4028(2) 0.16074(19)
C16 C 0.7491(4) 0.4275(2) 0.1766(2)
H26 H 0.7208 0.4470 0.1547
H27 H 0.7666 0.4497 0.1992
C17 C 0.6905(4) 0.3880(2) 0.1918(2)
H28 H 0.6836 0.3618 0.1712
H29 H 0.7150 0.3734 0.2173
C18 C 0.5992(4) 0.4331(2) 0.23288(18)
C19 C 0.5123(3) 0.44532(19) 0.24037(17)
C20 C 0.4509(3) 0.44780(19) 0.20909(17)
H30 H 0.4646 0.4441 0.1817
C21 C 0.0699(4) 0.4453(3) 0.0266(2)
H31 H 0.0902 0.4339 0.0020
C22 C -0.0118(5) 0.4491(3) 0.0296(3)
H32 H -0.0484 0.4387 0.0078
C23 C -0.0414(5) 0.4679(4) 0.0643(3)
H33 H -0.0984 0.4710 0.0662
C24 C 0.0102(4) 0.4821(3) 0.0958(2)
H34 H -0.0097 0.4958 0.1197
C25 C 0.0939(4) 0.4760(3) 0.0922(2)
C26 C 0.1527(4) 0.4878(3) 0.12679(19)
H35 H 0.1308 0.5148 0.1427
H36 H 0.2043 0.4990 0.1162
C27 C 0.1693(4) 0.4452(2) 0.15398(19)
H37 H 0.1176 0.4349 0.1650
H38 H 0.1888 0.4180 0.1376
C28 C 0.3097(4) 0.4559(2) 0.1817(2)
C29 C 0.3703(3) 0.45562(19) 0.21721(17)
C30 C 0.3498(4) 0.4608(2) 0.25720(17)
H39 H 0.2946 0.4648 0.2631
C31 C 0.1843(4) 0.5563(2) 0.34858(18)
H40 H 0.2065 0.5287 0.3361
C32 C 0.1444(4) 0.6081(2) 0.3934(2)
H41 H 0.1346 0.6231 0.4186
C33 C 0.1202(4) 0.6253(2) 0.3573(2)
H42 H 0.0905 0.6544 0.3519
C34 C 0.1354(4) 0.5977(3) 0.28481(19)
H43 H 0.1200 0.6316 0.2776
H44 H 0.0905 0.5762 0.2744
C35 C 0.2139(4) 0.5841(2) 0.26399(19)
H45 H 0.2280 0.5498 0.2700
H46 H 0.2043 0.5876 0.2342
C36 C 0.2836(4) 0.6162(2) 0.27878(19)
H47 H 0.2682 0.6507 0.2746
H48 H 0.2960 0.6109 0.3083
C37 C 0.4254(4) 0.5898(2) 0.27371(18)
C38 C 0.4927(3) 0.58255(19) 0.24618(17)
C39 C 0.5738(4) 0.5878(2) 0.26191(19)
H49 H 0.5851 0.5944 0.2900
C40 C 0.8610(4) 0.5047(2) 0.30318(19)
H50 H 0.8066 0.5052 0.2917
C41 C 0.9877(4) 0.4895(2) 0.31423(19)
H51 H 1.0405 0.4765 0.3113
C42 C 0.9694(4) 0.5195(2) 0.34259(19)
H52 H 1.0052 0.5320 0.3639
C43 C 0.8398(4) 0.5659(2) 0.35810(19)
H53 H 0.8574 0.5647 0.3874
H54 H 0.7813 0.5574 0.3551
C44 C 0.8518(4) 0.6165(2) 0.3422(2)
H55 H 0.8186 0.6392 0.3575
H56 H 0.9095 0.6257 0.3479
C45 C 0.8301(4) 0.6234(2) 0.29768(19)
H57 H 0.8380 0.6579 0.2905
H58 H 0.8670 0.6036 0.2819
C46 C 0.7264(4) 0.5938(2) 0.24787(19)
C47 C 0.6372(4) 0.5833(2) 0.23668(18)
C48 C 0.6205(4) 0.5702(2) 0.19586(18)
H59 H 0.6642 0.5658 0.1788
C49 C 0.4210(3) 0.4463(2) 0.07087(19)
H60 H 0.4160 0.4675 0.0933
C50 C 0.3924(5) 0.4001(3) 0.0182(2)
H61 H 0.3627 0.3830 -0.0030
C51 C 0.4745(5) 0.3981(3) 0.0270(2)
H62 H 0.5128 0.3800 0.0128
C52 C 0.5713(4) 0.4377(3) 0.0780(2)
H63 H 0.6071 0.4093 0.0747
H64 H 0.5678 0.4434 0.1075
C53 C 0.6082(5) 0.4812(4) 0.0594(3)
H65 H 0.6047 0.4771 0.0295
H66 H 0.6666 0.4826 0.0687
C54 C 0.5679(5) 0.5311(3) 0.06968(19)
H67 H 0.5928 0.5576 0.0544
H68 H 0.5090 0.5302 0.0614
C55 C 0.5191(4) 0.5495(2) 0.1372(2)
C56 C 0.5420(4) 0.5634(2) 0.18006(17)
C57 C 0.4782(4) 0.5698(2) 0.20534(18)
H69 H 0.4238 0.5653 0.1945
C58 C 0.1408(4) 0.4485(2) 0.39848(18)
H70 H 0.1579 0.4525 0.3717
C59 C 0.1296(4) 0.4564(2) 0.4628(2)
H71 H 0.1379 0.4667 0.4903
C60 C 0.0755(4) 0.4214(3) 0.4494(2)
H72 H 0.0389 0.4037 0.4648
C61 C 0.0441(4) 0.3822(2) 0.3805(2)
H73 H 0.0571 0.3897 0.3523
H74 H -0.0154 0.3856 0.3821
C62 C 0.0680(4) 0.3307(3) 0.3901(2)
H75 H 0.0413 0.3207 0.4148
H76 H 0.0460 0.3099 0.3675
C63 C 0.1561(4) 0.3209(3) 0.3968(2)
H77 H 0.1776 0.3401 0.4206
H78 H 0.1636 0.2862 0.4038
C64 C 0.2841(4) 0.3226(2) 0.36318(19)
C65 C 0.3302(4) 0.3282(2) 0.32573(19)
C66 C 0.4117(4) 0.3281(2) 0.32885(19)
H79 H 0.4398 0.3272 0.3550
C67 C 0.8583(4) 0.3779(2) 0.3080(2)
H80 H 0.8512 0.4060 0.3242
C68 C 0.8827(5) 0.3316(3) 0.2585(3)
H81 H 0.8955 0.3208 0.2323
C69 C 0.8652(5) 0.3025(3) 0.2891(2)
H82 H 0.8648 0.2680 0.2891
C70 C 0.8140(4) 0.3177(3) 0.3584(2)
H83 H 0.8229 0.3436 0.3790
H84 H 0.8428 0.2881 0.3688
C71 C 0.7234(4) 0.3069(3) 0.3522(2)
H85 H 0.7153 0.2780 0.3346
H86 H 0.7020 0.2993 0.3788
C72 C 0.6762(4) 0.3489(3) 0.3333(2)
H87 H 0.6897 0.3785 0.3494
H88 H 0.6944 0.3543 0.3056
C73 C 0.5494(4) 0.3289(2) 0.2958(2)
C74 C 0.4564(4) 0.3294(2) 0.29371(19)
C75 C 0.4188(4) 0.32977(19) 0.25677(19)
H89 H 0.4495 0.3307 0.2334
C76 C 0.2660(4) 0.3483(2) 0.08887(19)
H90 H 0.3056 0.3616 0.1081
C77 C 0.1724(7) 0.3413(3) 0.0409(3)
H91 H 0.1314 0.3487 0.0201
C78 C 0.1891(7) 0.2969(3) 0.0571(3)
H92 H 0.1649 0.2672 0.0479
C79 C 0.2724(6) 0.2641(3) 0.1168(2)
H93 H 0.3201 0.2762 0.1337
H94 H 0.2895 0.2349 0.1019
C80 C 0.2044(5) 0.2505(3) 0.1440(2)
H95 H 0.1572 0.2388 0.1265
H96 H 0.2234 0.2232 0.1617
C81 C 0.1764(4) 0.2908(3) 0.1704(2)
H97 H 0.1749 0.3214 0.1545
H98 H 0.1201 0.2837 0.1773
C82 C 0.2926(4) 0.3261(2) 0.2107(2)
C83 C 0.3331(4) 0.3288(2) 0.25246(17)
C84 C 0.2890(4) 0.3283(2) 0.28697(19)
H99 H 0.2312 0.3280 0.2844
C85 C 0.3696(4) 0.5991(2) 0.40059(19)
H100 H 0.3675 0.5840 0.3746
C86 C 0.3492(4) 0.6155(3) 0.4634(2)
H101 H 0.3300 0.6134 0.4899
C87 C 0.3976(5) 0.6506(3) 0.4500(2)
H102 H 0.4185 0.6778 0.4651
C88 C 0.4562(4) 0.6709(2) 0.3824(2)
H103 H 0.4792 0.6503 0.3613
H104 H 0.5017 0.6876 0.3978
C89 C 0.3984(4) 0.7083(2) 0.3622(2)
H105 H 0.3701 0.7259 0.3833
H106 H 0.3569 0.6916 0.3441
C90 C 0.4452(5) 0.7450(3) 0.3372(2)
H107 H 0.4109 0.7742 0.3321
H108 H 0.4949 0.7552 0.3535
C91 C 0.5432(4) 0.7131(2) 0.2916(2)
C92 C 0.5663(4) 0.7071(2) 0.2477(2)
C93 C 0.6464(5) 0.7079(2) 0.2415(2)
H109 H 0.6846 0.7100 0.2643
C94 C 0.8966(4) 0.5286(2) 0.1879(2)
H110 H 0.8397 0.5248 0.1820
C95 C 1.0207(4) 0.5172(3) 0.2106(2)
H111 H 1.0672 0.5026 0.2242
C96 C 1.0187(4) 0.5590(3) 0.1910(2)
H112 H 1.0640 0.5796 0.1877
C97 C 0.9081(4) 0.6111(3) 0.1542(2)
H113 H 0.9324 0.6130 0.1276
H114 H 0.8485 0.6075 0.1488
C98 C 0.9247(5) 0.6568(3) 0.1764(2)
H115 H 0.9838 0.6635 0.1776
H116 H 0.9086 0.6532 0.2047
C99 C 0.8797(5) 0.6989(3) 0.1567(2)
H117 H 0.9025 0.7296 0.1683
H118 H 0.8877 0.6988 0.1272
C100 C 0.7647(4) 0.7104(2) 0.1981(2)
C101 C 0.6751(4) 0.7057(2) 0.2028(2)
C102 C 0.6175(4) 0.7021(2) 0.1695(2)
H119 H 0.6349 0.7007 0.1427
C103 C 0.2964(4) 0.5475(3) 0.0659(3)
H120 H 0.3236 0.5382 0.0910
C104 C 0.2317(4) 0.5437(3) 0.0081(2)
H121 H 0.2026 0.5316 -0.0156
C105 C 0.2548(6) 0.5913(3) 0.0161(3)
H122 H 0.2445 0.6180 -0.0019
C106 C 0.3321(6) 0.6371(3) 0.0731(3)
H123 H 0.2914 0.6634 0.0748
H124 H 0.3516 0.6281 0.1012
C107 C 0.4020(5) 0.6549(3) 0.0506(2)
H125 H 0.3829 0.6600 0.0218
H126 H 0.4441 0.6292 0.0513
C108 C 0.4421(6) 0.7026(3) 0.0671(2)
H127 H 0.4739 0.7173 0.0458
H128 H 0.3991 0.7259 0.0735
C109 C 0.4720(5) 0.7004(2) 0.1401(3)
C110 C 0.5357(5) 0.7006(2) 0.1758(2)
C111 C 0.5095(4) 0.7032(2) 0.2149(2)
H129 H 0.4530 0.7024 0.2192
loop_
_geom_bond_atom_site_label_1
_geom_bond_atom_site_label_2
_geom_bond_site_symmetry_1
_geom_bond_site_symmetry_2
Pd1 N1 1_555 1_555
Pd2 N3 1_555 1_555
Pd3 N5 1_555 1_555
O1 C8 1_555 1_555
O2 C18 1_555 1_555
O3 C28 1_555 1_555
O4 C37 1_555 1_555
O5 C46 1_555 1_555
O6 C55 1_555 1_555
O7 C64 1_555 1_555
O8 C73 1_555 1_555
O9 C82 1_555 1_555
O10 C91 1_555 1_555
O11 C100 1_555 1_555
O12 C109 1_555 1_555
N1 C1 1_555 1_555
N2 H1 1_555 1_555
N3 C11 1_555 1_555
N4 H2 1_555 1_555
N5 C21 1_555 1_555
N6 H3 1_555 1_555
N7 Pd1 1_555 1_555
N8 C31 1_555 1_555
N9 H4 1_555 1_555
N10 Pd2 1_555 1_555
N11 C40 1_555 1_555
N12 H5 1_555 1_555
N13 Pd3 1_555 1_555
N14 C49 1_555 1_555
N15 H6 1_555 1_555
N16 Pd1 1_555 1_555
N17 C58 1_555 1_555
N18 H7 1_555 1_555
N19 Pd2 1_555 1_555
N20 C67 1_555 1_555
N21 H8 1_555 1_555
N22 Pd3 1_555 1_555
N23 C76 1_555 1_555
N24 H9 1_555 1_555
N25 Pd1 1_555 1_555
N26 C85 1_555 1_555
N27 H10 1_555 1_555
N28 Pd2 1_555 1_555
N29 C94 1_555 1_555
N30 H11 1_555 1_555
N31 Pd3 1_555 1_555
N32 C103 1_555 1_555
N33 H12 1_555 1_555
C1 H13 1_555 1_555
C2 C1 1_555 1_555
H14 C2 1_555 1_555
C3 C2 1_555 1_555
H15 C3 1_555 1_555
C4 C3 1_555 1_555
H16 C4 1_555 1_555
C5 N1 1_555 1_555
C6 C5 1_555 1_555
H17 C6 1_555 1_555
H18 C6 1_555 1_555
C7 N2 1_555 1_555
H19 C7 1_555 1_555
H20 C7 1_555 1_555
C8 N2 1_555 1_555
C9 C8 1_555 1_555
C10 C9 1_555 1_555
H21 C10 1_555 1_555
C11 H22 1_555 1_555
C12 C11 1_555 1_555
H23 C12 1_555 1_555
C13 C12 1_555 1_555
H24 C13 1_555 1_555
C14 C13 1_555 1_555
H25 C14 1_555 1_555
C15 N3 1_555 1_555
C16 C15 1_555 1_555
H26 C16 1_555 1_555
H27 C16 1_555 1_555
C17 N4 1_555 1_555
H28 C17 1_555 1_555
H29 C17 1_555 1_555
C18 N4 1_555 1_555
C19 C10 1_555 1_555
C20 C19 1_555 1_555
H30 C20 1_555 1_555
C21 H31 1_555 1_555
C22 C21 1_555 1_555
H32 C22 1_555 1_555
C23 C22 1_555 1_555
H33 C23 1_555 1_555
C24 C23 1_555 1_555
H34 C24 1_555 1_555
C25 N5 1_555 1_555
C26 C25 1_555 1_555
H35 C26 1_555 1_555
H36 C26 1_555 1_555
C27 N6 1_555 1_555
H37 C27 1_555 1_555
H38 C27 1_555 1_555
C28 N6 1_555 1_555
C29 C20 1_555 1_555
C30 C9 1_555 1_555
H39 C30 1_555 1_555
C31 N7 1_555 1_555
H40 C31 1_555 1_555
C32 N7 1_555 1_555
H41 C32 1_555 1_555
C33 N8 1_555 1_555
H42 C33 1_555 1_555
C34 N8 1_555 1_555
H43 C34 1_555 1_555
H44 C34 1_555 1_555
C35 C34 1_555 1_555
H45 C35 1_555 1_555
H46 C35 1_555 1_555
C36 N9 1_555 1_555
H47 C36 1_555 1_555
H48 C36 1_555 1_555
C37 N9 1_555 1_555
C38 C37 1_555 1_555
C39 C38 1_555 1_555
H49 C39 1_555 1_555
C40 N10 1_555 1_555
H50 C40 1_555 1_555
C41 N10 1_555 1_555
H51 C41 1_555 1_555
C42 N11 1_555 1_555
H52 C42 1_555 1_555
C43 N11 1_555 1_555
H53 C43 1_555 1_555
H54 C43 1_555 1_555
C44 C43 1_555 1_555
H55 C44 1_555 1_555
H56 C44 1_555 1_555
C45 N12 1_555 1_555
H57 C45 1_555 1_555
H58 C45 1_555 1_555
C46 N12 1_555 1_555
C47 C39 1_555 1_555
C48 C47 1_555 1_555
H59 C48 1_555 1_555
C49 N13 1_555 1_555
H60 C49 1_555 1_555
C50 N13 1_555 1_555
H61 C50 1_555 1_555
C51 N14 1_555 1_555
H62 C51 1_555 1_555
C52 N14 1_555 1_555
H63 C52 1_555 1_555
H64 C52 1_555 1_555
C53 C52 1_555 1_555
H65 C53 1_555 1_555
H66 C53 1_555 1_555
C54 N15 1_555 1_555
H67 C54 1_555 1_555
H68 C54 1_555 1_555
C55 N15 1_555 1_555
C56 C48 1_555 1_555
C57 C38 1_555 1_555
H69 C57 1_555 1_555
C58 N16 1_555 1_555
H70 C58 1_555 1_555
C59 N16 1_555 1_555
H71 C59 1_555 1_555
C60 N17 1_555 1_555
H72 C60 1_555 1_555
C61 N17 1_555 1_555
H73 C61 1_555 1_555
H74 C61 1_555 1_555
C62 C61 1_555 1_555
H75 C62 1_555 1_555
H76 C62 1_555 1_555
C63 N18 1_555 1_555
H77 C63 1_555 1_555
H78 C63 1_555 1_555
C64 N18 1_555 1_555
C65 C64 1_555 1_555
C66 C65 1_555 1_555
H79 C66 1_555 1_555
C67 N19 1_555 1_555
H80 C67 1_555 1_555
C68 N19 1_555 1_555
H81 C68 1_555 1_555
C69 N20 1_555 1_555
H82 C69 1_555 1_555
C70 N20 1_555 1_555
H83 C70 1_555 1_555
H84 C70 1_555 1_555
C71 C70 1_555 1_555
H85 C71 1_555 1_555
H86 C71 1_555 1_555
C72 N21 1_555 1_555
H87 C72 1_555 1_555
H88 C72 1_555 1_555
C73 N21 1_555 1_555
C74 C66 1_555 1_555
C75 C74 1_555 1_555
H89 C75 1_555 1_555
C76 N22 1_555 1_555
H90 C76 1_555 1_555
C77 N22 1_555 1_555
H91 C77 1_555 1_555
C78 N23 1_555 1_555
H92 C78 1_555 1_555
C79 N23 1_555 1_555
H93 C79 1_555 1_555
H94 C79 1_555 1_555
C80 C79 1_555 1_555
H95 C80 1_555 1_555
H96 C80 1_555 1_555
C81 N24 1_555 1_555
H97 C81 1_555 1_555
H98 C81 1_555 1_555
C82 N24 1_555 1_555
C83 C75 1_555 1_555
C84 C65 1_555 1_555
H99 C84 1_555 1_555
C85 N25 1_555 1_555
H100 C85 1_555 1_555
C86 N25 1_555 1_555
H101 C86 1_555 1_555
C87 N26 1_555 1_555
H102 C87 1_555 1_555
C88 N26 1_555 1_555
H103 C88 1_555 1_555
H104 C88 1_555 1_555
C89 C88 1_555 1_555
H105 C89 1_555 1_555
H106 C89 1_555 1_555
C90 N27 1_555 1_555
H107 C90 1_555 1_555
H108 C90 1_555 1_555
C91 N27 1_555 1_555
C92 C91 1_555 1_555
C93 C92 1_555 1_555
H109 C93 1_555 1_555
C94 N28 1_555 1_555
H110 C94 1_555 1_555
C95 N28 1_555 1_555
H111 C95 1_555 1_555
C96 N29 1_555 1_555
H112 C96 1_555 1_555
C97 N29 1_555 1_555
H113 C97 1_555 1_555
H114 C97 1_555 1_555
C98 C97 1_555 1_555
H115 C98 1_555 1_555
H116 C98 1_555 1_555
C99 N30 1_555 1_555
H117 C99 1_555 1_555
H118 C99 1_555 1_555
C100 N30 1_555 1_555
C101 C93 1_555 1_555
C102 C101 1_555 1_555
H119 C102 1_555 1_555
C103 N31 1_555 1_555
H120 C103 1_555 1_555
C104 N31 1_555 1_555
H121 C104 1_555 1_555
C105 N32 1_555 1_555
H122 C105 1_555 1_555
C106 N32 1_555 1_555
H123 C106 1_555 1_555
H124 C106 1_555 1_555
C107 C106 1_555 1_555
H125 C107 1_555 1_555
H126 C107 1_555 1_555
C108 N33 1_555 1_555
H127 C108 1_555 1_555
H128 C108 1_555 1_555
C109 N33 1_555 1_555
C110 C102 1_555 1_555
C111 C92 1_555 1_555
H129 C111 1_555 1_555
O13 N34 1_555 1_555
O14 N34 1_555 1_555
O15 N34 1_555 1_555
O16 N35 1_555 1_555
O17 N35 1_555 1_555
O18 N35 1_555 1_555
O19 N36 1_555 1_555
O20 N36 1_555 1_555
O21 N36 1_555 1_555
O22 N37 1_555 1_555
O23 N37 1_555 1_555
O24 N37 1_555 1_555
O25 N38 1_555 1_555
O26 N38 1_555 1_555
O27 N38 1_555 1_555
O28 N39 1_555 1_555
O29 N39 1_555 1_555
O30 N39 1_555 1_555
C4 C5 1_555 1_555
C6 C7 1_555 1_555
C14 C15 1_555 1_555
C16 C17 1_555 1_555
C18 C19 1_555 1_555
C24 C25 1_555 1_555
C26 C27 1_555 1_555
C28 C29 1_555 1_555
C29 C30 1_555 1_555
C32 C33 1_555 1_555
C35 C36 1_555 1_555
C41 C42 1_555 1_555
C44 C45 1_555 1_555
C46 C47 1_555 1_555
C50 C51 1_555 1_555
C53 C54 1_555 1_555
C55 C56 1_555 1_555
C56 C57 1_555 1_555
C59 C60 1_555 1_555
C62 C63 1_555 1_555
C68 C69 1_555 1_555
C71 C72 1_555 1_555
C73 C74 1_555 1_555
C77 C78 1_555 1_555
C80 C81 1_555 1_555
C82 C83 1_555 1_555
C83 C84 1_555 1_555
C86 C87 1_555 1_555
C89 C90 1_555 1_555
C95 C96 1_555 1_555
C98 C99 1_555 1_555
C100 C101 1_555 1_555
C104 C105 1_555 1_555
C107 C108 1_555 1_555
C109 C110 1_555 1_555
C110 C111 1_555 1_555

#END
