# generated using pymatgen
data_H22RuC27SNO5F3
_symmetry_space_group_name_H-M   'P 1'
_cell_length_a   21.53500000
_cell_length_b   22.94800000
_cell_length_c   25.31400000
_cell_angle_alpha   97.01000000
_cell_angle_beta   101.86000000
_cell_angle_gamma   92.81000000
_symmetry_Int_Tables_number   1
_chemical_formula_structural   H22RuC27SNO5F3
_chemical_formula_sum   'H352 Ru16 C432 S16 N16 O80 F48'
_cell_volume   12115.82129083
_cell_formula_units_Z   16
loop_
 _symmetry_equiv_pos_site_id
 _symmetry_equiv_pos_as_xyz
  1  'x, y, z'
loop_
 _atom_site_type_symbol
 _atom_site_label
 _atom_site_symmetry_multiplicity
 _atom_site_fract_x
 _atom_site_fract_y
 _atom_site_fract_z
 _atom_site_occupancy
  H  H1  1  0.350200  0.012700  0.250400  1.0
  H  H2  1  0.649800  0.987300  0.749600  1.0
  H  H3  1  0.408400  0.013000  0.183100  1.0
  H  H4  1  0.591600  0.987000  0.816900  1.0
  H  H5  1  0.294800  0.093200  0.276200  1.0
  H  H6  1  0.705200  0.906800  0.723800  1.0
  H  H7  1  0.385300  0.081000  0.121400  1.0
  H  H8  1  0.614700  0.919000  0.878600  1.0
  H  H9  1  0.103600  0.331500  0.170700  1.0
  H  H10  1  0.896400  0.668500  0.829300  1.0
  H  H11  1  0.202400  0.318900  0.020600  1.0
  H  H12  1  0.797600  0.681100  0.979400  1.0
  H  H13  1  0.074200  0.388200  0.097400  1.0
  H  H14  1  0.925800  0.611800  0.902600  1.0
  H  H15  1  0.121500  0.375300  0.022600  1.0
  H  H16  1  0.878500  0.624700  0.977400  1.0
  H  H17  1  0.306900  0.184600  0.433700  1.0
  H  H18  1  0.693100  0.815400  0.566300  1.0
  H  H19  1  0.309300  0.163500  0.371600  1.0
  H  H20  1  0.690700  0.836500  0.628400  1.0
  H  H21  1  0.246500  0.148500  0.393400  1.0
  H  H22  1  0.753500  0.851500  0.606600  1.0
  H  H23  1  0.329900  0.261100  0.348900  1.0
  H  H24  1  0.670100  0.738900  0.651100  1.0
  H  H25  1  0.170000  0.215100  0.400000  1.0
  H  H26  1  0.830000  0.784900  0.600000  1.0
  H  H27  1  0.293900  0.342800  0.314600  1.0
  H  H28  1  0.706100  0.657200  0.685400  1.0
  H  H29  1  0.127600  0.297600  0.358000  1.0
  H  H30  1  0.872400  0.702400  0.642000  1.0
  H  H31  1  0.206600  0.397900  0.280400  1.0
  H  H32  1  0.793400  0.602100  0.719600  1.0
  H  H33  1  0.253700  0.452100  0.377500  1.0
  H  H34  1  0.746300  0.547900  0.622500  1.0
  H  H35  1  0.189200  0.435200  0.395900  1.0
  H  H36  1  0.810800  0.564800  0.604100  1.0
  H  H37  1  0.190200  0.482600  0.354600  1.0
  H  H38  1  0.809800  0.517400  0.645400  1.0
  H  H39  1  0.097300  0.358200  0.269600  1.0
  H  H40  1  0.902700  0.641800  0.730400  1.0
  H  H41  1  0.098300  0.425000  0.296900  1.0
  H  H42  1  0.901700  0.575000  0.703100  1.0
  H  H43  1  0.101000  0.372800  0.333700  1.0
  H  H44  1  0.899000  0.627200  0.666300  1.0
  H  H45  1  0.542800  0.160600  0.057000  1.0
  H  H46  1  0.457200  0.839400  0.943000  1.0
  H  H47  1  0.476300  0.121800  0.042400  1.0
  H  H48  1  0.523700  0.878200  0.957600  1.0
  H  H49  1  0.497900  0.162000  0.100200  1.0
  H  H50  1  0.502100  0.838000  0.899800  1.0
  H  H51  1  0.431600  0.169500  0.963400  1.0
  H  H52  1  0.568400  0.830500  0.036600  1.0
  H  H53  1  0.474200  0.268800  0.114100  1.0
  H  H54  1  0.525800  0.731200  0.885900  1.0
  H  H55  1  0.374300  0.245000  0.927400  1.0
  H  H56  1  0.625700  0.755000  0.072600  1.0
  H  H57  1  0.417500  0.346900  0.080400  1.0
  H  H58  1  0.582500  0.653100  0.919600  1.0
  H  H59  1  0.319500  0.325900  0.946900  1.0
  H  H60  1  0.680500  0.674100  0.053100  1.0
  H  H61  1  0.407100  0.371300  0.918700  1.0
  H  H62  1  0.592900  0.628700  0.081300  1.0
  H  H63  1  0.422100  0.415600  0.974400  1.0
  H  H64  1  0.577900  0.584400  0.025600  1.0
  H  H65  1  0.357000  0.417600  0.931000  1.0
  H  H66  1  0.643000  0.582400  0.069000  1.0
  H  H67  1  0.304400  0.372800  0.038000  1.0
  H  H68  1  0.695600  0.627200  0.962000  1.0
  H  H69  1  0.299400  0.419100  0.995200  1.0
  H  H70  1  0.700600  0.580900  0.004800  1.0
  H  H71  1  0.363300  0.419200  0.040500  1.0
  H  H72  1  0.636700  0.580800  0.959500  1.0
  H  H73  1  0.336100  0.095000  0.013500  1.0
  H  H74  1  0.663900  0.905000  0.986500  1.0
  H  H75  1  0.253700  0.223600  0.950300  1.0
  H  H76  1  0.746300  0.776400  0.049700  1.0
  H  H77  1  0.259000  0.024600  0.962900  1.0
  H  H78  1  0.741000  0.975400  0.037100  1.0
  H  H79  1  0.170900  0.159700  0.896700  1.0
  H  H80  1  0.829100  0.840300  0.103300  1.0
  H  H81  1  0.911300  0.956300  0.743700  1.0
  H  H82  1  0.088700  0.043700  0.256300  1.0
  H  H83  1  0.019500  0.824200  0.791100  1.0
  H  H84  1  0.980500  0.175800  0.208900  1.0
  H  H85  1  0.169100  0.119000  0.303800  1.0
  H  H86  1  0.830900  0.881000  0.696200  1.0
  H  H87  1  0.064400  0.242100  0.249700  1.0
  H  H88  1  0.935600  0.757900  0.750300  1.0
  H  H89  1  0.259000  0.309400  0.753600  1.0
  H  H90  1  0.741000  0.690600  0.246400  1.0
  H  H91  1  0.329500  0.370500  0.822400  1.0
  H  H92  1  0.670500  0.629500  0.177600  1.0
  H  H93  1  0.296500  0.248300  0.687900  1.0
  H  H94  1  0.703500  0.751700  0.312100  1.0
  H  H95  1  0.437900  0.372000  0.828600  1.0
  H  H96  1  0.562100  0.628000  0.171400  1.0
  H  H97  1  0.579300  0.142300  0.583600  1.0
  H  H98  1  0.420700  0.857700  0.416400  1.0
  H  H99  1  0.717700  0.268300  0.724100  1.0
  H  H100  1  0.282300  0.731700  0.275900  1.0
  H  H101  1  0.692000  0.142100  0.592700  1.0
  H  H102  1  0.308000  0.857900  0.407300  1.0
  H  H103  1  0.759000  0.210000  0.662300  1.0
  H  H104  1  0.241000  0.790000  0.337700  1.0
  H  H105  1  0.261700  0.073600  0.672400  1.0
  H  H106  1  0.738300  0.926400  0.327600  1.0
  H  H107  1  0.262000  0.138800  0.656000  1.0
  H  H108  1  0.738000  0.861200  0.344000  1.0
  H  H109  1  0.322600  0.119100  0.696000  1.0
  H  H110  1  0.677400  0.880900  0.304000  1.0
  H  H111  1  0.397900  0.060400  0.662500  1.0
  H  H112  1  0.602100  0.939600  0.337500  1.0
  H  H113  1  0.251400  0.125000  0.557900  1.0
  H  H114  1  0.748600  0.875000  0.442100  1.0
  H  H115  1  0.447300  0.036600  0.589100  1.0
  H  H116  1  0.552700  0.963400  0.410900  1.0
  H  H117  1  0.305300  0.099500  0.484200  1.0
  H  H118  1  0.694700  0.900500  0.515800  1.0
  H  H119  1  0.458600  0.048900  0.495600  1.0
  H  H120  1  0.541400  0.951100  0.504400  1.0
  H  H121  1  0.417600  0.950400  0.501200  1.0
  H  H122  1  0.582400  0.049600  0.498800  1.0
  H  H123  1  0.420500  0.954800  0.439100  1.0
  H  H124  1  0.579500  0.045200  0.560900  1.0
  H  H125  1  0.354000  0.957800  0.457800  1.0
  H  H126  1  0.646000  0.042200  0.542200  1.0
  H  H127  1  0.394800  0.113100  0.443900  1.0
  H  H128  1  0.605200  0.886900  0.556100  1.0
  H  H129  1  0.340400  0.060900  0.420900  1.0
  H  H130  1  0.659600  0.939100  0.579100  1.0
  H  H131  1  0.407700  0.057900  0.403600  1.0
  H  H132  1  0.592300  0.942100  0.596400  1.0
  H  H133  1  0.785400  0.494200  0.881400  1.0
  H  H134  1  0.214600  0.505800  0.118600  1.0
  H  H135  1  0.718900  0.507700  0.845300  1.0
  H  H136  1  0.281100  0.492300  0.154700  1.0
  H  H137  1  0.763300  0.463300  0.819700  1.0
  H  H138  1  0.236700  0.536700  0.180300  1.0
  H  H139  1  0.652400  0.491000  0.882000  1.0
  H  H140  1  0.347600  0.509000  0.118000  1.0
  H  H141  1  0.753400  0.338700  0.861100  1.0
  H  H142  1  0.246600  0.661300  0.138900  1.0
  H  H143  1  0.580700  0.433800  0.911600  1.0
  H  H144  1  0.419300  0.566200  0.088400  1.0
  H  H145  1  0.678300  0.291600  0.896200  1.0
  H  H146  1  0.321700  0.708400  0.103800  1.0
  H  H147  1  0.552100  0.357800  0.944200  1.0
  H  H148  1  0.447900  0.642200  0.055800  1.0
  H  H149  1  0.513000  0.275400  0.876700  1.0
  H  H150  1  0.487000  0.724600  0.123300  1.0
  H  H151  1  0.526800  0.249200  0.933300  1.0
  H  H152  1  0.473200  0.750800  0.066700  1.0
  H  H153  1  0.576100  0.242000  0.893900  1.0
  H  H154  1  0.423900  0.758000  0.106100  1.0
  H  H155  1  0.603400  0.296700  0.014300  1.0
  H  H156  1  0.396600  0.703300  0.985700  1.0
  H  H157  1  0.644500  0.356900  0.015300  1.0
  H  H158  1  0.355500  0.643100  0.984700  1.0
  H  H159  1  0.664000  0.296400  0.986900  1.0
  H  H160  1  0.336000  0.703600  0.013100  1.0
  H  H161  1  0.467200  0.184700  0.514500  1.0
  H  H162  1  0.532800  0.815300  0.485500  1.0
  H  H163  1  0.308400  0.238100  0.551500  1.0
  H  H164  1  0.691600  0.761900  0.448500  1.0
  H  H165  1  0.475400  0.264700  0.464000  1.0
  H  H166  1  0.524600  0.735300  0.536000  1.0
  H  H167  1  0.313800  0.319000  0.505900  1.0
  H  H168  1  0.686200  0.681000  0.494100  1.0
  H  H169  1  0.475500  0.478300  0.285300  1.0
  H  H170  1  0.524500  0.521700  0.714700  1.0
  H  H171  1  0.312500  0.538200  0.325500  1.0
  H  H172  1  0.687500  0.461800  0.674500  1.0
  H  H173  1  0.538900  0.457700  0.781800  1.0
  H  H174  1  0.461100  0.542300  0.218200  1.0
  H  H175  1  0.685000  0.398800  0.735300  1.0
  H  H176  1  0.315000  0.601200  0.264700  1.0
  H  H177  1  0.563100  0.254200  0.285000  1.0
  H  H178  1  0.436900  0.745800  0.715000  1.0
  H  H179  1  0.567900  0.321500  0.225100  1.0
  H  H180  1  0.432100  0.678500  0.774900  1.0
  H  H181  1  0.643500  0.253500  0.359100  1.0
  H  H182  1  0.356500  0.746500  0.640900  1.0
  H  H183  1  0.658700  0.389600  0.240200  1.0
  H  H184  1  0.341300  0.610400  0.759800  1.0
  H  H185  1  0.892000  0.428600  0.571000  1.0
  H  H186  1  0.108000  0.571400  0.429000  1.0
  H  H187  1  0.904700  0.566100  0.451100  1.0
  H  H188  1  0.095300  0.433900  0.548900  1.0
  H  H189  1  0.951300  0.515700  0.598800  1.0
  H  H190  1  0.048700  0.484300  0.401200  1.0
  H  H191  1  0.961800  0.581800  0.541200  1.0
  H  H192  1  0.038200  0.418200  0.458800  1.0
  H  H193  1  0.985900  0.286600  0.586500  1.0
  H  H194  1  0.014100  0.713400  0.413500  1.0
  H  H195  1  0.926800  0.322200  0.597600  1.0
  H  H196  1  0.073200  0.677800  0.402400  1.0
  H  H197  1  0.956300  0.331100  0.545800  1.0
  H  H198  1  0.043700  0.668900  0.454200  1.0
  H  H199  1  0.925300  0.266600  0.460500  1.0
  H  H200  1  0.074700  0.733400  0.539500  1.0
  H  H201  1  0.856200  0.238200  0.597300  1.0
  H  H202  1  0.143800  0.761800  0.402700  1.0
  H  H203  1  0.846700  0.195900  0.405600  1.0
  H  H204  1  0.153300  0.804100  0.594400  1.0
  H  H205  1  0.779000  0.164700  0.542100  1.0
  H  H206  1  0.221000  0.835300  0.457900  1.0
  H  H207  1  0.739100  0.137200  0.401000  1.0
  H  H208  1  0.260900  0.862800  0.599000  1.0
  H  H209  1  0.678100  0.068200  0.432500  1.0
  H  H210  1  0.321900  0.931800  0.567500  1.0
  H  H211  1  0.685700  0.129100  0.472300  1.0
  H  H212  1  0.314300  0.870900  0.527700  1.0
  H  H213  1  0.727100  0.076000  0.490200  1.0
  H  H214  1  0.272900  0.924000  0.509800  1.0
  H  H215  1  0.762800  0.036900  0.387300  1.0
  H  H216  1  0.237200  0.963100  0.612700  1.0
  H  H217  1  0.816900  0.047700  0.442100  1.0
  H  H218  1  0.183100  0.952300  0.557900  1.0
  H  H219  1  0.824800  0.079900  0.390900  1.0
  H  H220  1  0.175200  0.920100  0.609100  1.0
  H  H221  1  0.986800  0.611400  0.330600  1.0
  H  H222  1  0.013200  0.388600  0.669400  1.0
  H  H223  1  0.964100  0.563500  0.365000  1.0
  H  H224  1  0.035900  0.436500  0.635000  1.0
  H  H225  1  0.928500  0.622800  0.359900  1.0
  H  H226  1  0.071500  0.377200  0.640100  1.0
  H  H227  1  0.848000  0.634200  0.282400  1.0
  H  H228  1  0.152000  0.365800  0.717600  1.0
  H  H229  1  0.937800  0.478400  0.291800  1.0
  H  H230  1  0.062200  0.521600  0.708200  1.0
  H  H231  1  0.771800  0.584100  0.208500  1.0
  H  H232  1  0.228200  0.415900  0.791500  1.0
  H  H233  1  0.856000  0.430600  0.215100  1.0
  H  H234  1  0.144000  0.569400  0.784900  1.0
  H  H235  1  0.716800  0.495100  0.155900  1.0
  H  H236  1  0.283200  0.504900  0.844100  1.0
  H  H237  1  0.735900  0.470500  0.069100  1.0
  H  H238  1  0.264100  0.529500  0.930900  1.0
  H  H239  1  0.810600  0.470600  0.093400  1.0
  H  H240  1  0.189400  0.529400  0.906600  1.0
  H  H241  1  0.776300  0.530800  0.096700  1.0
  H  H242  1  0.223700  0.469200  0.903300  1.0
  H  H243  1  0.713700  0.398500  0.119700  1.0
  H  H244  1  0.286300  0.601500  0.880300  1.0
  H  H245  1  0.738900  0.404400  0.184300  1.0
  H  H246  1  0.261100  0.595600  0.815700  1.0
  H  H247  1  0.787900  0.396200  0.144700  1.0
  H  H248  1  0.212100  0.603800  0.855300  1.0
  H  H249  1  0.779400  0.606700  0.373300  1.0
  H  H250  1  0.220600  0.393300  0.626700  1.0
  H  H251  1  0.670100  0.508100  0.249200  1.0
  H  H252  1  0.329900  0.491900  0.750800  1.0
  H  H253  1  0.695700  0.646400  0.398600  1.0
  H  H254  1  0.304300  0.353600  0.601400  1.0
  H  H255  1  0.582400  0.541200  0.274300  1.0
  H  H256  1  0.417600  0.458800  0.725700  1.0
  H  H257  1  0.422000  0.748700  0.490800  1.0
  H  H258  1  0.578000  0.251300  0.509200  1.0
  H  H259  1  0.307700  0.636700  0.374800  1.0
  H  H260  1  0.692300  0.363300  0.625200  1.0
  H  H261  1  0.665500  0.228700  0.470800  1.0
  H  H262  1  0.334500  0.771300  0.529200  1.0
  H  H263  1  0.776300  0.337600  0.585600  1.0
  H  H264  1  0.223700  0.662400  0.414400  1.0
  H  H265  1  0.677600  0.780200  0.171300  1.0
  H  H266  1  0.322400  0.219800  0.828700  1.0
  H  H267  1  0.620300  0.851600  0.128700  1.0
  H  H268  1  0.379700  0.148400  0.871300  1.0
  H  H269  1  0.781300  0.806700  0.223300  1.0
  H  H270  1  0.218700  0.193300  0.776700  1.0
  H  H271  1  0.651400  0.948900  0.153900  1.0
  H  H272  1  0.348600  0.051100  0.846100  1.0
  H  H273  1  0.027900  0.039900  0.372000  1.0
  H  H274  1  0.972100  0.960100  0.628000  1.0
  H  H275  1  0.894100  0.183100  0.312900  1.0
  H  H276  1  0.105900  0.816900  0.687100  1.0
  H  H277  1  0.060600  0.137300  0.398800  1.0
  H  H278  1  0.939400  0.862700  0.601200  1.0
  H  H279  1  0.992200  0.209100  0.369600  1.0
  H  H280  1  0.007800  0.790900  0.630400  1.0
  H  H281  1  0.025400  0.697700  0.287100  1.0
  H  H282  1  0.974600  0.302300  0.712900  1.0
  H  H283  1  0.034800  0.747700  0.249900  1.0
  H  H284  1  0.965200  0.252300  0.750100  1.0
  H  H285  1  0.965000  0.719300  0.248300  1.0
  H  H286  1  0.035000  0.280700  0.751700  1.0
  H  H287  1  0.083800  0.828900  0.323100  1.0
  H  H288  1  0.916200  0.171100  0.676900  1.0
  H  H289  1  0.903900  0.752300  0.315100  1.0
  H  H290  1  0.096100  0.247700  0.684900  1.0
  H  H291  1  0.069300  0.901800  0.391400  1.0
  H  H292  1  0.930700  0.098200  0.608600  1.0
  H  H293  1  0.892300  0.827900  0.385100  1.0
  H  H294  1  0.107700  0.172100  0.614900  1.0
  H  H295  1  0.993600  0.953900  0.432200  1.0
  H  H296  1  0.006400  0.046100  0.567800  1.0
  H  H297  1  0.063500  0.905700  0.493600  1.0
  H  H298  1  0.936500  0.094300  0.506400  1.0
  H  H299  1  0.004300  0.877400  0.513500  1.0
  H  H300  1  0.995700  0.122600  0.486500  1.0
  H  H301  1  0.020600  0.947200  0.524400  1.0
  H  H302  1  0.979400  0.052800  0.475600  1.0
  H  H303  1  0.884300  0.931800  0.410100  1.0
  H  H304  1  0.115700  0.068200  0.589900  1.0
  H  H305  1  0.907700  0.963700  0.471400  1.0
  H  H306  1  0.092300  0.036300  0.528600  1.0
  H  H307  1  0.889700  0.894100  0.459900  1.0
  H  H308  1  0.110300  0.105900  0.540100  1.0
  H  H309  1  0.711300  0.297600  0.168100  1.0
  H  H310  1  0.288700  0.702400  0.831900  1.0
  H  H311  1  0.754000  0.251500  0.142400  1.0
  H  H312  1  0.246000  0.748500  0.857600  1.0
  H  H313  1  0.773300  0.277200  0.205700  1.0
  H  H314  1  0.226700  0.722800  0.794300  1.0
  H  H315  1  0.732700  0.224100  0.269500  1.0
  H  H316  1  0.267300  0.775900  0.730500  1.0
  H  H317  1  0.657700  0.166900  0.113500  1.0
  H  H318  1  0.342300  0.833100  0.886500  1.0
  H  H319  1  0.680000  0.148600  0.301600  1.0
  H  H320  1  0.320000  0.851400  0.698400  1.0
  H  H321  1  0.613500  0.084900  0.139800  1.0
  H  H322  1  0.386500  0.915100  0.860200  1.0
  H  H323  1  0.612800  0.029200  0.199500  1.0
  H  H324  1  0.387200  0.970800  0.800500  1.0
  H  H325  1  0.665700  0.040600  0.284700  1.0
  H  H326  1  0.334300  0.959400  0.715300  1.0
  H  H327  1  0.600600  0.000200  0.275300  1.0
  H  H328  1  0.399400  0.999800  0.724700  1.0
  H  H329  1  0.605400  0.066800  0.304300  1.0
  H  H330  1  0.394600  0.933200  0.695700  1.0
  H  H331  1  0.507600  0.018000  0.214700  1.0
  H  H332  1  0.492400  0.982000  0.785300  1.0
  H  H333  1  0.513000  0.062100  0.171300  1.0
  H  H334  1  0.487000  0.937900  0.828700  1.0
  H  H335  1  0.509900  0.087500  0.232400  1.0
  H  H336  1  0.490100  0.912500  0.767600  1.0
  H  H337  1  0.918100  0.809700  0.193100  1.0
  H  H338  1  0.081900  0.190300  0.806900  1.0
  H  H339  1  0.050300  0.932400  0.261400  1.0
  H  H340  1  0.949700  0.067600  0.738600  1.0
  H  H341  1  0.938300  0.809600  0.112500  1.0
  H  H342  1  0.061700  0.190400  0.887500  1.0
  H  H343  1  0.081700  0.936400  0.179100  1.0
  H  H344  1  0.918300  0.063600  0.820900  1.0
  H  H345  1  0.091000  0.807100  0.870700  1.0
  H  H346  1  0.909000  0.192900  0.129300  1.0
  H  H347  1  0.213400  0.924800  0.974800  1.0
  H  H348  1  0.786600  0.075200  0.025200  1.0
  H  H349  1  0.850600  0.184100  0.194100  1.0
  H  H350  1  0.149400  0.815900  0.805900  1.0
  H  H351  1  0.726600  0.069300  0.089200  1.0
  H  H352  1  0.273400  0.930700  0.910800  1.0
  Ru  Ru353  1  0.367810  0.228430  0.034880  1.0
  Ru  Ru354  1  0.632190  0.771570  0.965120  1.0
  Ru  Ru355  1  0.203990  0.246470  0.300950  1.0
  Ru  Ru356  1  0.796010  0.753530  0.699050  1.0
  Ru  Ru357  1  0.385040  0.138350  0.586350  1.0
  Ru  Ru358  1  0.614960  0.861650  0.413650  1.0
  Ru  Ru359  1  0.631020  0.374890  0.829130  1.0
  Ru  Ru360  1  0.368980  0.625110  0.170870  1.0
  Ru  Ru361  1  0.806990  0.261070  0.491040  1.0
  Ru  Ru362  1  0.193010  0.738930  0.508960  1.0
  Ru  Ru363  1  0.813590  0.515190  0.287800  1.0
  Ru  Ru364  1  0.186410  0.484810  0.712200  1.0
  Ru  Ru365  1  0.960970  0.864780  0.312830  1.0
  Ru  Ru366  1  0.039030  0.135220  0.687170  1.0
  Ru  Ru367  1  0.725480  0.123400  0.201880  1.0
  Ru  Ru368  1  0.274520  0.876600  0.798120  1.0
  C  C369  1  0.375800  0.879000  0.037000  1
  C  C370  1  0.624200  0.121000  0.963000  1
  C  C371  1  0.511200  0.830300  0.643400  1
  C  C372  1  0.488800  0.169700  0.356600  1
  C  C373  1  0.099100  0.264800  0.502200  1
  C  C374  1  0.900900  0.735200  0.497800  1
  C  C375  1  0.055700  0.668800  0.655400  1
  C  C376  1  0.944300  0.331200  0.344600  1
  C  C377  1  0.108200  0.354800  0.874400  1
  C  C378  1  0.891800  0.645200  0.125600  1
  C  C379  1  0.898200  0.424400  0.749300  1
  C  C380  1  0.101800  0.575600  0.250700  1
  C  C381  1  0.545200  0.466300  0.096000  1
  C  C382  1  0.454800  0.533700  0.904000  1
  C  C383  1  0.220700  0.965500  0.324100  1
  C  C384  1  0.779300  0.034500  0.675900  1
  C  C385  1  0.347900  0.044900  0.229900  1.0
  C  C386  1  0.652100  0.955100  0.770100  1.0
  C  C387  1  0.379700  0.042400  0.188000  1.0
  C  C388  1  0.620300  0.957600  0.812000  1.0
  C  C389  1  0.312700  0.090400  0.244700  1.0
  C  C390  1  0.687300  0.909600  0.755300  1.0
  C  C391  1  0.368000  0.084600  0.153200  1.0
  C  C392  1  0.632000  0.915400  0.846800  1.0
  C  C393  1  0.306300  0.133400  0.206900  1.0
  C  C394  1  0.693700  0.866600  0.793100  1.0
  C  C395  1  0.332000  0.132200  0.162600  1.0
  C  C396  1  0.668000  0.867800  0.837400  1.0
  C  C397  1  0.264200  0.181300  0.220900  1.0
  C  C398  1  0.735800  0.818700  0.779100  1.0
  C  C399  1  0.325200  0.180200  0.129500  1.0
  C  C400  1  0.674800  0.819800  0.870500  1.0
  C  C401  1  0.246900  0.221700  0.178600  1.0
  C  C402  1  0.753100  0.778300  0.821400  1.0
  C  C403  1  0.278600  0.217000  0.132400  1.0
  C  C404  1  0.721400  0.783000  0.867600  1.0
  C  C405  1  0.204500  0.259000  0.182800  1.0
  C  C406  1  0.795500  0.741000  0.817200  1.0
  C  C407  1  0.262900  0.257800  0.092300  1.0
  C  C408  1  0.737100  0.742200  0.907700  1.0
  C  C409  1  0.179600  0.291800  0.138600  1.0
  C  C410  1  0.820400  0.708200  0.861400  1.0
  C  C411  1  0.206500  0.291700  0.093700  1.0
  C  C412  1  0.793500  0.708300  0.906300  1.0
  C  C413  1  0.124800  0.329500  0.141200  1.0
  C  C414  1  0.875200  0.670500  0.858800  1.0
  C  C415  1  0.183500  0.322000  0.051500  1.0
  C  C416  1  0.816500  0.678000  0.948500  1.0
  C  C417  1  0.106800  0.361800  0.096900  1.0
  C  C418  1  0.893200  0.638200  0.903100  1.0
  C  C419  1  0.136300  0.355000  0.052800  1.0
  C  C420  1  0.863700  0.645000  0.947200  1.0
  C  C421  1  0.282000  0.177900  0.396200  1.0
  C  C422  1  0.718000  0.822100  0.603800  1.0
  C  C423  1  0.256000  0.235900  0.380200  1.0
  C  C424  1  0.744000  0.764100  0.619800  1.0
  C  C425  1  0.290000  0.275200  0.358900  1.0
  C  C426  1  0.710000  0.724800  0.641100  1.0
  C  C427  1  0.197600  0.244600  0.387600  1.0
  C  C428  1  0.802400  0.755400  0.612400  1.0
  C  C429  1  0.268900  0.323600  0.337800  1.0
  C  C430  1  0.731100  0.676400  0.662200  1.0
  C  C431  1  0.174900  0.296300  0.364100  1.0
  C  C432  1  0.825100  0.703700  0.635900  1.0
  C  C433  1  0.204700  0.339000  0.336800  1.0
  C  C434  1  0.795300  0.661000  0.663200  1.0
  C  C435  1  0.188200  0.391800  0.312700  1.0
  C  C436  1  0.811800  0.608200  0.687300  1.0
  C  C437  1  0.207300  0.446100  0.365700  1.0
  C  C438  1  0.792700  0.553900  0.634300  1.0
  C  C439  1  0.114400  0.386500  0.302300  1.0
  C  C440  1  0.885600  0.613500  0.697700  1.0
  C  C441  1  0.498600  0.159100  0.061400  1.0
  C  C442  1  0.501400  0.840900  0.938600  1.0
  C  C443  1  0.465200  0.211100  0.037100  1.0
  C  C444  1  0.534800  0.788900  0.962900  1.0
  C  C445  1  0.437300  0.208900  0.986300  1.0
  C  C446  1  0.562700  0.791100  0.013700  1.0
  C  C447  1  0.460300  0.267900  0.073800  1.0
  C  C448  1  0.539700  0.732100  0.926200  1.0
  C  C449  1  0.402600  0.253700  0.964500  1.0
  C  C450  1  0.597400  0.746300  0.035500  1.0
  C  C451  1  0.427800  0.314200  0.054400  1.0
  C  C452  1  0.572200  0.685800  0.945600  1.0
  C  C453  1  0.393500  0.304100  0.999700  1.0
  C  C454  1  0.606500  0.695900  0.000300  1.0
  C  C455  1  0.356200  0.347100  0.974500  1.0
  C  C456  1  0.643800  0.652900  0.025500  1.0
  C  C457  1  0.388500  0.391900  0.947200  1.0
  C  C458  1  0.611500  0.608100  0.052800  1.0
  C  C459  1  0.327900  0.394300  0.016300  1.0
  C  C460  1  0.672100  0.605700  0.983700  1.0
  C  C461  1  0.301500  0.107400  0.988600  1.0
  C  C462  1  0.698500  0.892600  0.011400  1.0
  C  C463  1  0.254300  0.182500  0.952500  1.0
  C  C464  1  0.745700  0.817500  0.047500  1.0
  C  C465  1  0.256400  0.065000  0.958500  1.0
  C  C466  1  0.743600  0.935000  0.041500  1.0
  C  C467  1  0.205100  0.144600  0.919700  1.0
  C  C468  1  0.794900  0.855400  0.080300  1.0
  C  C469  1  0.206900  0.083500  0.921300  1.0
  C  C470  1  0.793100  0.916500  0.078700  1.0
  C  C471  1  0.155800  0.043200  0.889000  1.0
  C  C472  1  0.844200  0.956800  0.111000  1.0
  C  C473  1  0.114300  0.010700  0.861200  1.0
  C  C474  1  0.885700  0.989300  0.138800  1.0
  C  C475  1  0.067100  0.971200  0.831000  1.0
  C  C476  1  0.932900  0.028800  0.169000  1.0
  C  C477  1  0.025900  0.939600  0.802600  1.0
  C  C478  1  0.974100  0.060400  0.197400  1.0
  C  C479  1  0.971400  0.898700  0.773500  1.0
  C  C480  1  0.028600  0.101300  0.226500  1.0
  C  C481  1  0.917300  0.915900  0.745700  1.0
  C  C482  1  0.082700  0.084100  0.254300  1.0
  C  C483  1  0.980000  0.837300  0.774100  1.0
  C  C484  1  0.020000  0.162700  0.225900  1.0
  C  C485  1  0.131500  0.129200  0.281000  1.0
  C  C486  1  0.868500  0.870800  0.719000  1.0
  C  C487  1  0.069400  0.201200  0.250000  1.0
  C  C488  1  0.930600  0.798800  0.750000  1.0
  C  C489  1  0.303400  0.309400  0.755000  1.0
  C  C490  1  0.696600  0.690600  0.245000  1.0
  C  C491  1  0.345700  0.345900  0.796200  1.0
  C  C492  1  0.654300  0.654100  0.203800  1.0
  C  C493  1  0.325300  0.273100  0.716100  1.0
  C  C494  1  0.674700  0.726900  0.283900  1.0
  C  C495  1  0.410100  0.347100  0.799800  1.0
  C  C496  1  0.589900  0.652900  0.200200  1.0
  C  C497  1  0.394700  0.273800  0.719500  1.0
  C  C498  1  0.605300  0.726200  0.280500  1.0
  C  C499  1  0.434700  0.312900  0.762400  1.0
  C  C500  1  0.565300  0.687100  0.237600  1.0
  C  C501  1  0.419800  0.236800  0.680700  1.0
  C  C502  1  0.580200  0.763200  0.319300  1.0
  C  C503  1  0.505200  0.314000  0.765700  1.0
  C  C504  1  0.494800  0.686000  0.234300  1.0
  C  C505  1  0.485900  0.237500  0.684000  1.0
  C  C506  1  0.514100  0.762500  0.316000  1.0
  C  C507  1  0.529500  0.277900  0.728200  1.0
  C  C508  1  0.470500  0.722100  0.271800  1.0
  C  C509  1  0.513100  0.197800  0.644700  1.0
  C  C510  1  0.486900  0.802200  0.355300  1.0
  C  C511  1  0.596000  0.277700  0.732300  1.0
  C  C512  1  0.404000  0.722300  0.267700  1.0
  C  C513  1  0.578900  0.201400  0.650500  1.0
  C  C514  1  0.421100  0.798600  0.349500  1.0
  C  C515  1  0.622400  0.240000  0.693300  1.0
  C  C516  1  0.377600  0.760000  0.306700  1.0
  C  C517  1  0.606500  0.167000  0.613000  1.0
  C  C518  1  0.393500  0.833000  0.387000  1.0
  C  C519  1  0.690000  0.242200  0.696200  1.0
  C  C520  1  0.310000  0.757800  0.303800  1.0
  C  C521  1  0.674400  0.167600  0.617300  1.0
  C  C522  1  0.325600  0.832400  0.382700  1.0
  C  C523  1  0.714300  0.207700  0.659700  1.0
  C  C524  1  0.285700  0.792300  0.340300  1.0
  C  C525  1  0.288100  0.105900  0.664300  1.0
  C  C526  1  0.711900  0.894100  0.335700  1.0
  C  C527  1  0.314800  0.085800  0.618000  1.0
  C  C528  1  0.685200  0.914200  0.382000  1.0
  C  C529  1  0.372900  0.061500  0.624800  1.0
  C  C530  1  0.627100  0.938500  0.375200  1.0
  C  C531  1  0.287500  0.098900  0.563200  1.0
  C  C532  1  0.712500  0.901100  0.436800  1.0
  C  C533  1  0.402000  0.046600  0.580400  1.0
  C  C534  1  0.598000  0.953400  0.419600  1.0
  C  C535  1  0.319500  0.084000  0.519600  1.0
  C  C536  1  0.680500  0.916000  0.480400  1.0
  C  C537  1  0.378400  0.055100  0.529900  1.0
  C  C538  1  0.621600  0.944900  0.470100  1.0
  C  C539  1  0.411900  0.038300  0.482800  1.0
  C  C540  1  0.588100  0.961700  0.517200  1.0
  C  C541  1  0.399800  0.968600  0.468900  1.0
  C  C542  1  0.600200  0.031400  0.531100  1.0
  C  C543  1  0.386300  0.070500  0.433300  1.0
  C  C544  1  0.613700  0.929500  0.566700  1.0
  C  C545  1  0.748800  0.477400  0.852900  1.0
  C  C546  1  0.251200  0.522600  0.147100  1.0
  C  C547  1  0.714800  0.424800  0.872500  1.0
  C  C548  1  0.285200  0.575200  0.127500  1.0
  C  C549  1  0.663100  0.450900  0.891000  1.0
  C  C550  1  0.336900  0.549100  0.109000  1.0
  C  C551  1  0.721400  0.361100  0.877000  1.0
  C  C552  1  0.278600  0.638900  0.123000  1.0
  C  C553  1  0.622100  0.418600  0.906300  1.0
  C  C554  1  0.377900  0.581400  0.093700  1.0
  C  C555  1  0.680500  0.335600  0.899900  1.0
  C  C556  1  0.319500  0.664400  0.100100  1.0
  C  C557  1  0.634300  0.359200  0.911100  1.0
  C  C558  1  0.365700  0.640800  0.088900  1.0
  C  C559  1  0.583600  0.328900  0.936900  1.0
  C  C560  1  0.416400  0.671100  0.063100  1.0
  C  C561  1  0.546300  0.268000  0.907400  1.0
  C  C562  1  0.453700  0.732000  0.092600  1.0
  C  C563  1  0.628300  0.318700  0.994000  1.0
  C  C564  1  0.371700  0.681300  0.006000  1.0
  C  C565  1  0.436000  0.212700  0.512900  1.0
  C  C566  1  0.564000  0.787300  0.487100  1.0
  C  C567  1  0.343600  0.243800  0.534900  1.0
  C  C568  1  0.656400  0.756200  0.465100  1.0
  C  C569  1  0.441700  0.260600  0.482700  1.0
  C  C570  1  0.558300  0.739400  0.517300  1.0
  C  C571  1  0.346200  0.292200  0.507300  1.0
  C  C572  1  0.653800  0.707800  0.492700  1.0
  C  C573  1  0.395100  0.301300  0.482100  1.0
  C  C574  1  0.604900  0.698700  0.517900  1.0
  C  C575  1  0.401300  0.349500  0.450700  1.0
  C  C576  1  0.598700  0.650500  0.549300  1.0
  C  C577  1  0.402600  0.387200  0.424100  1.0
  C  C578  1  0.597400  0.612800  0.575900  1.0
  C  C579  1  0.401100  0.431600  0.388900  1.0
  C  C580  1  0.598900  0.568400  0.611100  1.0
  C  C581  1  0.402300  0.462100  0.356100  1.0
  C  C582  1  0.597700  0.537900  0.643900  1.0
  C  C583  1  0.399900  0.502700  0.316500  1.0
  C  C584  1  0.600100  0.497300  0.683500  1.0
  C  C585  1  0.441100  0.502900  0.282100  1.0
  C  C586  1  0.558900  0.497100  0.717900  1.0
  C  C587  1  0.345800  0.539000  0.306000  1.0
  C  C588  1  0.654200  0.461000  0.694000  1.0
  C  C589  1  0.569200  0.458400  0.759400  1.0
  C  C590  1  0.430800  0.541600  0.240600  1.0
  C  C591  1  0.653400  0.426400  0.733300  1.0
  C  C592  1  0.346600  0.573600  0.266700  1.0
  C  C593  1  0.598700  0.282300  0.291400  1.0
  C  C594  1  0.401300  0.717700  0.708600  1.0
  C  C595  1  0.601500  0.321800  0.256100  1.0
  C  C596  1  0.398500  0.678200  0.743900  1.0
  C  C597  1  0.645800  0.282400  0.335600  1.0
  C  C598  1  0.354200  0.717600  0.664400  1.0
  C  C599  1  0.654500  0.363100  0.265500  1.0
  C  C600  1  0.345500  0.636900  0.734500  1.0
  C  C601  1  0.697500  0.323400  0.347600  1.0
  C  C602  1  0.302500  0.676600  0.652400  1.0
  C  C603  1  0.700400  0.364000  0.313200  1.0
  C  C604  1  0.299600  0.636000  0.686800  1.0
  C  C605  1  0.747400  0.323400  0.398600  1.0
  C  C606  1  0.252600  0.676600  0.601400  1.0
  C  C607  1  0.752500  0.412100  0.325800  1.0
  C  C608  1  0.247500  0.587900  0.674200  1.0
  C  C609  1  0.788500  0.376600  0.416800  1.0
  C  C610  1  0.211500  0.623400  0.583200  1.0
  C  C611  1  0.791200  0.421300  0.380200  1.0
  C  C612  1  0.208800  0.578700  0.619800  1.0
  C  C613  1  0.823000  0.387900  0.470100  1.0
  C  C614  1  0.177000  0.612100  0.529900  1.0
  C  C615  1  0.831900  0.472800  0.397500  1.0
  C  C616  1  0.168100  0.527200  0.602500  1.0
  C  C617  1  0.861900  0.441600  0.490200  1.0
  C  C618  1  0.138100  0.558400  0.509800  1.0
  C  C619  1  0.867600  0.483400  0.454900  1.0
  C  C620  1  0.132400  0.516600  0.545100  1.0
  C  C621  1  0.894800  0.455500  0.545800  1.0
  C  C622  1  0.105200  0.544500  0.454200  1.0
  C  C623  1  0.902900  0.536800  0.474300  1.0
  C  C624  1  0.097100  0.463200  0.525700  1.0
  C  C625  1  0.929600  0.506900  0.561800  1.0
  C  C626  1  0.070400  0.493100  0.438200  1.0
  C  C627  1  0.935200  0.546600  0.528000  1.0
  C  C628  1  0.064800  0.453400  0.472000  1.0
  C  C629  1  0.946500  0.302600  0.569400  1.0
  C  C630  1  0.053500  0.697400  0.430600  1.0
  C  C631  1  0.901700  0.253700  0.536000  1.0
  C  C632  1  0.098300  0.746300  0.464000  1.0
  C  C633  1  0.901000  0.239700  0.478500  1.0
  C  C634  1  0.099000  0.760300  0.521500  1.0
  C  C635  1  0.860600  0.223500  0.559500  1.0
  C  C636  1  0.139400  0.776500  0.440500  1.0
  C  C637  1  0.854400  0.197500  0.446100  1.0
  C  C638  1  0.145600  0.802500  0.553900  1.0
  C  C639  1  0.815000  0.179100  0.526500  1.0
  C  C640  1  0.185000  0.820900  0.473500  1.0
  C  C641  1  0.811200  0.163800  0.468600  1.0
  C  C642  1  0.188800  0.836200  0.531400  1.0
  C  C643  1  0.760100  0.118500  0.433000  1.0
  C  C644  1  0.239900  0.881500  0.567000  1.0
  C  C645  1  0.708200  0.096000  0.459300  1.0
  C  C646  1  0.291800  0.904000  0.540700  1.0
  C  C647  1  0.794300  0.065900  0.411400  1.0
  C  C648  1  0.205700  0.934100  0.588600  1.0
  C  C649  1  0.949900  0.592700  0.340900  1.0
  C  C650  1  0.050100  0.407300  0.659100  1.0
  C  C651  1  0.905000  0.563400  0.291200  1.0
  C  C652  1  0.095000  0.436600  0.708800  1.0
  C  C653  1  0.856000  0.594300  0.265500  1.0
  C  C654  1  0.144000  0.405700  0.734500  1.0
  C  C655  1  0.908500  0.503200  0.269800  1.0
  C  C656  1  0.091500  0.496800  0.730200  1.0
  C  C657  1  0.811700  0.564100  0.219500  1.0
  C  C658  1  0.188300  0.435900  0.780500  1.0
  C  C659  1  0.859300  0.474500  0.224200  1.0
  C  C660  1  0.140700  0.525500  0.775800  1.0
  C  C661  1  0.808600  0.507800  0.198700  1.0
  C  C662  1  0.191400  0.492200  0.801300  1.0
  C  C663  1  0.758000  0.478100  0.152600  1.0
  C  C664  1  0.242000  0.521900  0.847400  1.0
  C  C665  1  0.771300  0.488400  0.098200  1.0
  C  C666  1  0.228700  0.511600  0.901800  1.0
  C  C667  1  0.748900  0.414000  0.150100  1.0
  C  C668  1  0.251100  0.586000  0.849900  1.0
  C  C669  1  0.738300  0.593600  0.352100  1.0
  C  C670  1  0.261700  0.406400  0.647900  1.0
  C  C671  1  0.675600  0.536200  0.280900  1.0
  C  C672  1  0.324400  0.463800  0.719100  1.0
  C  C673  1  0.688800  0.616700  0.367900  1.0
  C  C674  1  0.311200  0.383300  0.632100  1.0
  C  C675  1  0.623200  0.556000  0.295100  1.0
  C  C676  1  0.376800  0.444000  0.704900  1.0
  C  C677  1  0.628400  0.598700  0.341100  1.0
  C  C678  1  0.371600  0.401300  0.658900  1.0
  C  C679  1  0.572000  0.619900  0.359600  1.0
  C  C680  1  0.428000  0.380100  0.640400  1.0
  C  C681  1  0.527200  0.635700  0.375800  1.0
  C  C682  1  0.472800  0.364300  0.624200  1.0
  C  C683  1  0.474800  0.654200  0.392700  1.0
  C  C684  1  0.525200  0.345800  0.607300  1.0
  C  C685  1  0.428500  0.670100  0.408700  1.0
  C  C686  1  0.571500  0.329900  0.591300  1.0
  C  C687  1  0.374800  0.689100  0.431100  1.0
  C  C688  1  0.625200  0.310900  0.568900  1.0
  C  C689  1  0.381300  0.729300  0.474700  1.0
  C  C690  1  0.618700  0.270700  0.525300  1.0
  C  C691  1  0.314700  0.664200  0.407100  1.0
  C  C692  1  0.685300  0.335800  0.592900  1.0
  C  C693  1  0.671200  0.256600  0.502600  1.0
  C  C694  1  0.328800  0.743400  0.497400  1.0
  C  C695  1  0.734900  0.320000  0.569300  1.0
  C  C696  1  0.265100  0.680000  0.430700  1.0
  C  C697  1  0.694500  0.820100  0.177300  1.0
  C  C698  1  0.305500  0.179900  0.822700  1.0
  C  C699  1  0.659200  0.863000  0.154200  1.0
  C  C700  1  0.340800  0.137000  0.845800  1.0
  C  C701  1  0.755600  0.836200  0.209600  1.0
  C  C702  1  0.244400  0.163800  0.790400  1.0
  C  C703  1  0.678700  0.920100  0.167000  1.0
  C  C704  1  0.321300  0.079900  0.833000  1.0
  C  C705  1  0.777800  0.892900  0.221300  1.0
  C  C706  1  0.222200  0.107100  0.778700  1.0
  C  C707  1  0.738500  0.937800  0.199200  1.0
  C  C708  1  0.261500  0.062200  0.800800  1.0
  C  C709  1  0.842800  0.909600  0.256600  1.0
  C  C710  1  0.157200  0.090400  0.743400  1.0
  C  C711  1  0.763400  0.998100  0.212900  1.0
  C  C712  1  0.236600  0.001900  0.787100  1.0
  C  C713  1  0.864100  0.972400  0.270700  1.0
  C  C714  1  0.135900  0.027600  0.729300  1.0
  C  C715  1  0.822500  0.015400  0.248700  1.0
  C  C716  1  0.177500  0.984600  0.751300  1.0
  C  C717  1  0.923200  0.987900  0.302400  1.0
  C  C718  1  0.076800  0.012100  0.697600  1.0
  C  C719  1  0.842700  0.078400  0.269500  1.0
  C  C720  1  0.157300  0.921600  0.730500  1.0
  C  C721  1  0.942500  0.051200  0.323700  1.0
  C  C722  1  0.057500  0.948800  0.676300  1.0
  C  C723  1  0.901200  0.095100  0.308100  1.0
  C  C724  1  0.098800  0.904900  0.691900  1.0
  C  C725  1  0.000900  0.069000  0.359200  1.0
  C  C726  1  0.999100  0.931000  0.640800  1.0
  C  C727  1  0.920900  0.153500  0.324600  1.0
  C  C728  1  0.079100  0.846500  0.675400  1.0
  C  C729  1  0.020000  0.126000  0.375700  1.0
  C  C730  1  0.980000  0.874000  0.624300  1.0
  C  C731  1  0.979000  0.168600  0.358000  1.0
  C  C732  1  0.021000  0.831400  0.642000  1.0
  C  C733  1  0.006900  0.731700  0.271600  1.0
  C  C734  1  0.993100  0.268300  0.728400  1.0
  C  C735  1  0.000200  0.777800  0.316500  1.0
  C  C736  1  0.999800  0.222200  0.683500  1.0
  C  C737  1  0.047100  0.822600  0.340900  1.0
  C  C738  1  0.952900  0.177400  0.659100  1.0
  C  C739  1  0.942000  0.778200  0.335700  1.0
  C  C740  1  0.058000  0.221800  0.664300  1.0
  C  C741  1  0.038400  0.866200  0.382100  1.0
  C  C742  1  0.961600  0.133800  0.617900  1.0
  C  C743  1  0.936000  0.823000  0.378200  1.0
  C  C744  1  0.064000  0.177000  0.621800  1.0
  C  C745  1  0.983500  0.869200  0.401900  1.0
  C  C746  1  0.016500  0.130800  0.598100  1.0
  C  C747  1  0.976400  0.917300  0.443700  1.0
  C  C748  1  0.023600  0.082700  0.556300  1.0
  C  C749  1  0.020200  0.911300  0.498800  1.0
  C  C750  1  0.979800  0.088700  0.501200  1.0
  C  C751  1  0.908600  0.927600  0.446500  1.0
  C  C752  1  0.091400  0.072400  0.553500  1.0
  C  C753  1  0.737600  0.264600  0.174900  1.0
  C  C754  1  0.262400  0.735400  0.825100  1.0
  C  C755  1  0.696600  0.212700  0.188400  1.0
  C  C756  1  0.303400  0.787300  0.811600  1.0
  C  C757  1  0.697000  0.201400  0.242000  1.0
  C  C758  1  0.303000  0.798600  0.758000  1.0
  C  C759  1  0.655800  0.169100  0.152800  1.0
  C  C760  1  0.344200  0.830900  0.847200  1.0
  C  C761  1  0.668600  0.154900  0.262500  1.0
  C  C762  1  0.331400  0.845100  0.737500  1.0
  C  C763  1  0.632100  0.118600  0.168500  1.0
  C  C764  1  0.367900  0.881400  0.831500  1.0
  C  C765  1  0.630700  0.114000  0.222200  1.0
  C  C766  1  0.369300  0.886000  0.777800  1.0
  C  C767  1  0.599300  0.058900  0.226500  1.0
  C  C768  1  0.400700  0.941100  0.773500  1.0
  C  C769  1  0.619100  0.040300  0.276200  1.0
  C  C770  1  0.380900  0.959700  0.723800  1.0
  C  C771  1  0.525700  0.056400  0.209700  1.0
  C  C772  1  0.474300  0.943600  0.790300  1.0
  C  C773  1  0.952100  0.836100  0.189900  1.0
  C  C774  1  0.047900  0.163900  0.810100  1.0
  C  C775  1  0.028500  0.906500  0.230200  1.0
  C  C776  1  0.971500  0.093500  0.769800  1.0
  C  C777  1  0.963500  0.833700  0.143300  1.0
  C  C778  1  0.036500  0.166300  0.856700  1.0
  C  C779  1  0.048500  0.909400  0.182700  1.0
  C  C780  1  0.951500  0.090600  0.817300  1.0
  C  C781  1  0.015100  0.868600  0.140600  1.0
  C  C782  1  0.984900  0.131400  0.859400  1.0
  C  C783  1  0.031400  0.876200  0.094300  1.0
  C  C784  1  0.968600  0.123800  0.905700  1.0
  C  C785  1  0.057600  0.863300  0.052500  1.0
  C  C786  1  0.942400  0.136700  0.947500  1.0
  C  C787  1  0.075300  0.863800  0.005500  1.0
  C  C788  1  0.924700  0.136200  0.994500  1.0
  C  C789  1  0.106600  0.858500  0.966400  1.0
  C  C790  1  0.893400  0.141500  0.033600  1.0
  C  C791  1  0.148700  0.864500  0.928300  1.0
  C  C792  1  0.851300  0.135500  0.071700  1.0
  C  C793  1  0.128800  0.832700  0.878800  1.0
  C  C794  1  0.871200  0.167300  0.121200  1.0
  C  C795  1  0.200900  0.901500  0.940100  1.0
  C  C796  1  0.799100  0.098500  0.059900  1.0
  C  C797  1  0.836100  0.162000  0.159000  1.0
  C  C798  1  0.163900  0.838000  0.841000  1.0
  C  C799  1  0.764300  0.094900  0.098200  1.0
  C  C800  1  0.235700  0.905100  0.901800  1.0
  S  S801  1  0.377800  0.949500  0.022300  1
  S  S802  1  0.622200  0.050500  0.977700  1
  S  S803  1  0.453200  0.863900  0.603300  1
  S  S804  1  0.546800  0.136100  0.396700  1
  S  S805  1  0.168000  0.269200  0.555600  1
  S  S806  1  0.832000  0.730800  0.444400  1
  S  S807  1  0.075100  0.679900  0.726600  1
  S  S808  1  0.924900  0.320100  0.273400  1
  S  S809  1  0.169000  0.309000  0.855600  1
  S  S810  1  0.831000  0.691000  0.144400  1
  S  S811  1  0.836300  0.377100  0.710600  1
  S  S812  1  0.163700  0.622900  0.289400  1
  S  S813  1  0.520800  0.443800  0.148500  1
  S  S814  1  0.479200  0.556200  0.851500  1
  S  S815  1  0.187900  0.975500  0.372800  1
  S  S816  1  0.812100  0.024500  0.627200  1
  N  N817  1  0.300000  0.164300  0.985200  1.0
  N  N818  1  0.700000  0.835700  0.014800  1.0
  N  N819  1  0.124300  0.184700  0.274100  1.0
  N  N820  1  0.875700  0.815300  0.725900  1.0
  N  N821  1  0.387400  0.205400  0.539500  1.0
  N  N822  1  0.612600  0.794600  0.460500  1.0
  N  N823  1  0.617400  0.423100  0.769400  1.0
  N  N824  1  0.382600  0.576900  0.230600  1.0
  N  N825  1  0.734900  0.552900  0.308000  1.0
  N  N826  1  0.265100  0.447100  0.692000  1.0
  N  N827  1  0.728100  0.281600  0.525100  1.0
  N  N828  1  0.271900  0.718400  0.474900  1.0
  N  N829  1  0.980700  0.870400  0.236200  1.0
  N  N830  1  0.019300  0.129600  0.763800  1.0
  N  N831  1  0.780400  0.126300  0.149900  1.0
  N  N832  1  0.219600  0.873700  0.850100  1.0
  O  O833  1  0.313800  0.968100  0.028200  1
  O  O834  1  0.686200  0.031900  0.971800  1
  O  O835  1  0.431300  0.971900  0.069600  1
  O  O836  1  0.568700  0.028100  0.930400  1
  O  O837  1  0.393600  0.950600  0.967400  1
  O  O838  1  0.606400  0.049400  0.032600  1
  O  O839  1  0.470300  0.925200  0.624000  1
  O  O840  1  0.529700  0.074800  0.376000  1
  O  O841  1  0.394300  0.839900  0.617500  1
  O  O842  1  0.605700  0.160100  0.382500  1
  O  O843  1  0.463500  0.845600  0.551000  1
  O  O844  1  0.536500  0.154400  0.449000  1
  O  O845  1  0.209800  0.308000  0.534500  1
  O  O846  1  0.790200  0.692000  0.465500  1
  O  O847  1  0.185400  0.210900  0.560000  1
  O  O848  1  0.814600  0.789100  0.440000  1
  O  O849  1  0.145500  0.296400  0.603600  1
  O  O850  1  0.854500  0.703600  0.396400  1
  O  O851  1  0.141400  0.656400  0.737900  1
  O  O852  1  0.858600  0.343600  0.262100  1
  O  O853  1  0.070400  0.738600  0.747400  1
  O  O854  1  0.929600  0.261400  0.252600  1
  O  O855  1  0.030200  0.634100  0.742400  1
  O  O856  1  0.969800  0.365900  0.257600  1
  O  O857  1  0.147900  0.291900  0.798300  1
  O  O858  1  0.852100  0.708100  0.201700  1
  O  O859  1  0.167300  0.261800  0.888800  1
  O  O860  1  0.832700  0.738200  0.111200  1
  O  O861  1  0.225600  0.349200  0.871300  1
  O  O862  1  0.774400  0.650800  0.128700  1
  O  O863  1  0.790800  0.414700  0.685600  1
  O  O864  1  0.209200  0.585300  0.314400  1
  O  O865  1  0.820100  0.352100  0.756700  1
  O  O866  1  0.179900  0.647900  0.243300  1
  O  O867  1  0.865500  0.342100  0.673900  1
  O  O868  1  0.134500  0.657900  0.326100  1
  O  O869  1  0.452900  0.437900  0.136900  1
  O  O870  1  0.547100  0.562100  0.863100  1
  O  O871  1  0.542100  0.384300  0.144800  1
  O  O872  1  0.457900  0.615700  0.855200  1
  O  O873  1  0.552400  0.479300  0.192500  1
  O  O874  1  0.447600  0.520700  0.807500  1
  O  O875  1  0.124300  0.982000  0.347300  1
  O  O876  1  0.875700  0.018000  0.652700  1
  O  O877  1  0.199000  0.923400  0.395500  1
  O  O878  1  0.801000  0.076600  0.604500  1
  O  O879  1  0.224000  0.027700  0.398200  1
  O  O880  1  0.776000  0.972300  0.601800  1
  O  O881  1  0.244600  0.184700  0.264900  1.0
  O  O882  1  0.755400  0.815300  0.735100  1.0
  O  O883  1  0.177000  0.272400  0.225700  1.0
  O  O884  1  0.823000  0.727600  0.774300  1.0
  O  O885  1  0.364400  0.177400  0.091100  1.0
  O  O886  1  0.635600  0.822600  0.908900  1.0
  O  O887  1  0.291100  0.264200  0.054200  1.0
  O  O888  1  0.708900  0.735800  0.945800  1.0
  O  O889  1  0.377000  0.206800  0.644500  1.0
  O  O890  1  0.623000  0.793200  0.355500  1.0
  O  O891  1  0.479900  0.159700  0.609200  1.0
  O  O892  1  0.520100  0.840300  0.390800  1.0
  O  O893  1  0.536200  0.353000  0.805300  1.0
  O  O894  1  0.463800  0.647000  0.194700  1.0
  O  O895  1  0.640100  0.311000  0.769100  1.0
  O  O896  1  0.359900  0.689000  0.230900  1.0
  O  O897  1  0.748000  0.278100  0.421300  1.0
  O  O898  1  0.252000  0.721900  0.578700  1.0
  O  O899  1  0.826900  0.350800  0.505600  1.0
  O  O900  1  0.173100  0.649200  0.494400  1.0
  O  O901  1  0.756600  0.440300  0.286700  1.0
  O  O902  1  0.243400  0.559700  0.713300  1.0
  O  O903  1  0.841500  0.513400  0.369400  1.0
  O  O904  1  0.158500  0.486600  0.630600  1.0
  O  O905  1  0.871600  0.867600  0.272100  1.0
  O  O906  1  0.128400  0.132400  0.727900  1.0
  O  O907  1  0.966000  0.953900  0.320800  1.0
  O  O908  1  0.034000  0.046100  0.679200  1.0
  O  O909  1  0.728100  0.033600  0.187500  1.0
  O  O910  1  0.271900  0.966400  0.812500  1.0
  O  O911  1  0.806500  0.120900  0.256200  1.0
  O  O912  1  0.193500  0.879100  0.743800  1.0
  F  F913  1  0.327400  0.839200  0.997500  1
  F  F914  1  0.672600  0.160800  0.002500  1
  F  F915  1  0.363000  0.874500  0.091400  1
  F  F916  1  0.637000  0.125500  0.908600  1
  F  F917  1  0.437700  0.854900  0.036300  1
  F  F918  1  0.562300  0.145100  0.963700  1
  F  F919  1  0.509900  0.838000  0.699800  1
  F  F920  1  0.490100  0.162000  0.300200  1
  F  F921  1  0.570700  0.840000  0.642900  1
  F  F922  1  0.429300  0.160000  0.357100  1
  F  F923  1  0.502800  0.766400  0.631200  1
  F  F924  1  0.497200  0.233600  0.368800  1
  F  F925  1  0.073900  0.316700  0.498000  1
  F  F926  1  0.926100  0.683300  0.502000  1
  F  F927  1  0.105500  0.243300  0.458000  1
  F  F928  1  0.894500  0.756700  0.542000  1
  F  F929  1  0.050200  0.228900  0.516400  1
  F  F930  1  0.949800  0.771100  0.483600  1
  F  F931  1  0.063400  0.611900  0.634500  1
  F  F932  1  0.936600  0.388100  0.365500  1
  F  F933  1  0.004900  0.682900  0.632100  1
  F  F934  1  0.995100  0.317100  0.367900  1
  F  F935  1  0.108200  0.705600  0.641700  1
  F  F936  1  0.891800  0.294400  0.358300  1
  F  F937  1  0.096900  0.398000  0.844500  1
  F  F938  1  0.903100  0.602000  0.155500  1
  F  F939  1  0.120400  0.377800  0.925500  1
  F  F940  1  0.879600  0.622200  0.074500  1
  F  F941  1  0.051000  0.322900  0.865000  1
  F  F942  1  0.949000  0.677100  0.135000  1
  F  F943  1  0.922500  0.459700  0.716000  1
  F  F944  1  0.077500  0.540300  0.284000  1
  F  F945  1  0.884200  0.466000  0.779400  1
  F  F946  1  0.115800  0.534000  0.220600  1
  F  F947  1  0.949100  0.403700  0.772300  1
  F  F948  1  0.050900  0.596300  0.227700  1
  F  F949  1  0.516100  0.431700  0.045700  1
  F  F950  1  0.483900  0.568300  0.954300  1
  F  F951  1  0.608500  0.477300  0.089700  1
  F  F952  1  0.391500  0.522700  0.910300  1
  F  F953  1  0.516500  0.522000  0.094400  1
  F  F954  1  0.483500  0.478000  0.905600  1
  F  F955  1  0.280200  0.953700  0.326300  1
  F  F956  1  0.719800  0.046300  0.673700  1
  F  F957  1  0.209600  0.993900  0.281700  1
  F  F958  1  0.790400  0.006100  0.718300  1
  F  F959  1  0.195800  0.908400  0.287600  1
  F  F960  1  0.804200  0.091600  0.712400  1
