
#######################################################################
#
#                 Cambridge Crystallographic Data Centre
#                                CCDC 
#
#######################################################################
#
# If this CIF has been generated from an entry in the Cambridge 
# Structural Database, then it will include bibliographic, chemical, 
# crystal, experimental, refinement or atomic coordinate data resulting 
# from the CCDC's data processing and validation procedures.
#
#######################################################################

data_FAKZIC
_chemical_formula_moiety         'C104 H88 N4 O8 Ru4 4+,4(C1 F3 O3 S1 1-)'
_chemical_name_systematic        
"bis(\m~2~-6,11-dioxido-5,12-naphthacenedione)-bis(\m~2~-4,4'-buta-1,3-diyne-1,4-diyldipyridine)-tetrakis(\h^6^-1-isopropyl-4-methylbenzene)-tetra-ruthenium tetra(trifluoromethanesulfonate) unknown solvate"
_symmetry_cell_setting           triclinic
_symmetry_space_group_name_H-M   'P -1'
_symmetry_Int_Tables_number      2
_space_group_name_Hall           '-P 1'
loop_
_symmetry_equiv_pos_site_id
_symmetry_equiv_pos_as_xyz
1 x,y,z
2 -x,-y,-z
_cell_length_a                   21.535(4)
_cell_length_b                   22.948(5)
_cell_length_c                   25.314(5)
_cell_angle_alpha                97.01(3)
_cell_angle_beta                 101.86(3)
_cell_angle_gamma                92.81(3)
_cell_volume                     12115.8
_cell_formula_units_Z            4
loop_
_atom_site_label
_atom_site_type_symbol
_atom_site_fract_x
_atom_site_fract_y
_atom_site_fract_z
Ru1 Ru 0.36781(7) 0.22843(7) 0.03488(7)
Ru2 Ru 0.20399(9) 0.24647(8) 0.30095(7)
O1 O 0.2446(6) 0.1847(6) 0.2649(6)
O2 O 0.1770(5) 0.2724(5) 0.2257(6)
O3 O 0.3644(6) 0.1774(5) 0.0911(5)
O4 O 0.2911(6) 0.2642(5) 0.0542(5)
N1 N 0.3000(6) 0.1643(7) -0.0148(6)
N2 N 0.1243(8) 0.1847(7) 0.2741(6)
C1 C 0.3479(13) 0.0449(12) 0.2299(11)
H1 H 0.3502 0.0127 0.2504
C2 C 0.3797(14) 0.0424(12) 0.1880(11)
H2 H 0.4084 0.0130 0.1831
C3 C 0.3127(12) 0.0904(11) 0.2447(10)
H3 H 0.2948 0.0932 0.2762
C4 C 0.3680(12) 0.0846(10) 0.1532(10)
H4 H 0.3853 0.0810 0.1214
C5 C 0.3063(11) 0.1334(10) 0.2069(10)
C6 C 0.3320(11) 0.1322(10) 0.1626(10)
C7 C 0.2642(9) 0.1813(9) 0.2209(9)
C8 C 0.3252(10) 0.1802(9) 0.1295(9)
C9 C 0.2469(8) 0.2217(8) 0.1786(7)
C10 C 0.2786(8) 0.2170(8) 0.1324(7)
C11 C 0.2045(10) 0.2590(9) 0.1828(8)
C12 C 0.2629(10) 0.2578(9) 0.0923(9)
C13 C 0.1796(11) 0.2918(10) 0.1386(9)
C14 C 0.2065(10) 0.2917(10) 0.0937(9)
C15 C 0.1248(11) 0.3295(12) 0.1412(10)
H5 H 0.1036 0.3315 0.1707
C16 C 0.1835(12) 0.3220(11) 0.0515(9)
H6 H 0.2024 0.3189 0.0206
C17 C 0.1068(13) 0.3618(13) 0.0969(11)
H7 H 0.0742 0.3882 0.0974
C18 C 0.1363(13) 0.3550(13) 0.0528(11)
H8 H 0.1215 0.3753 0.0226
C19 C 0.2820(14) 0.1779(11) 0.3962(10)
H9 H 0.3069 0.1846 0.4337
H10 H 0.3093 0.1635 0.3716
H11 H 0.2465 0.1485 0.3934
C20 C 0.2560(17) 0.2359(14) 0.3802(11)
C21 C 0.2900(13) 0.2752(12) 0.3589(9)
H12 H 0.3299 0.2611 0.3489
C22 C 0.1976(15) 0.2446(13) 0.3876(10)
H13 H 0.1700 0.2151 0.4000
C23 C 0.2689(13) 0.3236(10) 0.3378(10)
H14 H 0.2939 0.3428 0.3146
C24 C 0.1749(14) 0.2963(12) 0.3641(9)
H15 H 0.1276 0.2976 0.3580
C25 C 0.2047(14) 0.3390(12) 0.3368(10)
C26 C 0.1882(12) 0.3918(12) 0.3127(12)
H16 H 0.2066 0.3979 0.2804
C27 C 0.2073(15) 0.4461(12) 0.3657(12)
H17 H 0.2537 0.4521 0.3775
H18 H 0.1892 0.4352 0.3959
H19 H 0.1902 0.4826 0.3546
C28 C 0.1144(13) 0.3865(15) 0.3023(14)
H20 H 0.0973 0.3582 0.2696
H21 H 0.0983 0.4250 0.2969
H22 H 0.1010 0.3728 0.3337
C29 C 0.4986(11) 0.1591(10) 0.0614(10)
H23 H 0.5428 0.1606 0.0570
H24 H 0.4763 0.1218 0.0424
H25 H 0.4979 0.1620 0.1002
C30 C 0.4652(11) 0.2111(11) 0.0371(11)
C31 C 0.4373(10) 0.2089(12) -0.0137(10)
H26 H 0.4316 0.1695 -0.0366
C32 C 0.4603(9) 0.2679(11) 0.0738(10)
H27 H 0.4742 0.2688 0.1141
C33 C 0.4026(10) 0.2537(11) -0.0355(9)
H28 H 0.3743 0.2450 -0.0726
C34 C 0.4278(8) 0.3142(10) 0.0544(8)
H29 H 0.4175 0.3469 0.0804
C35 C 0.3935(9) 0.3041(11) -0.0003(9)
C36 C 0.3562(10) 0.3471(10) -0.0255(9)
H30 H 0.3195 0.3259 -0.0531
C37 C 0.3885(12) 0.3919(12) -0.0528(9)
H31 H 0.4071 0.3713 -0.0813
H32 H 0.4221 0.4156 -0.0256
H33 H 0.3570 0.4176 -0.0690
C38 C 0.3279(10) 0.3943(9) 0.0163(9)
H34 H 0.3044 0.3728 0.0380
H35 H 0.2994 0.4191 -0.0048
H36 H 0.3633 0.4192 0.0405
C39 C 0.3015(9) 0.1074(8) -0.0114(7)
H37 H 0.3361 0.0950 0.0135
C40 C 0.2543(9) 0.1825(8) -0.0475(7)
H38 H 0.2537 0.2236 -0.0497
C41 C 0.2564(8) 0.0650(8) -0.0415(7)
H39 H 0.2590 0.0246 -0.0371
C42 C 0.2051(8) 0.1446(7) -0.0803(7)
H40 H 0.1709 0.1597 -0.1033
C43 C 0.2069(8) 0.0835(8) -0.0787(7)
C44 C 0.1558(9) 0.0432(8) -0.1110(8)
C45 C 0.1143(9) 0.0107(8) -0.1388(8)
C46 C 0.0671(9) -0.0288(8) -0.1690(8)
C47 C 0.0259(9) -0.0604(8) -0.1974(8)
C48 C -0.0286(10) -0.1013(8) -0.2265(8)
C49 C -0.0827(10) -0.0841(9) -0.2543(8)
H41 H -0.0887 -0.0437 -0.2563
C50 C -0.0200(10) -0.1627(8) -0.2259(8)
H42 H 0.0195 -0.1758 -0.2089
C51 C 0.1315(10) 0.1292(10) 0.2810(9)
H43 H 0.1691 0.1190 0.3038
C52 C 0.0694(10) 0.2012(9) 0.2500(8)
H44 H 0.0644 0.2421 0.2497
Ru1A Ru -0.36781(7) -0.22843(7) -0.03488(7)
Ru2A Ru -0.20399(9) -0.24647(8) -0.30095(7)
O1A O -0.2446(6) -0.1847(6) -0.2649(6)
O2A O -0.1770(5) -0.2724(5) -0.2257(6)
O3A O -0.3644(6) -0.1774(5) -0.0911(5)
O4A O -0.2911(6) -0.2642(5) -0.0542(5)
N1A N -0.3000(6) -0.1643(7) 0.0148(6)
N2A N -0.1243(8) -0.1847(7) -0.2741(6)
C1A C -0.3479(13) -0.0449(12) -0.2299(11)
H1A H -0.3502 -0.0127 -0.2504
C2A C -0.3797(14) -0.0424(12) -0.1880(11)
H2A H -0.4084 -0.0130 -0.1831
C3A C -0.3127(12) -0.0904(11) -0.2447(10)
H3A H -0.2948 -0.0932 -0.2762
C4A C -0.3680(12) -0.0846(10) -0.1532(10)
H4A H -0.3853 -0.0810 -0.1214
C5A C -0.3063(11) -0.1334(10) -0.2069(10)
C6A C -0.3320(11) -0.1322(10) -0.1626(10)
C7A C -0.2642(9) -0.1813(9) -0.2209(9)
C8A C -0.3252(10) -0.1802(9) -0.1295(9)
C9A C -0.2469(8) -0.2217(8) -0.1786(7)
C10A C -0.2786(8) -0.2170(8) -0.1324(7)
C11A C -0.2045(10) -0.2590(9) -0.1828(8)
C12A C -0.2629(10) -0.2578(9) -0.0923(9)
C13A C -0.1796(11) -0.2918(10) -0.1386(9)
C14A C -0.2065(10) -0.2917(10) -0.0937(9)
C15A C -0.1248(11) -0.3295(12) -0.1412(10)
H5A H -0.1036 -0.3315 -0.1707
C16A C -0.1835(12) -0.3220(11) -0.0515(9)
H6A H -0.2024 -0.3189 -0.0206
C17A C -0.1068(13) -0.3618(13) -0.0969(11)
H7A H -0.0742 -0.3882 -0.0974
C18A C -0.1363(13) -0.3550(13) -0.0528(11)
H8A H -0.1215 -0.3753 -0.0226
C19A C -0.2820(14) -0.1779(11) -0.3962(10)
H9A H -0.3069 -0.1846 -0.4337
H10A H -0.3093 -0.1635 -0.3716
H11A H -0.2465 -0.1485 -0.3934
C20A C -0.2560(17) -0.2359(14) -0.3802(11)
C21A C -0.2900(13) -0.2752(12) -0.3589(9)
H12A H -0.3299 -0.2611 -0.3489
C22A C -0.1976(15) -0.2446(13) -0.3876(10)
H13A H -0.1700 -0.2151 -0.4000
C23A C -0.2689(13) -0.3236(10) -0.3378(10)
H14A H -0.2939 -0.3428 -0.3146
C24A C -0.1749(14) -0.2963(12) -0.3641(9)
H15A H -0.1276 -0.2976 -0.3580
C25A C -0.2047(14) -0.3390(12) -0.3368(10)
C26A C -0.1882(12) -0.3918(12) -0.3127(12)
H16A H -0.2066 -0.3979 -0.2804
C27A C -0.2073(15) -0.4461(12) -0.3657(12)
H17A H -0.2537 -0.4521 -0.3775
H18A H -0.1892 -0.4352 -0.3959
H19A H -0.1902 -0.4826 -0.3546
C28A C -0.1144(13) -0.3865(15) -0.3023(14)
H20A H -0.0973 -0.3582 -0.2696
H21A H -0.0983 -0.4250 -0.2969
H22A H -0.1010 -0.3728 -0.3337
C29A C -0.4986(11) -0.1591(10) -0.0614(10)
H23A H -0.5428 -0.1606 -0.0570
H24A H -0.4763 -0.1218 -0.0424
H25A H -0.4979 -0.1620 -0.1002
C30A C -0.4652(11) -0.2111(11) -0.0371(11)
C31A C -0.4373(10) -0.2089(12) 0.0137(10)
H26A H -0.4316 -0.1695 0.0366
C32A C -0.4603(9) -0.2679(11) -0.0738(10)
H27A H -0.4742 -0.2688 -0.1141
C33A C -0.4026(10) -0.2537(11) 0.0355(9)
H28A H -0.3743 -0.2450 0.0726
C34A C -0.4278(8) -0.3142(10) -0.0544(8)
H29A H -0.4175 -0.3469 -0.0804
C35A C -0.3935(9) -0.3041(11) 0.0003(9)
C36A C -0.3562(10) -0.3471(10) 0.0255(9)
H30A H -0.3195 -0.3259 0.0531
C37A C -0.3885(12) -0.3919(12) 0.0528(9)
H31A H -0.4071 -0.3713 0.0813
H32A H -0.4221 -0.4156 0.0256
H33A H -0.3570 -0.4176 0.0690
C38A C -0.3279(10) -0.3943(9) -0.0163(9)
H34A H -0.3044 -0.3728 -0.0380
H35A H -0.2994 -0.4191 0.0048
H36A H -0.3633 -0.4192 -0.0405
C39A C -0.3015(9) -0.1074(8) 0.0114(7)
H37A H -0.3361 -0.0950 -0.0135
C40A C -0.2543(9) -0.1825(8) 0.0475(7)
H38A H -0.2537 -0.2236 0.0497
C41A C -0.2564(8) -0.0650(8) 0.0415(7)
H39A H -0.2590 -0.0246 0.0371
C42A C -0.2051(8) -0.1446(7) 0.0803(7)
H40A H -0.1709 -0.1597 0.1033
C43A C -0.2069(8) -0.0835(8) 0.0787(7)
C44A C -0.1558(9) -0.0432(8) 0.1110(8)
C45A C -0.1143(9) -0.0107(8) 0.1388(8)
C46A C -0.0671(9) 0.0288(8) 0.1690(8)
C47A C -0.0259(9) 0.0604(8) 0.1974(8)
C48A C 0.0286(10) 0.1013(8) 0.2265(8)
C49A C 0.0827(10) 0.0841(9) 0.2543(8)
H41A H 0.0887 0.0437 0.2563
C50A C 0.0200(10) 0.1627(8) 0.2259(8)
H42A H -0.0195 0.1758 0.2089
C51A C -0.1315(10) -0.1292(10) -0.2810(9)
H43A H -0.1691 -0.1190 -0.3038
C52A C -0.0694(10) -0.2012(9) -0.2500(8)
H44A H -0.0644 -0.2421 -0.2497
Ru3 Ru -0.61496(6) 0.13835(6) -0.41365(6)
Ru4 Ru -0.36898(7) 0.37489(7) -0.17087(7)
O5 O -0.6230(5) 0.2068(4) -0.3555(4)
O6 O -0.5201(5) 0.1597(4) -0.3908(4)
O7 O -0.4638(5) 0.3530(5) -0.1947(4)
O8 O -0.3599(5) 0.3110(5) -0.2309(5)
N3 N -0.6126(6) 0.2054(5) -0.4605(5)
N4 N -0.3826(7) 0.4231(6) -0.2306(7)
C53 C -0.6966(8) 0.3094(6) -0.2450(7)
H45 H -0.7410 0.3094 -0.2464
C54 C -0.6543(8) 0.3459(7) -0.2038(7)
H46 H -0.6705 0.3705 -0.1776
C55 C -0.6747(7) 0.2731(6) -0.2839(6)
H47 H -0.7035 0.2483 -0.3121
C56 C -0.5899(8) 0.3471(7) -0.2002(7)
H48 H -0.5621 0.3720 -0.1714
C57 C -0.6053(7) 0.2738(6) -0.2805(6)
C58 C -0.5653(8) 0.3129(7) -0.2376(6)
C59 C -0.5802(8) 0.2368(7) -0.3193(7)
C60 C -0.4948(8) 0.3140(7) -0.2343(7)
C61 C -0.5141(7) 0.2375(6) -0.3160(6)
C62 C -0.4705(7) 0.2779(6) -0.2718(6)
C63 C -0.4869(8) 0.1978(7) -0.3553(7)
C64 C -0.4040(8) 0.2777(7) -0.2677(7)
C65 C -0.4211(8) 0.2014(7) -0.3495(7)
C66 C -0.3776(8) 0.2400(7) -0.3067(7)
C67 C -0.3935(8) 0.1670(7) -0.3870(7)
H49 H -0.4207 0.1423 -0.4164
C68 C -0.3100(8) 0.2422(7) -0.3038(7)
H50 H -0.2823 0.2683 -0.2759
C69 C -0.3256(8) 0.1676(7) -0.3827(7)
H51 H -0.3080 0.1421 -0.4073
C70 C -0.2857(9) 0.2077(7) -0.3403(7)
H52 H -0.2410 0.2100 -0.3377
C71 C -0.7119(11) 0.1059(9) -0.3357(9)
H53 H -0.7383 0.0736 -0.3276
H54 H -0.7380 0.1388 -0.3440
H55 H -0.6774 0.1191 -0.3040
C72 C -0.6852(10) 0.0858(8) -0.3820(9)
C73 C -0.6271(10) 0.0615(7) -0.3752(8)
H56 H -0.6021 0.0604 -0.3375
C74 C -0.7125(8) 0.0989(7) -0.4368(8)
H57 H -0.7486 0.1250 -0.4421
C75 C -0.5980(10) 0.0466(7) -0.4196(9)
H58 H -0.5527 0.0366 -0.4109
C76 C -0.6805(8) 0.0840(7) -0.4804(8)
H59 H -0.6947 0.0995 -0.5158
C77 C -0.6216(9) 0.0551(7) -0.4701(9)
C78 C -0.5881(11) 0.0383(8) -0.5172(9)
H60 H -0.5414 0.0489 -0.5044
C79 C -0.6002(13) -0.0314(8) -0.5311(10)
H61 H -0.5824 -0.0496 -0.4988
H62 H -0.5795 -0.0452 -0.5609
H63 H -0.6460 -0.0422 -0.5422
C80 C -0.6137(12) 0.0705(10) -0.5667(9)
H64 H -0.6052 0.1131 -0.5561
H65 H -0.6596 0.0609 -0.5791
H66 H -0.5923 0.0579 -0.5964
C81 C -0.2512(15) 0.4774(14) -0.1471(12)
H67 H -0.2146 0.4942 -0.1186
H68 H -0.2811 0.5077 -0.1547
H69 H -0.2367 0.4633 -0.1803
C82 C -0.2852(13) 0.4248(13) -0.1275(10)
C83 C -0.3369(14) 0.4509(13) -0.1090(10)
H70 H -0.3476 0.4910 -0.1180
C84 C -0.2786(12) 0.3611(14) -0.1230(10)
H71 H -0.2466 0.3387 -0.1389
C85 C -0.3779(14) 0.4186(12) -0.0937(9)
H72 H -0.4193 0.4338 -0.0884
C86 C -0.3195(13) 0.3356(15) -0.1001(10)
H73 H -0.3217 0.2916 -0.1038
C87 C -0.3657(15) 0.3592(15) -0.0889(10)
C88 C -0.4164(16) 0.3289(16) -0.0631(10)
H74 H -0.4479 0.3578 -0.0558
C89 C -0.4537(16) 0.2680(14) -0.0926(13)
H75 H -0.4870 0.2754 -0.1233
H76 H -0.4732 0.2492 -0.0667
H77 H -0.4239 0.2420 -0.1061
C90 C -0.3717(14) 0.3187(14) -0.0060(11)
H78 H -0.3966 0.2967 0.0143
H79 H -0.3555 0.3569 0.0153
H80 H -0.3360 0.2964 -0.0131
C91 C -0.5640(8) 0.2127(7) -0.4871(7)
H81 H -0.5328 0.1847 -0.4855
C92 C -0.6564(8) 0.2438(7) -0.4651(6)
H82 H -0.6916 0.2381 -0.4485
C93 C -0.5583(8) 0.2606(7) -0.5173(7)
H83 H -0.5246 0.2647 -0.5360
C94 C -0.6538(8) 0.2922(7) -0.4927(7)
H84 H -0.6862 0.3190 -0.4941
C95 C -0.6049(9) 0.3013(8) -0.5179(8)
C96 C -0.5987(10) 0.3495(9) -0.5493(9)
C97 C -0.5974(10) 0.3872(11) -0.5759(10)
C98 C -0.5989(11) 0.4316(10) -0.6111(11)
C99 C -0.5977(10) 0.4621(10) -0.6439(10)
C100 C -0.6001(10) 0.5027(9) -0.6835(9)
C101 C -0.5589(10) 0.5029(8) -0.7179(8)
H85 H -0.5245 0.4783 -0.7147
C102 C -0.6542(10) 0.5390(8) -0.6940(9)
H86 H -0.6875 0.5382 -0.6745
C103 C -0.4308(9) 0.4584(7) -0.2406(8)
H87 H -0.4611 0.4577 -0.2182
C104 C -0.3466(9) 0.4264(8) -0.2667(9)
H88 H -0.3150 0.3988 -0.2647
Ru3A Ru -0.38504(6) 0.86165(6) -0.58635(6)
Ru4A Ru -0.63102(7) 0.62511(7) -0.82913(7)
O5A O -0.3770(5) 0.7932(4) -0.6445(4)
O6A O -0.4799(5) 0.8403(4) -0.6092(4)
O7A O -0.5362(5) 0.6470(5) -0.8053(4)
O8A O -0.6401(5) 0.6890(5) -0.7691(5)
N3A N -0.3874(6) 0.7946(5) -0.5395(5)
N4A N -0.6174(7) 0.5769(6) -0.7694(7)
C53A C -0.3034(8) 0.6906(6) -0.7550(7)
H45A H -0.2590 0.6906 -0.7536
C54A C -0.3457(8) 0.6541(7) -0.7962(7)
H46A H -0.3295 0.6295 -0.8224
C55A C -0.3253(7) 0.7269(6) -0.7161(6)
H47A H -0.2965 0.7517 -0.6879
C56A C -0.4101(8) 0.6529(7) -0.7998(7)
H48A H -0.4379 0.6280 -0.8286
C57A C -0.3947(7) 0.7262(6) -0.7195(6)
C58A C -0.4347(8) 0.6871(7) -0.7624(6)
C59A C -0.4198(8) 0.7632(7) -0.6807(7)
C60A C -0.5052(8) 0.6860(7) -0.7657(7)
C61A C -0.4859(7) 0.7625(6) -0.6840(6)
C62A C -0.5295(7) 0.7221(6) -0.7282(6)
C63A C -0.5131(8) 0.8022(7) -0.6447(7)
C64A C -0.5960(8) 0.7223(7) -0.7323(7)
C65A C -0.5789(8) 0.7986(7) -0.6505(7)
C66A C -0.6224(8) 0.7600(7) -0.6933(7)
C67A C -0.6065(8) 0.8330(7) -0.6130(7)
H49A H -0.5793 0.8577 -0.5836
C68A C -0.6900(8) 0.7578(7) -0.6962(7)
H50A H -0.7177 0.7317 -0.7241
C69A C -0.6744(8) 0.8324(7) -0.6173(7)
H51A H -0.6920 0.8579 -0.5927
C70A C -0.7143(9) 0.7923(7) -0.6597(7)
H52A H -0.7590 0.7900 -0.6623
C71A C -0.2881(11) 0.8941(9) -0.6643(9)
H53A H -0.2617 0.9264 -0.6724
H54A H -0.2620 0.8612 -0.6560
H55A H -0.3226 0.8809 -0.6960
C72A C -0.3148(10) 0.9142(8) -0.6180(9)
C73A C -0.3729(10) 0.9385(7) -0.6248(8)
H56A H -0.3979 0.9396 -0.6625
C74A C -0.2875(8) 0.9011(7) -0.5632(8)
H57A H -0.2514 0.8750 -0.5579
C75A C -0.4020(10) 0.9534(7) -0.5804(9)
H58A H -0.4473 0.9634 -0.5891
C76A C -0.3195(8) 0.9160(7) -0.5196(8)
H59A H -0.3053 0.9005 -0.4842
C77A C -0.3784(9) 0.9449(7) -0.5299(9)
C78A C -0.4119(11) 0.9617(8) -0.4828(9)
H60A H -0.4586 0.9511 -0.4956
C79A C -0.3998(13) 1.0314(8) -0.4689(10)
H61A H -0.4176 1.0496 -0.5012
H62A H -0.4205 1.0452 -0.4391
H63A H -0.3540 1.0422 -0.4578
C80A C -0.3863(12) 0.9295(10) -0.4333(9)
H64A H -0.3948 0.8869 -0.4439
H65A H -0.3404 0.9391 -0.4209
H66A H -0.4077 0.9421 -0.4036
C81A C -0.7488(15) 0.5226(14) -0.8529(12)
H67A H -0.7854 0.5058 -0.8814
H68A H -0.7189 0.4923 -0.8453
H69A H -0.7633 0.5367 -0.8197
C82A C -0.7148(13) 0.5752(13) -0.8725(10)
C83A C -0.6631(14) 0.5491(13) -0.8910(10)
H70A H -0.6524 0.5090 -0.8820
C84A C -0.7214(12) 0.6389(14) -0.8770(10)
H71A H -0.7534 0.6613 -0.8611
C85A C -0.6221(14) 0.5814(12) -0.9063(9)
H72A H -0.5807 0.5662 -0.9116
C86A C -0.6805(13) 0.6644(15) -0.8999(10)
H73A H -0.6783 0.7084 -0.8962
C87A C -0.6343(15) 0.6408(15) -0.9111(10)
C88A C -0.5836(16) 0.6711(16) -0.9369(10)
H74A H -0.5521 0.6422 -0.9442
C89A C -0.5463(16) 0.7320(14) -0.9074(13)
H75A H -0.5130 0.7246 -0.8767
H76A H -0.5268 0.7508 -0.9333
H77A H -0.5761 0.7580 -0.8939
C90A C -0.6283(14) 0.6813(14) -0.9940(11)
H78A H -0.6034 0.7033 -1.0143
H79A H -0.6445 0.6431 -1.0153
H80A H -0.6640 0.7036 -0.9869
C91A C -0.4360(8) 0.7873(7) -0.5129(7)
H81A H -0.4672 0.8153 -0.5145
C92A C -0.3436(8) 0.7562(7) -0.5349(6)
H82A H -0.3084 0.7619 -0.5515
C93A C -0.4417(8) 0.7394(7) -0.4827(7)
H83A H -0.4754 0.7353 -0.4640
C94A C -0.3462(8) 0.7078(7) -0.5073(7)
H84A H -0.3138 0.6810 -0.5059
C95A C -0.3951(9) 0.6987(8) -0.4821(8)
C96A C -0.4013(10) 0.6505(9) -0.4507(9)
C97A C -0.4026(10) 0.6128(11) -0.4241(10)
C98A C -0.4011(11) 0.5684(10) -0.3889(11)
C99A C -0.4023(10) 0.5379(10) -0.3561(10)
C100A C -0.3999(10) 0.4973(9) -0.3165(9)
C101A C -0.4411(10) 0.4971(8) -0.2821(8)
H85A H -0.4755 0.5217 -0.2853
C102A C -0.3458(10) 0.4610(8) -0.3060(9)
H86A H -0.3125 0.4618 -0.3255
C103A C -0.5692(9) 0.5416(7) -0.7594(8)
H87A H -0.5389 0.5423 -0.7818
C104A C -0.6534(9) 0.5736(8) -0.7333(9)
H88A H -0.6850 0.6012 -0.7353
Ru5 Ru -0.19301(6) 0.26107(5) 0.49104(5)
Ru6 Ru -0.18641(6) 0.51519(5) 0.28780(5)
O9 O -0.2520(4) 0.2781(4) 0.4213(4)
O10 O -0.1731(4) 0.3508(4) 0.5056(4)
O11 O -0.2434(4) 0.4403(4) 0.2867(4)
O12 O -0.1585(4) 0.5134(4) 0.3694(4)
N5 N -0.2651(5) 0.5529(5) 0.3080(5)
N6 N -0.2719(6) 0.2816(5) 0.5251(5)
C105 C -0.4013(8) 0.2823(7) 0.2914(8)
H89 H -0.4369 0.2542 0.2850
C106 C -0.3985(8) 0.3218(7) 0.2561(7)
H90 H -0.4321 0.3215 0.2251
C107 C -0.3542(7) 0.2824(6) 0.3356(7)
H91 H -0.3565 0.2535 0.3591
C108 C -0.3455(7) 0.3631(7) 0.2655(7)
H92 H -0.3413 0.3896 0.2402
C109 C -0.3025(7) 0.3234(6) 0.3476(6)
C110 C -0.2996(7) 0.3640(6) 0.3132(6)
C111 C -0.2526(7) 0.3234(6) 0.3986(6)
C112 C -0.2475(7) 0.4121(6) 0.3258(7)
C113 C -0.2115(7) 0.3766(6) 0.4168(6)
C114 C -0.2088(6) 0.4213(6) 0.3802(6)
C115 C -0.1770(7) 0.3879(6) 0.4701(7)
C116 C -0.1681(6) 0.4728(6) 0.3975(6)
C117 C -0.1381(7) 0.4416(6) 0.4902(6)
C118 C -0.1324(7) 0.4834(6) 0.4549(6)
C119 C -0.1052(7) 0.4555(7) 0.5458(7)
H93 H -0.1080 0.4286 0.5710
C120 C -0.0971(7) 0.5368(7) 0.4743(7)
H94 H -0.0953 0.5661 0.4511
C121 C -0.0704(8) 0.5069(7) 0.5618(7)
H95 H -0.0487 0.5157 0.5988
C122 C -0.0648(8) 0.5466(7) 0.5280(7)
H96 H -0.0382 0.5818 0.5412
C123 C -0.0535(7) 0.3026(7) 0.5694(8)
H97 H -0.0141 0.2866 0.5865
H98 H -0.0732 0.3222 0.5976
H99 H -0.0437 0.3311 0.5458
C124 C -0.0983(8) 0.2537(7) 0.5360(8)
C125 C -0.0990(7) 0.2397(7) 0.4785(8)
H100 H -0.0747 0.2666 0.4605
C126 C -0.1394(7) 0.2235(7) 0.5595(8)
H101 H -0.1438 0.2382 0.5973
C127 C -0.1456(7) 0.1975(6) 0.4461(8)
H102 H -0.1533 0.1959 0.4056
C128 C -0.1850(8) 0.1791(7) 0.5265(8)
H103 H -0.2210 0.1647 0.5421
C129 C -0.1888(7) 0.1638(7) 0.4686(8)
C130 C -0.2399(8) 0.1185(7) 0.4330(8)
H104 H -0.2609 0.1372 0.4010
C131 C -0.2918(9) 0.0960(8) 0.4593(10)
H105 H -0.3219 0.0682 0.4325
H106 H -0.3143 0.1291 0.4723
H107 H -0.2729 0.0760 0.4902
C132 C -0.2057(10) 0.0659(8) 0.4114(10)
H108 H -0.2372 0.0369 0.3873
H109 H -0.1831 0.0477 0.4421
H110 H -0.1752 0.0799 0.3909
C133 C -0.0501(7) 0.5927(8) 0.3409(7)
H111 H -0.0132 0.6114 0.3306
H112 H -0.0359 0.5635 0.3650
H113 H -0.0715 0.6228 0.3599
C134 C -0.0950(8) 0.5634(7) 0.2912(7)
C135 C -0.1440(7) 0.5943(7) 0.2655(7)
H114 H -0.1520 0.6342 0.2824
C136 C -0.0915(8) 0.5032(7) 0.2698(8)
H115 H -0.0622 0.4784 0.2918
C137 C -0.1883(8) 0.5641(7) 0.2195(6)
H116 H -0.2282 0.5841 0.2085
C138 C -0.1407(8) 0.4745(8) 0.2242(7)
H117 H -0.1440 0.4306 0.2151
C139 C -0.1914(8) 0.5078(7) 0.1987(7)
C140 C -0.2420(10) 0.4781(8) 0.1526(8)
H118 H -0.2832 0.4951 0.1559
C141 C -0.2287(12) 0.4884(10) 0.0982(8)
H119 H -0.2641 0.4705 0.0691
H120 H -0.1894 0.4706 0.0934
H121 H -0.2237 0.5308 0.0967
C142 C -0.2511(10) 0.4140(8) 0.1501(8)
H122 H -0.2863 0.3985 0.1197
H123 H -0.2611 0.4044 0.1843
H124 H -0.2121 0.3962 0.1447
C143 C -0.2617(7) 0.5936(7) 0.3521(7)
H125 H -0.2206 0.6067 0.3733
C144 C -0.3244(7) 0.5362(6) 0.2809(6)
H126 H -0.3299 0.5081 0.2492
C145 C -0.3112(7) 0.6167(7) 0.3679(7)
H127 H -0.3043 0.6464 0.3986
C146 C -0.3768(7) 0.5560(6) 0.2951(6)
H128 H -0.4176 0.5412 0.2743
C147 C -0.3716(7) 0.5987(6) 0.3411(6)
C148 C -0.4280(8) 0.6199(6) 0.3596(7)
C149 C -0.4728(8) 0.6357(6) 0.3758(7)
C150 C -0.5252(8) 0.6542(6) 0.3927(6)
C151 C -0.5715(8) 0.6701(6) 0.4087(7)
C152 C -0.6252(7) 0.6891(7) 0.4311(7)
C153 C -0.6187(7) 0.7293(7) 0.4747(7)
H129 H -0.5780 0.7487 0.4908
C154 C -0.6853(8) 0.6642(7) 0.4071(7)
H130 H -0.6923 0.6367 0.3748
C155 C -0.3288(7) 0.2566(6) 0.5026(7)
H131 H -0.3345 0.2287 0.4708
C156 C -0.2651(8) 0.3200(7) 0.5693(7)
H132 H -0.2237 0.3376 0.5856
Ru5A Ru -0.80699(6) 0.73893(5) 0.50896(5)
Ru6A Ru -0.81359(6) 0.48481(5) 0.71220(5)
O9A O -0.7480(4) 0.7219(4) 0.5787(4)
O10A O -0.8269(4) 0.6492(4) 0.4944(4)
O11A O -0.7566(4) 0.5597(4) 0.7133(4)
O12A O -0.8415(4) 0.4866(4) 0.6306(4)
N5A N -0.7349(5) 0.4471(5) 0.6920(5)
N6A N -0.7281(6) 0.7184(5) 0.4749(5)
C105A C -0.5987(8) 0.7177(7) 0.7086(8)
H89A H -0.5631 0.7458 0.7150
C106A C -0.6015(8) 0.6782(7) 0.7439(7)
H90A H -0.5679 0.6785 0.7749
C107A C -0.6458(7) 0.7176(6) 0.6644(7)
H91A H -0.6435 0.7465 0.6409
C108A C -0.6545(7) 0.6369(7) 0.7345(7)
H92A H -0.6587 0.6104 0.7598
C109A C -0.6975(7) 0.6766(6) 0.6524(6)
C110A C -0.7004(7) 0.6360(6) 0.6868(6)
C111A C -0.7474(7) 0.6766(6) 0.6014(6)
C112A C -0.7525(7) 0.5879(6) 0.6742(7)
C113A C -0.7885(7) 0.6234(6) 0.5832(6)
C114A C -0.7912(6) 0.5787(6) 0.6198(6)
C115A C -0.8230(7) 0.6121(6) 0.5299(7)
C116A C -0.8319(6) 0.5272(6) 0.6025(6)
C117A C -0.8619(7) 0.5584(6) 0.5098(6)
C118A C -0.8676(7) 0.5166(6) 0.5451(6)
C119A C -0.8948(7) 0.5445(7) 0.4542(7)
H93A H -0.8920 0.5714 0.4290
C120A C -0.9029(7) 0.4632(7) 0.5257(7)
H94A H -0.9047 0.4339 0.5489
C121A C -0.9296(8) 0.4931(7) 0.4382(7)
H95A H -0.9513 0.4843 0.4012
C122A C -0.9352(8) 0.4534(7) 0.4720(7)
H96A H -0.9618 0.4182 0.4588
C123A C -0.9465(7) 0.6974(7) 0.4306(8)
H97A H -0.9859 0.7134 0.4135
H98A H -0.9268 0.6778 0.4024
H99A H -0.9563 0.6689 0.4542
C124A C -0.9017(8) 0.7463(7) 0.4640(8)
C125A C -0.9010(7) 0.7603(7) 0.5215(8)
H100A H -0.9253 0.7334 0.5395
C126A C -0.8606(7) 0.7765(7) 0.4405(8)
H101A H -0.8562 0.7618 0.4027
C127A C -0.8544(7) 0.8025(6) 0.5539(8)
H102A H -0.8467 0.8041 0.5944
C128A C -0.8150(8) 0.8209(7) 0.4735(8)
H103A H -0.7790 0.8353 0.4579
C129A C -0.8112(7) 0.8362(7) 0.5314(8)
C130A C -0.7601(8) 0.8815(7) 0.5670(8)
H104A H -0.7391 0.8628 0.5990
C131A C -0.7082(9) 0.9040(8) 0.5407(10)
H105A H -0.6781 0.9318 0.5675
H106A H -0.6857 0.8709 0.5277
H107A H -0.7271 0.9240 0.5098
C132A C -0.7943(10) 0.9341(8) 0.5886(10)
H108A H -0.7628 0.9631 0.6127
H109A H -0.8169 0.9523 0.5579
H110A H -0.8248 0.9201 0.6091
C133A C -0.9499(7) 0.4073(8) 0.6591(7)
H111A H -0.9868 0.3886 0.6694
H112A H -0.9641 0.4365 0.6350
H113A H -0.9285 0.3772 0.6401
C134A C -0.9050(8) 0.4366(7) 0.7088(7)
C135A C -0.8560(7) 0.4057(7) 0.7345(7)
H114A H -0.8480 0.3658 0.7176
C136A C -0.9085(8) 0.4968(7) 0.7302(8)
H115A H -0.9378 0.5216 0.7082
C137A C -0.8117(8) 0.4359(7) 0.7805(6)
H116A H -0.7718 0.4159 0.7915
C138A C -0.8593(8) 0.5255(8) 0.7758(7)
H117A H -0.8560 0.5694 0.7849
C139A C -0.8086(8) 0.4922(7) 0.8013(7)
C140A C -0.7580(10) 0.5219(8) 0.8474(8)
H118A H -0.7168 0.5049 0.8441
C141A C -0.7713(12) 0.5116(10) 0.9018(8)
H119A H -0.7359 0.5295 0.9309
H120A H -0.8106 0.5294 0.9066
H121A H -0.7763 0.4692 0.9033
C142A C -0.7489(10) 0.5860(8) 0.8499(8)
H122A H -0.7137 0.6015 0.8803
H123A H -0.7389 0.5956 0.8157
H124A H -0.7879 0.6038 0.8553
C143A C -0.7383(7) 0.4064(7) 0.6479(7)
H125A H -0.7794 0.3933 0.6267
C144A C -0.6756(7) 0.4638(6) 0.7191(6)
H126A H -0.6701 0.4919 0.7508
C145A C -0.6888(7) 0.3833(7) 0.6321(7)
H127A H -0.6957 0.3536 0.6014
C146A C -0.6232(7) 0.4440(6) 0.7049(6)
H128A H -0.5824 0.4588 0.7257
C147A C -0.6284(7) 0.4013(6) 0.6589(6)
C148A C -0.5720(8) 0.3801(6) 0.6404(7)
C149A C -0.5272(8) 0.3643(6) 0.6242(7)
C150A C -0.4748(8) 0.3458(6) 0.6073(6)
C151A C -0.4285(8) 0.3299(6) 0.5913(7)
C152A C -0.3748(7) 0.3109(7) 0.5689(7)
C153A C -0.3813(7) 0.2707(7) 0.5253(7)
H129A H -0.4220 0.2513 0.5092
C154A C -0.3147(8) 0.3358(7) 0.5929(7)
H130A H -0.3077 0.3633 0.6252
C155A C -0.6712(7) 0.7434(6) 0.4974(7)
H131A H -0.6655 0.7713 0.5292
C156A C -0.7349(8) 0.6800(7) 0.4307(7)
H132A H -0.7763 0.6624 0.4144
Ru7 Ru -0.03903(7) -0.13522(6) 0.31283(6)
Ru8 Ru -0.27452(9) 0.12340(7) 0.20188(7)
O13 O -0.1284(5) -0.1324(4) 0.2721(4)
O14 O -0.0340(5) -0.0461(4) 0.3208(4)
O15 O -0.2719(6) 0.0336(5) 0.1875(5)
O16 O -0.1935(6) 0.1209(5) 0.2562(5)
N7 N -0.0193(7) -0.1296(6) 0.2362(6)
N8 N -0.2196(8) 0.1263(6) 0.1499(6)
C157 C -0.3055(8) -0.1799(8) 0.1773(7)
H133 H -0.3224 -0.2198 0.1713
C158 C -0.3408(9) -0.1370(8) 0.1542(8)
H134 H -0.3797 -0.1484 0.1287
C159 C -0.2444(8) -0.1638(7) 0.2096(6)
H135 H -0.2187 -0.1933 0.2233
C160 C -0.3213(8) -0.0799(8) 0.1670(7)
H136 H -0.3486 -0.0511 0.1539
C161 C -0.2222(8) -0.1071(7) 0.2213(7)
C162 C -0.2615(8) -0.0622(7) 0.1992(7)
C163 C -0.1572(7) -0.0904(7) 0.2566(6)
C164 C -0.2366(9) -0.0019(7) 0.2129(7)
C165 C -0.1359(8) -0.0276(7) 0.2707(6)
C166 C -0.1775(8) 0.0154(7) 0.2487(7)
C167 C -0.0768(8) -0.0121(7) 0.3024(6)
C168 C -0.1573(9) 0.0784(7) 0.2695(7)
C169 C -0.0575(8) 0.0512(6) 0.3237(7)
C170 C -0.0988(8) 0.0951(7) 0.3081(7)
C171 C 0.0009(8) 0.0690(7) 0.3592(7)
H137 H 0.0279 0.0399 0.3720
C172 C -0.0791(9) 0.1535(7) 0.3246(7)
H138 H -0.1059 0.1831 0.3129
C173 C 0.0200(9) 0.1260(7) 0.3757(7)
H139 H 0.0606 0.1373 0.3988
C174 C -0.0210(9) 0.1686(7) 0.3580(7)
H140 H -0.0078 0.2091 0.3696
C175 C 0.0069(9) -0.2683(7) 0.2716(7)
H141 H 0.0254 -0.3023 0.2871
H142 H 0.0348 -0.2523 0.2499
H143 H -0.0350 -0.2807 0.2483
C176 C 0.0002(10) -0.2222(7) 0.3165(8)
C177 C 0.0471(9) -0.1774(7) 0.3409(7)
H144 H 0.0838 -0.1711 0.3231
C178 C -0.0580(9) -0.2218(7) 0.3357(7)
H145 H -0.0961 -0.2477 0.3151
C179 C 0.0384(8) -0.1338(7) 0.3821(7)
H146 H 0.0693 -0.0982 0.3914
C180 C -0.0640(8) -0.1770(6) 0.3782(7)
H147 H -0.1077 -0.1721 0.3851
C181 C -0.0165(8) -0.1308(7) 0.4019(7)
C182 C -0.0236(8) -0.0827(7) 0.4437(7)
H148 H -0.0064 -0.0461 0.4322
C183 C 0.0202(10) -0.0887(7) 0.4988(7)
H149 H 0.0635 -0.0943 0.4936
H150 H 0.0043 -0.1226 0.5135
H151 H 0.0206 -0.0528 0.5244
C184 C -0.0914(10) -0.0724(8) 0.4465(9)
H152 H -0.1157 -0.0682 0.4101
H153 H -0.0923 -0.0363 0.4714
H154 H -0.1103 -0.1059 0.4599
C185 C -0.2624(12) 0.2646(9) 0.1749(12)
H155 H -0.2887 0.2976 0.1681
H156 H -0.2460 0.2515 0.1424
H157 H -0.2267 0.2772 0.2057
C186 C -0.3034(11) 0.2127(9) 0.1884(10)
C187 C -0.3030(11) 0.2014(9) 0.2420(9)
H158 H -0.2673 0.2241 0.2695
C188 C -0.3442(10) 0.1691(10) 0.1528(10)
H159 H -0.3423 0.1669 0.1135
C189 C -0.3314(10) 0.1549(9) 0.2625(10)
H160 H -0.3200 0.1486 0.3016
C190 C -0.3679(10) 0.1186(11) 0.1685(10)
H161 H -0.3865 0.0849 0.1398
C191 C -0.3693(12) 0.1140(12) 0.2222(10)
C192 C -0.4007(14) 0.0589(14) 0.2265(14)
H162 H -0.3872 0.0292 0.1995
C193 C -0.3809(16) 0.0403(14) 0.2762(13)
H163 H -0.3343 0.0406 0.2847
H164 H -0.3994 0.0002 0.2753
H165 H -0.3946 0.0668 0.3043
C194 C -0.4743(13) 0.0564(13) 0.2097(13)
H166 H -0.4924 0.0180 0.2147
H167 H -0.4870 0.0621 0.1713
H168 H -0.4901 0.0875 0.2324
C195 C -0.0479(10) -0.1639(9) 0.1899(9)
H169 H -0.0819 -0.1903 0.1931
C196 C 0.0285(10) -0.0935(9) 0.2302(9)
H170 H 0.0503 -0.0676 0.2614
C197 C -0.0365(12) -0.1663(10) 0.1433(10)
H171 H -0.0617 -0.1904 0.1125
C198 C 0.0485(12) -0.0906(10) 0.1827(10)
H172 H 0.0817 -0.0636 0.1791
C199 C 0.0151(14) -0.1314(13) 0.1406(12)
C200 C 0.0314(15) -0.1238(14) 0.0943(13)
C201 C 0.0576(16) -0.1367(15) 0.0525(13)
C202 C 0.0753(17) -0.1362(14) 0.0055(13)
C203 C 0.1066(16) -0.1415(13) -0.0336(12)
C204 C 0.1487(11) -0.1355(11) -0.0717(8)
C205 C 0.1288(8) -0.1673(9) -0.1212(9)
H173 H 0.0910 -0.1929 -0.1293
C206 C 0.2009(11) -0.0985(9) -0.0599(6)
H174 H 0.2134 -0.0752 -0.0252
C207 C -0.1639(9) 0.1620(7) 0.1590(6)
H175 H -0.1494 0.1841 0.1941
C208 C -0.2357(8) 0.0949(6) 0.0982(7)
H176 H -0.2734 0.0693 0.0892
Ru7A Ru 0.03903(7) 0.13522(6) -0.31283(6)
Ru8A Ru 0.27452(9) -0.12340(7) -0.20188(7)
O13A O 0.1284(5) 0.1324(4) -0.2721(4)
O14A O 0.0340(5) 0.0461(4) -0.3208(4)
O15A O 0.2719(6) -0.0336(5) -0.1875(5)
O16A O 0.1935(6) -0.1209(5) -0.2562(5)
N7A N 0.0193(7) 0.1296(6) -0.2362(6)
N8A N 0.2196(8) -0.1263(6) -0.1499(6)
C157A C 0.3055(8) 0.1799(8) -0.1773(7)
H133A H 0.3224 0.2198 -0.1713
C158A C 0.3408(9) 0.1370(8) -0.1542(8)
H134A H 0.3797 0.1484 -0.1287
C159A C 0.2444(8) 0.1638(7) -0.2096(6)
H135A H 0.2187 0.1933 -0.2233
C160A C 0.3213(8) 0.0799(8) -0.1670(7)
H136A H 0.3486 0.0511 -0.1539
C161A C 0.2222(8) 0.1071(7) -0.2213(7)
C162A C 0.2615(8) 0.0622(7) -0.1992(7)
C163A C 0.1572(7) 0.0904(7) -0.2566(6)
C164A C 0.2366(9) 0.0019(7) -0.2129(7)
C165A C 0.1359(8) 0.0276(7) -0.2707(6)
C166A C 0.1775(8) -0.0154(7) -0.2487(7)
C167A C 0.0768(8) 0.0121(7) -0.3024(6)
C168A C 0.1573(9) -0.0784(7) -0.2695(7)
C169A C 0.0575(8) -0.0512(6) -0.3237(7)
C170A C 0.0988(8) -0.0951(7) -0.3081(7)
C171A C -0.0009(8) -0.0690(7) -0.3592(7)
H137A H -0.0279 -0.0399 -0.3720
C172A C 0.0791(9) -0.1535(7) -0.3246(7)
H138A H 0.1059 -0.1831 -0.3129
C173A C -0.0200(9) -0.1260(7) -0.3757(7)
H139A H -0.0606 -0.1373 -0.3988
C174A C 0.0210(9) -0.1686(7) -0.3580(7)
H140A H 0.0078 -0.2091 -0.3696
C175A C -0.0069(9) 0.2683(7) -0.2716(7)
H141A H -0.0254 0.3023 -0.2871
H142A H -0.0348 0.2523 -0.2499
H143A H 0.0350 0.2807 -0.2483
C176A C -0.0002(10) 0.2222(7) -0.3165(8)
C177A C -0.0471(9) 0.1774(7) -0.3409(7)
H144A H -0.0838 0.1711 -0.3231
C178A C 0.0580(9) 0.2218(7) -0.3357(7)
H145A H 0.0961 0.2477 -0.3151
C179A C -0.0384(8) 0.1338(7) -0.3821(7)
H146A H -0.0693 0.0982 -0.3914
C180A C 0.0640(8) 0.1770(6) -0.3782(7)
H147A H 0.1077 0.1721 -0.3851
C181A C 0.0165(8) 0.1308(7) -0.4019(7)
C182A C 0.0236(8) 0.0827(7) -0.4437(7)
H148A H 0.0064 0.0461 -0.4322
C183A C -0.0202(10) 0.0887(7) -0.4988(7)
H149A H -0.0635 0.0943 -0.4936
H150A H -0.0043 0.1226 -0.5135
H151A H -0.0206 0.0528 -0.5244
C184A C 0.0914(10) 0.0724(8) -0.4465(9)
H152A H 0.1157 0.0682 -0.4101
H153A H 0.0923 0.0363 -0.4714
H154A H 0.1103 0.1059 -0.4599
C185A C 0.2624(12) -0.2646(9) -0.1749(12)
H155A H 0.2887 -0.2976 -0.1681
H156A H 0.2460 -0.2515 -0.1424
H157A H 0.2267 -0.2772 -0.2057
C186A C 0.3034(11) -0.2127(9) -0.1884(10)
C187A C 0.3030(11) -0.2014(9) -0.2420(9)
H158A H 0.2673 -0.2241 -0.2695
C188A C 0.3442(10) -0.1691(10) -0.1528(10)
H159A H 0.3423 -0.1669 -0.1135
C189A C 0.3314(10) -0.1549(9) -0.2625(10)
H160A H 0.3200 -0.1486 -0.3016
C190A C 0.3679(10) -0.1186(11) -0.1685(10)
H161A H 0.3865 -0.0849 -0.1398
C191A C 0.3693(12) -0.1140(12) -0.2222(10)
C192A C 0.4007(14) -0.0589(14) -0.2265(14)
H162A H 0.3872 -0.0292 -0.1995
C193A C 0.3809(16) -0.0403(14) -0.2762(13)
H163A H 0.3343 -0.0406 -0.2847
H164A H 0.3994 -0.0002 -0.2753
H165A H 0.3946 -0.0668 -0.3043
C194A C 0.4743(13) -0.0564(13) -0.2097(13)
H166A H 0.4924 -0.0180 -0.2147
H167A H 0.4870 -0.0621 -0.1713
H168A H 0.4901 -0.0875 -0.2324
C195A C 0.0479(10) 0.1639(9) -0.1899(9)
H169A H 0.0819 0.1903 -0.1931
C196A C -0.0285(10) 0.0935(9) -0.2302(9)
H170A H -0.0503 0.0676 -0.2614
C197A C 0.0365(12) 0.1663(10) -0.1433(10)
H171A H 0.0617 0.1904 -0.1125
C198A C -0.0485(12) 0.0906(10) -0.1827(10)
H172A H -0.0817 0.0636 -0.1791
C199A C -0.0151(14) 0.1314(13) -0.1406(12)
C200A C -0.0314(15) 0.1238(14) -0.0943(13)
C201A C -0.0576(16) 0.1367(15) -0.0525(13)
C202A C -0.0753(17) 0.1362(14) -0.0055(13)
C203A C -0.1066(16) 0.1415(13) 0.0336(12)
C204A C -0.1487(11) 0.1355(11) 0.0717(8)
C205A C -0.1288(8) 0.1673(9) 0.1212(9)
H173A H -0.0910 0.1929 0.1293
C206A C -0.2009(11) 0.0985(9) 0.0599(6)
H174A H -0.2134 0.0752 0.0252
C207A C 0.1639(9) -0.1620(7) -0.1590(6)
H175A H 0.1494 -0.1841 -0.1941
C208A C 0.2357(8) -0.0949(6) -0.0982(7)
H176A H 0.2734 -0.0693 -0.0892
S1 S -0.6222(5) -0.0505(5) 0.0223(4)
F1 F -0.6726(10) -0.1608(10) -0.0025(9)
F2 F -0.6370(11) -0.1255(11) 0.0914(8)
F3 F -0.5623(10) -0.1451(11) 0.0363(10)
O17 O -0.6862(9) -0.0319(11) 0.0282(8)
O18 O -0.5687(9) -0.0281(12) 0.0696(7)
O19 O -0.6064(10) -0.0494(11) -0.0326(7)
C209 C -0.6242(10) -0.1210(7) 0.0370(9)
S2 S 0.4532(3) -0.1361(2) -0.3967(3)
F4 F 0.5099(6) -0.1620(6) -0.3002(5)
F5 F 0.5707(6) -0.1600(8) -0.3571(6)
F6 F 0.5028(7) -0.2336(6) -0.3688(5)
O20 O 0.4703(8) -0.0748(6) -0.3760(7)
O21 O 0.3943(7) -0.1601(6) -0.3825(6)
O22 O 0.4635(6) -0.1544(5) -0.4490(6)
C210 C 0.5112(12) -0.1697(11) -0.3566(11)
S3 S 0.1680(2) 0.2692(2) -0.4444(3)
F7 F 0.0739(6) 0.3167(5) -0.5020(7)
F8 F 0.1055(7) 0.2433(8) -0.5420(5)
F9 F 0.0502(4) 0.2289(4) -0.4836(4)
O23 O 0.2098(5) 0.3080(5) -0.4655(5)
O24 O 0.1854(6) 0.2109(6) -0.4400(8)
O25 O 0.1455(7) 0.2964(7) -0.3964(5)
C211 C 0.0991(7) 0.2648(8) -0.4978(7)
S4 S 0.0751(8) 0.6799(6) -0.2734(5)
F10 F 0.0634(7) 0.6119(6) -0.3655(7)
F11 F 0.0049(8) 0.6829(7) -0.3679(8)
F12 F 0.1082(9) 0.7056(6) -0.3583(8)
O26 O 0.1414(10) 0.6564(10) -0.2621(11)
O27 O 0.0704(12) 0.7386(7) -0.2526(8)
O28 O 0.0302(14) 0.6341(11) -0.2576(12)
C212 C 0.0557(11) 0.6688(10) -0.3446(6)
S5 S 0.1690(2) 0.3090(2) -0.1444(2)
F13 F 0.0969(5) 0.3980(4) -0.1555(4)
F14 F 0.1204(6) 0.3778(5) -0.0745(4)
F15 F 0.0510(5) 0.3229(5) -0.1350(5)
O29 O 0.1479(5) 0.2919(5) -0.2017(5)
O30 O 0.1673(7) 0.2618(5) -0.1112(5)
O31 O 0.2256(6) 0.3492(5) -0.1287(5)
C213 C 0.1082(9) 0.3548(9) -0.1256(8)
S6 S 0.8363(3) 0.3771(3) -0.2894(3)
F16 F 0.9225(7) 0.4597(8) -0.2840(8)
F17 F 0.8842(6) 0.4660(7) -0.2206(7)
F18 F 0.9491(7) 0.4037(7) -0.2277(6)
O32 O 0.7908(7) 0.4147(7) -0.3144(7)
O33 O 0.8201(10) 0.3521(9) -0.2433(9)
O34 O 0.8655(7) 0.3421(8) -0.3261(7)
C214 C 0.8982(11) 0.4244(13) -0.2507(13)
S7 S 0.5208(3) 0.4438(3) 0.1485(3)
F19 F 0.5161(8) 0.4317(8) 0.0457(6)
F20 F 0.6085(6) 0.4773(8) 0.0897(8)
F21 F 0.5165(8) 0.5220(7) 0.0944(10)
O35 O 0.4529(7) 0.4379(7) 0.1369(7)
O36 O 0.5421(9) 0.3843(8) 0.1448(7)
O37 O 0.5524(9) 0.4793(10) 0.1925(8)
C215 C 0.5452(8) 0.4663(7) 0.0960(6)
S8 S 0.1879(3) -0.0245(3) 0.3728(3)
F22 F 0.2802(7) -0.0463(7) 0.3263(7)
F23 F 0.2096(9) -0.0061(10) 0.2817(9)
F24 F 0.1958(8) -0.0916(9) 0.2876(7)
O38 O 0.1243(6) -0.0180(6) 0.3473(7)
O39 O 0.1990(7) -0.0766(8) 0.3955(8)
O40 O 0.2240(10) 0.0277(8) 0.3982(11)
C216 C 0.2207(17) -0.0345(15) 0.3241(17)
loop_
_geom_bond_atom_site_label_1
_geom_bond_atom_site_label_2
_geom_bond_site_symmetry_1
_geom_bond_site_symmetry_2
Ru1 O3 1_555 1_555
Ru2 O1 1_555 1_555
O1 C7 1_555 1_555
O2 Ru2 1_555 1_555
O3 C8 1_555 1_555
O4 Ru1 1_555 1_555
N1 Ru1 1_555 1_555
N2 Ru2 1_555 1_555
C1 H1 1_555 1_555
C2 C1 1_555 1_555
H2 C2 1_555 1_555
C3 C1 1_555 1_555
H3 C3 1_555 1_555
C4 C2 1_555 1_555
H4 C4 1_555 1_555
C5 C3 1_555 1_555
C6 C4 1_555 1_555
C7 C5 1_555 1_555
C8 C6 1_555 1_555
C9 C7 1_555 1_555
C10 C8 1_555 1_555
C11 O2 1_555 1_555
C12 O4 1_555 1_555
C13 C11 1_555 1_555
C14 C12 1_555 1_555
C15 C13 1_555 1_555
H5 C15 1_555 1_555
C16 C14 1_555 1_555
H6 C16 1_555 1_555
C17 C15 1_555 1_555
H7 C17 1_555 1_555
C18 C16 1_555 1_555
H8 C18 1_555 1_555
C19 H9 1_555 1_555
H10 C19 1_555 1_555
H11 C19 1_555 1_555
C20 Ru2 1_555 1_555
C21 Ru2 1_555 1_555
H12 C21 1_555 1_555
C22 Ru2 1_555 1_555
H13 C22 1_555 1_555
C23 Ru2 1_555 1_555
H14 C23 1_555 1_555
C24 Ru2 1_555 1_555
H15 C24 1_555 1_555
C25 Ru2 1_555 1_555
C26 C25 1_555 1_555
H16 C26 1_555 1_555
C27 C26 1_555 1_555
H17 C27 1_555 1_555
H18 C27 1_555 1_555
H19 C27 1_555 1_555
C28 C26 1_555 1_555
H20 C28 1_555 1_555
H21 C28 1_555 1_555
H22 C28 1_555 1_555
C29 H23 1_555 1_555
H24 C29 1_555 1_555
H25 C29 1_555 1_555
C30 Ru1 1_555 1_555
C31 Ru1 1_555 1_555
H26 C31 1_555 1_555
C32 Ru1 1_555 1_555
H27 C32 1_555 1_555
C33 Ru1 1_555 1_555
H28 C33 1_555 1_555
C34 Ru1 1_555 1_555
H29 C34 1_555 1_555
C35 Ru1 1_555 1_555
C36 C35 1_555 1_555
H30 C36 1_555 1_555
C37 C36 1_555 1_555
H31 C37 1_555 1_555
H32 C37 1_555 1_555
H33 C37 1_555 1_555
C38 C36 1_555 1_555
H34 C38 1_555 1_555
H35 C38 1_555 1_555
H36 C38 1_555 1_555
C39 N1 1_555 1_555
H37 C39 1_555 1_555
C40 N1 1_555 1_555
H38 C40 1_555 1_555
C41 C39 1_555 1_555
H39 C41 1_555 1_555
C42 C40 1_555 1_555
H40 C42 1_555 1_555
C43 C41 1_555 1_555
C44 C43 1_555 1_555
C45 C44 1_555 1_555
C46 C45 1_555 1_555
C47 C46 1_555 1_555
C48 C47 1_555 1_555
C49 C48 1_555 1_555
H41 C49 1_555 1_555
C50 C48 1_555 1_555
H42 C50 1_555 1_555
C51 N2 1_555 1_555
H43 C51 1_555 1_555
C52 N2 1_555 1_555
H44 C52 1_555 1_555
Ru3 O5 1_555 1_555
Ru4 O7 1_555 1_555
O5 C59 1_555 1_555
O6 Ru3 1_555 1_555
O7 C60 1_555 1_555
O8 Ru4 1_555 1_555
N3 Ru3 1_555 1_555
N4 Ru4 1_555 1_555
C53 H45 1_555 1_555
C54 C53 1_555 1_555
H46 C54 1_555 1_555
C55 C53 1_555 1_555
H47 C55 1_555 1_555
C56 C54 1_555 1_555
H48 C56 1_555 1_555
C57 C55 1_555 1_555
C58 C56 1_555 1_555
C59 C57 1_555 1_555
C60 C58 1_555 1_555
C61 C59 1_555 1_555
C62 C60 1_555 1_555
C63 O6 1_555 1_555
C64 O8 1_555 1_555
C65 C63 1_555 1_555
C66 C64 1_555 1_555
C67 C65 1_555 1_555
H49 C67 1_555 1_555
C68 C66 1_555 1_555
H50 C68 1_555 1_555
C69 C67 1_555 1_555
H51 C69 1_555 1_555
C70 C68 1_555 1_555
H52 C70 1_555 1_555
C71 H53 1_555 1_555
H54 C71 1_555 1_555
H55 C71 1_555 1_555
C72 Ru3 1_555 1_555
C73 Ru3 1_555 1_555
H56 C73 1_555 1_555
C74 Ru3 1_555 1_555
H57 C74 1_555 1_555
C75 Ru3 1_555 1_555
H58 C75 1_555 1_555
C76 Ru3 1_555 1_555
H59 C76 1_555 1_555
C77 Ru3 1_555 1_555
C78 C77 1_555 1_555
H60 C78 1_555 1_555
C79 C78 1_555 1_555
H61 C79 1_555 1_555
H62 C79 1_555 1_555
H63 C79 1_555 1_555
C80 C78 1_555 1_555
H64 C80 1_555 1_555
H65 C80 1_555 1_555
H66 C80 1_555 1_555
C81 H67 1_555 1_555
H68 C81 1_555 1_555
H69 C81 1_555 1_555
C82 Ru4 1_555 1_555
C83 Ru4 1_555 1_555
H70 C83 1_555 1_555
C84 Ru4 1_555 1_555
H71 C84 1_555 1_555
C85 Ru4 1_555 1_555
H72 C85 1_555 1_555
C86 Ru4 1_555 1_555
H73 C86 1_555 1_555
C87 Ru4 1_555 1_555
C88 C87 1_555 1_555
H74 C88 1_555 1_555
C89 C88 1_555 1_555
H75 C89 1_555 1_555
H76 C89 1_555 1_555
H77 C89 1_555 1_555
C90 C88 1_555 1_555
H78 C90 1_555 1_555
H79 C90 1_555 1_555
H80 C90 1_555 1_555
C91 N3 1_555 1_555
H81 C91 1_555 1_555
C92 N3 1_555 1_555
H82 C92 1_555 1_555
C93 C91 1_555 1_555
H83 C93 1_555 1_555
C94 C92 1_555 1_555
H84 C94 1_555 1_555
C95 C93 1_555 1_555
C96 C95 1_555 1_555
C97 C96 1_555 1_555
C98 C97 1_555 1_555
C99 C98 1_555 1_555
C100 C99 1_555 1_555
C101 C100 1_555 1_555
H85 C101 1_555 1_555
C102 C100 1_555 1_555
H86 C102 1_555 1_555
C103 N4 1_555 1_555
H87 C103 1_555 1_555
C104 N4 1_555 1_555
H88 C104 1_555 1_555
Ru5 O9 1_555 1_555
Ru6 O11 1_555 1_555
O9 C111 1_555 1_555
O10 Ru5 1_555 1_555
O11 C112 1_555 1_555
O12 Ru6 1_555 1_555
N5 Ru6 1_555 1_555
N6 Ru5 1_555 1_555
C105 H89 1_555 1_555
C106 C105 1_555 1_555
H90 C106 1_555 1_555
C107 C105 1_555 1_555
H91 C107 1_555 1_555
C108 C106 1_555 1_555
H92 C108 1_555 1_555
C109 C107 1_555 1_555
C110 C108 1_555 1_555
C111 C109 1_555 1_555
C112 C110 1_555 1_555
C113 C111 1_555 1_555
C114 C112 1_555 1_555
C115 O10 1_555 1_555
C116 O12 1_555 1_555
C117 C115 1_555 1_555
C118 C116 1_555 1_555
C119 C117 1_555 1_555
H93 C119 1_555 1_555
C120 C118 1_555 1_555
H94 C120 1_555 1_555
C121 C119 1_555 1_555
H95 C121 1_555 1_555
C122 C120 1_555 1_555
H96 C122 1_555 1_555
C123 H97 1_555 1_555
H98 C123 1_555 1_555
H99 C123 1_555 1_555
C124 Ru5 1_555 1_555
C125 Ru5 1_555 1_555
H100 C125 1_555 1_555
C126 Ru5 1_555 1_555
H101 C126 1_555 1_555
C127 Ru5 1_555 1_555
H102 C127 1_555 1_555
C128 Ru5 1_555 1_555
H103 C128 1_555 1_555
C129 Ru5 1_555 1_555
C130 C129 1_555 1_555
H104 C130 1_555 1_555
C131 C130 1_555 1_555
H105 C131 1_555 1_555
H106 C131 1_555 1_555
H107 C131 1_555 1_555
C132 C130 1_555 1_555
H108 C132 1_555 1_555
H109 C132 1_555 1_555
H110 C132 1_555 1_555
C133 H111 1_555 1_555
H112 C133 1_555 1_555
H113 C133 1_555 1_555
C134 Ru6 1_555 1_555
C135 Ru6 1_555 1_555
H114 C135 1_555 1_555
C136 Ru6 1_555 1_555
H115 C136 1_555 1_555
C137 Ru6 1_555 1_555
H116 C137 1_555 1_555
C138 Ru6 1_555 1_555
H117 C138 1_555 1_555
C139 Ru6 1_555 1_555
C140 C139 1_555 1_555
H118 C140 1_555 1_555
C141 C140 1_555 1_555
H119 C141 1_555 1_555
H120 C141 1_555 1_555
H121 C141 1_555 1_555
C142 C140 1_555 1_555
H122 C142 1_555 1_555
H123 C142 1_555 1_555
H124 C142 1_555 1_555
C143 N5 1_555 1_555
H125 C143 1_555 1_555
C144 N5 1_555 1_555
H126 C144 1_555 1_555
C145 C143 1_555 1_555
H127 C145 1_555 1_555
C146 C144 1_555 1_555
H128 C146 1_555 1_555
C147 C145 1_555 1_555
C148 C147 1_555 1_555
C149 C148 1_555 1_555
C150 C149 1_555 1_555
C151 C150 1_555 1_555
C152 C151 1_555 1_555
C153 C152 1_555 1_555
H129 C153 1_555 1_555
C154 C152 1_555 1_555
H130 C154 1_555 1_555
C155 N6 1_555 1_555
H131 C155 1_555 1_555
C156 N6 1_555 1_555
H132 C156 1_555 1_555
Ru7 O13 1_555 1_555
Ru8 O15 1_555 1_555
O13 C163 1_555 1_555
O14 Ru7 1_555 1_555
O15 C164 1_555 1_555
O16 Ru8 1_555 1_555
N7 Ru7 1_555 1_555
N8 Ru8 1_555 1_555
C157 H133 1_555 1_555
C158 C157 1_555 1_555
H134 C158 1_555 1_555
C159 C157 1_555 1_555
H135 C159 1_555 1_555
C160 C158 1_555 1_555
H136 C160 1_555 1_555
C161 C159 1_555 1_555
C162 C160 1_555 1_555
C163 C161 1_555 1_555
C164 C162 1_555 1_555
C165 C163 1_555 1_555
C166 C164 1_555 1_555
C167 O14 1_555 1_555
C168 O16 1_555 1_555
C169 C167 1_555 1_555
C170 C168 1_555 1_555
C171 C169 1_555 1_555
H137 C171 1_555 1_555
C172 C170 1_555 1_555
H138 C172 1_555 1_555
C173 C171 1_555 1_555
H139 C173 1_555 1_555
C174 C172 1_555 1_555
H140 C174 1_555 1_555
C175 H141 1_555 1_555
H142 C175 1_555 1_555
H143 C175 1_555 1_555
C176 Ru7 1_555 1_555
C177 Ru7 1_555 1_555
H144 C177 1_555 1_555
C178 Ru7 1_555 1_555
H145 C178 1_555 1_555
C179 Ru7 1_555 1_555
H146 C179 1_555 1_555
C180 Ru7 1_555 1_555
H147 C180 1_555 1_555
C181 Ru7 1_555 1_555
C182 C181 1_555 1_555
H148 C182 1_555 1_555
C183 C182 1_555 1_555
H149 C183 1_555 1_555
H150 C183 1_555 1_555
H151 C183 1_555 1_555
C184 C182 1_555 1_555
H152 C184 1_555 1_555
H153 C184 1_555 1_555
H154 C184 1_555 1_555
C185 H155 1_555 1_555
H156 C185 1_555 1_555
H157 C185 1_555 1_555
C186 Ru8 1_555 1_555
C187 Ru8 1_555 1_555
H158 C187 1_555 1_555
C188 Ru8 1_555 1_555
H159 C188 1_555 1_555
C189 Ru8 1_555 1_555
H160 C189 1_555 1_555
C190 Ru8 1_555 1_555
H161 C190 1_555 1_555
C191 Ru8 1_555 1_555
C192 C191 1_555 1_555
H162 C192 1_555 1_555
C193 C192 1_555 1_555
H163 C193 1_555 1_555
H164 C193 1_555 1_555
H165 C193 1_555 1_555
C194 C192 1_555 1_555
H166 C194 1_555 1_555
H167 C194 1_555 1_555
H168 C194 1_555 1_555
C195 N7 1_555 1_555
H169 C195 1_555 1_555
C196 N7 1_555 1_555
H170 C196 1_555 1_555
C197 C195 1_555 1_555
H171 C197 1_555 1_555
C198 C196 1_555 1_555
H172 C198 1_555 1_555
C199 C197 1_555 1_555
C200 C199 1_555 1_555
C201 C200 1_555 1_555
C202 C201 1_555 1_555
C203 C202 1_555 1_555
C204 C203 1_555 1_555
C205 C204 1_555 1_555
H173 C205 1_555 1_555
C206 C204 1_555 1_555
H174 C206 1_555 1_555
C207 N8 1_555 1_555
H175 C207 1_555 1_555
C208 N8 1_555 1_555
H176 C208 1_555 1_555
S1 O17 1_555 1_555
F1 C209 1_555 1_555
F2 C209 1_555 1_555
F3 C209 1_555 1_555
O18 S1 1_555 1_555
O19 S1 1_555 1_555
C209 S1 1_555 1_555
S2 O20 1_555 1_555
F4 C210 1_555 1_555
F5 C210 1_555 1_555
F6 C210 1_555 1_555
O21 S2 1_555 1_555
O22 S2 1_555 1_555
C210 S2 1_555 1_555
S3 O23 1_555 1_555
F7 C211 1_555 1_555
F8 C211 1_555 1_555
F9 C211 1_555 1_555
O24 S3 1_555 1_555
O25 S3 1_555 1_555
C211 S3 1_555 1_555
S4 O26 1_555 1_555
F10 C212 1_555 1_555
F11 C212 1_555 1_555
F12 C212 1_555 1_555
O27 S4 1_555 1_555
O28 S4 1_555 1_555
C212 S4 1_555 1_555
S5 O29 1_555 1_555
F13 C213 1_555 1_555
F14 C213 1_555 1_555
F15 C213 1_555 1_555
O30 S5 1_555 1_555
O31 S5 1_555 1_555
C213 S5 1_555 1_555
S6 O32 1_555 1_555
F16 C214 1_555 1_555
F17 C214 1_555 1_555
F18 C214 1_555 1_555
O33 S6 1_555 1_555
O34 S6 1_555 1_555
C214 S6 1_555 1_555
S7 O35 1_555 1_555
F19 C215 1_555 1_555
F20 C215 1_555 1_555
F21 C215 1_555 1_555
O36 S7 1_555 1_555
O37 S7 1_555 1_555
C215 S7 1_555 1_555
S8 O38 1_555 1_555
F22 C216 1_555 1_555
F23 C216 1_555 1_555
F24 C216 1_555 1_555
O39 S8 1_555 1_555
O40 S8 1_555 1_555
C216 S8 1_555 1_555
Ru1A O3A 1_555 1_555
Ru2A O1A 1_555 1_555
O1A C7A 1_555 1_555
O2A Ru2A 1_555 1_555
O3A C8A 1_555 1_555
O4A Ru1A 1_555 1_555
N1A Ru1A 1_555 1_555
N2A Ru2A 1_555 1_555
C1A H1A 1_555 1_555
C2A C1A 1_555 1_555
H2A C2A 1_555 1_555
C3A C1A 1_555 1_555
H3A C3A 1_555 1_555
C4A C2A 1_555 1_555
H4A C4A 1_555 1_555
C5A C3A 1_555 1_555
C6A C4A 1_555 1_555
C7A C5A 1_555 1_555
C8A C6A 1_555 1_555
C9A C7A 1_555 1_555
C10A C8A 1_555 1_555
C11A O2A 1_555 1_555
C12A O4A 1_555 1_555
C13A C11A 1_555 1_555
C14A C12A 1_555 1_555
C15A C13A 1_555 1_555
H5A C15A 1_555 1_555
C16A C14A 1_555 1_555
H6A C16A 1_555 1_555
C17A C15A 1_555 1_555
H7A C17A 1_555 1_555
C18A C16A 1_555 1_555
H8A C18A 1_555 1_555
C19A H9A 1_555 1_555
H10A C19A 1_555 1_555
H11A C19A 1_555 1_555
C20A Ru2A 1_555 1_555
C21A Ru2A 1_555 1_555
H12A C21A 1_555 1_555
C22A Ru2A 1_555 1_555
H13A C22A 1_555 1_555
C23A Ru2A 1_555 1_555
H14A C23A 1_555 1_555
C24A Ru2A 1_555 1_555
H15A C24A 1_555 1_555
C25A Ru2A 1_555 1_555
C26A C25A 1_555 1_555
H16A C26A 1_555 1_555
C27A C26A 1_555 1_555
H17A C27A 1_555 1_555
H18A C27A 1_555 1_555
H19A C27A 1_555 1_555
C28A C26A 1_555 1_555
H20A C28A 1_555 1_555
H21A C28A 1_555 1_555
H22A C28A 1_555 1_555
C29A H23A 1_555 1_555
H24A C29A 1_555 1_555
H25A C29A 1_555 1_555
C30A Ru1A 1_555 1_555
C31A Ru1A 1_555 1_555
H26A C31A 1_555 1_555
C32A Ru1A 1_555 1_555
H27A C32A 1_555 1_555
C33A Ru1A 1_555 1_555
H28A C33A 1_555 1_555
C34A Ru1A 1_555 1_555
H29A C34A 1_555 1_555
C35A Ru1A 1_555 1_555
C36A C35A 1_555 1_555
H30A C36A 1_555 1_555
C37A C36A 1_555 1_555
H31A C37A 1_555 1_555
H32A C37A 1_555 1_555
H33A C37A 1_555 1_555
C38A C36A 1_555 1_555
H34A C38A 1_555 1_555
H35A C38A 1_555 1_555
H36A C38A 1_555 1_555
C39A N1A 1_555 1_555
H37A C39A 1_555 1_555
C40A N1A 1_555 1_555
H38A C40A 1_555 1_555
C41A C39A 1_555 1_555
H39A C41A 1_555 1_555
C42A C40A 1_555 1_555
H40A C42A 1_555 1_555
C43A C41A 1_555 1_555
C44A C43A 1_555 1_555
C45A C44A 1_555 1_555
C46A C45A 1_555 1_555
C47A C46A 1_555 1_555
C48A C47A 1_555 1_555
C49A C51 1_555 1_555
H41A C49A 1_555 1_555
C50A C52 1_555 1_555
H42A C50A 1_555 1_555
C51A C49 1_555 1_555
H43A C51A 1_555 1_555
C52A C50 1_555 1_555
H44A C52A 1_555 1_555
Ru3A O5A 1_555 1_555
Ru4A O7A 1_555 1_555
O5A C59A 1_555 1_555
O6A Ru3A 1_555 1_555
O7A C60A 1_555 1_555
O8A Ru4A 1_555 1_555
N3A Ru3A 1_555 1_555
N4A Ru4A 1_555 1_555
C53A H45A 1_555 1_555
C54A C53A 1_555 1_555
H46A C54A 1_555 1_555
C55A C53A 1_555 1_555
H47A C55A 1_555 1_555
C56A C54A 1_555 1_555
H48A C56A 1_555 1_555
C57A C55A 1_555 1_555
C58A C56A 1_555 1_555
C59A C57A 1_555 1_555
C60A C58A 1_555 1_555
C61A C59A 1_555 1_555
C62A C60A 1_555 1_555
C63A O6A 1_555 1_555
C64A O8A 1_555 1_555
C65A C63A 1_555 1_555
C66A C64A 1_555 1_555
C67A C65A 1_555 1_555
H49A C67A 1_555 1_555
C68A C66A 1_555 1_555
H50A C68A 1_555 1_555
C69A C67A 1_555 1_555
H51A C69A 1_555 1_555
C70A C68A 1_555 1_555
H52A C70A 1_555 1_555
C71A H53A 1_555 1_555
H54A C71A 1_555 1_555
H55A C71A 1_555 1_555
C72A Ru3A 1_555 1_555
C73A Ru3A 1_555 1_555
H56A C73A 1_555 1_555
C74A Ru3A 1_555 1_555
H57A C74A 1_555 1_555
C75A Ru3A 1_555 1_555
H58A C75A 1_555 1_555
C76A Ru3A 1_555 1_555
H59A C76A 1_555 1_555
C77A Ru3A 1_555 1_555
C78A C77A 1_555 1_555
H60A C78A 1_555 1_555
C79A C78A 1_555 1_555
H61A C79A 1_555 1_555
H62A C79A 1_555 1_555
H63A C79A 1_555 1_555
C80A C78A 1_555 1_555
H64A C80A 1_555 1_555
H65A C80A 1_555 1_555
H66A C80A 1_555 1_555
C81A H67A 1_555 1_555
H68A C81A 1_555 1_555
H69A C81A 1_555 1_555
C82A Ru4A 1_555 1_555
C83A Ru4A 1_555 1_555
H70A C83A 1_555 1_555
C84A Ru4A 1_555 1_555
H71A C84A 1_555 1_555
C85A Ru4A 1_555 1_555
H72A C85A 1_555 1_555
C86A Ru4A 1_555 1_555
H73A C86A 1_555 1_555
C87A Ru4A 1_555 1_555
C88A C87A 1_555 1_555
H74A C88A 1_555 1_555
C89A C88A 1_555 1_555
H75A C89A 1_555 1_555
H76A C89A 1_555 1_555
H77A C89A 1_555 1_555
C90A C88A 1_555 1_555
H78A C90A 1_555 1_555
H79A C90A 1_555 1_555
H80A C90A 1_555 1_555
C91A N3A 1_555 1_555
H81A C91A 1_555 1_555
C92A N3A 1_555 1_555
H82A C92A 1_555 1_555
C93A C91A 1_555 1_555
H83A C93A 1_555 1_555
C94A C92A 1_555 1_555
H84A C94A 1_555 1_555
C95A C93A 1_555 1_555
C96A C95A 1_555 1_555
C97A C96A 1_555 1_555
C98A C97A 1_555 1_555
C99A C98A 1_555 1_555
C100A C99A 1_555 1_555
C101A C103 1_555 1_555
H85A C101A 1_555 1_555
C102A C104 1_555 1_555
H86A C102A 1_555 1_555
C103A C101 1_555 1_555
H87A C103A 1_555 1_555
C104A C102 1_555 1_555
H88A C104A 1_555 1_555
Ru5A O9A 1_555 1_555
Ru6A O11A 1_555 1_555
O9A C111A 1_555 1_555
O10A Ru5A 1_555 1_555
O11A C112A 1_555 1_555
O12A Ru6A 1_555 1_555
N5A Ru6A 1_555 1_555
N6A Ru5A 1_555 1_555
C105A H89A 1_555 1_555
C106A C105A 1_555 1_555
H90A C106A 1_555 1_555
C107A C105A 1_555 1_555
H91A C107A 1_555 1_555
C108A C106A 1_555 1_555
H92A C108A 1_555 1_555
C109A C107A 1_555 1_555
C110A C108A 1_555 1_555
C111A C109A 1_555 1_555
C112A C110A 1_555 1_555
C113A C111A 1_555 1_555
C114A C112A 1_555 1_555
C115A O10A 1_555 1_555
C116A O12A 1_555 1_555
C117A C115A 1_555 1_555
C118A C116A 1_555 1_555
C119A C117A 1_555 1_555
H93A C119A 1_555 1_555
C120A C118A 1_555 1_555
H94A C120A 1_555 1_555
C121A C119A 1_555 1_555
H95A C121A 1_555 1_555
C122A C120A 1_555 1_555
H96A C122A 1_555 1_555
C123A H97A 1_555 1_555
H98A C123A 1_555 1_555
H99A C123A 1_555 1_555
C124A Ru5A 1_555 1_555
C125A Ru5A 1_555 1_555
H100A C125A 1_555 1_555
C126A Ru5A 1_555 1_555
H101A C126A 1_555 1_555
C127A Ru5A 1_555 1_555
H102A C127A 1_555 1_555
C128A Ru5A 1_555 1_555
H103A C128A 1_555 1_555
C129A Ru5A 1_555 1_555
C130A C129A 1_555 1_555
H104A C130A 1_555 1_555
C131A C130A 1_555 1_555
H105A C131A 1_555 1_555
H106A C131A 1_555 1_555
H107A C131A 1_555 1_555
C132A C130A 1_555 1_555
H108A C132A 1_555 1_555
H109A C132A 1_555 1_555
H110A C132A 1_555 1_555
C133A H111A 1_555 1_555
H112A C133A 1_555 1_555
H113A C133A 1_555 1_555
C134A Ru6A 1_555 1_555
C135A Ru6A 1_555 1_555
H114A C135A 1_555 1_555
C136A Ru6A 1_555 1_555
H115A C136A 1_555 1_555
C137A Ru6A 1_555 1_555
H116A C137A 1_555 1_555
C138A Ru6A 1_555 1_555
H117A C138A 1_555 1_555
C139A Ru6A 1_555 1_555
C140A C139A 1_555 1_555
H118A C140A 1_555 1_555
C141A C140A 1_555 1_555
H119A C141A 1_555 1_555
H120A C141A 1_555 1_555
H121A C141A 1_555 1_555
C142A C140A 1_555 1_555
H122A C142A 1_555 1_555
H123A C142A 1_555 1_555
H124A C142A 1_555 1_555
C143A N5A 1_555 1_555
H125A C143A 1_555 1_555
C144A N5A 1_555 1_555
H126A C144A 1_555 1_555
C145A C143A 1_555 1_555
H127A C145A 1_555 1_555
C146A C144A 1_555 1_555
H128A C146A 1_555 1_555
C147A C145A 1_555 1_555
C148A C147A 1_555 1_555
C149A C148A 1_555 1_555
C150A C149A 1_555 1_555
C151A C150A 1_555 1_555
C152A C151A 1_555 1_555
C153A C155 1_555 1_555
H129A C153A 1_555 1_555
C154A C156 1_555 1_555
H130A C154A 1_555 1_555
C155A C153 1_555 1_555
H131A C155A 1_555 1_555
C156A C154 1_555 1_555
H132A C156A 1_555 1_555
Ru7A O13A 1_555 1_555
Ru8A O15A 1_555 1_555
O13A C163A 1_555 1_555
O14A Ru7A 1_555 1_555
O15A C164A 1_555 1_555
O16A Ru8A 1_555 1_555
N7A Ru7A 1_555 1_555
N8A Ru8A 1_555 1_555
C157A H133A 1_555 1_555
C158A C157A 1_555 1_555
H134A C158A 1_555 1_555
C159A C157A 1_555 1_555
H135A C159A 1_555 1_555
C160A C158A 1_555 1_555
H136A C160A 1_555 1_555
C161A C159A 1_555 1_555
C162A C160A 1_555 1_555
C163A C161A 1_555 1_555
C164A C162A 1_555 1_555
C165A C163A 1_555 1_555
C166A C164A 1_555 1_555
C167A O14A 1_555 1_555
C168A O16A 1_555 1_555
C169A C167A 1_555 1_555
C170A C168A 1_555 1_555
C171A C169A 1_555 1_555
H137A C171A 1_555 1_555
C172A C170A 1_555 1_555
H138A C172A 1_555 1_555
C173A C171A 1_555 1_555
H139A C173A 1_555 1_555
C174A C172A 1_555 1_555
H140A C174A 1_555 1_555
C175A H141A 1_555 1_555
H142A C175A 1_555 1_555
H143A C175A 1_555 1_555
C176A Ru7A 1_555 1_555
C177A Ru7A 1_555 1_555
H144A C177A 1_555 1_555
C178A Ru7A 1_555 1_555
H145A C178A 1_555 1_555
C179A Ru7A 1_555 1_555
H146A C179A 1_555 1_555
C180A Ru7A 1_555 1_555
H147A C180A 1_555 1_555
C181A Ru7A 1_555 1_555
C182A C181A 1_555 1_555
H148A C182A 1_555 1_555
C183A C182A 1_555 1_555
H149A C183A 1_555 1_555
H150A C183A 1_555 1_555
H151A C183A 1_555 1_555
C184A C182A 1_555 1_555
H152A C184A 1_555 1_555
H153A C184A 1_555 1_555
H154A C184A 1_555 1_555
C185A H155A 1_555 1_555
H156A C185A 1_555 1_555
H157A C185A 1_555 1_555
C186A Ru8A 1_555 1_555
C187A Ru8A 1_555 1_555
H158A C187A 1_555 1_555
C188A Ru8A 1_555 1_555
H159A C188A 1_555 1_555
C189A Ru8A 1_555 1_555
H160A C189A 1_555 1_555
C190A Ru8A 1_555 1_555
H161A C190A 1_555 1_555
C191A Ru8A 1_555 1_555
C192A C191A 1_555 1_555
H162A C192A 1_555 1_555
C193A C192A 1_555 1_555
H163A C193A 1_555 1_555
H164A C193A 1_555 1_555
H165A C193A 1_555 1_555
C194A C192A 1_555 1_555
H166A C194A 1_555 1_555
H167A C194A 1_555 1_555
H168A C194A 1_555 1_555
C195A N7A 1_555 1_555
H169A C195A 1_555 1_555
C196A N7A 1_555 1_555
H170A C196A 1_555 1_555
C197A C195A 1_555 1_555
H171A C197A 1_555 1_555
C198A C196A 1_555 1_555
H172A C198A 1_555 1_555
C199A C197A 1_555 1_555
C200A C199A 1_555 1_555
C201A C200A 1_555 1_555
C202A C201A 1_555 1_555
C203A C202A 1_555 1_555
C204A C203A 1_555 1_555
C205A C207 1_555 1_555
H173A C205A 1_555 1_555
C206A C208 1_555 1_555
H174A C206A 1_555 1_555
C207A C205 1_555 1_555
H175A C207A 1_555 1_555
C208A C206 1_555 1_555
H176A C208A 1_555 1_555
C5 C6 1_555 1_555
C9 C10 1_555 1_555
C9 C11 1_555 1_555
C10 C12 1_555 1_555
C13 C14 1_555 1_555
C17 C18 1_555 1_555
C19 C20 1_555 1_555
C20 C21 1_555 1_555
C20 C22 1_555 1_555
C21 C23 1_555 1_555
C22 C24 1_555 1_555
C23 C25 1_555 1_555
C24 C25 1_555 1_555
C29 C30 1_555 1_555
C30 C31 1_555 1_555
C30 C32 1_555 1_555
C31 C33 1_555 1_555
C32 C34 1_555 1_555
C33 C35 1_555 1_555
C34 C35 1_555 1_555
C42 C43 1_555 1_555
C57 C58 1_555 1_555
C61 C62 1_555 1_555
C61 C63 1_555 1_555
C62 C64 1_555 1_555
C65 C66 1_555 1_555
C69 C70 1_555 1_555
C71 C72 1_555 1_555
C72 C73 1_555 1_555
C72 C74 1_555 1_555
C73 C75 1_555 1_555
C74 C76 1_555 1_555
C75 C77 1_555 1_555
C76 C77 1_555 1_555
C81 C82 1_555 1_555
C82 C83 1_555 1_555
C82 C84 1_555 1_555
C83 C85 1_555 1_555
C84 C86 1_555 1_555
C85 C87 1_555 1_555
C86 C87 1_555 1_555
C94 C95 1_555 1_555
C109 C110 1_555 1_555
C113 C114 1_555 1_555
C113 C115 1_555 1_555
C114 C116 1_555 1_555
C117 C118 1_555 1_555
C121 C122 1_555 1_555
C123 C124 1_555 1_555
C124 C125 1_555 1_555
C124 C126 1_555 1_555
C125 C127 1_555 1_555
C126 C128 1_555 1_555
C127 C129 1_555 1_555
C128 C129 1_555 1_555
C133 C134 1_555 1_555
C134 C135 1_555 1_555
C134 C136 1_555 1_555
C135 C137 1_555 1_555
C136 C138 1_555 1_555
C137 C139 1_555 1_555
C138 C139 1_555 1_555
C146 C147 1_555 1_555
C161 C162 1_555 1_555
C165 C166 1_555 1_555
C165 C167 1_555 1_555
C166 C168 1_555 1_555
C169 C170 1_555 1_555
C173 C174 1_555 1_555
C175 C176 1_555 1_555
C176 C177 1_555 1_555
C176 C178 1_555 1_555
C177 C179 1_555 1_555
C178 C180 1_555 1_555
C179 C181 1_555 1_555
C180 C181 1_555 1_555
C185 C186 1_555 1_555
C186 C187 1_555 1_555
C186 C188 1_555 1_555
C187 C189 1_555 1_555
C188 C190 1_555 1_555
C189 C191 1_555 1_555
C190 C191 1_555 1_555
C198 C199 1_555 1_555
N2A C51A 1_555 1_555
N2A C52A 1_555 1_555
C5A C6A 1_555 1_555
C9A C10A 1_555 1_555
C9A C11A 1_555 1_555
C10A C12A 1_555 1_555
C13A C14A 1_555 1_555
C17A C18A 1_555 1_555
C19A C20A 1_555 1_555
C20A C21A 1_555 1_555
C20A C22A 1_555 1_555
C21A C23A 1_555 1_555
C22A C24A 1_555 1_555
C23A C25A 1_555 1_555
C24A C25A 1_555 1_555
C29A C30A 1_555 1_555
C30A C31A 1_555 1_555
C30A C32A 1_555 1_555
C31A C33A 1_555 1_555
C32A C34A 1_555 1_555
C33A C35A 1_555 1_555
C34A C35A 1_555 1_555
C42A C43A 1_555 1_555
C48A C49A 1_555 1_555
C48A C50A 1_555 1_555
N4A C103A 1_555 1_555
N4A C104A 1_555 1_555
C57A C58A 1_555 1_555
C61A C62A 1_555 1_555
C61A C63A 1_555 1_555
C62A C64A 1_555 1_555
C65A C66A 1_555 1_555
C69A C70A 1_555 1_555
C71A C72A 1_555 1_555
C72A C73A 1_555 1_555
C72A C74A 1_555 1_555
C73A C75A 1_555 1_555
C74A C76A 1_555 1_555
C75A C77A 1_555 1_555
C76A C77A 1_555 1_555
C81A C82A 1_555 1_555
C82A C83A 1_555 1_555
C82A C84A 1_555 1_555
C83A C85A 1_555 1_555
C84A C86A 1_555 1_555
C85A C87A 1_555 1_555
C86A C87A 1_555 1_555
C94A C95A 1_555 1_555
C100A C101A 1_555 1_555
C100A C102A 1_555 1_555
N6A C155A 1_555 1_555
N6A C156A 1_555 1_555
C109A C110A 1_555 1_555
C113A C114A 1_555 1_555
C113A C115A 1_555 1_555
C114A C116A 1_555 1_555
C117A C118A 1_555 1_555
C121A C122A 1_555 1_555
C123A C124A 1_555 1_555
C124A C125A 1_555 1_555
C124A C126A 1_555 1_555
C125A C127A 1_555 1_555
C126A C128A 1_555 1_555
C127A C129A 1_555 1_555
C128A C129A 1_555 1_555
C133A C134A 1_555 1_555
C134A C135A 1_555 1_555
C134A C136A 1_555 1_555
C135A C137A 1_555 1_555
C136A C138A 1_555 1_555
C137A C139A 1_555 1_555
C138A C139A 1_555 1_555
C146A C147A 1_555 1_555
C152A C153A 1_555 1_555
C152A C154A 1_555 1_555
N8A C207A 1_555 1_555
N8A C208A 1_555 1_555
C161A C162A 1_555 1_555
C165A C166A 1_555 1_555
C165A C167A 1_555 1_555
C166A C168A 1_555 1_555
C169A C170A 1_555 1_555
C173A C174A 1_555 1_555
C175A C176A 1_555 1_555
C176A C177A 1_555 1_555
C176A C178A 1_555 1_555
C177A C179A 1_555 1_555
C178A C180A 1_555 1_555
C179A C181A 1_555 1_555
C180A C181A 1_555 1_555
C185A C186A 1_555 1_555
C186A C187A 1_555 1_555
C186A C188A 1_555 1_555
C187A C189A 1_555 1_555
C188A C190A 1_555 1_555
C189A C191A 1_555 1_555
C190A C191A 1_555 1_555
C198A C199A 1_555 1_555
C204A C205A 1_555 1_555
C204A C206A 1_555 1_555

#END
