
#######################################################################
#
#                 Cambridge Crystallographic Data Centre
#                                CCDC 
#
#######################################################################
#
# If this CIF has been generated from an entry in the Cambridge 
# Structural Database, then it will include bibliographic, chemical, 
# crystal, experimental, refinement or atomic coordinate data resulting 
# from the CCDC's data processing and validation procedures.
#
#######################################################################

data_FATNUK
_chemical_formula_moiety         
'C120 H120 N24 Pd6 12+,C24 H18,12(N1 O3 1-),19(H2 O1)'
_chemical_name_systematic        
"bis(\m~6~-1,3,5-tris(3',5'-bis(3''-Pyridyl)phenyl)benzene)-hexakis((1,2-ethanediamine)-palladium(ii)) 1,3,5-triphenylbenzene clathrate dodecakis(nitrate) nonadecahydrate"
_symmetry_cell_setting           monoclinic
_symmetry_space_group_name_H-M   'P 21/n'
_symmetry_Int_Tables_number      14
_space_group_name_Hall           '-P 2yn'
loop_
_symmetry_equiv_pos_site_id
_symmetry_equiv_pos_as_xyz
1 x,y,z
2 1/2-x,1/2+y,1/2-z
3 -x,-y,-z
4 1/2+x,1/2-y,1/2+z
_cell_length_a                   20.5995(11)
_cell_length_b                   26.3842(15)
_cell_length_c                   30.3963(16)
_cell_angle_alpha                90
_cell_angle_beta                 98.4560(10)
_cell_angle_gamma                90
_cell_volume                     16340.8
_exptl_crystal_description       block
_cell_formula_units_Z            4
_exptl_crystal_recrystallization_method THF/water
loop_
_atom_site_label
_atom_site_type_symbol
_atom_site_fract_x
_atom_site_fract_y
_atom_site_fract_z
Pd1 Pd 0.12402(2) 0.761896(16) 0.115987(14)
Pd2 Pd -0.26055(2) 1.004670(16) 0.470680(14)
Pd3 Pd -0.06792(2) 1.396080(17) 0.341990(14)
Pd4 Pd 0.08513(2) 1.394220(16) 0.154080(14)
Pd5 Pd 0.27500(2) 0.992194(18) 0.025824(14)
Pd6 Pd -0.13168(2) 0.774531(17) 0.390088(15)
C1 C 0.0344(3) 0.8483(2) 0.09134(17)
H1 H 0.0736 0.8657 0.0914
C2 C -0.0243(3) 0.8751(2) 0.08292(17)
C3 C -0.0821(3) 0.8473(2) 0.08200(18)
H2 H -0.1224 0.8637 0.0766
C4 C -0.0797(3) 0.7964(2) 0.0890(2)
H3 H -0.1182 0.7777 0.0875
C5 C -0.0193(3) 0.7731(2) 0.0982(2)
H4 H -0.0178 0.7385 0.1038
C6 C 0.1443(3) 1.0127(2) 0.04722(17)
H5 H 0.1482 0.9788 0.0557
C7 C 0.0858(3) 1.0373(2) 0.05035(17)
C8 C 0.0810(3) 1.0883(2) 0.03734(18)
H6 H 0.0423 1.1063 0.0379
C9 C 0.1352(3) 1.1116(2) 0.02347(19)
H7 H 0.1337 1.1458 0.0159
C10 C 0.1906(3) 1.0840(2) 0.02099(18)
H8 H 0.2261 1.0996 0.0109
C11 C -0.0173(3) 1.3184(2) 0.14422(19)
H9 H -0.0084 1.3202 0.1751
C12 C -0.0653(3) 1.2847(2) 0.12521(18)
C13 C -0.0789(3) 1.2842(2) 0.0796(2)
H10 H -0.1110 1.2628 0.0652
C14 C -0.0438(3) 1.3165(3) 0.0551(2)
H11 H -0.0521 1.3163 0.0242
C15 C 0.0029(3) 1.3483(3) 0.0768(2)
H12 H 0.0252 1.3703 0.0604
C16 C -0.1137(3) 1.3097(2) 0.28519(18)
H13 H -0.0847 1.3239 0.2680
C17 C -0.1479(3) 1.2663(2) 0.26958(18)
C18 C -0.1909(3) 1.2461(2) 0.29620(19)
H14 H -0.2148 1.2170 0.2875
C19 C -0.1975(3) 1.2703(2) 0.3365(2)
H15 H -0.2263 1.2573 0.3545
C20 C -0.1620(3) 1.3127(2) 0.3493(2)
H16 H -0.1668 1.3282 0.3761
C21 C -0.2705(3) 1.0048(2) 0.37313(18)
H17 H -0.2347 0.9832 0.3798
C22 C -0.2913(3) 1.0161(2) 0.32945(18)
C23 C -0.3461(3) 1.0480(2) 0.31962(19)
H18 H -0.3620 1.0565 0.2903
C24 C -0.3759(3) 1.0668(2) 0.3542(2)
H19 H -0.4122 1.0880 0.3483
C25 C -0.3514(3) 1.0536(2) 0.39749(19)
H20 H -0.3719 1.0660 0.4205
C26 C -0.1653(3) 0.8472(2) 0.31811(19)
H21 H -0.1679 0.8686 0.3421
C27 C -0.1806(3) 0.8667(2) 0.27522(18)
C28 C -0.1759(3) 0.8345(2) 0.23999(19)
H22 H -0.1852 0.8461 0.2108
C29 C -0.1573(3) 0.7847(2) 0.2487(2)
H23 H -0.1545 0.7624 0.2253
C30 C -0.1432(3) 0.7681(2) 0.2916(2)
H24 H -0.1306 0.7346 0.2970
C31 C -0.0230(3) 0.9315(2) 0.08047(17)
C32 C 0.0255(3) 0.9577(2) 0.06268(17)
H25 H 0.0544 0.9401 0.0475
C33 C 0.0314(3) 1.0102(2) 0.06741(17)
C34 C -0.0121(3) 1.0359(2) 0.09057(17)
H26 H -0.0071 1.0707 0.0948
C35 C -0.0629(3) 1.0112(2) 0.10763(17)
C36 C -0.0680(3) 0.9588(2) 0.10117(17)
H27 H -0.1025 0.9416 0.1110
C37 C -0.0994(3) 1.2531(2) 0.15508(17)
C38 C -0.1139(3) 1.2739(2) 0.19463(18)
H28 H -0.1081 1.3085 0.1997
C39 C -0.1368(3) 1.2439(2) 0.22647(18)
C40 C -0.1463(3) 1.1921(2) 0.21774(18)
H29 H -0.1606 1.1716 0.2393
C41 C -0.1349(2) 1.1703(2) 0.17780(17)
C42 C -0.1114(3) 1.2020(2) 0.14632(18)
H30 H -0.1037 1.1885 0.1193
C43 C -0.2556(3) 0.9935(2) 0.29493(17)
C44 C -0.2368(3) 0.9431(2) 0.29947(18)
H31 H -0.2487 0.9241 0.3228
C45 C -0.2006(3) 0.9207(2) 0.26965(17)
C46 C -0.1814(3) 0.9500(2) 0.23589(17)
H32 H -0.1560 0.9353 0.2165
C47 C -0.1991(3) 1.00051(19) 0.23023(16)
C48 C -0.2378(2) 1.0219(2) 0.25975(17)
H33 H -0.2518 1.0553 0.2558
C49 C -0.1054(3) 1.0378(2) 0.13635(17)
C50 C -0.1068(3) 1.09044(19) 0.13981(17)
H34 H -0.0849 1.1099 0.1212
C51 C -0.1401(2) 1.11445(19) 0.17040(17)
C52 C -0.1729(3) 1.08461(19) 0.19810(17)
H35 H -0.1959 1.1004 0.2184
C53 C -0.1721(2) 1.0322(2) 0.19608(17)
C54 C -0.1388(3) 1.0098(2) 0.16470(16)
H36 H -0.1388 0.9747 0.1625
N1 N 0.0369(2) 0.79824(17) 0.09941(15)
N2 N 0.1955(2) 1.03495(18) 0.03269(14)
N3 N 0.0168(2) 1.34832(18) 0.12056(15)
N4 N -0.1206(2) 1.33218(17) 0.32402(15)
N5 N -0.2987(2) 1.02332(17) 0.40725(14)
N6 N -0.1470(2) 0.79883(16) 0.32619(16)
C55 C 0.1628(3) 0.8395(2) 0.18292(18)
H37 H 0.1709 0.8571 0.1578
C56 C 0.1770(3) 0.8626(2) 0.22421(18)
C57 C 0.1654(3) 0.8351(2) 0.26103(18)
H38 H 0.1754 0.8490 0.2893
C58 C 0.1394(3) 0.7876(2) 0.25597(19)
H39 H 0.1308 0.7695 0.2807
C59 C 0.1259(3) 0.7664(2) 0.21431(19)
H40 H 0.1086 0.7338 0.2109
C60 C 0.2853(3) 0.9899(2) 0.12351(18)
H41 H 0.2509 0.9671 0.1168
C61 C 0.3039(3) 1.0035(2) 0.16755(19)
C62 C 0.3561(3) 1.0373(2) 0.17682(19)
H42 H 0.3706 1.0474 0.2059
C63 C 0.3861(3) 1.0557(2) 0.1424(2)
H43 H 0.4211 1.0781 0.1483
C64 C 0.3644(3) 1.0411(2) 0.0997(2)
H44 H 0.3847 1.0542 0.0767
C65 C 0.1369(3) 1.3108(2) 0.21134(18)
H45 H 0.1088 1.3255 0.2290
C66 C 0.1707(3) 1.2676(2) 0.22664(18)
C67 C 0.2137(3) 1.2468(2) 0.20050(19)
H46 H 0.2380 1.2181 0.2100
C68 C 0.2199(3) 1.2692(2) 0.15999(19)
H47 H 0.2484 1.2557 0.1420
C69 C 0.1834(3) 1.3118(2) 0.14665(19)
H48 H 0.1871 1.3265 0.1193
C70 C 0.0395(3) 1.3219(2) 0.35121(19)
H49 H 0.0313 1.3240 0.3204
C71 C 0.0871(3) 1.2874(2) 0.37034(19)
C72 C 0.0991(3) 1.2860(2) 0.41632(19)
H50 H 0.1301 1.2638 0.4308
C73 C 0.0647(3) 1.3177(2) 0.4405(2)
H51 H 0.0729 1.3173 0.4714
C74 C 0.0180(3) 1.3503(2) 0.41894(19)
H52 H -0.0051 1.3714 0.4356
C75 C -0.1273(3) 1.0203(2) 0.45113(17)
H53 H -0.1339 0.9872 0.4411
C76 C -0.0667(3) 1.0425(2) 0.44996(17)
C77 C -0.0585(3) 1.0922(2) 0.4650(2)
H54 H -0.026(3) 1.107(2) 0.4681(19)
C78 C -0.1099(3) 1.1175(2) 0.47981(18)
H55 H -0.1049 1.1509 0.4896
C79 C -0.1687(3) 1.0924(2) 0.47990(18)
H56 H -0.2033 1.1093 0.4898
C80 C -0.0311(3) 0.8534(2) 0.40555(18)
H57 H -0.0683 0.8730 0.4063
C81 C 0.0295(3) 0.8770(2) 0.41094(18)
C82 C 0.0848(3) 0.8466(2) 0.41017(19)
H58 H 0.1264 0.8609 0.4137
C83 C 0.0769(3) 0.7945(2) 0.4041(2)
H59 H 0.1135 0.7740 0.4036
C84 C 0.0147(3) 0.7734(2) 0.3987(2)
C85 C 0.2029(3) 0.9151(2) 0.22735(18)
C86 C 0.2437(3) 0.9334(2) 0.19831(18)
H60 H 0.2562 0.9122 0.1767
C87 C 0.2658(3) 0.9830(2) 0.20135(17)
C88 C 0.2479(2) 1.0148(2) 0.23434(17)
H61 H 0.2639 1.0478 0.2369
C89 C 0.2064(3) 0.9976(2) 0.26350(17)
C90 C 0.1835(3) 0.9479(2) 0.25862(17)
H62 H 0.1543 0.9364 0.2770
C91 C 0.1584(3) 1.2449(2) 0.26959(18)
C92 C 0.1367(3) 1.2759(2) 0.30188(18)
H63 H 0.1346 1.3108 0.2977
C93 C 0.1184(3) 1.2548(2) 0.34006(18)
C94 C 0.1267(3) 1.2030(2) 0.34800(18)
H64 H 0.1171 1.1894 0.3746
C95 C 0.1522(3) 1.1142(2) 0.32266(17)
C96 C 0.1491(2) 1.1710(2) 0.31650(17)
C97 C 0.1635(3) 1.1932(2) 0.27754(18)
H65 H 0.1771 1.1724 0.2559
C98 C -0.0153(3) 1.0134(2) 0.43093(17)
C99 C -0.0129(3) 0.9609(2) 0.43426(18)
H66 H -0.0415 0.9439 0.4501
C100 C 0.0323(3) 0.9334(2) 0.41392(17)
C101 C 0.0769(3) 0.9600(2) 0.39196(17)
H67 H 0.1086 0.9418 0.3798
C102 C 0.0756(3) 1.0124(2) 0.38759(17)
C103 C 0.0279(3) 1.0387(2) 0.40714(17)
H68 H 0.0250 1.0738 0.4042
C104 C 0.1813(2) 1.0317(2) 0.29727(17)
C105 C 0.1842(2) 1.0842(2) 0.29488(17)
H69 H 0.2077 1.0995 0.2746
C106 C 0.1196(3) 1.0913(2) 0.35474(18)
H70 H 0.0995 1.1114 0.3739
C107 C 0.1171(2) 1.0387(2) 0.35827(17)
C108 C 0.1492(3) 1.0098(2) 0.32968(17)
H71 H 0.1493 0.9747 0.3324
N7 N 0.1379(2) 0.79291(17) 0.17807(14)
N8 N 0.3144(2) 1.00809(18) 0.08982(15)
N9 N 0.1428(2) 1.33256(17) 0.17209(15)
N10 N 0.0054(2) 1.35207(18) 0.37464(15)
N11 N -0.1772(2) 1.04470(17) 0.46624(15)
N12 N -0.0383(2) 0.80277(17) 0.39917(15)
N13 N 0.1194(2) 0.73066(19) 0.05458(16)
H72 H 0.0909 0.7046 0.0516
H73 H 0.1057 0.7539 0.0336
N14 N 0.2102(2) 0.7234(2) 0.12858(17)
H74 H 0.2441 0.7453 0.1307
H75 H 0.2124 0.7067 0.1546
C109 C 0.1855(3) 0.7127(2) 0.0495(2)
H76 H 0.2128 0.7410 0.0434
H77 H 0.1829 0.6891 0.0248
C110 C 0.2146(3) 0.6869(3) 0.0920(2)
H78 H 0.1904 0.6562 0.0964
H79 H 0.2601 0.6779 0.0909
N15 N 0.3486(2) 0.9451(2) 0.01378(17)
H80 H 0.3878 0.9587 0.0245
H81 H 0.3450 0.9151 0.0273
C111 C 0.3433(3) 0.9379(3) -0.0351(2)
H82 H 0.3624 0.9667 -0.0483
H83 H 0.3671 0.9077 -0.0414
C112 C 0.2749(4) 0.9330(3) -0.0539(2)
H84 H 0.2582 0.9005 -0.0455
H85 H 0.2705 0.9343 -0.0861
N16 N 0.1500(2) 1.44409(17) 0.18722(16)
H86 H 0.1507 1.4408 0.2168
H87 H 0.1906 1.4382 0.1809
N17 N 0.0279(3) 1.45667(19) 0.14096(19)
H88 H 0.0255 1.4649 0.1120
H89 H -0.0129 1.4500 0.1465
C113 C 0.1280(3) 1.4960(2) 0.1726(2)
H90 H 0.1478 1.5207 0.1941
H91 H 0.1419 1.5036 0.1442
C114 C 0.0552(3) 1.4991(2) 0.1685(2)
H92 H 0.0415 1.4972 0.1976
H93 H 0.0398 1.5309 0.1548
N18 N -0.1387(2) 1.44145(17) 0.30870(16)
H94 H -0.1491 1.4305 0.2805
H95 H -0.1751 1.4401 0.3218
N19 N -0.0198(2) 1.46279(18) 0.35712(17)
H96 H -0.0004 1.4626 0.3857
H97 H 0.0113 1.4673 0.3396
C115 C -0.0693(3) 1.5045(2) 0.3498(2)
H98 H -0.0935 1.5064 0.3748
H99 H -0.0473 1.5367 0.3474
C116 C -0.1145(4) 1.4945(2) 0.3088(3)
H100 H -0.0922 1.5000 0.2833
H101 H -0.1514 1.5177 0.3068
N20 N -0.3381(2) 0.96126(17) 0.48037(15)
H102 H -0.3719 0.9809 0.4854
H103 H -0.3510 0.9421 0.4562
N21 N -0.2232(2) 0.98245(18) 0.53335(15)
H104 H -0.1901 0.9605 0.5324
H105 H -0.2075 1.0095 0.5495
C117 C -0.3164(3) 0.9283(2) 0.5199(2)
H106 H -0.3544 0.9152 0.5315
H107 H -0.2914 0.8999 0.5112
C118 C -0.2758(3) 0.9579(2) 0.55428(19)
H108 H -0.2568 0.9360 0.5784
H109 H -0.3023 0.9835 0.5663
N22 N -0.1230(3) 0.7486(2) 0.45346(16)
H110 H -0.0862 0.7300 0.4599
H111 H -0.1207 0.7748 0.4726
N23 N -0.2251(2) 0.7480(2) 0.38539(17)
H112 H -0.2536 0.7717 0.3731
H113 H -0.2299 0.7202 0.3681
C119 C -0.2387(3) 0.7353(3) 0.4314(2)
H114 H -0.2545 0.7652 0.4451
H115 H -0.2723 0.7093 0.4298
C120 C -0.1803(3) 0.7177(3) 0.4575(2)
H116 H -0.1719 0.6832 0.4487
H117 H -0.1868 0.7170 0.4885
N24 N 0.2366(3) 0.9743(2) -0.03754(16)
H118 H 0.1946 0.9646 -0.0385
H119 H 0.2375 1.0018 -0.0551
C121 C 0.0726(3) 0.1050(3) 0.1868(2)
C122 C 0.1272(3) 0.0836(3) 0.1725(2)
H120 H 0.1412 0.0514 0.1822
C123 C 0.1617(3) 0.1107(3) 0.1435(2)
H121 H 0.1986 0.0965 0.1341
C124 C 0.1410(4) 0.1577(3) 0.1290(2)
H122 H 0.1643 0.1757 0.1101
C125 C 0.0860(4) 0.1781(3) 0.1423(2)
H123 H 0.0715 0.2097 0.1315
C126 C 0.0514(3) 0.1527(3) 0.1714(2)
H124 H 0.0146 0.1674 0.1805
C127 C -0.0595(3) 0.1075(3) 0.3125(2)
C128 C -0.0336(3) 0.1537(3) 0.3291(2)
H125 H 0.0035 0.1668 0.3191
C129 C -0.0623(4) 0.1797(3) 0.3598(3)
H126 H -0.0432 0.2098 0.3713
C130 C -0.1189(4) 0.1628(3) 0.3746(2)
H127 H -0.1383 0.1816 0.3950
C131 C -0.1458(4) 0.1177(3) 0.3583(2)
H128 H -0.1838 0.1056 0.3679
C132 C -0.1166(3) 0.0899(3) 0.3273(2)
H129 H -0.1352 0.0594 0.3165
C133 C -0.0009(3) -0.0586(3) 0.2481(2)
C134 C -0.0018(3) -0.0865(3) 0.2873(2)
H130 H -0.0009 -0.0693 0.3141
C135 C -0.0040(3) -0.1397(3) 0.2871(2)
H131 H -0.0032 -0.1575 0.3136
C136 C -0.0074(3) -0.1652(3) 0.2472(2)
H132 H -0.0096 -0.2004 0.2465
C137 C -0.0076(3) -0.1380(3) 0.2078(2)
H133 H -0.0102 -0.1552 0.1809
C138 C -0.0039(3) -0.0856(3) 0.2085(2)
H134 H -0.0033 -0.0681 0.1819
C139 C 0.0361(3) 0.0771(3) 0.2190(2)
C140 C 0.0050(3) 0.1034(3) 0.2495(2)
H135 H 0.0062 0.1386 0.2496
C141 C -0.0280(3) 0.0782(3) 0.2799(2)
C142 C -0.0294(3) 0.0264(3) 0.2792(2)
H136 H -0.0513 0.0095 0.2996
C143 C 0.0009(3) -0.0025(3) 0.2489(2)
C144 C 0.0333(3) 0.0242(3) 0.2189(2)
H137 H 0.0536 0.0063 0.1983
N25 N 0.4507(3) 0.9110(2) 0.23538(18)
O1 O 0.4781(3) 0.95307(19) 0.23364(19)
O2 O 0.3912(2) 0.90572(18) 0.22199(17)
O3 O 0.4847(2) 0.87360(18) 0.25241(14)
N26 N 0.3417(3) 0.1332(2) 0.2749(2)
O4 O 0.3003(2) 0.1430(2) 0.24139(17)
O5 O 0.3326(3) 0.1454(2) 0.31296(19)
O6 O 0.3916(3) 0.1096(3) 0.2700(2)
N27 N -0.3326(3) 0.8792(3) 0.3923(2)
O7 O -0.3098(3) 0.8591(2) 0.36022(18)
O8 O -0.3053(3) 0.8661(2) 0.43055(17)
O9 O -0.3788(3) 0.9101(2) 0.3868(2)
N28 N 0.2459(3) 0.41593(19) 0.10560(18)
O10 O 0.1848(3) 0.4252(2) 0.09658(17)
O11 O 0.2776(2) 0.41449(17) 0.07327(14)
O12 O 0.2705(2) 0.40614(18) 0.14315(15)
N29 N 0.2608(3) 0.3565(2) 0.4245(2)
O13 O 0.2418(3) 0.3255(2) 0.3944(2)
O14 O 0.2351(3) 0.3571(2) 0.45900(18)
O15 O 0.3064(2) 0.38781(18) 0.41937(16)
N30 N 0.0199(3) 0.5273(3) 0.0455(2)
O16 O 0.0181(3) 0.5602(2) 0.01369(19)
O17 O 0.0714(3) 0.5041(2) 0.05909(18)
O18 O -0.0317(3) 0.5170(2) 0.06126(19)
N31 N 0.0556(3) 0.8131(2) -0.0243(2)
O19 O 0.1153(3) 0.8060(2) -0.01090(18)
O20 O 0.0409(3) 0.8412(2) -0.05831(17)
O21 O 0.0101(3) 0.7910(2) -0.00785(18)
N32 N 0.6325(6) 0.1418(5) 0.1437(4)
O22 O 0.5926(6) 0.1501(5) 0.1085(4)
O23 O 0.6078(7) 0.1292(5) 0.1784(4)
O24 O 0.6934(5) 0.1498(4) 0.1452(4)
N33 N -0.1779(8) 0.6847(6) 0.1308(5)
O25 O -0.2202(5) 0.6769(4) 0.0983(4)
O26 O -0.1243(6) 0.6871(5) 0.1118(4)
O27 O -0.1659(4) 0.6878(3) 0.1741(3)
N34 N 0.3725(7) 0.0930(6) -0.0238(5)
O28 O 0.3846(7) 0.1104(5) -0.0596(4)
O29 O 0.3957(7) 0.0502(5) -0.0133(5)
O30 O 0.3408(8) 0.1182(5) -0.0003(5)
N37 N 0.0420(5) 0.7327(4) 0.5027(3)
O37 O 0.0227(7) 0.7748(5) 0.5093(5)
O38 O 0.0988(6) 0.7187(5) 0.5200(5)
O39 O 0.0081(4) 0.7029(3) 0.4785(3)
N38 N -0.2486(3) 0.4236(3) 0.3875(2)
O40 O -0.2761(3) 0.4226(2) 0.42230(17)
O42 O -0.2157(7) 0.4686(6) 0.3810(4)
O43 O -0.2527(6) 0.4016(4) 0.3539(4)
N39 N -0.1331(3) 0.8602(3) 0.5270(2)
O46 O -0.1060(8) 0.8632(6) 0.4950(5)
O48 O -0.1706(9) 0.8850(7) 0.5458(5)
O49 O -0.0818(4) 0.8437(3) 0.5578(3)
O50 O -0.1773(2) 0.89969(17) 0.42092(14)
O51 O -0.1300(3) 0.5817(2) -0.00784(17)
O52 O 0.0213(3) 0.6510(2) 0.05362(17)
O53 O 0.3622(3) 0.1842(2) 0.17065(17)
O54 O 0.0278(3) 0.6362(2) 0.1445(2)
O55 O -0.1122(3) 0.7460(3) -0.0406(2)
O56 O 0.0167(2) 0.48320(18) 0.45090(15)
O58 O 0.6170(7) 0.9126(6) 0.2792(3)
O60 O -0.2922(7) 0.7174(7) 0.0185(7)
O64 O -0.1076(5) 0.6738(4) 0.0241(7)
O65 O -0.0293(4) 0.6962(3) 0.2035(3)
O67 O 0.0090(5) 0.6983(4) 0.2944(4)
O70 O -0.2479(4) 0.7496(4) -0.0551(3)
O71 O -0.2499(8) 0.8217(7) 0.0576(5)
O72 O 0.9850(14) 0.5811(12) -0.7377(9)
O79 O 0.3714(14) 0.9099(11) 0.1167(9)
O83 O 0.1341(6) 0.9161(3) -0.0130(2)
N35? N 0.6357(15) 0.1375(9) 0.2428(9)
O31? O 0.5799(14) 0.1195(12) 0.2361(10)
O32? O 0.6738(16) 0.1331(13) 0.2146(11)
O33? O 0.6577(17) 0.1598(12) 0.2789(9)
N36? N 0.5131(10) 0.1211(9) 0.0531(7)
O34? O 0.5065(12) 0.0946(9) 0.0195(7)
O35? O 0.5449(12) 0.1614(9) 0.0586(8)
O36? O 0.4886(14) 0.1118(13) 0.0883(8)
O41? O -0.1995(7) 0.4452(6) 0.3892(4)
O44? O -0.2781(6) 0.3908(4) 0.3602(3)
O45? O -0.1728(4) 0.8266(3) 0.5181(3)
O47? O -0.1227(3) 0.9048(3) 0.5119(2)
O57? O 0.6017(15) 0.9263(12) 0.2829(7)
O59? O -0.2791(10) 0.7325(9) 0.0400(9)
O61? O 0.3348(19) 0.1752(12) 0.0845(8)
O62? O 0.3076(7) 0.1602(4) 0.0846(3)
O63? O -0.1132(14) 0.6752(10) 0.0386(19)
O66? O -0.088(3) 0.686(2) 0.1920(18)
O68? O 0.0006(15) 0.6679(14) 0.3158(11)
O69? O -0.2266(16) 0.7768(14) -0.0425(10)
O73? O 0.3998(5) 0.0627(4) -0.0449(4)
O74? O 0.3761(6) 0.1331(4) 0.0204(4)
O75? O 0.7144(3) 0.1450(2) 0.2557(2)
O76? O 0.6908(8) 0.1569(6) 0.1703(7)
O77? O 0.5496(17) 0.1573(12) 0.1445(11)
O78? O 0.4978(5) 0.0863(4) 0.0651(3)
O80? O 0.0958(8) 0.7276(6) 0.5390(6)
O81? O -0.0055(7) 0.7851(5) 0.5065(4)
O82? O -0.070(2) 0.8225(16) 0.5249(14)
O84? O 0.109(3) 0.905(2) -0.0176(15)
O85? O 0.1178(16) 0.8603(14) -0.0223(10)
loop_
_geom_bond_atom_site_label_1
_geom_bond_atom_site_label_2
_geom_bond_site_symmetry_1
_geom_bond_site_symmetry_2
Pd1 N1 1_555 1_555
Pd2 N5 1_555 1_555
Pd3 N4 1_555 1_555
Pd4 N3 1_555 1_555
Pd5 N2 1_555 1_555
Pd6 N6 1_555 1_555
C1 H1 1_555 1_555
C2 C1 1_555 1_555
C3 C2 1_555 1_555
H2 C3 1_555 1_555
C4 C3 1_555 1_555
H3 C4 1_555 1_555
C5 C4 1_555 1_555
H4 C5 1_555 1_555
C6 H5 1_555 1_555
C7 C6 1_555 1_555
C8 C7 1_555 1_555
H6 C8 1_555 1_555
C9 C8 1_555 1_555
H7 C9 1_555 1_555
C10 C9 1_555 1_555
H8 C10 1_555 1_555
C11 H9 1_555 1_555
C12 C11 1_555 1_555
C13 C12 1_555 1_555
H10 C13 1_555 1_555
C14 C13 1_555 1_555
H11 C14 1_555 1_555
C15 C14 1_555 1_555
H12 C15 1_555 1_555
C16 H13 1_555 1_555
C17 C16 1_555 1_555
C18 C17 1_555 1_555
H14 C18 1_555 1_555
C19 C18 1_555 1_555
H15 C19 1_555 1_555
C20 C19 1_555 1_555
H16 C20 1_555 1_555
C21 H17 1_555 1_555
C22 C21 1_555 1_555
C23 C22 1_555 1_555
H18 C23 1_555 1_555
C24 C23 1_555 1_555
H19 C24 1_555 1_555
C25 C24 1_555 1_555
H20 C25 1_555 1_555
C26 H21 1_555 1_555
C27 C26 1_555 1_555
C28 C27 1_555 1_555
H22 C28 1_555 1_555
C29 C28 1_555 1_555
H23 C29 1_555 1_555
C30 C29 1_555 1_555
H24 C30 1_555 1_555
C31 C2 1_555 1_555
C32 C31 1_555 1_555
H25 C32 1_555 1_555
C33 C7 1_555 1_555
C34 C33 1_555 1_555
H26 C34 1_555 1_555
C35 C34 1_555 1_555
C36 C31 1_555 1_555
H27 C36 1_555 1_555
C37 C12 1_555 1_555
C38 C37 1_555 1_555
H28 C38 1_555 1_555
C39 C17 1_555 1_555
C40 C39 1_555 1_555
H29 C40 1_555 1_555
C41 C40 1_555 1_555
C42 C37 1_555 1_555
H30 C42 1_555 1_555
C43 C22 1_555 1_555
C44 C43 1_555 1_555
H31 C44 1_555 1_555
C45 C27 1_555 1_555
C46 C45 1_555 1_555
H32 C46 1_555 1_555
C47 C46 1_555 1_555
C48 C43 1_555 1_555
H33 C48 1_555 1_555
C49 C35 1_555 1_555
C50 C49 1_555 1_555
H34 C50 1_555 1_555
C51 C41 1_555 1_555
C52 C51 1_555 1_555
H35 C52 1_555 1_555
C53 C47 1_555 1_555
C54 C49 1_555 1_555
H36 C54 1_555 1_555
N1 C1 1_555 1_555
N2 C6 1_555 1_555
N3 C11 1_555 1_555
N4 C16 1_555 1_555
N5 C21 1_555 1_555
N6 C26 1_555 1_555
C55 H37 1_555 1_555
C56 C55 1_555 1_555
C57 C56 1_555 1_555
H38 C57 1_555 1_555
C58 C57 1_555 1_555
H39 C58 1_555 1_555
C59 C58 1_555 1_555
H40 C59 1_555 1_555
C60 H41 1_555 1_555
C61 C60 1_555 1_555
C62 C61 1_555 1_555
H42 C62 1_555 1_555
C63 C62 1_555 1_555
H43 C63 1_555 1_555
C64 C63 1_555 1_555
H44 C64 1_555 1_555
C65 H45 1_555 1_555
C66 C65 1_555 1_555
C67 C66 1_555 1_555
H46 C67 1_555 1_555
C68 C67 1_555 1_555
H47 C68 1_555 1_555
C69 C68 1_555 1_555
H48 C69 1_555 1_555
C70 H49 1_555 1_555
C71 C70 1_555 1_555
C72 C71 1_555 1_555
H50 C72 1_555 1_555
C73 C72 1_555 1_555
H51 C73 1_555 1_555
C74 C73 1_555 1_555
H52 C74 1_555 1_555
C75 H53 1_555 1_555
C76 C75 1_555 1_555
C77 C76 1_555 1_555
H54 C77 1_555 1_555
C78 C77 1_555 1_555
H55 C78 1_555 1_555
C79 C78 1_555 1_555
H56 C79 1_555 1_555
C80 H57 1_555 1_555
C81 C80 1_555 1_555
C82 C81 1_555 1_555
H58 C82 1_555 1_555
C83 C82 1_555 1_555
H59 C83 1_555 1_555
C84 C83 1_555 1_555
C85 C56 1_555 1_555
C86 C85 1_555 1_555
H60 C86 1_555 1_555
C87 C61 1_555 1_555
C88 C87 1_555 1_555
H61 C88 1_555 1_555
C89 C88 1_555 1_555
C90 C85 1_555 1_555
H62 C90 1_555 1_555
C91 C66 1_555 1_555
C92 C91 1_555 1_555
H63 C92 1_555 1_555
C93 C71 1_555 1_555
C94 C93 1_555 1_555
H64 C94 1_555 1_555
C95 C96 1_555 1_555
C96 C94 1_555 1_555
C97 C91 1_555 1_555
H65 C97 1_555 1_555
C98 C76 1_555 1_555
C99 C98 1_555 1_555
H66 C99 1_555 1_555
C100 C81 1_555 1_555
C101 C100 1_555 1_555
H67 C101 1_555 1_555
C102 C101 1_555 1_555
C103 C98 1_555 1_555
H68 C103 1_555 1_555
C104 C89 1_555 1_555
C105 C95 1_555 1_555
H69 C105 1_555 1_555
C106 C95 1_555 1_555
H70 C106 1_555 1_555
C107 C102 1_555 1_555
C108 C104 1_555 1_555
H71 C108 1_555 1_555
N7 Pd1 1_555 1_555
N8 Pd5 1_555 1_555
N9 Pd4 1_555 1_555
N10 Pd3 1_555 1_555
N11 Pd2 1_555 1_555
N12 Pd6 1_555 1_555
N13 Pd1 1_555 1_555
H72 N13 1_555 1_555
H73 N13 1_555 1_555
N14 Pd1 1_555 1_555
H74 N14 1_555 1_555
H75 N14 1_555 1_555
C109 N13 1_555 1_555
H76 C109 1_555 1_555
H77 C109 1_555 1_555
C110 N14 1_555 1_555
H78 C110 1_555 1_555
H79 C110 1_555 1_555
N15 Pd5 1_555 1_555
H80 N15 1_555 1_555
H81 N15 1_555 1_555
C111 N15 1_555 1_555
H82 C111 1_555 1_555
H83 C111 1_555 1_555
C112 C111 1_555 1_555
H84 C112 1_555 1_555
H85 C112 1_555 1_555
N16 Pd4 1_555 1_555
H86 N16 1_555 1_555
H87 N16 1_555 1_555
N17 Pd4 1_555 1_555
H88 N17 1_555 1_555
H89 N17 1_555 1_555
C113 N16 1_555 1_555
H90 C113 1_555 1_555
H91 C113 1_555 1_555
C114 N17 1_555 1_555
H92 C114 1_555 1_555
H93 C114 1_555 1_555
N18 Pd3 1_555 1_555
H94 N18 1_555 1_555
H95 N18 1_555 1_555
N19 Pd3 1_555 1_555
H96 N19 1_555 1_555
H97 N19 1_555 1_555
C115 N19 1_555 1_555
H98 C115 1_555 1_555
H99 C115 1_555 1_555
C116 N18 1_555 1_555
H100 C116 1_555 1_555
H101 C116 1_555 1_555
N20 Pd2 1_555 1_555
H102 N20 1_555 1_555
H103 N20 1_555 1_555
N21 Pd2 1_555 1_555
H104 N21 1_555 1_555
H105 N21 1_555 1_555
C117 N20 1_555 1_555
H106 C117 1_555 1_555
H107 C117 1_555 1_555
C118 N21 1_555 1_555
H108 C118 1_555 1_555
H109 C118 1_555 1_555
N22 Pd6 1_555 1_555
H110 N22 1_555 1_555
H111 N22 1_555 1_555
N23 Pd6 1_555 1_555
H112 N23 1_555 1_555
H113 N23 1_555 1_555
C119 N23 1_555 1_555
H114 C119 1_555 1_555
H115 C119 1_555 1_555
C120 N22 1_555 1_555
H116 C120 1_555 1_555
H117 C120 1_555 1_555
N24 Pd5 1_555 1_555
H118 N24 1_555 1_555
H119 N24 1_555 1_555
C121 C122 1_555 1_555
C122 H120 1_555 1_555
C123 C122 1_555 1_555
H121 C123 1_555 1_555
C124 C123 1_555 1_555
H122 C124 1_555 1_555
C125 C124 1_555 1_555
H123 C125 1_555 1_555
C126 C121 1_555 1_555
H124 C126 1_555 1_555
C127 C128 1_555 1_555
C128 H125 1_555 1_555
C129 C128 1_555 1_555
H126 C129 1_555 1_555
C130 C129 1_555 1_555
H127 C130 1_555 1_555
C131 C130 1_555 1_555
H128 C131 1_555 1_555
C132 C127 1_555 1_555
H129 C132 1_555 1_555
C133 C134 1_555 1_555
C134 H130 1_555 1_555
C135 C134 1_555 1_555
H131 C135 1_555 1_555
C136 C135 1_555 1_555
H132 C136 1_555 1_555
C137 C136 1_555 1_555
H133 C137 1_555 1_555
C138 C133 1_555 1_555
H134 C138 1_555 1_555
C139 C121 1_555 1_555
C140 C139 1_555 1_555
H135 C140 1_555 1_555
C141 C127 1_555 1_555
C142 C141 1_555 1_555
H136 C142 1_555 1_555
C143 C133 1_555 1_555
C144 C139 1_555 1_555
H137 C144 1_555 1_555
N25 O1 1_555 1_555
O2 N25 1_555 1_555
O3 N25 1_555 1_555
N26 O4 1_555 1_555
O5 N26 1_555 1_555
O6 N26 1_555 1_555
N27 O7 1_555 1_555
O8 N27 1_555 1_555
O9 N27 1_555 1_555
N28 O10 1_555 1_555
O11 N28 1_555 1_555
O12 N28 1_555 1_555
N29 O13 1_555 1_555
O14 N29 1_555 1_555
O15 N29 1_555 1_555
N30 O16 1_555 1_555
O17 N30 1_555 1_555
O18 N30 1_555 1_555
N31 O19 1_555 1_555
O20 N31 1_555 1_555
O21 N31 1_555 1_555
N32 O22 1_555 1_555
O23 N32 1_555 1_555
O24 N32 1_555 1_555
N33 O25 1_555 1_555
O26 N33 1_555 1_555
O27 N33 1_555 1_555
N34 O28 1_555 1_555
O29 N34 1_555 1_555
O30 N34 1_555 1_555
N37 O37 1_555 1_555
O38 N37 1_555 1_555
O39 N37 1_555 1_555
N38 O40 1_555 1_555
O42 N38 1_555 1_555
O43 N38 1_555 1_555
N39 O46 1_555 1_555
O48 N39 1_555 1_555
O49 N39 1_555 1_555
C5 N1 1_555 1_555
C10 N2 1_555 1_555
C15 N3 1_555 1_555
C20 N4 1_555 1_555
C25 N5 1_555 1_555
C30 N6 1_555 1_555
C32 C33 1_555 1_555
C35 C36 1_555 1_555
C38 C39 1_555 1_555
C41 C42 1_555 1_555
C44 C45 1_555 1_555
C47 C48 1_555 1_555
C50 C51 1_555 1_555
C52 C53 1_555 1_555
C53 C54 1_555 1_555
C55 N7 1_555 1_555
C59 N7 1_555 1_555
C60 N8 1_555 1_555
C64 N8 1_555 1_555
C65 N9 1_555 1_555
C69 N9 1_555 1_555
C70 N10 1_555 1_555
C74 N10 1_555 1_555
C75 N11 1_555 1_555
C79 N11 1_555 1_555
C80 N12 1_555 1_555
C84 N12 1_555 1_555
C86 C87 1_555 1_555
C89 C90 1_555 1_555
C92 C93 1_555 1_555
C96 C97 1_555 1_555
C99 C100 1_555 1_555
C102 C103 1_555 1_555
C104 C105 1_555 1_555
C106 C107 1_555 1_555
C107 C108 1_555 1_555
C109 C110 1_555 1_555
C112 N24 1_555 1_555
C113 C114 1_555 1_555
C115 C116 1_555 1_555
C117 C118 1_555 1_555
C119 C120 1_555 1_555
C125 C126 1_555 1_555
C131 C132 1_555 1_555
C137 C138 1_555 1_555
C140 C141 1_555 1_555
C142 C143 1_555 1_555
C143 C144 1_555 1_555

#END
