# generated using pymatgen
data_H137Pd6C144N39O85
_symmetry_space_group_name_H-M   'P 1'
_cell_length_a   20.59950000
_cell_length_b   26.38420000
_cell_length_c   30.39630000
_cell_angle_alpha   90.00000000
_cell_angle_beta   98.45600000
_cell_angle_gamma   90.00000000
_symmetry_Int_Tables_number   1
_chemical_formula_structural   H137Pd6C144N39O85
_chemical_formula_sum   'H548 Pd24 C576 N156 O340'
_cell_volume   16340.83716654
_cell_formula_units_Z   4
loop_
 _symmetry_equiv_pos_site_id
 _symmetry_equiv_pos_as_xyz
  1  'x, y, z'
loop_
 _atom_site_type_symbol
 _atom_site_label
 _atom_site_symmetry_multiplicity
 _atom_site_fract_x
 _atom_site_fract_y
 _atom_site_fract_z
 _atom_site_occupancy
  H  H1  1  0.073600  0.865700  0.091400  1
  H  H2  1  0.426400  0.365700  0.408600  1
  H  H3  1  0.926400  0.134300  0.908600  1
  H  H4  1  0.573600  0.634300  0.591400  1
  H  H5  1  0.877600  0.863700  0.076600  1
  H  H6  1  0.622400  0.363700  0.423400  1
  H  H7  1  0.122400  0.136300  0.923400  1
  H  H8  1  0.377600  0.636300  0.576600  1
  H  H9  1  0.881800  0.777700  0.087500  1
  H  H10  1  0.618200  0.277700  0.412500  1
  H  H11  1  0.118200  0.222300  0.912500  1
  H  H12  1  0.381800  0.722300  0.587500  1
  H  H13  1  0.982200  0.738500  0.103800  1
  H  H14  1  0.517800  0.238500  0.396200  1
  H  H15  1  0.017800  0.261500  0.896200  1
  H  H16  1  0.482200  0.761500  0.603800  1
  H  H17  1  0.148200  0.978800  0.055700  1
  H  H18  1  0.351800  0.478800  0.444300  1
  H  H19  1  0.851800  0.021200  0.944300  1
  H  H20  1  0.648200  0.521200  0.555700  1
  H  H21  1  0.042300  0.106300  0.037900  1
  H  H22  1  0.457700  0.606300  0.462100  1
  H  H23  1  0.957700  0.893700  0.962100  1
  H  H24  1  0.542300  0.393700  0.537900  1
  H  H25  1  0.133700  0.145800  0.015900  1
  H  H26  1  0.366300  0.645800  0.484100  1
  H  H27  1  0.866300  0.854200  0.984100  1
  H  H28  1  0.633700  0.354200  0.515900  1
  H  H29  1  0.226100  0.099600  0.010900  1
  H  H30  1  0.273900  0.599600  0.489100  1
  H  H31  1  0.773900  0.900400  0.989100  1
  H  H32  1  0.726100  0.400400  0.510900  1
  H  H33  1  0.991600  0.320200  0.175100  1
  H  H34  1  0.508400  0.820200  0.324900  1
  H  H35  1  0.008400  0.679800  0.824900  1
  H  H36  1  0.491600  0.179800  0.675100  1
  H  H37  1  0.889000  0.262800  0.065200  1
  H  H38  1  0.611000  0.762800  0.434800  1
  H  H39  1  0.111000  0.737200  0.934800  1
  H  H40  1  0.389000  0.237200  0.565200  1
  H  H41  1  0.947900  0.316300  0.024200  1
  H  H42  1  0.552100  0.816300  0.475800  1
  H  H43  1  0.052100  0.683700  0.975800  1
  H  H44  1  0.447900  0.183700  0.524200  1
  H  H45  1  0.025200  0.370300  0.060400  1
  H  H46  1  0.474800  0.870300  0.439600  1
  H  H47  1  0.974800  0.629700  0.939600  1
  H  H48  1  0.525200  0.129700  0.560400  1
  H  H49  1  0.915300  0.323900  0.268000  1
  H  H50  1  0.584700  0.823900  0.232000  1
  H  H51  1  0.084700  0.676100  0.732000  1
  H  H52  1  0.415300  0.176100  0.768000  1
  H  H53  1  0.785200  0.217000  0.287500  1
  H  H54  1  0.714800  0.717000  0.212500  1
  H  H55  1  0.214800  0.783000  0.712500  1
  H  H56  1  0.285200  0.283000  0.787500  1
  H  H57  1  0.773700  0.257300  0.354500  1
  H  H58  1  0.726300  0.757300  0.145500  1
  H  H59  1  0.226300  0.742700  0.645500  1
  H  H60  1  0.273700  0.242700  0.854500  1
  H  H61  1  0.833200  0.328200  0.376100  1
  H  H62  1  0.666800  0.828200  0.123900  1
  H  H63  1  0.166800  0.671800  0.623900  1
  H  H64  1  0.333200  0.171800  0.876100  1
  H  H65  1  0.765300  0.983200  0.379800  1
  H  H66  1  0.734700  0.483200  0.120200  1
  H  H67  1  0.234700  0.016800  0.620200  1
  H  H68  1  0.265300  0.516800  0.879800  1
  H  H69  1  0.638000  0.056500  0.290300  1
  H  H70  1  0.862000  0.556500  0.209700  1
  H  H71  1  0.362000  0.943500  0.709700  1
  H  H72  1  0.138000  0.443500  0.790300  1
  H  H73  1  0.587800  0.088000  0.348300  1
  H  H74  1  0.912200  0.588000  0.151700  1
  H  H75  1  0.412200  0.912000  0.651700  1
  H  H76  1  0.087800  0.412000  0.848300  1
  H  H77  1  0.628100  0.066000  0.420500  1
  H  H78  1  0.871900  0.566000  0.079500  1
  H  H79  1  0.371900  0.934000  0.579500  1
  H  H80  1  0.128100  0.434000  0.920500  1
  H  H81  1  0.832100  0.868600  0.342100  1
  H  H82  1  0.667900  0.368600  0.157900  1
  H  H83  1  0.167900  0.131400  0.657900  1
  H  H84  1  0.332100  0.631400  0.842100  1
  H  H85  1  0.814800  0.846100  0.210800  1
  H  H86  1  0.685200  0.346100  0.289200  1
  H  H87  1  0.185200  0.153900  0.789200  1
  H  H88  1  0.314800  0.653900  0.710800  1
  H  H89  1  0.845500  0.762400  0.225300  1
  H  H90  1  0.654500  0.262400  0.274700  1
  H  H91  1  0.154500  0.237600  0.774700  1
  H  H92  1  0.345500  0.737600  0.725300  1
  H  H93  1  0.869400  0.734600  0.297000  1
  H  H94  1  0.630600  0.234600  0.203000  1
  H  H95  1  0.130600  0.265400  0.703000  1
  H  H96  1  0.369400  0.765400  0.797000  1
  H  H97  1  0.054400  0.940100  0.047500  1
  H  H98  1  0.445600  0.440100  0.452500  1
  H  H99  1  0.945600  0.059900  0.952500  1
  H  H100  1  0.554400  0.559900  0.547500  1
  H  H101  1  0.992900  0.070700  0.094800  1
  H  H102  1  0.507100  0.570700  0.405200  1
  H  H103  1  0.007100  0.929300  0.905200  1
  H  H104  1  0.492900  0.429300  0.594800  1
  H  H105  1  0.897500  0.941600  0.111000  1
  H  H106  1  0.602500  0.441600  0.389000  1
  H  H107  1  0.102500  0.058400  0.889000  1
  H  H108  1  0.397500  0.558400  0.611000  1
  H  H109  1  0.891900  0.308500  0.199700  1
  H  H110  1  0.608100  0.808500  0.300300  1
  H  H111  1  0.108100  0.691500  0.800300  1
  H  H112  1  0.391900  0.191500  0.699700  1
  H  H113  1  0.839400  0.171600  0.239300  1
  H  H114  1  0.660600  0.671600  0.260700  1
  H  H115  1  0.160600  0.828400  0.760700  1
  H  H116  1  0.339400  0.328400  0.739300  1
  H  H117  1  0.896300  0.188500  0.119300  1
  H  H118  1  0.603700  0.688500  0.380700  1
  H  H119  1  0.103700  0.811500  0.880700  1
  H  H120  1  0.396300  0.311500  0.619300  1
  H  H121  1  0.751300  0.924100  0.322800  1
  H  H122  1  0.748700  0.424100  0.177200  1
  H  H123  1  0.248700  0.075900  0.677200  1
  H  H124  1  0.251300  0.575900  0.822800  1
  H  H125  1  0.844000  0.935300  0.216500  1
  H  H126  1  0.656000  0.435300  0.283500  1
  H  H127  1  0.156000  0.064700  0.783500  1
  H  H128  1  0.344000  0.564700  0.716500  1
  H  H129  1  0.748200  0.055300  0.255800  1
  H  H130  1  0.751800  0.555300  0.244200  1
  H  H131  1  0.251800  0.944700  0.744200  1
  H  H132  1  0.248200  0.444700  0.755800  1
  H  H133  1  0.915100  0.109900  0.121200  1
  H  H134  1  0.584900  0.609900  0.378800  1
  H  H135  1  0.084900  0.890100  0.878800  1
  H  H136  1  0.415100  0.390100  0.621200  1
  H  H137  1  0.804100  0.100400  0.218400  1
  H  H138  1  0.695900  0.600400  0.281600  1
  H  H139  1  0.195900  0.899600  0.781600  1
  H  H140  1  0.304100  0.399600  0.718400  1
  H  H141  1  0.861200  0.974700  0.162500  1
  H  H142  1  0.638800  0.474700  0.337500  1
  H  H143  1  0.138800  0.025300  0.837500  1
  H  H144  1  0.361200  0.525300  0.662500  1
  H  H145  1  0.170900  0.857100  0.157800  1
  H  H146  1  0.329100  0.357100  0.342200  1
  H  H147  1  0.829100  0.142900  0.842200  1
  H  H148  1  0.670900  0.642900  0.657800  1
  H  H149  1  0.175400  0.849000  0.289300  1
  H  H150  1  0.324600  0.349000  0.210700  1
  H  H151  1  0.824600  0.151000  0.710700  1
  H  H152  1  0.675400  0.651000  0.789300  1
  H  H153  1  0.130800  0.769500  0.280700  1
  H  H154  1  0.369200  0.269500  0.219300  1
  H  H155  1  0.869200  0.230500  0.719300  1
  H  H156  1  0.630800  0.730500  0.780700  1
  H  H157  1  0.108600  0.733800  0.210900  1
  H  H158  1  0.391400  0.233800  0.289100  1
  H  H159  1  0.891400  0.266200  0.789100  1
  H  H160  1  0.608600  0.766200  0.710900  1
  H  H161  1  0.250900  0.967100  0.116800  1
  H  H162  1  0.249100  0.467100  0.383200  1
  H  H163  1  0.749100  0.032900  0.883200  1
  H  H164  1  0.750900  0.532900  0.616800  1
  H  H165  1  0.370600  0.047400  0.205900  1
  H  H166  1  0.129400  0.547400  0.294100  1
  H  H167  1  0.629400  0.952600  0.794100  1
  H  H168  1  0.870600  0.452600  0.705900  1
  H  H169  1  0.421100  0.078100  0.148300  1
  H  H170  1  0.078900  0.578100  0.351700  1
  H  H171  1  0.578900  0.921900  0.851700  1
  H  H172  1  0.921100  0.421900  0.648300  1
  H  H173  1  0.384700  0.054200  0.076700  1
  H  H174  1  0.115300  0.554200  0.423300  1
  H  H175  1  0.615300  0.945800  0.923300  1
  H  H176  1  0.884700  0.445800  0.576700  1
  H  H177  1  0.108800  0.325500  0.229000  1
  H  H178  1  0.391200  0.825500  0.271000  1
  H  H179  1  0.891200  0.674500  0.771000  1
  H  H180  1  0.608800  0.174500  0.729000  1
  H  H181  1  0.238000  0.218100  0.210000  1
  H  H182  1  0.262000  0.718100  0.290000  1
  H  H183  1  0.762000  0.781900  0.790000  1
  H  H184  1  0.738000  0.281900  0.710000  1
  H  H185  1  0.248400  0.255700  0.142000  1
  H  H186  1  0.251600  0.755700  0.358000  1
  H  H187  1  0.751600  0.744300  0.858000  1
  H  H188  1  0.748400  0.244300  0.642000  1
  H  H189  1  0.187100  0.326500  0.119300  1
  H  H190  1  0.312900  0.826500  0.380700  1
  H  H191  1  0.812900  0.673500  0.880700  1
  H  H192  1  0.687100  0.173500  0.619300  1
  H  H193  1  0.031300  0.324000  0.320400  1
  H  H194  1  0.468700  0.824000  0.179600  1
  H  H195  1  0.968700  0.676000  0.679600  1
  H  H196  1  0.531300  0.176000  0.820400  1
  H  H197  1  0.130100  0.263800  0.430800  1
  H  H198  1  0.369900  0.763800  0.069200  1
  H  H199  1  0.869900  0.736200  0.569200  1
  H  H200  1  0.630100  0.236200  0.930800  1
  H  H201  1  0.072900  0.317300  0.471400  1
  H  H202  1  0.427100  0.817300  0.028600  1
  H  H203  1  0.927100  0.682700  0.528600  1
  H  H204  1  0.572900  0.182700  0.971400  1
  H  H205  1  0.994900  0.371400  0.435600  1
  H  H206  1  0.505100  0.871400  0.064400  1
  H  H207  1  0.005100  0.628600  0.564400  1
  H  H208  1  0.494900  0.128600  0.935600  1
  H  H209  1  0.866100  0.987200  0.441100  1
  H  H210  1  0.633900  0.487200  0.058900  1
  H  H211  1  0.133900  0.012800  0.558900  1
  H  H212  1  0.366100  0.512800  0.941100  1
  H  H213  1  0.974000  0.107000  0.468100  1
  H  H214  1  0.526000  0.607000  0.031900  1
  H  H215  1  0.026000  0.893000  0.531900  1
  H  H216  1  0.474000  0.393000  0.968100  1
  H  H217  1  0.895100  0.150900  0.489600  1
  H  H218  1  0.604900  0.650900  0.010400  1
  H  H219  1  0.104900  0.849100  0.510400  1
  H  H220  1  0.395100  0.349100  0.989600  1
  H  H221  1  0.796700  0.109300  0.489800  1
  H  H222  1  0.703300  0.609300  0.010200  1
  H  H223  1  0.203300  0.890700  0.510200  1
  H  H224  1  0.296700  0.390700  0.989800  1
  H  H225  1  0.931700  0.873000  0.406300  1
  H  H226  1  0.568300  0.373000  0.093700  1
  H  H227  1  0.068300  0.127000  0.593700  1
  H  H228  1  0.431700  0.627000  0.906300  1
  H  H229  1  0.126400  0.860900  0.413700  1
  H  H230  1  0.373600  0.360900  0.086300  1
  H  H231  1  0.873600  0.139100  0.586300  1
  H  H232  1  0.626400  0.639100  0.913700  1
  H  H233  1  0.113500  0.774000  0.403600  1
  H  H234  1  0.386500  0.274000  0.096400  1
  H  H235  1  0.886500  0.226000  0.596400  1
  H  H236  1  0.613500  0.726000  0.903600  1
  H  H237  1  0.256200  0.912200  0.176700  1
  H  H238  1  0.243800  0.412200  0.323300  1
  H  H239  1  0.743800  0.087800  0.823300  1
  H  H240  1  0.756200  0.587800  0.676700  1
  H  H241  1  0.263900  0.047800  0.236900  1
  H  H242  1  0.236100  0.547800  0.263100  1
  H  H243  1  0.736100  0.952200  0.763100  1
  H  H244  1  0.763900  0.452200  0.736900  1
  H  H245  1  0.154300  0.936400  0.277000  1
  H  H246  1  0.345700  0.436400  0.223000  1
  H  H247  1  0.845700  0.063600  0.723000  1
  H  H248  1  0.654300  0.563600  0.777000  1
  H  H249  1  0.134600  0.310800  0.297700  1
  H  H250  1  0.365400  0.810800  0.202300  1
  H  H251  1  0.865400  0.689200  0.702300  1
  H  H252  1  0.634600  0.189200  0.797700  1
  H  H253  1  0.117100  0.189400  0.374600  1
  H  H254  1  0.382900  0.689400  0.125400  1
  H  H255  1  0.882900  0.810600  0.625400  1
  H  H256  1  0.617100  0.310600  0.874600  1
  H  H257  1  0.177100  0.172400  0.255900  1
  H  H258  1  0.322900  0.672400  0.244100  1
  H  H259  1  0.822900  0.827600  0.744100  1
  H  H260  1  0.677100  0.327600  0.755900  1
  H  H261  1  0.958500  0.943900  0.450100  1
  H  H262  1  0.541500  0.443900  0.049900  1
  H  H263  1  0.041500  0.056100  0.549900  1
  H  H264  1  0.458500  0.556100  0.950100  1
  H  H265  1  0.108600  0.941800  0.379800  1
  H  H266  1  0.391400  0.441800  0.120200  1
  H  H267  1  0.891400  0.058200  0.620200  1
  H  H268  1  0.608600  0.558200  0.879800  1
  H  H269  1  0.025000  0.073800  0.404200  1
  H  H270  1  0.475000  0.573800  0.095800  1
  H  H271  1  0.975000  0.926200  0.595800  1
  H  H272  1  0.525000  0.426200  0.904200  1
  H  H273  1  0.207700  0.099500  0.274600  1
  H  H274  1  0.292300  0.599500  0.225400  1
  H  H275  1  0.792300  0.900500  0.725400  1
  H  H276  1  0.707700  0.400500  0.774600  1
  H  H277  1  0.099500  0.111400  0.373900  1
  H  H278  1  0.400500  0.611400  0.126100  1
  H  H279  1  0.900500  0.888600  0.626100  1
  H  H280  1  0.599500  0.388600  0.873900  1
  H  H281  1  0.149300  0.974700  0.332400  1
  H  H282  1  0.350700  0.474700  0.167600  1
  H  H283  1  0.850700  0.025300  0.667600  1
  H  H284  1  0.649300  0.525300  0.832400  1
  H  H285  1  0.090900  0.704600  0.051600  1
  H  H286  1  0.409100  0.204600  0.448400  1
  H  H287  1  0.909100  0.295400  0.948400  1
  H  H288  1  0.590900  0.795400  0.551600  1
  H  H289  1  0.105700  0.753900  0.033600  1
  H  H290  1  0.394300  0.253900  0.466400  1
  H  H291  1  0.894300  0.246100  0.966400  1
  H  H292  1  0.605700  0.746100  0.533600  1
  H  H293  1  0.244100  0.745300  0.130700  1
  H  H294  1  0.255900  0.245300  0.369300  1
  H  H295  1  0.755900  0.254700  0.869300  1
  H  H296  1  0.744100  0.754700  0.630700  1
  H  H297  1  0.212400  0.706700  0.154600  1
  H  H298  1  0.287600  0.206700  0.345400  1
  H  H299  1  0.787600  0.293300  0.845400  1
  H  H300  1  0.712400  0.793300  0.654600  1
  H  H301  1  0.212800  0.741000  0.043400  1
  H  H302  1  0.287200  0.241000  0.456600  1
  H  H303  1  0.787200  0.259000  0.956600  1
  H  H304  1  0.712800  0.759000  0.543400  1
  H  H305  1  0.182900  0.689100  0.024800  1
  H  H306  1  0.317100  0.189100  0.475200  1
  H  H307  1  0.817100  0.310900  0.975200  1
  H  H308  1  0.682900  0.810900  0.524800  1
  H  H309  1  0.190400  0.656200  0.096400  1
  H  H310  1  0.309600  0.156200  0.403600  1
  H  H311  1  0.809600  0.343800  0.903600  1
  H  H312  1  0.690400  0.843800  0.596400  1
  H  H313  1  0.260100  0.677900  0.090900  1
  H  H314  1  0.239900  0.177900  0.409100  1
  H  H315  1  0.739900  0.322100  0.909100  1
  H  H316  1  0.760100  0.822100  0.590900  1
  H  H317  1  0.387800  0.958700  0.024500  1
  H  H318  1  0.112200  0.458700  0.475500  1
  H  H319  1  0.612200  0.041300  0.975500  1
  H  H320  1  0.887800  0.541300  0.524500  1
  H  H321  1  0.345000  0.915100  0.027300  1
  H  H322  1  0.155000  0.415100  0.472700  1
  H  H323  1  0.655000  0.084900  0.972700  1
  H  H324  1  0.845000  0.584900  0.527300  1
  H  H325  1  0.362400  0.966700  0.951700  1
  H  H326  1  0.137600  0.466700  0.548300  1
  H  H327  1  0.637600  0.033300  0.048300  1
  H  H328  1  0.862400  0.533300  0.451700  1
  H  H329  1  0.367100  0.907700  0.958600  1
  H  H330  1  0.132900  0.407700  0.541400  1
  H  H331  1  0.632900  0.092300  0.041400  1
  H  H332  1  0.867100  0.592300  0.458600  1
  H  H333  1  0.258200  0.900500  0.954500  1
  H  H334  1  0.241800  0.400500  0.545500  1
  H  H335  1  0.741800  0.099500  0.045500  1
  H  H336  1  0.758200  0.599500  0.454500  1
  H  H337  1  0.270500  0.934300  0.913900  1
  H  H338  1  0.229500  0.434300  0.586100  1
  H  H339  1  0.729500  0.065700  0.086100  1
  H  H340  1  0.770500  0.565700  0.413900  1
  H  H341  1  0.150700  0.440800  0.216800  1
  H  H342  1  0.349300  0.940800  0.283200  1
  H  H343  1  0.849300  0.559200  0.783200  1
  H  H344  1  0.650700  0.059200  0.716800  1
  H  H345  1  0.190600  0.438200  0.180900  1
  H  H346  1  0.309400  0.938200  0.319100  1
  H  H347  1  0.809400  0.561800  0.819100  1
  H  H348  1  0.690600  0.061800  0.680900  1
  H  H349  1  0.025500  0.464900  0.112000  1
  H  H350  1  0.474500  0.964900  0.388000  1
  H  H351  1  0.974500  0.535100  0.888000  1
  H  H352  1  0.525500  0.035100  0.612000  1
  H  H353  1  0.987100  0.450000  0.146500  1
  H  H354  1  0.512900  0.950000  0.353500  1
  H  H355  1  0.012900  0.550000  0.853500  1
  H  H356  1  0.487100  0.050000  0.646500  1
  H  H357  1  0.147800  0.520700  0.194100  1
  H  H358  1  0.352200  0.020700  0.305900  1
  H  H359  1  0.852200  0.479300  0.805900  1
  H  H360  1  0.647800  0.979300  0.694100  1
  H  H361  1  0.141900  0.503600  0.144200  1
  H  H362  1  0.358100  0.003600  0.355800  1
  H  H363  1  0.858100  0.496400  0.855800  1
  H  H364  1  0.641900  0.996400  0.644200  1
  H  H365  1  0.041500  0.497200  0.197600  1
  H  H366  1  0.458500  0.997200  0.302400  1
  H  H367  1  0.958500  0.502800  0.802400  1
  H  H368  1  0.541500  0.002800  0.697600  1
  H  H369  1  0.039800  0.530900  0.154800  1
  H  H370  1  0.460200  0.030900  0.345200  1
  H  H371  1  0.960200  0.469100  0.845200  1
  H  H372  1  0.539800  0.969100  0.654800  1
  H  H373  1  0.850900  0.430500  0.280500  1
  H  H374  1  0.649100  0.930500  0.219500  1
  H  H375  1  0.149100  0.569500  0.719500  1
  H  H376  1  0.350900  0.069500  0.780500  1
  H  H377  1  0.824900  0.440100  0.321800  1
  H  H378  1  0.675100  0.940100  0.178200  1
  H  H379  1  0.175100  0.559900  0.678200  1
  H  H380  1  0.324900  0.059900  0.821800  1
  H  H381  1  0.999600  0.462600  0.385700  1
  H  H382  1  0.500400  0.962600  0.114300  1
  H  H383  1  0.000400  0.537400  0.614300  1
  H  H384  1  0.499600  0.037400  0.885700  1
  H  H385  1  0.011300  0.467300  0.339600  1
  H  H386  1  0.488700  0.967300  0.160400  1
  H  H387  1  0.988700  0.532700  0.660400  1
  H  H388  1  0.511300  0.032700  0.839600  1
  H  H389  1  0.906500  0.506400  0.374800  1
  H  H390  1  0.593500  0.006400  0.125200  1
  H  H391  1  0.093500  0.493600  0.625200  1
  H  H392  1  0.406500  0.993600  0.874800  1
  H  H393  1  0.952700  0.536700  0.347400  1
  H  H394  1  0.547300  0.036700  0.152600  1
  H  H395  1  0.047300  0.463300  0.652600  1
  H  H396  1  0.452700  0.963300  0.847400  1
  H  H397  1  0.907800  0.500000  0.283300  1
  H  H398  1  0.592200  0.000000  0.216700  1
  H  H399  1  0.092200  0.500000  0.716700  1
  H  H400  1  0.407800  0.000000  0.783300  1
  H  H401  1  0.848600  0.517700  0.306800  1
  H  H402  1  0.651400  0.017700  0.193200  1
  H  H403  1  0.151400  0.482300  0.693200  1
  H  H404  1  0.348600  0.982300  0.806800  1
  H  H405  1  0.628100  0.980900  0.485400  1
  H  H406  1  0.871900  0.480900  0.014600  1
  H  H407  1  0.371900  0.019100  0.514600  1
  H  H408  1  0.128100  0.519100  0.985400  1
  H  H409  1  0.649000  0.942100  0.456200  1
  H  H410  1  0.851000  0.442100  0.043800  1
  H  H411  1  0.351000  0.057900  0.543800  1
  H  H412  1  0.149000  0.557900  0.956200  1
  H  H413  1  0.809900  0.960500  0.532400  1
  H  H414  1  0.690100  0.460500  0.967600  1
  H  H415  1  0.190100  0.039500  0.467600  1
  H  H416  1  0.309900  0.539500  0.032400  1
  H  H417  1  0.792500  0.009500  0.549500  1
  H  H418  1  0.707500  0.509500  0.950500  1
  H  H419  1  0.207500  0.990500  0.450500  1
  H  H420  1  0.292500  0.490500  0.049500  1
  H  H421  1  0.645600  0.915200  0.531500  1
  H  H422  1  0.854400  0.415200  0.968500  1
  H  H423  1  0.354400  0.084800  0.468500  1
  H  H424  1  0.145600  0.584800  0.031500  1
  H  H425  1  0.708600  0.899900  0.511200  1
  H  H426  1  0.791400  0.399900  0.988800  1
  H  H427  1  0.291400  0.100100  0.488800  1
  H  H428  1  0.208600  0.600100  0.011200  1
  H  H429  1  0.743200  0.936000  0.578400  1
  H  H430  1  0.756800  0.436000  0.921600  1
  H  H431  1  0.256800  0.064000  0.421600  1
  H  H432  1  0.243200  0.564000  0.078400  1
  H  H433  1  0.697700  0.983500  0.566300  1
  H  H434  1  0.802300  0.483500  0.933700  1
  H  H435  1  0.302300  0.016500  0.433700  1
  H  H436  1  0.197700  0.516500  0.066300  1
  H  H437  1  0.913800  0.730000  0.459900  1
  H  H438  1  0.586200  0.230000  0.040100  1
  H  H439  1  0.086200  0.270000  0.540100  1
  H  H440  1  0.413800  0.770000  0.959900  1
  H  H441  1  0.879300  0.774800  0.472600  1
  H  H442  1  0.620700  0.274800  0.027400  1
  H  H443  1  0.120700  0.225200  0.527400  1
  H  H444  1  0.379300  0.725200  0.972600  1
  H  H445  1  0.746400  0.771700  0.373100  1
  H  H446  1  0.753600  0.271700  0.126900  1
  H  H447  1  0.253600  0.228300  0.626900  1
  H  H448  1  0.246400  0.728300  0.873100  1
  H  H449  1  0.770100  0.720200  0.368100  1
  H  H450  1  0.729900  0.220200  0.131900  1
  H  H451  1  0.229900  0.279800  0.631900  1
  H  H452  1  0.270100  0.779800  0.868100  1
  H  H453  1  0.745500  0.765200  0.445100  1
  H  H454  1  0.754500  0.265200  0.054900  1
  H  H455  1  0.254500  0.234800  0.554900  1
  H  H456  1  0.245500  0.734800  0.945100  1
  H  H457  1  0.727700  0.709300  0.429800  1
  H  H458  1  0.772300  0.209300  0.070200  1
  H  H459  1  0.272300  0.290700  0.570200  1
  H  H460  1  0.227700  0.790700  0.929800  1
  H  H461  1  0.828100  0.683200  0.448700  1
  H  H462  1  0.671900  0.183200  0.051300  1
  H  H463  1  0.171900  0.316800  0.551300  1
  H  H464  1  0.328100  0.816800  0.948700  1
  H  H465  1  0.813200  0.717000  0.488500  1
  H  H466  1  0.686800  0.217000  0.011500  1
  H  H467  1  0.186800  0.283000  0.511500  1
  H  H468  1  0.313200  0.783000  0.988500  1
  H  H469  1  0.194600  0.964600  0.961500  1
  H  H470  1  0.305400  0.464600  0.538500  1
  H  H471  1  0.805400  0.035400  0.038500  1
  H  H472  1  0.694600  0.535400  0.461500  1
  H  H473  1  0.237500  0.001800  0.944900  1
  H  H474  1  0.262500  0.501800  0.555100  1
  H  H475  1  0.762500  0.998200  0.055100  1
  H  H476  1  0.737500  0.498200  0.444900  1
  H  H477  1  0.141200  0.051400  0.182200  1
  H  H478  1  0.358800  0.551400  0.317800  1
  H  H479  1  0.858800  0.948600  0.817800  1
  H  H480  1  0.641200  0.448600  0.682200  1
  H  H481  1  0.198600  0.096500  0.134100  1
  H  H482  1  0.301400  0.596500  0.365900  1
  H  H483  1  0.801400  0.903500  0.865900  1
  H  H484  1  0.698600  0.403500  0.634100  1
  H  H485  1  0.164300  0.175700  0.110100  1
  H  H486  1  0.335700  0.675700  0.389900  1
  H  H487  1  0.835700  0.824300  0.889900  1
  H  H488  1  0.664300  0.324300  0.610100  1
  H  H489  1  0.071500  0.209700  0.131500  1
  H  H490  1  0.428500  0.709700  0.368500  1
  H  H491  1  0.928500  0.790300  0.868500  1
  H  H492  1  0.571500  0.290300  0.631500  1
  H  H493  1  0.014600  0.167400  0.180500  1
  H  H494  1  0.485400  0.667400  0.319500  1
  H  H495  1  0.985400  0.832600  0.819500  1
  H  H496  1  0.514600  0.332600  0.680500  1
  H  H497  1  0.003500  0.166800  0.319100  1
  H  H498  1  0.496500  0.666800  0.180900  1
  H  H499  1  0.996500  0.833200  0.680900  1
  H  H500  1  0.503500  0.333200  0.819100  1
  H  H501  1  0.956800  0.209800  0.371300  1
  H  H502  1  0.543200  0.709800  0.128700  1
  H  H503  1  0.043200  0.790200  0.628700  1
  H  H504  1  0.456800  0.290200  0.871300  1
  H  H505  1  0.861700  0.181600  0.395000  1
  H  H506  1  0.638300  0.681600  0.105000  1
  H  H507  1  0.138300  0.818400  0.605000  1
  H  H508  1  0.361700  0.318400  0.895000  1
  H  H509  1  0.816200  0.105600  0.367900  1
  H  H510  1  0.683800  0.605600  0.132100  1
  H  H511  1  0.183800  0.894400  0.632100  1
  H  H512  1  0.316200  0.394400  0.867900  1
  H  H513  1  0.864800  0.059400  0.316500  1
  H  H514  1  0.635200  0.559400  0.183500  1
  H  H515  1  0.135200  0.940600  0.683500  1
  H  H516  1  0.364800  0.440600  0.816500  1
  H  H517  1  0.999100  0.930700  0.314100  1
  H  H518  1  0.500900  0.430700  0.185900  1
  H  H519  1  0.000900  0.069300  0.685900  1
  H  H520  1  0.499100  0.569300  0.814100  1
  H  H521  1  0.996800  0.842500  0.313600  1
  H  H522  1  0.503200  0.342500  0.186400  1
  H  H523  1  0.003200  0.157500  0.686400  1
  H  H524  1  0.496800  0.657500  0.813600  1
  H  H525  1  0.990400  0.799600  0.246500  1
  H  H526  1  0.509600  0.299600  0.253500  1
  H  H527  1  0.009600  0.200400  0.753500  1
  H  H528  1  0.490400  0.700400  0.746500  1
  H  H529  1  0.989800  0.844800  0.180900  1
  H  H530  1  0.510200  0.344800  0.319100  1
  H  H531  1  0.010200  0.155200  0.819100  1
  H  H532  1  0.489800  0.655200  0.680900  1
  H  H533  1  0.996700  0.931900  0.181900  1
  H  H534  1  0.503300  0.431900  0.318100  1
  H  H535  1  0.003300  0.068100  0.818100  1
  H  H536  1  0.496700  0.568100  0.681900  1
  H  H537  1  0.006200  0.138600  0.249600  1
  H  H538  1  0.493800  0.638600  0.250400  1
  H  H539  1  0.993800  0.861400  0.750400  1
  H  H540  1  0.506200  0.361400  0.749600  1
  H  H541  1  0.948700  0.009500  0.299600  1
  H  H542  1  0.551300  0.509500  0.200400  1
  H  H543  1  0.051300  0.990500  0.700400  1
  H  H544  1  0.448700  0.490500  0.799600  1
  H  H545  1  0.053600  0.006300  0.198300  1
  H  H546  1  0.446400  0.506300  0.301700  1
  H  H547  1  0.946400  0.993700  0.801700  1
  H  H548  1  0.553600  0.493700  0.698300  1
  Pd  Pd549  1  0.124020  0.761896  0.115987  1
  Pd  Pd550  1  0.375980  0.261896  0.384013  1
  Pd  Pd551  1  0.875980  0.238104  0.884013  1
  Pd  Pd552  1  0.624020  0.738104  0.615987  1
  Pd  Pd553  1  0.739450  0.004670  0.470680  1
  Pd  Pd554  1  0.760550  0.504670  0.029320  1
  Pd  Pd555  1  0.260550  0.995330  0.529320  1
  Pd  Pd556  1  0.239450  0.495330  0.970680  1
  Pd  Pd557  1  0.932080  0.396080  0.341990  1
  Pd  Pd558  1  0.567920  0.896080  0.158010  1
  Pd  Pd559  1  0.067920  0.603920  0.658010  1
  Pd  Pd560  1  0.432080  0.103920  0.841990  1
  Pd  Pd561  1  0.085130  0.394220  0.154080  1
  Pd  Pd562  1  0.414870  0.894220  0.345920  1
  Pd  Pd563  1  0.914870  0.605780  0.845920  1
  Pd  Pd564  1  0.585130  0.105780  0.654080  1
  Pd  Pd565  1  0.275000  0.992194  0.025824  1
  Pd  Pd566  1  0.225000  0.492194  0.474176  1
  Pd  Pd567  1  0.725000  0.007806  0.974176  1
  Pd  Pd568  1  0.775000  0.507806  0.525824  1
  Pd  Pd569  1  0.868320  0.774531  0.390088  1
  Pd  Pd570  1  0.631680  0.274531  0.109912  1
  Pd  Pd571  1  0.131680  0.225469  0.609912  1
  Pd  Pd572  1  0.368320  0.725469  0.890088  1
  C  C573  1  0.034400  0.848300  0.091340  1
  C  C574  1  0.465600  0.348300  0.408660  1
  C  C575  1  0.965600  0.151700  0.908660  1
  C  C576  1  0.534400  0.651700  0.591340  1
  C  C577  1  0.975700  0.875100  0.082920  1
  C  C578  1  0.524300  0.375100  0.417080  1
  C  C579  1  0.024300  0.124900  0.917080  1
  C  C580  1  0.475700  0.624900  0.582920  1
  C  C581  1  0.917900  0.847300  0.082000  1
  C  C582  1  0.582100  0.347300  0.418000  1
  C  C583  1  0.082100  0.152700  0.918000  1
  C  C584  1  0.417900  0.652700  0.582000  1
  C  C585  1  0.920300  0.796400  0.089000  1
  C  C586  1  0.579700  0.296400  0.411000  1
  C  C587  1  0.079700  0.203600  0.911000  1
  C  C588  1  0.420300  0.703600  0.589000  1
  C  C589  1  0.980700  0.773100  0.098200  1
  C  C590  1  0.519300  0.273100  0.401800  1
  C  C591  1  0.019300  0.226900  0.901800  1
  C  C592  1  0.480700  0.726900  0.598200  1
  C  C593  1  0.144300  0.012700  0.047220  1
  C  C594  1  0.355700  0.512700  0.452780  1
  C  C595  1  0.855700  0.987300  0.952780  1
  C  C596  1  0.644300  0.487300  0.547220  1
  C  C597  1  0.085800  0.037300  0.050350  1
  C  C598  1  0.414200  0.537300  0.449650  1
  C  C599  1  0.914200  0.962700  0.949650  1
  C  C600  1  0.585800  0.462700  0.550350  1
  C  C601  1  0.081000  0.088300  0.037340  1
  C  C602  1  0.419000  0.588300  0.462660  1
  C  C603  1  0.919000  0.911700  0.962660  1
  C  C604  1  0.581000  0.411700  0.537340  1
  C  C605  1  0.135200  0.111600  0.023470  1
  C  C606  1  0.364800  0.611600  0.476530  1
  C  C607  1  0.864800  0.888400  0.976530  1
  C  C608  1  0.635200  0.388400  0.523470  1
  C  C609  1  0.190600  0.084000  0.020990  1
  C  C610  1  0.309400  0.584000  0.479010  1
  C  C611  1  0.809400  0.916000  0.979010  1
  C  C612  1  0.690600  0.416000  0.520990  1
  C  C613  1  0.982700  0.318400  0.144220  1
  C  C614  1  0.517300  0.818400  0.355780  1
  C  C615  1  0.017300  0.681600  0.855780  1
  C  C616  1  0.482700  0.181600  0.644220  1
  C  C617  1  0.934700  0.284700  0.125210  1
  C  C618  1  0.565300  0.784700  0.374790  1
  C  C619  1  0.065300  0.715300  0.874790  1
  C  C620  1  0.434700  0.215300  0.625210  1
  C  C621  1  0.921100  0.284200  0.079600  1
  C  C622  1  0.578900  0.784200  0.420400  1
  C  C623  1  0.078900  0.715800  0.920400  1
  C  C624  1  0.421100  0.215800  0.579600  1
  C  C625  1  0.956200  0.316500  0.055100  1
  C  C626  1  0.543800  0.816500  0.444900  1
  C  C627  1  0.043800  0.683500  0.944900  1
  C  C628  1  0.456200  0.183500  0.555100  1
  C  C629  1  0.002900  0.348300  0.076800  1
  C  C630  1  0.497100  0.848300  0.423200  1
  C  C631  1  0.997100  0.651700  0.923200  1
  C  C632  1  0.502900  0.151700  0.576800  1
  C  C633  1  0.886300  0.309700  0.285190  1
  C  C634  1  0.613700  0.809700  0.214810  1
  C  C635  1  0.113700  0.690300  0.714810  1
  C  C636  1  0.386300  0.190300  0.785190  1
  C  C637  1  0.852100  0.266300  0.269580  1
  C  C638  1  0.647900  0.766300  0.230420  1
  C  C639  1  0.147900  0.733700  0.730420  1
  C  C640  1  0.352100  0.233700  0.769580  1
  C  C641  1  0.809100  0.246100  0.296200  1
  C  C642  1  0.690900  0.746100  0.203800  1
  C  C643  1  0.190900  0.753900  0.703800  1
  C  C644  1  0.309100  0.253900  0.796200  1
  C  C645  1  0.802500  0.270300  0.336500  1
  C  C646  1  0.697500  0.770300  0.163500  1
  C  C647  1  0.197500  0.729700  0.663500  1
  C  C648  1  0.302500  0.229700  0.836500  1
  C  C649  1  0.838000  0.312700  0.349300  1
  C  C650  1  0.662000  0.812700  0.150700  1
  C  C651  1  0.162000  0.687300  0.650700  1
  C  C652  1  0.338000  0.187300  0.849300  1
  C  C653  1  0.729500  0.004800  0.373130  1
  C  C654  1  0.770500  0.504800  0.126870  1
  C  C655  1  0.270500  0.995200  0.626870  1
  C  C656  1  0.229500  0.495200  0.873130  1
  C  C657  1  0.708700  0.016100  0.329450  1
  C  C658  1  0.791300  0.516100  0.170550  1
  C  C659  1  0.291300  0.983900  0.670550  1
  C  C660  1  0.208700  0.483900  0.829450  1
  C  C661  1  0.653900  0.048000  0.319620  1
  C  C662  1  0.846100  0.548000  0.180380  1
  C  C663  1  0.346100  0.952000  0.680380  1
  C  C664  1  0.153900  0.452000  0.819620  1
  C  C665  1  0.624100  0.066800  0.354200  1
  C  C666  1  0.875900  0.566800  0.145800  1
  C  C667  1  0.375900  0.933200  0.645800  1
  C  C668  1  0.124100  0.433200  0.854200  1
  C  C669  1  0.648600  0.053600  0.397490  1
  C  C670  1  0.851400  0.553600  0.102510  1
  C  C671  1  0.351400  0.946400  0.602510  1
  C  C672  1  0.148600  0.446400  0.897490  1
  C  C673  1  0.834700  0.847200  0.318110  1
  C  C674  1  0.665300  0.347200  0.181890  1
  C  C675  1  0.165300  0.152800  0.681890  1
  C  C676  1  0.334700  0.652800  0.818110  1
  C  C677  1  0.819400  0.866700  0.275220  1
  C  C678  1  0.680600  0.366700  0.224780  1
  C  C679  1  0.180600  0.133300  0.724780  1
  C  C680  1  0.319400  0.633300  0.775220  1
  C  C681  1  0.824100  0.834500  0.239990  1
  C  C682  1  0.675900  0.334500  0.260010  1
  C  C683  1  0.175900  0.165500  0.760010  1
  C  C684  1  0.324100  0.665500  0.739990  1
  C  C685  1  0.842700  0.784700  0.248700  1
  C  C686  1  0.657300  0.284700  0.251300  1
  C  C687  1  0.157300  0.215300  0.751300  1
  C  C688  1  0.342700  0.715300  0.748700  1
  C  C689  1  0.856800  0.768100  0.291600  1
  C  C690  1  0.643200  0.268100  0.208400  1
  C  C691  1  0.143200  0.231900  0.708400  1
  C  C692  1  0.356800  0.731900  0.791600  1
  C  C693  1  0.977000  0.931500  0.080470  1
  C  C694  1  0.523000  0.431500  0.419530  1
  C  C695  1  0.023000  0.068500  0.919530  1
  C  C696  1  0.477000  0.568500  0.580470  1
  C  C697  1  0.025500  0.957700  0.062680  1
  C  C698  1  0.474500  0.457700  0.437320  1
  C  C699  1  0.974500  0.042300  0.937320  1
  C  C700  1  0.525500  0.542300  0.562680  1
  C  C701  1  0.031400  0.010200  0.067410  1
  C  C702  1  0.468600  0.510200  0.432590  1
  C  C703  1  0.968600  0.989800  0.932590  1
  C  C704  1  0.531400  0.489800  0.567410  1
  C  C705  1  0.987900  0.035900  0.090570  1
  C  C706  1  0.512100  0.535900  0.409430  1
  C  C707  1  0.012100  0.964100  0.909430  1
  C  C708  1  0.487900  0.464100  0.590570  1
  C  C709  1  0.937100  0.011200  0.107630  1
  C  C710  1  0.562900  0.511200  0.392370  1
  C  C711  1  0.062900  0.988800  0.892370  1
  C  C712  1  0.437100  0.488800  0.607630  1
  C  C713  1  0.932000  0.958800  0.101170  1
  C  C714  1  0.568000  0.458800  0.398830  1
  C  C715  1  0.068000  0.041200  0.898830  1
  C  C716  1  0.432000  0.541200  0.601170  1
  C  C717  1  0.900600  0.253100  0.155080  1
  C  C718  1  0.599400  0.753100  0.344920  1
  C  C719  1  0.099400  0.746900  0.844920  1
  C  C720  1  0.400600  0.246900  0.655080  1
  C  C721  1  0.886100  0.273900  0.194630  1
  C  C722  1  0.613900  0.773900  0.305370  1
  C  C723  1  0.113900  0.726100  0.805370  1
  C  C724  1  0.386100  0.226100  0.694630  1
  C  C725  1  0.863200  0.243900  0.226470  1
  C  C726  1  0.636800  0.743900  0.273530  1
  C  C727  1  0.136800  0.756100  0.773530  1
  C  C728  1  0.363200  0.256100  0.726470  1
  C  C729  1  0.853700  0.192100  0.217740  1
  C  C730  1  0.646300  0.692100  0.282260  1
  C  C731  1  0.146300  0.807900  0.782260  1
  C  C732  1  0.353700  0.307900  0.717740  1
  C  C733  1  0.865100  0.170300  0.177800  1
  C  C734  1  0.634900  0.670300  0.322200  1
  C  C735  1  0.134900  0.829700  0.822200  1
  C  C736  1  0.365100  0.329700  0.677800  1
  C  C737  1  0.888600  0.202000  0.146320  1
  C  C738  1  0.611400  0.702000  0.353680  1
  C  C739  1  0.111400  0.798000  0.853680  1
  C  C740  1  0.388600  0.298000  0.646320  1
  C  C741  1  0.744400  0.993500  0.294930  1
  C  C742  1  0.755600  0.493500  0.205070  1
  C  C743  1  0.255600  0.006500  0.705070  1
  C  C744  1  0.244400  0.506500  0.794930  1
  C  C745  1  0.763200  0.943100  0.299470  1
  C  C746  1  0.736800  0.443100  0.200530  1
  C  C747  1  0.236800  0.056900  0.700530  1
  C  C748  1  0.263200  0.556900  0.799470  1
  C  C749  1  0.799400  0.920700  0.269650  1
  C  C750  1  0.700600  0.420700  0.230350  1
  C  C751  1  0.200600  0.079300  0.730350  1
  C  C752  1  0.299400  0.579300  0.769650  1
  C  C753  1  0.818600  0.950000  0.235890  1
  C  C754  1  0.681400  0.450000  0.264110  1
  C  C755  1  0.181400  0.050000  0.764110  1
  C  C756  1  0.318600  0.550000  0.735890  1
  C  C757  1  0.800900  0.000510  0.230230  1
  C  C758  1  0.699100  0.500510  0.269770  1
  C  C759  1  0.199100  0.999490  0.769770  1
  C  C760  1  0.300900  0.499490  0.730230  1
  C  C761  1  0.762200  0.021900  0.259750  1
  C  C762  1  0.737800  0.521900  0.240250  1
  C  C763  1  0.237800  0.978100  0.740250  1
  C  C764  1  0.262200  0.478100  0.759750  1
  C  C765  1  0.894600  0.037800  0.136350  1
  C  C766  1  0.605400  0.537800  0.363650  1
  C  C767  1  0.105400  0.962200  0.863650  1
  C  C768  1  0.394600  0.462200  0.636350  1
  C  C769  1  0.893200  0.090440  0.139810  1
  C  C770  1  0.606800  0.590440  0.360190  1
  C  C771  1  0.106800  0.909560  0.860190  1
  C  C772  1  0.393200  0.409560  0.639810  1
  C  C773  1  0.859900  0.114450  0.170400  1
  C  C774  1  0.640100  0.614450  0.329600  1
  C  C775  1  0.140100  0.885550  0.829600  1
  C  C776  1  0.359900  0.385550  0.670400  1
  C  C777  1  0.827100  0.084610  0.198100  1
  C  C778  1  0.672900  0.584610  0.301900  1
  C  C779  1  0.172900  0.915390  0.801900  1
  C  C780  1  0.327100  0.415390  0.698100  1
  C  C781  1  0.827900  0.032200  0.196080  1
  C  C782  1  0.672100  0.532200  0.303920  1
  C  C783  1  0.172100  0.967800  0.803920  1
  C  C784  1  0.327900  0.467800  0.696080  1
  C  C785  1  0.861200  0.009800  0.164700  1
  C  C786  1  0.638800  0.509800  0.335300  1
  C  C787  1  0.138800  0.990200  0.835300  1
  C  C788  1  0.361200  0.490200  0.664700  1
  C  C789  1  0.162800  0.839500  0.182920  1
  C  C790  1  0.337200  0.339500  0.317080  1
  C  C791  1  0.837200  0.160500  0.817080  1
  C  C792  1  0.662800  0.660500  0.682920  1
  C  C793  1  0.177000  0.862600  0.224210  1
  C  C794  1  0.323000  0.362600  0.275790  1
  C  C795  1  0.823000  0.137400  0.775790  1
  C  C796  1  0.677000  0.637400  0.724210  1
  C  C797  1  0.165400  0.835100  0.261030  1
  C  C798  1  0.334600  0.335100  0.238970  1
  C  C799  1  0.834600  0.164900  0.738970  1
  C  C800  1  0.665400  0.664900  0.761030  1
  C  C801  1  0.139400  0.787600  0.255970  1
  C  C802  1  0.360600  0.287600  0.244030  1
  C  C803  1  0.860600  0.212400  0.744030  1
  C  C804  1  0.639400  0.712400  0.755970  1
  C  C805  1  0.125900  0.766400  0.214310  1
  C  C806  1  0.374100  0.266400  0.285690  1
  C  C807  1  0.874100  0.233600  0.785690  1
  C  C808  1  0.625900  0.733600  0.714310  1
  C  C809  1  0.285300  0.989900  0.123510  1
  C  C810  1  0.214700  0.489900  0.376490  1
  C  C811  1  0.714700  0.010100  0.876490  1
  C  C812  1  0.785300  0.510100  0.623510  1
  C  C813  1  0.303900  0.003500  0.167550  1
  C  C814  1  0.196100  0.503500  0.332450  1
  C  C815  1  0.696100  0.996500  0.832450  1
  C  C816  1  0.803900  0.496500  0.667550  1
  C  C817  1  0.356100  0.037300  0.176820  1
  C  C818  1  0.143900  0.537300  0.323180  1
  C  C819  1  0.643900  0.962700  0.823180  1
  C  C820  1  0.856100  0.462700  0.676820  1
  C  C821  1  0.386100  0.055700  0.142400  1
  C  C822  1  0.113900  0.555700  0.357600  1
  C  C823  1  0.613900  0.944300  0.857600  1
  C  C824  1  0.886100  0.444300  0.642400  1
  C  C825  1  0.364400  0.041100  0.099700  1
  C  C826  1  0.135600  0.541100  0.400300  1
  C  C827  1  0.635600  0.958900  0.900300  1
  C  C828  1  0.864400  0.458900  0.599700  1
  C  C829  1  0.136900  0.310800  0.211340  1
  C  C830  1  0.363100  0.810800  0.288660  1
  C  C831  1  0.863100  0.689200  0.788660  1
  C  C832  1  0.636900  0.189200  0.711340  1
  C  C833  1  0.170700  0.267600  0.226640  1
  C  C834  1  0.329300  0.767600  0.273360  1
  C  C835  1  0.829300  0.732400  0.773360  1
  C  C836  1  0.670700  0.232400  0.726640  1
  C  C837  1  0.213700  0.246800  0.200500  1
  C  C838  1  0.286300  0.746800  0.299500  1
  C  C839  1  0.786300  0.753200  0.799500  1
  C  C840  1  0.713700  0.253200  0.700500  1
  C  C841  1  0.219900  0.269200  0.159990  1
  C  C842  1  0.280100  0.769200  0.340010  1
  C  C843  1  0.780100  0.730800  0.840010  1
  C  C844  1  0.719900  0.230800  0.659990  1
  C  C845  1  0.183400  0.311800  0.146650  1
  C  C846  1  0.316600  0.811800  0.353350  1
  C  C847  1  0.816600  0.688200  0.853350  1
  C  C848  1  0.683400  0.188200  0.646650  1
  C  C849  1  0.039500  0.321900  0.351210  1
  C  C850  1  0.460500  0.821900  0.148790  1
  C  C851  1  0.960500  0.678100  0.648790  1
  C  C852  1  0.539500  0.178100  0.851210  1
  C  C853  1  0.087100  0.287400  0.370340  1
  C  C854  1  0.412900  0.787400  0.129660  1
  C  C855  1  0.912900  0.712600  0.629660  1
  C  C856  1  0.587100  0.212600  0.870340  1
  C  C857  1  0.099100  0.286000  0.416320  1
  C  C858  1  0.400900  0.786000  0.083680  1
  C  C859  1  0.900900  0.714000  0.583680  1
  C  C860  1  0.599100  0.214000  0.916320  1
  C  C861  1  0.064700  0.317700  0.440500  1
  C  C862  1  0.435300  0.817700  0.059500  1
  C  C863  1  0.935300  0.682300  0.559500  1
  C  C864  1  0.564700  0.182300  0.940500  1
  C  C865  1  0.018000  0.350300  0.418940  1
  C  C866  1  0.482000  0.850300  0.081060  1
  C  C867  1  0.982000  0.649700  0.581060  1
  C  C868  1  0.518000  0.149700  0.918940  1
  C  C869  1  0.872700  0.020300  0.451130  1
  C  C870  1  0.627300  0.520300  0.048870  1
  C  C871  1  0.127300  0.979700  0.548870  1
  C  C872  1  0.372700  0.479700  0.951130  1
  C  C873  1  0.933300  0.042500  0.449960  1
  C  C874  1  0.566700  0.542500  0.050040  1
  C  C875  1  0.066700  0.957500  0.550040  1
  C  C876  1  0.433300  0.457500  0.949960  1
  C  C877  1  0.941500  0.092200  0.465000  1
  C  C878  1  0.558500  0.592200  0.035000  1
  C  C879  1  0.058500  0.907800  0.535000  1
  C  C880  1  0.441500  0.407800  0.965000  1
  C  C881  1  0.890100  0.117500  0.479810  1
  C  C882  1  0.609900  0.617500  0.020190  1
  C  C883  1  0.109900  0.882500  0.520190  1
  C  C884  1  0.390100  0.382500  0.979810  1
  C  C885  1  0.831300  0.092400  0.479900  1
  C  C886  1  0.668700  0.592400  0.020100  1
  C  C887  1  0.168700  0.907600  0.520100  1
  C  C888  1  0.331300  0.407600  0.979900  1
  C  C889  1  0.968900  0.853400  0.405550  1
  C  C890  1  0.531100  0.353400  0.094450  1
  C  C891  1  0.031100  0.146600  0.594450  1
  C  C892  1  0.468900  0.646600  0.905550  1
  C  C893  1  0.029500  0.877000  0.410940  1
  C  C894  1  0.470500  0.377000  0.089060  1
  C  C895  1  0.970500  0.123000  0.589060  1
  C  C896  1  0.529500  0.623000  0.910940  1
  C  C897  1  0.084800  0.846600  0.410170  1
  C  C898  1  0.415200  0.346600  0.089830  1
  C  C899  1  0.915200  0.153400  0.589830  1
  C  C900  1  0.584800  0.653400  0.910170  1
  C  C901  1  0.076900  0.794500  0.404100  1
  C  C902  1  0.423100  0.294500  0.095900  1
  C  C903  1  0.923100  0.205500  0.595900  1
  C  C904  1  0.576900  0.705500  0.904100  1
  C  C905  1  0.014700  0.773400  0.398700  1
  C  C906  1  0.485300  0.273400  0.101300  1
  C  C907  1  0.985300  0.226600  0.601300  1
  C  C908  1  0.514700  0.726600  0.898700  1
  C  C909  1  0.202900  0.915100  0.227350  1
  C  C910  1  0.297100  0.415100  0.272650  1
  C  C911  1  0.797100  0.084900  0.772650  1
  C  C912  1  0.702900  0.584900  0.727350  1
  C  C913  1  0.243700  0.933400  0.198310  1
  C  C914  1  0.256300  0.433400  0.301690  1
  C  C915  1  0.756300  0.066600  0.801690  1
  C  C916  1  0.743700  0.566600  0.698310  1
  C  C917  1  0.265800  0.983000  0.201350  1
  C  C918  1  0.234200  0.483000  0.298650  1
  C  C919  1  0.734200  0.017000  0.798650  1
  C  C920  1  0.765800  0.517000  0.701350  1
  C  C921  1  0.247900  0.014800  0.234340  1
  C  C922  1  0.252100  0.514800  0.265660  1
  C  C923  1  0.752100  0.985200  0.765660  1
  C  C924  1  0.747900  0.485200  0.734340  1
  C  C925  1  0.206400  0.997600  0.263500  1
  C  C926  1  0.293600  0.497600  0.236500  1
  C  C927  1  0.793600  0.002400  0.736500  1
  C  C928  1  0.706400  0.502400  0.763500  1
  C  C929  1  0.183500  0.947900  0.258620  1
  C  C930  1  0.316500  0.447900  0.241380  1
  C  C931  1  0.816500  0.052100  0.741380  1
  C  C932  1  0.683500  0.552100  0.758620  1
  C  C933  1  0.158400  0.244900  0.269590  1
  C  C934  1  0.341600  0.744900  0.230410  1
  C  C935  1  0.841600  0.755100  0.730410  1
  C  C936  1  0.658400  0.255100  0.769590  1
  C  C937  1  0.136700  0.275900  0.301880  1
  C  C938  1  0.363300  0.775900  0.198120  1
  C  C939  1  0.863300  0.724100  0.698120  1
  C  C940  1  0.636700  0.224100  0.801880  1
  C  C941  1  0.118400  0.254800  0.340060  1
  C  C942  1  0.381600  0.754800  0.159940  1
  C  C943  1  0.881600  0.745200  0.659940  1
  C  C944  1  0.618400  0.245200  0.840060  1
  C  C945  1  0.126700  0.203000  0.348000  1
  C  C946  1  0.373300  0.703000  0.152000  1
  C  C947  1  0.873300  0.797000  0.652000  1
  C  C948  1  0.626700  0.297000  0.848000  1
  C  C949  1  0.152200  0.114200  0.322660  1
  C  C950  1  0.347800  0.614200  0.177340  1
  C  C951  1  0.847800  0.885800  0.677340  1
  C  C952  1  0.652200  0.385800  0.822660  1
  C  C953  1  0.149100  0.171000  0.316500  1
  C  C954  1  0.350900  0.671000  0.183500  1
  C  C955  1  0.850900  0.829000  0.683500  1
  C  C956  1  0.649100  0.329000  0.816500  1
  C  C957  1  0.163500  0.193200  0.277540  1
  C  C958  1  0.336500  0.693200  0.222460  1
  C  C959  1  0.836500  0.806800  0.722460  1
  C  C960  1  0.663500  0.306800  0.777540  1
  C  C961  1  0.984700  0.013400  0.430930  1
  C  C962  1  0.515300  0.513400  0.069070  1
  C  C963  1  0.015300  0.986600  0.569070  1
  C  C964  1  0.484700  0.486600  0.930930  1
  C  C965  1  0.987100  0.960900  0.434260  1
  C  C966  1  0.512900  0.460900  0.065740  1
  C  C967  1  0.012900  0.039100  0.565740  1
  C  C968  1  0.487100  0.539100  0.934260  1
  C  C969  1  0.032300  0.933400  0.413920  1
  C  C970  1  0.467700  0.433400  0.086080  1
  C  C971  1  0.967700  0.066600  0.586080  1
  C  C972  1  0.532300  0.566600  0.913920  1
  C  C973  1  0.076900  0.960000  0.391960  1
  C  C974  1  0.423100  0.460000  0.108040  1
  C  C975  1  0.923100  0.040000  0.608040  1
  C  C976  1  0.576900  0.540000  0.891960  1
  C  C977  1  0.075600  0.012400  0.387590  1
  C  C978  1  0.424400  0.512400  0.112410  1
  C  C979  1  0.924400  0.987600  0.612410  1
  C  C980  1  0.575600  0.487600  0.887590  1
  C  C981  1  0.027900  0.038700  0.407140  1
  C  C982  1  0.472100  0.538700  0.092860  1
  C  C983  1  0.972100  0.961300  0.592860  1
  C  C984  1  0.527900  0.461300  0.907140  1
  C  C985  1  0.181300  0.031700  0.297270  1
  C  C986  1  0.318700  0.531700  0.202730  1
  C  C987  1  0.818700  0.968300  0.702730  1
  C  C988  1  0.681300  0.468300  0.797270  1
  C  C989  1  0.184200  0.084200  0.294880  1
  C  C990  1  0.315800  0.584200  0.205120  1
  C  C991  1  0.815800  0.915800  0.705120  1
  C  C992  1  0.684200  0.415800  0.794880  1
  C  C993  1  0.119600  0.091300  0.354740  1
  C  C994  1  0.380400  0.591300  0.145260  1
  C  C995  1  0.880400  0.908700  0.645260  1
  C  C996  1  0.619600  0.408700  0.854740  1
  C  C997  1  0.117100  0.038700  0.358270  1
  C  C998  1  0.382900  0.538700  0.141730  1
  C  C999  1  0.882900  0.961300  0.641730  1
  C  C1000  1  0.617100  0.461300  0.858270  1
  C  C1001  1  0.149200  0.009800  0.329680  1
  C  C1002  1  0.350800  0.509800  0.170320  1
  C  C1003  1  0.850800  0.990200  0.670320  1
  C  C1004  1  0.649200  0.490200  0.829680  1
  C  C1005  1  0.185500  0.712700  0.049500  1
  C  C1006  1  0.314500  0.212700  0.450500  1
  C  C1007  1  0.814500  0.287300  0.950500  1
  C  C1008  1  0.685500  0.787300  0.549500  1
  C  C1009  1  0.214600  0.686900  0.092000  1
  C  C1010  1  0.285400  0.186900  0.408000  1
  C  C1011  1  0.785400  0.313100  0.908000  1
  C  C1012  1  0.714600  0.813100  0.592000  1
  C  C1013  1  0.343300  0.937900  0.964900  1
  C  C1014  1  0.156700  0.437900  0.535100  1
  C  C1015  1  0.656700  0.062100  0.035100  1
  C  C1016  1  0.843300  0.562100  0.464900  1
  C  C1017  1  0.274900  0.933000  0.946100  1
  C  C1018  1  0.225100  0.433000  0.553900  1
  C  C1019  1  0.725100  0.067000  0.053900  1
  C  C1020  1  0.774900  0.567000  0.446100  1
  C  C1021  1  0.128000  0.496000  0.172600  1
  C  C1022  1  0.372000  0.996000  0.327400  1
  C  C1023  1  0.872000  0.504000  0.827400  1
  C  C1024  1  0.628000  0.004000  0.672600  1
  C  C1025  1  0.055200  0.499100  0.168500  1
  C  C1026  1  0.444800  0.999100  0.331500  1
  C  C1027  1  0.944800  0.500900  0.831500  1
  C  C1028  1  0.555200  0.000900  0.668500  1
  C  C1029  1  0.930700  0.504500  0.349800  1
  C  C1030  1  0.569300  0.004500  0.150200  1
  C  C1031  1  0.069300  0.495500  0.650200  1
  C  C1032  1  0.430700  0.995500  0.849800  1
  C  C1033  1  0.885500  0.494500  0.308800  1
  C  C1034  1  0.614500  0.994500  0.191200  1
  C  C1035  1  0.114500  0.505500  0.691200  1
  C  C1036  1  0.385500  0.005500  0.808800  1
  C  C1037  1  0.683600  0.928300  0.519900  1
  C  C1038  1  0.816400  0.428300  0.980100  1
  C  C1039  1  0.316400  0.071700  0.480100  1
  C  C1040  1  0.183600  0.571700  0.019900  1
  C  C1041  1  0.724200  0.957900  0.554280  1
  C  C1042  1  0.775800  0.457900  0.945720  1
  C  C1043  1  0.275800  0.042100  0.445720  1
  C  C1044  1  0.224200  0.542100  0.054280  1
  C  C1045  1  0.761300  0.735300  0.431400  1
  C  C1046  1  0.738700  0.235300  0.068600  1
  C  C1047  1  0.238700  0.264700  0.568600  1
  C  C1048  1  0.261300  0.764700  0.931400  1
  C  C1049  1  0.819700  0.717700  0.457500  1
  C  C1050  1  0.680300  0.217700  0.042500  1
  C  C1051  1  0.180300  0.282300  0.542500  1
  C  C1052  1  0.319700  0.782300  0.957500  1
  C  C1053  1  0.072600  0.105000  0.186800  1
  C  C1054  1  0.427400  0.605000  0.313200  1
  C  C1055  1  0.927400  0.895000  0.813200  1
  C  C1056  1  0.572600  0.395000  0.686800  1
  C  C1057  1  0.127200  0.083600  0.172500  1
  C  C1058  1  0.372800  0.583600  0.327500  1
  C  C1059  1  0.872800  0.916400  0.827500  1
  C  C1060  1  0.627200  0.416400  0.672500  1
  C  C1061  1  0.161700  0.110700  0.143500  1
  C  C1062  1  0.338300  0.610700  0.356500  1
  C  C1063  1  0.838300  0.889300  0.856500  1
  C  C1064  1  0.661700  0.389300  0.643500  1
  C  C1065  1  0.141000  0.157700  0.129000  1
  C  C1066  1  0.359000  0.657700  0.371000  1
  C  C1067  1  0.859000  0.842300  0.871000  1
  C  C1068  1  0.641000  0.342300  0.629000  1
  C  C1069  1  0.086000  0.178100  0.142300  1
  C  C1070  1  0.414000  0.678100  0.357700  1
  C  C1071  1  0.914000  0.821900  0.857700  1
  C  C1072  1  0.586000  0.321900  0.642300  1
  C  C1073  1  0.051400  0.152700  0.171400  1
  C  C1074  1  0.448600  0.652700  0.328600  1
  C  C1075  1  0.948600  0.847300  0.828600  1
  C  C1076  1  0.551400  0.347300  0.671400  1
  C  C1077  1  0.940500  0.107500  0.312500  1
  C  C1078  1  0.559500  0.607500  0.187500  1
  C  C1079  1  0.059500  0.892500  0.687500  1
  C  C1080  1  0.440500  0.392500  0.812500  1
  C  C1081  1  0.966400  0.153700  0.329100  1
  C  C1082  1  0.533600  0.653700  0.170900  1
  C  C1083  1  0.033600  0.846300  0.670900  1
  C  C1084  1  0.466400  0.346300  0.829100  1
  C  C1085  1  0.937700  0.179700  0.359800  1
  C  C1086  1  0.562300  0.679700  0.140200  1
  C  C1087  1  0.062300  0.820300  0.640200  1
  C  C1088  1  0.437700  0.320300  0.859800  1
  C  C1089  1  0.881100  0.162800  0.374600  1
  C  C1090  1  0.618900  0.662800  0.125400  1
  C  C1091  1  0.118900  0.837200  0.625400  1
  C  C1092  1  0.381100  0.337200  0.874600  1
  C  C1093  1  0.854200  0.117700  0.358300  1
  C  C1094  1  0.645800  0.617700  0.141700  1
  C  C1095  1  0.145800  0.882300  0.641700  1
  C  C1096  1  0.354200  0.382300  0.858300  1
  C  C1097  1  0.883400  0.089900  0.327300  1
  C  C1098  1  0.616600  0.589900  0.172700  1
  C  C1099  1  0.116600  0.910100  0.672700  1
  C  C1100  1  0.383400  0.410100  0.827300  1
  C  C1101  1  0.999100  0.941400  0.248100  1
  C  C1102  1  0.500900  0.441400  0.251900  1
  C  C1103  1  0.000900  0.058600  0.751900  1
  C  C1104  1  0.499100  0.558600  0.748100  1
  C  C1105  1  0.998200  0.913500  0.287300  1
  C  C1106  1  0.501800  0.413500  0.212700  1
  C  C1107  1  0.001800  0.086500  0.712700  1
  C  C1108  1  0.498200  0.586500  0.787300  1
  C  C1109  1  0.996000  0.860300  0.287100  1
  C  C1110  1  0.504000  0.360300  0.212900  1
  C  C1111  1  0.004000  0.139700  0.712900  1
  C  C1112  1  0.496000  0.639700  0.787100  1
  C  C1113  1  0.992600  0.834800  0.247200  1
  C  C1114  1  0.507400  0.334800  0.252800  1
  C  C1115  1  0.007400  0.165200  0.752800  1
  C  C1116  1  0.492600  0.665200  0.747200  1
  C  C1117  1  0.992400  0.862000  0.207800  1
  C  C1118  1  0.507600  0.362000  0.292200  1
  C  C1119  1  0.007600  0.138000  0.792200  1
  C  C1120  1  0.492400  0.638000  0.707800  1
  C  C1121  1  0.996100  0.914400  0.208500  1
  C  C1122  1  0.503900  0.414400  0.291500  1
  C  C1123  1  0.003900  0.085600  0.791500  1
  C  C1124  1  0.496100  0.585600  0.708500  1
  C  C1125  1  0.036100  0.077100  0.219000  1
  C  C1126  1  0.463900  0.577100  0.281000  1
  C  C1127  1  0.963900  0.922900  0.781000  1
  C  C1128  1  0.536100  0.422900  0.719000  1
  C  C1129  1  0.005000  0.103400  0.249500  1
  C  C1130  1  0.495000  0.603400  0.250500  1
  C  C1131  1  0.995000  0.896600  0.750500  1
  C  C1132  1  0.505000  0.396600  0.749500  1
  C  C1133  1  0.972000  0.078200  0.279900  1
  C  C1134  1  0.528000  0.578200  0.220100  1
  C  C1135  1  0.028000  0.921800  0.720100  1
  C  C1136  1  0.472000  0.421800  0.779900  1
  C  C1137  1  0.970600  0.026400  0.279200  1
  C  C1138  1  0.529400  0.526400  0.220800  1
  C  C1139  1  0.029400  0.973600  0.720800  1
  C  C1140  1  0.470600  0.473600  0.779200  1
  C  C1141  1  0.000900  0.997500  0.248900  1
  C  C1142  1  0.499100  0.497500  0.251100  1
  C  C1143  1  0.999100  0.002500  0.751100  1
  C  C1144  1  0.500900  0.502500  0.748900  1
  C  C1145  1  0.033300  0.024200  0.218900  1
  C  C1146  1  0.466700  0.524200  0.281100  1
  C  C1147  1  0.966700  0.975800  0.781100  1
  C  C1148  1  0.533300  0.475800  0.718900  1
  N  N1149  1  0.036900  0.798240  0.099410  1
  N  N1150  1  0.463100  0.298240  0.400590  1
  N  N1151  1  0.963100  0.201760  0.900590  1
  N  N1152  1  0.536900  0.701760  0.599410  1
  N  N1153  1  0.195500  0.034950  0.032690  1
  N  N1154  1  0.304500  0.534950  0.467310  1
  N  N1155  1  0.804500  0.965050  0.967310  1
  N  N1156  1  0.695500  0.465050  0.532690  1
  N  N1157  1  0.016800  0.348320  0.120560  1
  N  N1158  1  0.483200  0.848320  0.379440  1
  N  N1159  1  0.983200  0.651680  0.879440  1
  N  N1160  1  0.516800  0.151680  0.620560  1
  N  N1161  1  0.879400  0.332180  0.324020  1
  N  N1162  1  0.620600  0.832180  0.175980  1
  N  N1163  1  0.120600  0.667820  0.675980  1
  N  N1164  1  0.379400  0.167820  0.824020  1
  N  N1165  1  0.701300  0.023320  0.407250  1
  N  N1166  1  0.798700  0.523320  0.092750  1
  N  N1167  1  0.298700  0.976680  0.592750  1
  N  N1168  1  0.201300  0.476680  0.907250  1
  N  N1169  1  0.853000  0.798830  0.326190  1
  N  N1170  1  0.647000  0.298830  0.173810  1
  N  N1171  1  0.147000  0.201170  0.673810  1
  N  N1172  1  0.353000  0.701170  0.826190  1
  N  N1173  1  0.137900  0.792910  0.178070  1
  N  N1174  1  0.362100  0.292910  0.321930  1
  N  N1175  1  0.862100  0.207090  0.821930  1
  N  N1176  1  0.637900  0.707090  0.678070  1
  N  N1177  1  0.314400  0.008090  0.089820  1
  N  N1178  1  0.185600  0.508090  0.410180  1
  N  N1179  1  0.685600  0.991910  0.910180  1
  N  N1180  1  0.814400  0.491910  0.589820  1
  N  N1181  1  0.142800  0.332560  0.172090  1
  N  N1182  1  0.357200  0.832560  0.327910  1
  N  N1183  1  0.857200  0.667440  0.827910  1
  N  N1184  1  0.642800  0.167440  0.672090  1
  N  N1185  1  0.005400  0.352070  0.374640  1
  N  N1186  1  0.494600  0.852070  0.125360  1
  N  N1187  1  0.994600  0.647930  0.625360  1
  N  N1188  1  0.505400  0.147930  0.874640  1
  N  N1189  1  0.822800  0.044700  0.466240  1
  N  N1190  1  0.677200  0.544700  0.033760  1
  N  N1191  1  0.177200  0.955300  0.533760  1
  N  N1192  1  0.322800  0.455300  0.966240  1
  N  N1193  1  0.961700  0.802770  0.399170  1
  N  N1194  1  0.538300  0.302770  0.100830  1
  N  N1195  1  0.038300  0.197230  0.600830  1
  N  N1196  1  0.461700  0.697230  0.899170  1
  N  N1197  1  0.119400  0.730660  0.054580  1
  N  N1198  1  0.380600  0.230660  0.445420  1
  N  N1199  1  0.880600  0.269340  0.945420  1
  N  N1200  1  0.619400  0.769340  0.554580  1
  N  N1201  1  0.210200  0.723400  0.128580  1
  N  N1202  1  0.289800  0.223400  0.371420  1
  N  N1203  1  0.789800  0.276600  0.871420  1
  N  N1204  1  0.710200  0.776600  0.628580  1
  N  N1205  1  0.348600  0.945100  0.013780  1
  N  N1206  1  0.151400  0.445100  0.486220  1
  N  N1207  1  0.651400  0.054900  0.986220  1
  N  N1208  1  0.848600  0.554900  0.513780  1
  N  N1209  1  0.150000  0.444090  0.187220  1
  N  N1210  1  0.350000  0.944090  0.312780  1
  N  N1211  1  0.850000  0.555910  0.812780  1
  N  N1212  1  0.650000  0.055910  0.687220  1
  N  N1213  1  0.027900  0.456670  0.140960  1
  N  N1214  1  0.472100  0.956670  0.359040  1
  N  N1215  1  0.972100  0.543330  0.859040  1
  N  N1216  1  0.527900  0.043330  0.640960  1
  N  N1217  1  0.861300  0.441450  0.308700  1
  N  N1218  1  0.638700  0.941450  0.191300  1
  N  N1219  1  0.138700  0.558550  0.691300  1
  N  N1220  1  0.361300  0.058550  0.808700  1
  N  N1221  1  0.980200  0.462790  0.357120  1
  N  N1222  1  0.519800  0.962790  0.142880  1
  N  N1223  1  0.019800  0.537210  0.642880  1
  N  N1224  1  0.480200  0.037210  0.857120  1
  N  N1225  1  0.661900  0.961260  0.480370  1
  N  N1226  1  0.838100  0.461260  0.019630  1
  N  N1227  1  0.338100  0.038740  0.519630  1
  N  N1228  1  0.161900  0.538740  0.980370  1
  N  N1229  1  0.776800  0.982450  0.533350  1
  N  N1230  1  0.723200  0.482450  0.966650  1
  N  N1231  1  0.223200  0.017550  0.466650  1
  N  N1232  1  0.276800  0.517550  0.033350  1
  N  N1233  1  0.877000  0.748600  0.453460  1
  N  N1234  1  0.623000  0.248600  0.046540  1
  N  N1235  1  0.123000  0.251400  0.546540  1
  N  N1236  1  0.377000  0.751400  0.953460  1
  N  N1237  1  0.774900  0.748000  0.385390  1
  N  N1238  1  0.725100  0.248000  0.114610  1
  N  N1239  1  0.225100  0.252000  0.614610  1
  N  N1240  1  0.274900  0.752000  0.885390  1
  N  N1241  1  0.236600  0.974300  0.962460  1
  N  N1242  1  0.263400  0.474300  0.537540  1
  N  N1243  1  0.763400  0.025700  0.037540  1
  N  N1244  1  0.736600  0.525700  0.462460  1
  N  N1245  1  0.450700  0.911000  0.235380  1
  N  N1246  1  0.049300  0.411000  0.264620  1
  N  N1247  1  0.549300  0.089000  0.764620  1
  N  N1248  1  0.950700  0.589000  0.735380  1
  N  N1249  1  0.341700  0.133200  0.274900  1
  N  N1250  1  0.158300  0.633200  0.225100  1
  N  N1251  1  0.658300  0.866800  0.725100  1
  N  N1252  1  0.841700  0.366800  0.774900  1
  N  N1253  1  0.667400  0.879200  0.392300  1
  N  N1254  1  0.832600  0.379200  0.107700  1
  N  N1255  1  0.332600  0.120800  0.607700  1
  N  N1256  1  0.167400  0.620800  0.892300  1
  N  N1257  1  0.245900  0.415930  0.105600  1
  N  N1258  1  0.254100  0.915930  0.394400  1
  N  N1259  1  0.754100  0.584070  0.894400  1
  N  N1260  1  0.745900  0.084070  0.605600  1
  N  N1261  1  0.260800  0.356500  0.424500  1
  N  N1262  1  0.239200  0.856500  0.075500  1
  N  N1263  1  0.739200  0.643500  0.575500  1
  N  N1264  1  0.760800  0.143500  0.924500  1
  N  N1265  1  0.019900  0.527300  0.045500  1
  N  N1266  1  0.480100  0.027300  0.454500  1
  N  N1267  1  0.980100  0.472700  0.954500  1
  N  N1268  1  0.519900  0.972700  0.545500  1
  N  N1269  1  0.055600  0.813100  0.975700  1
  N  N1270  1  0.444400  0.313100  0.524300  1
  N  N1271  1  0.944400  0.186900  0.024300  1
  N  N1272  1  0.555600  0.686900  0.475700  1
  N  N1273  1  0.632500  0.141800  0.143700  1
  N  N1274  1  0.867500  0.641800  0.356300  1
  N  N1275  1  0.367500  0.858200  0.856300  1
  N  N1276  1  0.132500  0.358200  0.643700  1
  N  N1277  1  0.822100  0.684700  0.130800  1
  N  N1278  1  0.677900  0.184700  0.369200  1
  N  N1279  1  0.177900  0.315300  0.869200  1
  N  N1280  1  0.322100  0.815300  0.630800  1
  N  N1281  1  0.372500  0.093000  0.976200  1
  N  N1282  1  0.127500  0.593000  0.523800  1
  N  N1283  1  0.627500  0.907000  0.023800  1
  N  N1284  1  0.872500  0.407000  0.476200  1
  N  N1285  1  0.042000  0.732700  0.502700  1
  N  N1286  1  0.458000  0.232700  0.997300  1
  N  N1287  1  0.958000  0.267300  0.497300  1
  N  N1288  1  0.542000  0.767300  0.002700  1
  N  N1289  1  0.751400  0.423600  0.387500  1
  N  N1290  1  0.748600  0.923600  0.112500  1
  N  N1291  1  0.248600  0.576400  0.612500  1
  N  N1292  1  0.251400  0.076400  0.887500  1
  N  N1293  1  0.866900  0.860200  0.527000  1
  N  N1294  1  0.633100  0.360200  0.973000  1
  N  N1295  1  0.133100  0.139800  0.473000  1
  N  N1296  1  0.366900  0.639800  0.027000  1
  N  N1297  1  0.635700  0.137500  0.242800  1
  N  N1298  1  0.864300  0.637500  0.257200  1
  N  N1299  1  0.364300  0.862500  0.757200  1
  N  N1300  1  0.135700  0.362500  0.742800  1
  N  N1301  1  0.513100  0.121100  0.053100  1
  N  N1302  1  0.986900  0.621100  0.446900  1
  N  N1303  1  0.486900  0.878900  0.946900  1
  N  N1304  1  0.013100  0.378900  0.553100  1
  O  O1305  1  0.478100  0.953070  0.233640  1
  O  O1306  1  0.021900  0.453070  0.266360  1
  O  O1307  1  0.521900  0.046930  0.766360  1
  O  O1308  1  0.978100  0.546930  0.733640  1
  O  O1309  1  0.391200  0.905720  0.221990  1
  O  O1310  1  0.108800  0.405720  0.278010  1
  O  O1311  1  0.608800  0.094280  0.778010  1
  O  O1312  1  0.891200  0.594280  0.721990  1
  O  O1313  1  0.484700  0.873600  0.252410  1
  O  O1314  1  0.015300  0.373600  0.247590  1
  O  O1315  1  0.515300  0.126400  0.747590  1
  O  O1316  1  0.984700  0.626400  0.752410  1
  O  O1317  1  0.300300  0.143000  0.241390  1
  O  O1318  1  0.199700  0.643000  0.258610  1
  O  O1319  1  0.699700  0.857000  0.758610  1
  O  O1320  1  0.800300  0.357000  0.741390  1
  O  O1321  1  0.332600  0.145400  0.312960  1
  O  O1322  1  0.167400  0.645400  0.187040  1
  O  O1323  1  0.667400  0.854600  0.687040  1
  O  O1324  1  0.832600  0.354600  0.812960  1
  O  O1325  1  0.391600  0.109600  0.270000  1
  O  O1326  1  0.108400  0.609600  0.230000  1
  O  O1327  1  0.608400  0.890400  0.730000  1
  O  O1328  1  0.891600  0.390400  0.770000  1
  O  O1329  1  0.690200  0.859100  0.360220  1
  O  O1330  1  0.809800  0.359100  0.139780  1
  O  O1331  1  0.309800  0.140900  0.639780  1
  O  O1332  1  0.190200  0.640900  0.860220  1
  O  O1333  1  0.694700  0.866100  0.430550  1
  O  O1334  1  0.805300  0.366100  0.069450  1
  O  O1335  1  0.305300  0.133900  0.569450  1
  O  O1336  1  0.194700  0.633900  0.930550  1
  O  O1337  1  0.621200  0.910100  0.386800  1
  O  O1338  1  0.878800  0.410100  0.113200  1
  O  O1339  1  0.378800  0.089900  0.613200  1
  O  O1340  1  0.121200  0.589900  0.886800  1
  O  O1341  1  0.184800  0.425200  0.096580  1
  O  O1342  1  0.315200  0.925200  0.403420  1
  O  O1343  1  0.815200  0.574800  0.903420  1
  O  O1344  1  0.684800  0.074800  0.596580  1
  O  O1345  1  0.277600  0.414490  0.073270  1
  O  O1346  1  0.222400  0.914490  0.426730  1
  O  O1347  1  0.722400  0.585510  0.926730  1
  O  O1348  1  0.777600  0.085510  0.573270  1
  O  O1349  1  0.270500  0.406140  0.143150  1
  O  O1350  1  0.229500  0.906140  0.356850  1
  O  O1351  1  0.729500  0.593860  0.856850  1
  O  O1352  1  0.770500  0.093860  0.643150  1
  O  O1353  1  0.241800  0.325500  0.394400  1
  O  O1354  1  0.258200  0.825500  0.105600  1
  O  O1355  1  0.758200  0.674500  0.605600  1
  O  O1356  1  0.741800  0.174500  0.894400  1
  O  O1357  1  0.235100  0.357100  0.459000  1
  O  O1358  1  0.264900  0.857100  0.041000  1
  O  O1359  1  0.764900  0.642900  0.541000  1
  O  O1360  1  0.735100  0.142900  0.959000  1
  O  O1361  1  0.306400  0.387810  0.419370  1
  O  O1362  1  0.193600  0.887810  0.080630  1
  O  O1363  1  0.693600  0.612190  0.580630  1
  O  O1364  1  0.806400  0.112190  0.919370  1
  O  O1365  1  0.018100  0.560200  0.013690  1
  O  O1366  1  0.481900  0.060200  0.486310  1
  O  O1367  1  0.981900  0.439800  0.986310  1
  O  O1368  1  0.518100  0.939800  0.513690  1
  O  O1369  1  0.071400  0.504100  0.059090  1
  O  O1370  1  0.428600  0.004100  0.440910  1
  O  O1371  1  0.928600  0.495900  0.940910  1
  O  O1372  1  0.571400  0.995900  0.559090  1
  O  O1373  1  0.968300  0.517000  0.061260  1
  O  O1374  1  0.531700  0.017000  0.438740  1
  O  O1375  1  0.031700  0.483000  0.938740  1
  O  O1376  1  0.468300  0.983000  0.561260  1
  O  O1377  1  0.115300  0.806000  0.989100  1
  O  O1378  1  0.384700  0.306000  0.510900  1
  O  O1379  1  0.884700  0.194000  0.010900  1
  O  O1380  1  0.615300  0.694000  0.489100  1
  O  O1381  1  0.040900  0.841200  0.941690  1
  O  O1382  1  0.459100  0.341200  0.558310  1
  O  O1383  1  0.959100  0.158800  0.058310  1
  O  O1384  1  0.540900  0.658800  0.441690  1
  O  O1385  1  0.010100  0.791000  0.992150  1
  O  O1386  1  0.489900  0.291000  0.507850  1
  O  O1387  1  0.989900  0.209000  0.007850  1
  O  O1388  1  0.510100  0.709000  0.492150  1
  O  O1389  1  0.592600  0.150100  0.108500  1
  O  O1390  1  0.907400  0.650100  0.391500  1
  O  O1391  1  0.407400  0.849900  0.891500  1
  O  O1392  1  0.092600  0.349900  0.608500  1
  O  O1393  1  0.607800  0.129200  0.178400  1
  O  O1394  1  0.892200  0.629200  0.321600  1
  O  O1395  1  0.392200  0.870800  0.821600  1
  O  O1396  1  0.107800  0.370800  0.678400  1
  O  O1397  1  0.693400  0.149800  0.145200  1
  O  O1398  1  0.806600  0.649800  0.354800  1
  O  O1399  1  0.306600  0.850200  0.854800  1
  O  O1400  1  0.193400  0.350200  0.645200  1
  O  O1401  1  0.779800  0.676900  0.098300  1
  O  O1402  1  0.720200  0.176900  0.401700  1
  O  O1403  1  0.220200  0.323100  0.901700  1
  O  O1404  1  0.279800  0.823100  0.598300  1
  O  O1405  1  0.875700  0.687100  0.111800  1
  O  O1406  1  0.624300  0.187100  0.388200  1
  O  O1407  1  0.124300  0.312900  0.888200  1
  O  O1408  1  0.375700  0.812900  0.611800  1
  O  O1409  1  0.834100  0.687800  0.174100  1
  O  O1410  1  0.665900  0.187800  0.325900  1
  O  O1411  1  0.165900  0.312200  0.825900  1
  O  O1412  1  0.334100  0.812200  0.674100  1
  O  O1413  1  0.384600  0.110400  0.940400  1
  O  O1414  1  0.115400  0.610400  0.559600  1
  O  O1415  1  0.615400  0.889600  0.059600  1
  O  O1416  1  0.884600  0.389600  0.440400  1
  O  O1417  1  0.395700  0.050200  0.986700  1
  O  O1418  1  0.104300  0.550200  0.513300  1
  O  O1419  1  0.604300  0.949800  0.013300  1
  O  O1420  1  0.895700  0.449800  0.486700  1
  O  O1421  1  0.340800  0.118200  0.999700  1
  O  O1422  1  0.159200  0.618200  0.500300  1
  O  O1423  1  0.659200  0.881800  0.000300  1
  O  O1424  1  0.840800  0.381800  0.499700  1
  O  O1425  1  0.022700  0.774800  0.509300  1
  O  O1426  1  0.477300  0.274800  0.990700  1
  O  O1427  1  0.977300  0.225200  0.490700  1
  O  O1428  1  0.522700  0.725200  0.009300  1
  O  O1429  1  0.098800  0.718700  0.520000  1
  O  O1430  1  0.401200  0.218700  0.980000  1
  O  O1431  1  0.901200  0.281300  0.480000  1
  O  O1432  1  0.598800  0.781300  0.020000  1
  O  O1433  1  0.008100  0.702900  0.478500  1
  O  O1434  1  0.491900  0.202900  0.021500  1
  O  O1435  1  0.991900  0.297100  0.521500  1
  O  O1436  1  0.508100  0.797100  0.978500  1
  O  O1437  1  0.723900  0.422600  0.422300  1
  O  O1438  1  0.776100  0.922600  0.077700  1
  O  O1439  1  0.276100  0.577400  0.577700  1
  O  O1440  1  0.223900  0.077400  0.922300  1
  O  O1441  1  0.784300  0.468600  0.381000  1
  O  O1442  1  0.715700  0.968600  0.119000  1
  O  O1443  1  0.215700  0.531400  0.619000  1
  O  O1444  1  0.284300  0.031400  0.881000  1
  O  O1445  1  0.747300  0.401600  0.353900  1
  O  O1446  1  0.752700  0.901600  0.146100  1
  O  O1447  1  0.252700  0.598400  0.646100  1
  O  O1448  1  0.247300  0.098400  0.853900  1
  O  O1449  1  0.894000  0.863200  0.495000  1
  O  O1450  1  0.606000  0.363200  0.005000  1
  O  O1451  1  0.106000  0.136800  0.505000  1
  O  O1452  1  0.394000  0.636800  0.995000  1
  O  O1453  1  0.829400  0.885000  0.545800  1
  O  O1454  1  0.670600  0.385000  0.954200  1
  O  O1455  1  0.170600  0.115000  0.454200  1
  O  O1456  1  0.329400  0.615000  0.045800  1
  O  O1457  1  0.918200  0.843700  0.557800  1
  O  O1458  1  0.581800  0.343700  0.942200  1
  O  O1459  1  0.081800  0.156300  0.442200  1
  O  O1460  1  0.418200  0.656300  0.057800  1
  O  O1461  1  0.822700  0.899690  0.420920  1
  O  O1462  1  0.677300  0.399690  0.079080  1
  O  O1463  1  0.177300  0.100310  0.579080  1
  O  O1464  1  0.322700  0.600310  0.920920  1
  O  O1465  1  0.870000  0.581700  0.992160  1
  O  O1466  1  0.630000  0.081700  0.507840  1
  O  O1467  1  0.130000  0.418300  0.007840  1
  O  O1468  1  0.370000  0.918300  0.492160  1
  O  O1469  1  0.021300  0.651000  0.053620  1
  O  O1470  1  0.478700  0.151000  0.446380  1
  O  O1471  1  0.978700  0.349000  0.946380  1
  O  O1472  1  0.521300  0.849000  0.553620  1
  O  O1473  1  0.362200  0.184200  0.170650  1
  O  O1474  1  0.137800  0.684200  0.329350  1
  O  O1475  1  0.637800  0.815800  0.829350  1
  O  O1476  1  0.862200  0.315800  0.670650  1
  O  O1477  1  0.027800  0.636200  0.144500  1
  O  O1478  1  0.472200  0.136200  0.355500  1
  O  O1479  1  0.972200  0.363800  0.855500  1
  O  O1480  1  0.527800  0.863800  0.644500  1
  O  O1481  1  0.887800  0.746000  0.959400  1
  O  O1482  1  0.612200  0.246000  0.540600  1
  O  O1483  1  0.112200  0.254000  0.040600  1
  O  O1484  1  0.387800  0.754000  0.459400  1
  O  O1485  1  0.016700  0.483200  0.450900  1
  O  O1486  1  0.483300  0.983200  0.049100  1
  O  O1487  1  0.983300  0.516800  0.549100  1
  O  O1488  1  0.516700  0.016800  0.950900  1
  O  O1489  1  0.617000  0.912600  0.279200  1
  O  O1490  1  0.883000  0.412600  0.220800  1
  O  O1491  1  0.383000  0.087400  0.720800  1
  O  O1492  1  0.117000  0.587400  0.779200  1
  O  O1493  1  0.707800  0.717400  0.018500  1
  O  O1494  1  0.792200  0.217400  0.481500  1
  O  O1495  1  0.292200  0.282600  0.981500  1
  O  O1496  1  0.207800  0.782600  0.518500  1
  O  O1497  1  0.892400  0.673800  0.024100  1
  O  O1498  1  0.607600  0.173800  0.475900  1
  O  O1499  1  0.107600  0.326200  0.975900  1
  O  O1500  1  0.392400  0.826200  0.524100  1
  O  O1501  1  0.970700  0.696200  0.203500  1
  O  O1502  1  0.529300  0.196200  0.296500  1
  O  O1503  1  0.029300  0.303800  0.796500  1
  O  O1504  1  0.470700  0.803800  0.703500  1
  O  O1505  1  0.009000  0.698300  0.294400  1
  O  O1506  1  0.491000  0.198300  0.205600  1
  O  O1507  1  0.991000  0.301700  0.705600  1
  O  O1508  1  0.509000  0.801700  0.794400  1
  O  O1509  1  0.752100  0.749600  0.944900  1
  O  O1510  1  0.747900  0.249600  0.555100  1
  O  O1511  1  0.247900  0.250400  0.055100  1
  O  O1512  1  0.252100  0.750400  0.444900  1
  O  O1513  1  0.750100  0.821700  0.057600  1
  O  O1514  1  0.749900  0.321700  0.442400  1
  O  O1515  1  0.249900  0.178300  0.942400  1
  O  O1516  1  0.250100  0.678300  0.557600  1
  O  O1517  1  0.985000  0.581100  0.262300  1
  O  O1518  1  0.515000  0.081100  0.237700  1
  O  O1519  1  0.015000  0.418900  0.737700  1
  O  O1520  1  0.485000  0.918900  0.762300  1
  O  O1521  1  0.371400  0.909900  0.116700  1
  O  O1522  1  0.128600  0.409900  0.383300  1
  O  O1523  1  0.628600  0.090100  0.883300  1
  O  O1524  1  0.871400  0.590100  0.616700  1
  O  O1525  1  0.134100  0.916100  0.987000  1
  O  O1526  1  0.365900  0.416100  0.513000  1
  O  O1527  1  0.865900  0.083900  0.013000  1
  O  O1528  1  0.634100  0.583900  0.487000  1
  O  O1529  1  0.579900  0.119500  0.236100  1
  O  O1530  1  0.920100  0.619500  0.263900  1
  O  O1531  1  0.420100  0.880500  0.763900  1
  O  O1532  1  0.079900  0.380500  0.736100  1
  O  O1533  1  0.673800  0.133100  0.214600  1
  O  O1534  1  0.826200  0.633100  0.285400  1
  O  O1535  1  0.326200  0.866900  0.785400  1
  O  O1536  1  0.173800  0.366900  0.714600  1
  O  O1537  1  0.657700  0.159800  0.278900  1
  O  O1538  1  0.842300  0.659800  0.221100  1
  O  O1539  1  0.342300  0.840200  0.721100  1
  O  O1540  1  0.157700  0.340200  0.778900  1
  O  O1541  1  0.506500  0.094600  0.019500  1
  O  O1542  1  0.993500  0.594600  0.480500  1
  O  O1543  1  0.493500  0.905400  0.980500  1
  O  O1544  1  0.006500  0.405400  0.519500  1
  O  O1545  1  0.544900  0.161400  0.058600  1
  O  O1546  1  0.955100  0.661400  0.441400  1
  O  O1547  1  0.455100  0.838600  0.941400  1
  O  O1548  1  0.044900  0.338600  0.558600  1
  O  O1549  1  0.488600  0.111800  0.088300  1
  O  O1550  1  0.011400  0.611800  0.411700  1
  O  O1551  1  0.511400  0.888200  0.911700  1
  O  O1552  1  0.988600  0.388200  0.588300  1
  O  O1553  1  0.800500  0.445200  0.389200  1
  O  O1554  1  0.699500  0.945200  0.110800  1
  O  O1555  1  0.199500  0.554800  0.610800  1
  O  O1556  1  0.300500  0.054800  0.889200  1
  O  O1557  1  0.721900  0.390800  0.360200  1
  O  O1558  1  0.778100  0.890800  0.139800  1
  O  O1559  1  0.278100  0.609200  0.639800  1
  O  O1560  1  0.221900  0.109200  0.860200  1
  O  O1561  1  0.827200  0.826600  0.518100  1
  O  O1562  1  0.672800  0.326600  0.981900  1
  O  O1563  1  0.172800  0.173400  0.481900  1
  O  O1564  1  0.327200  0.673400  0.018100  1
  O  O1565  1  0.877300  0.904800  0.511900  1
  O  O1566  1  0.622700  0.404800  0.988100  1
  O  O1567  1  0.122700  0.095200  0.488100  1
  O  O1568  1  0.377300  0.595200  0.011900  1
  O  O1569  1  0.601700  0.926300  0.282900  1
  O  O1570  1  0.898300  0.426300  0.217100  1
  O  O1571  1  0.398300  0.073700  0.717100  1
  O  O1572  1  0.101700  0.573700  0.782900  1
  O  O1573  1  0.720900  0.732500  0.040000  1
  O  O1574  1  0.779100  0.232500  0.460000  1
  O  O1575  1  0.279100  0.267500  0.960000  1
  O  O1576  1  0.220900  0.767500  0.540000  1
  O  O1577  1  0.334800  0.175200  0.084500  1
  O  O1578  1  0.165200  0.675200  0.415500  1
  O  O1579  1  0.665200  0.824800  0.915500  1
  O  O1580  1  0.834800  0.324800  0.584500  1
  O  O1581  1  0.307600  0.160200  0.084600  1
  O  O1582  1  0.192400  0.660200  0.415400  1
  O  O1583  1  0.692400  0.839800  0.915400  1
  O  O1584  1  0.807600  0.339800  0.584600  1
  O  O1585  1  0.886800  0.675200  0.038600  1
  O  O1586  1  0.613200  0.175200  0.461400  1
  O  O1587  1  0.113200  0.324800  0.961400  1
  O  O1588  1  0.386800  0.824800  0.538600  1
  O  O1589  1  0.912000  0.686000  0.192000  1
  O  O1590  1  0.588000  0.186000  0.308000  1
  O  O1591  1  0.088000  0.314000  0.808000  1
  O  O1592  1  0.412000  0.814000  0.692000  1
  O  O1593  1  0.000600  0.667900  0.315800  1
  O  O1594  1  0.499400  0.167900  0.184200  1
  O  O1595  1  0.999400  0.332100  0.684200  1
  O  O1596  1  0.500600  0.832100  0.815800  1
  O  O1597  1  0.773400  0.776800  0.957500  1
  O  O1598  1  0.726600  0.276800  0.542500  1
  O  O1599  1  0.226600  0.223200  0.042500  1
  O  O1600  1  0.273400  0.723200  0.457500  1
  O  O1601  1  0.399800  0.062700  0.955100  1
  O  O1602  1  0.100200  0.562700  0.544900  1
  O  O1603  1  0.600200  0.937300  0.044900  1
  O  O1604  1  0.899800  0.437300  0.455100  1
  O  O1605  1  0.376100  0.133100  0.020400  1
  O  O1606  1  0.123900  0.633100  0.479600  1
  O  O1607  1  0.623900  0.866900  0.979600  1
  O  O1608  1  0.876100  0.366900  0.520400  1
  O  O1609  1  0.714400  0.145000  0.255700  1
  O  O1610  1  0.785600  0.645000  0.244300  1
  O  O1611  1  0.285600  0.855000  0.744300  1
  O  O1612  1  0.214400  0.355000  0.755700  1
  O  O1613  1  0.690800  0.156900  0.170300  1
  O  O1614  1  0.809200  0.656900  0.329700  1
  O  O1615  1  0.309200  0.843100  0.829700  1
  O  O1616  1  0.190800  0.343100  0.670300  1
  O  O1617  1  0.549600  0.157300  0.144500  1
  O  O1618  1  0.950400  0.657300  0.355500  1
  O  O1619  1  0.450400  0.842700  0.855500  1
  O  O1620  1  0.049600  0.342700  0.644500  1
  O  O1621  1  0.497800  0.086300  0.065100  1
  O  O1622  1  0.002200  0.586300  0.434900  1
  O  O1623  1  0.502200  0.913700  0.934900  1
  O  O1624  1  0.997800  0.413700  0.565100  1
  O  O1625  1  0.095800  0.727600  0.539000  1
  O  O1626  1  0.404200  0.227600  0.961000  1
  O  O1627  1  0.904200  0.272400  0.461000  1
  O  O1628  1  0.595800  0.772400  0.039000  1
  O  O1629  1  0.994500  0.785100  0.506500  1
  O  O1630  1  0.505500  0.285100  0.993500  1
  O  O1631  1  0.005500  0.214900  0.493500  1
  O  O1632  1  0.494500  0.714900  0.006500  1
  O  O1633  1  0.930000  0.822500  0.524900  1
  O  O1634  1  0.570000  0.322500  0.975100  1
  O  O1635  1  0.070000  0.177500  0.475100  1
  O  O1636  1  0.430000  0.677500  0.024900  1
  O  O1637  1  0.109000  0.905000  0.982400  1
  O  O1638  1  0.391000  0.405000  0.517600  1
  O  O1639  1  0.891000  0.095000  0.017600  1
  O  O1640  1  0.609000  0.595000  0.482400  1
  O  O1641  1  0.117800  0.860300  0.977700  1
  O  O1642  1  0.382200  0.360300  0.522300  1
  O  O1643  1  0.882200  0.139700  0.022300  1
  O  O1644  1  0.617800  0.639700  0.477700  1
