# generated using pymatgen
data_Cu4H97C104N25(Cl3O17)2
_symmetry_space_group_name_H-M   'P 1'
_cell_length_a   15.48760000
_cell_length_b   37.50210000
_cell_length_c   42.45300000
_cell_angle_alpha   114.59400000
_cell_angle_beta   90.00000000
_cell_angle_gamma   90.00000000
_symmetry_Int_Tables_number   1
_chemical_formula_structural   Cu4H97C104N25(Cl3O17)2
_chemical_formula_sum   'Cu32 H776 C832 N200 Cl48 O272'
_cell_volume   22420.51533822
_cell_formula_units_Z   8
loop_
 _symmetry_equiv_pos_site_id
 _symmetry_equiv_pos_as_xyz
  1  'x, y, z'
loop_
 _atom_site_type_symbol
 _atom_site_label
 _atom_site_symmetry_multiplicity
 _atom_site_fract_x
 _atom_site_fract_y
 _atom_site_fract_z
 _atom_site_occupancy
  Cu  Cu1  1  0.100850  0.713040  0.896140  1.0
  Cu  Cu2  1  0.100850  0.286960  0.603860  1.0
  Cu  Cu3  1  0.899150  0.286960  0.103860  1.0
  Cu  Cu4  1  0.899150  0.713040  0.396140  1.0
  Cu  Cu5  1  0.337020  0.428600  0.907880  1.0
  Cu  Cu6  1  0.337020  0.571400  0.592120  1.0
  Cu  Cu7  1  0.662980  0.571400  0.092120  1.0
  Cu  Cu8  1  0.662980  0.428600  0.407880  1.0
  Cu  Cu9  1  0.350950  0.715780  0.892580  1.0
  Cu  Cu10  1  0.350950  0.284220  0.607420  1.0
  Cu  Cu11  1  0.649050  0.284220  0.107420  1.0
  Cu  Cu12  1  0.649050  0.715780  0.392580  1.0
  Cu  Cu13  1  0.088880  0.584720  0.609440  1.0
  Cu  Cu14  1  0.088880  0.415280  0.890560  1.0
  Cu  Cu15  1  0.911120  0.415280  0.390560  1.0
  Cu  Cu16  1  0.911120  0.584720  0.109440  1.0
  Cu  Cu17  1  0.594770  0.783180  0.609400  1.0
  Cu  Cu18  1  0.594770  0.216820  0.890600  1.0
  Cu  Cu19  1  0.405230  0.216820  0.390600  1.0
  Cu  Cu20  1  0.405230  0.783180  0.109400  1.0
  Cu  Cu21  1  0.852780  0.922740  0.893800  1.0
  Cu  Cu22  1  0.852780  0.077260  0.606200  1.0
  Cu  Cu23  1  0.147220  0.077260  0.106200  1.0
  Cu  Cu24  1  0.147220  0.922740  0.393800  1.0
  Cu  Cu25  1  0.843660  0.784090  0.599990  1.0
  Cu  Cu26  1  0.843660  0.215910  0.900010  1.0
  Cu  Cu27  1  0.156340  0.215910  0.400010  1.0
  Cu  Cu28  1  0.156340  0.784090  0.099990  1.0
  Cu  Cu29  1  0.602230  0.931250  0.900390  1.0
  Cu  Cu30  1  0.602230  0.068750  0.599610  1.0
  Cu  Cu31  1  0.397770  0.068750  0.099610  1.0
  Cu  Cu32  1  0.397770  0.931250  0.400390  1.0
  H  H33  1  0.229500  0.417200  0.968200  1
  H  H34  1  0.229500  0.582800  0.531800  1
  H  H35  1  0.770500  0.582800  0.031800  1
  H  H36  1  0.770500  0.417200  0.468200  1
  H  H37  1  0.182700  0.387200  0.027500  1
  H  H38  1  0.182700  0.612800  0.472500  1
  H  H39  1  0.817300  0.612800  0.972500  1
  H  H40  1  0.817300  0.387200  0.527500  1
  H  H41  1  0.146700  0.414400  0.009800  1
  H  H42  1  0.146700  0.585600  0.490200  1
  H  H43  1  0.853300  0.585600  0.990200  1
  H  H44  1  0.853300  0.414400  0.509800  1
  H  H45  1  0.194000  0.433800  0.046600  1
  H  H46  1  0.194000  0.566200  0.453400  1
  H  H47  1  0.806000  0.566200  0.953400  1
  H  H48  1  0.806000  0.433800  0.546600  1
  H  H49  1  0.333100  0.402600  0.045700  1
  H  H50  1  0.333100  0.597400  0.454300  1
  H  H51  1  0.666900  0.597400  0.954300  1
  H  H52  1  0.666900  0.402600  0.545700  1
  H  H53  1  0.394300  0.416700  0.022700  1
  H  H54  1  0.394300  0.583300  0.477300  1
  H  H55  1  0.605700  0.583300  0.977300  1
  H  H56  1  0.605700  0.416700  0.522700  1
  H  H57  1  0.364100  0.371900  0.008200  1
  H  H58  1  0.364100  0.628100  0.491800  1
  H  H59  1  0.635900  0.628100  0.991800  1
  H  H60  1  0.635900  0.371900  0.508200  1
  H  H61  1  0.729800  0.847500  0.996600  1
  H  H62  1  0.729800  0.152500  0.503400  1
  H  H63  1  0.270200  0.152500  0.003400  1
  H  H64  1  0.270200  0.847500  0.496600  1
  H  H65  1  0.671500  0.819700  0.008100  1
  H  H66  1  0.671500  0.180300  0.491900  1
  H  H67  1  0.328500  0.180300  0.991900  1
  H  H68  1  0.328500  0.819700  0.508100  1
  H  H69  1  0.631200  0.839500  0.984500  1
  H  H70  1  0.631200  0.160500  0.515500  1
  H  H71  1  0.368800  0.160500  0.015500  1
  H  H72  1  0.368800  0.839500  0.484500  1
  H  H73  1  0.663600  0.758500  0.909400  1
  H  H74  1  0.663600  0.241500  0.590600  1
  H  H75  1  0.336400  0.241500  0.090600  1
  H  H76  1  0.336400  0.758500  0.409400  1
  H  H77  1  0.725200  0.792800  0.909500  1
  H  H78  1  0.725200  0.207200  0.590500  1
  H  H79  1  0.274800  0.207200  0.090500  1
  H  H80  1  0.274800  0.792800  0.409500  1
  H  H81  1  0.628700  0.802600  0.924000  1
  H  H82  1  0.628700  0.197400  0.576000  1
  H  H83  1  0.371300  0.197400  0.076000  1
  H  H84  1  0.371300  0.802600  0.424000  1
  H  H85  1  0.335500  0.676300  0.520100  1
  H  H86  1  0.335500  0.323700  0.979900  1
  H  H87  1  0.664500  0.323700  0.479900  1
  H  H88  1  0.664500  0.676300  0.020100  1
  H  H89  1  0.284300  0.716800  0.605200  1
  H  H90  1  0.284300  0.283200  0.894800  1
  H  H91  1  0.715700  0.283200  0.394800  1
  H  H92  1  0.715700  0.716800  0.105200  1
  H  H93  1  0.353300  0.689200  0.577900  1
  H  H94  1  0.353300  0.310800  0.922100  1
  H  H95  1  0.646700  0.310800  0.422100  1
  H  H96  1  0.646700  0.689200  0.077900  1
  H  H97  1  0.258600  0.673000  0.579500  1
  H  H98  1  0.258600  0.327000  0.920500  1
  H  H99  1  0.741400  0.327000  0.420500  1
  H  H100  1  0.741400  0.673000  0.079500  1
  H  H101  1  0.188100  0.755300  0.586500  1
  H  H102  1  0.188100  0.244700  0.913500  1
  H  H103  1  0.811900  0.244700  0.413500  1
  H  H104  1  0.811900  0.755300  0.086500  1
  H  H105  1  0.134800  0.721000  0.556900  1
  H  H106  1  0.134800  0.279000  0.943100  1
  H  H107  1  0.865200  0.279000  0.443100  1
  H  H108  1  0.865200  0.721000  0.056900  1
  H  H109  1  0.192200  0.750500  0.547200  1
  H  H110  1  0.192200  0.249500  0.952800  1
  H  H111  1  0.807800  0.249500  0.452800  1
  H  H112  1  0.807800  0.750500  0.047200  1
  H  H113  1  0.143200  0.917500  0.819100  1
  H  H114  1  0.143200  0.082500  0.680900  1
  H  H115  1  0.856800  0.082500  0.180900  1
  H  H116  1  0.856800  0.917500  0.319100  1
  H  H117  1  0.204400  0.942300  0.805200  1
  H  H118  1  0.204400  0.057700  0.694800  1
  H  H119  1  0.795600  0.057700  0.194800  1
  H  H120  1  0.795600  0.942300  0.305200  1
  H  H121  1  0.120800  0.962300  0.827800  1
  H  H122  1  0.120800  0.037700  0.672200  1
  H  H123  1  0.879200  0.037700  0.172200  1
  H  H124  1  0.879200  0.962300  0.327800  1
  H  H125  1  0.291900  0.004800  0.888500  1
  H  H126  1  0.291900  0.995200  0.611500  1
  H  H127  1  0.708100  0.995200  0.111500  1
  H  H128  1  0.708100  0.004800  0.388500  1
  H  H129  1  0.268700  0.005800  0.852100  1
  H  H130  1  0.268700  0.994200  0.647900  1
  H  H131  1  0.731300  0.994200  0.147900  1
  H  H132  1  0.731300  0.005800  0.352100  1
  H  H133  1  0.343200  0.977300  0.854200  1
  H  H134  1  0.343200  0.022700  0.645800  1
  H  H135  1  0.656800  0.022700  0.145800  1
  H  H136  1  0.656800  0.977300  0.354200  1
  H  H137  1  0.851900  0.632100  0.874100  1
  H  H138  1  0.851900  0.367900  0.625900  1
  H  H139  1  0.148100  0.367900  0.125900  1
  H  H140  1  0.148100  0.632100  0.374100  1
  H  H141  1  0.830000  0.606500  0.834200  1
  H  H142  1  0.830000  0.393500  0.665800  1
  H  H143  1  0.170000  0.393500  0.165800  1
  H  H144  1  0.170000  0.606500  0.334200  1
  H  H145  1  0.778300  0.599300  0.863600  1
  H  H146  1  0.778300  0.400700  0.636400  1
  H  H147  1  0.221700  0.400700  0.136400  1
  H  H148  1  0.221700  0.599300  0.363600  1
  H  H149  1  0.651400  0.664000  0.829900  1
  H  H150  1  0.651400  0.336000  0.670100  1
  H  H151  1  0.348600  0.336000  0.170100  1
  H  H152  1  0.348600  0.664000  0.329900  1
  H  H153  1  0.628700  0.623600  0.832400  1
  H  H154  1  0.628700  0.376400  0.667600  1
  H  H155  1  0.371300  0.376400  0.167600  1
  H  H156  1  0.371300  0.623600  0.332400  1
  H  H157  1  0.704700  0.625100  0.807400  1
  H  H158  1  0.704700  0.374900  0.692600  1
  H  H159  1  0.295300  0.374900  0.192600  1
  H  H160  1  0.295300  0.625100  0.307400  1
  H  H161  1  0.879100  0.608800  0.708100  1
  H  H162  1  0.879100  0.391200  0.791900  1
  H  H163  1  0.120900  0.391200  0.291900  1
  H  H164  1  0.120900  0.608800  0.208100  1
  H  H165  1  0.792800  0.594800  0.685600  1
  H  H166  1  0.792800  0.405200  0.814400  1
  H  H167  1  0.207200  0.405200  0.314400  1
  H  H168  1  0.207200  0.594800  0.185600  1
  H  H169  1  0.856600  0.563100  0.689100  1
  H  H170  1  0.856600  0.436900  0.810900  1
  H  H171  1  0.143400  0.436900  0.310900  1
  H  H172  1  0.143400  0.563100  0.189100  1
  H  H173  1  0.663400  0.580400  0.745600  1
  H  H174  1  0.663400  0.419600  0.754400  1
  H  H175  1  0.336600  0.419600  0.254400  1
  H  H176  1  0.336600  0.580400  0.245600  1
  H  H177  1  0.669300  0.575600  0.706400  1
  H  H178  1  0.669300  0.424400  0.793600  1
  H  H179  1  0.330700  0.424400  0.293600  1
  H  H180  1  0.330700  0.575600  0.206400  1
  H  H181  1  0.665900  0.618400  0.737600  1
  H  H182  1  0.665900  0.381600  0.762400  1
  H  H183  1  0.334100  0.381600  0.262400  1
  H  H184  1  0.334100  0.618400  0.237600  1
  H  H185  1  0.799300  0.406900  0.004100  1
  H  H186  1  0.799300  0.593100  0.495900  1
  H  H187  1  0.200700  0.593100  0.995900  1
  H  H188  1  0.200700  0.406900  0.504100  1
  H  H189  1  0.848400  0.365600  0.987700  1
  H  H190  1  0.848400  0.634400  0.512300  1
  H  H191  1  0.151600  0.634400  0.012300  1
  H  H192  1  0.151600  0.365600  0.487700  1
  H  H193  1  0.746400  0.367000  0.994100  1
  H  H194  1  0.746400  0.633000  0.505900  1
  H  H195  1  0.253600  0.633000  0.005900  1
  H  H196  1  0.253600  0.367000  0.494100  1
  H  H197  1  0.760500  0.341300  0.900300  1
  H  H198  1  0.760500  0.658700  0.599700  1
  H  H199  1  0.239500  0.658700  0.099700  1
  H  H200  1  0.239500  0.341300  0.400300  1
  H  H201  1  0.753600  0.319100  0.925300  1
  H  H202  1  0.753600  0.680900  0.574700  1
  H  H203  1  0.246400  0.680900  0.074700  1
  H  H204  1  0.246400  0.319100  0.425300  1
  H  H205  1  0.846100  0.331300  0.916200  1
  H  H206  1  0.846100  0.668700  0.583800  1
  H  H207  1  0.153900  0.668700  0.083800  1
  H  H208  1  0.153900  0.331300  0.416200  1
  H  H209  1  0.861400  0.365600  0.002400  1
  H  H210  1  0.861400  0.634400  0.497600  1
  H  H211  1  0.138600  0.634400  0.997600  1
  H  H212  1  0.138600  0.365600  0.502400  1
  H  H213  1  0.758700  0.370400  0.003900  1
  H  H214  1  0.758700  0.629600  0.496100  1
  H  H215  1  0.241300  0.629600  0.996100  1
  H  H216  1  0.241300  0.370400  0.503900  1
  H  H217  1  0.816000  0.391800  0.985600  1
  H  H218  1  0.816000  0.608200  0.514400  1
  H  H219  1  0.184000  0.608200  0.014400  1
  H  H220  1  0.184000  0.391800  0.485600  1
  H  H221  1  0.723900  0.313300  0.912600  1
  H  H222  1  0.723900  0.686700  0.587400  1
  H  H223  1  0.276100  0.686700  0.087400  1
  H  H224  1  0.276100  0.313300  0.412600  1
  H  H225  1  0.796300  0.343500  0.912000  1
  H  H226  1  0.796300  0.656500  0.588000  1
  H  H227  1  0.203700  0.656500  0.088000  1
  H  H228  1  0.203700  0.343500  0.412000  1
  H  H229  1  0.713400  0.359200  0.936500  1
  H  H230  1  0.713400  0.640800  0.563500  1
  H  H231  1  0.286600  0.640800  0.063500  1
  H  H232  1  0.286600  0.359200  0.436500  1
  H  H233  1  0.887600  0.662400  0.800800  1.0
  H  H234  1  0.887600  0.337600  0.699200  1.0
  H  H235  1  0.112400  0.337600  0.199200  1.0
  H  H236  1  0.112400  0.662400  0.300800  1.0
  H  H237  1  0.798900  0.717500  0.819700  1.0
  H  H238  1  0.798900  0.282500  0.680300  1.0
  H  H239  1  0.201100  0.282500  0.180300  1.0
  H  H240  1  0.201100  0.717500  0.319700  1.0
  H  H241  1  0.841100  0.773900  0.868600  1.0
  H  H242  1  0.841100  0.226100  0.631400  1.0
  H  H243  1  0.158900  0.226100  0.131400  1.0
  H  H244  1  0.158900  0.773900  0.368600  1.0
  H  H245  1  0.963800  0.771300  0.899900  1.0
  H  H246  1  0.963800  0.228700  0.600100  1.0
  H  H247  1  0.036200  0.228700  0.100100  1.0
  H  H248  1  0.036200  0.771300  0.399900  1.0
  H  H249  1  0.989400  0.602900  0.785000  1.0
  H  H250  1  0.989400  0.397100  0.715000  1.0
  H  H251  1  0.010600  0.397100  0.215000  1.0
  H  H252  1  0.010600  0.602900  0.285000  1.0
  H  H253  1  0.103600  0.564700  0.798000  1.0
  H  H254  1  0.103600  0.435300  0.702000  1.0
  H  H255  1  0.896400  0.435300  0.202000  1.0
  H  H256  1  0.896400  0.564700  0.298000  1.0
  H  H257  1  0.218300  0.626500  0.878100  1.0
  H  H258  1  0.218300  0.373500  0.621900  1.0
  H  H259  1  0.781700  0.373500  0.121900  1.0
  H  H260  1  0.781700  0.626500  0.378100  1.0
  H  H261  1  0.221900  0.582700  0.848500  1.0
  H  H262  1  0.221900  0.417300  0.651500  1.0
  H  H263  1  0.778100  0.417300  0.151500  1.0
  H  H264  1  0.778100  0.582700  0.348500  1.0
  H  H265  1  0.579300  0.382800  0.823300  1.0
  H  H266  1  0.579300  0.617200  0.676700  1.0
  H  H267  1  0.420700  0.617200  0.176700  1.0
  H  H268  1  0.420700  0.382800  0.323300  1.0
  H  H269  1  0.648600  0.344600  0.847400  1.0
  H  H270  1  0.648600  0.655400  0.652600  1.0
  H  H271  1  0.351400  0.655400  0.152600  1.0
  H  H272  1  0.351400  0.344600  0.347400  1.0
  H  H273  1  0.593800  0.343900  0.899100  1.0
  H  H274  1  0.593800  0.656100  0.600900  1.0
  H  H275  1  0.406200  0.656100  0.100900  1.0
  H  H276  1  0.406200  0.343900  0.399100  1.0
  H  H277  1  0.468300  0.378900  0.922800  1.0
  H  H278  1  0.468300  0.621100  0.577200  1.0
  H  H279  1  0.531700  0.621100  0.077200  1.0
  H  H280  1  0.531700  0.378900  0.422800  1.0
  H  H281  1  0.496500  0.423900  0.799700  1.0
  H  H282  1  0.496500  0.576100  0.700300  1.0
  H  H283  1  0.503500  0.576100  0.200300  1.0
  H  H284  1  0.503500  0.423900  0.299700  1.0
  H  H285  1  0.387000  0.474600  0.802600  1.0
  H  H286  1  0.387000  0.525400  0.697400  1.0
  H  H287  1  0.613000  0.525400  0.197400  1.0
  H  H288  1  0.613000  0.474600  0.302600  1.0
  H  H289  1  0.235000  0.492200  0.874800  1.0
  H  H290  1  0.235000  0.507800  0.625200  1.0
  H  H291  1  0.765000  0.507800  0.125200  1.0
  H  H292  1  0.765000  0.492200  0.374800  1.0
  H  H293  1  0.250600  0.506800  0.844700  1.0
  H  H294  1  0.250600  0.493200  0.655300  1.0
  H  H295  1  0.749400  0.493200  0.155300  1.0
  H  H296  1  0.749400  0.506800  0.344700  1.0
  H  H297  1  0.012700  0.603500  0.875900  1.0
  H  H298  1  0.012700  0.396500  0.624100  1.0
  H  H299  1  0.987300  0.396500  0.124100  1.0
  H  H300  1  0.987300  0.603500  0.375900  1.0
  H  H301  1  0.933700  0.581400  0.910900  1.0
  H  H302  1  0.933700  0.418600  0.589100  1.0
  H  H303  1  0.066300  0.418600  0.089100  1.0
  H  H304  1  0.066300  0.581400  0.410900  1.0
  H  H305  1  0.007400  0.551700  0.941500  1.0
  H  H306  1  0.007400  0.448300  0.558500  1.0
  H  H307  1  0.992600  0.448300  0.058500  1.0
  H  H308  1  0.992600  0.551700  0.441500  1.0
  H  H309  1  0.157900  0.545400  0.938100  1.0
  H  H310  1  0.157900  0.454600  0.561900  1.0
  H  H311  1  0.842100  0.454600  0.061900  1.0
  H  H312  1  0.842100  0.545400  0.438100  1.0
  H  H313  1  0.447000  0.517500  0.882400  1.0
  H  H314  1  0.447000  0.482500  0.617600  1.0
  H  H315  1  0.553000  0.482500  0.117600  1.0
  H  H316  1  0.553000  0.517500  0.382400  1.0
  H  H317  1  0.510000  0.574300  0.922900  1.0
  H  H318  1  0.510000  0.425700  0.577100  1.0
  H  H319  1  0.490000  0.425700  0.077100  1.0
  H  H320  1  0.490000  0.574300  0.422900  1.0
  H  H321  1  0.424300  0.628900  0.954200  1.0
  H  H322  1  0.424300  0.371100  0.545800  1.0
  H  H323  1  0.575700  0.371100  0.045800  1.0
  H  H324  1  0.575700  0.628900  0.454200  1.0
  H  H325  1  0.278700  0.628200  0.943100  1.0
  H  H326  1  0.278700  0.371800  0.556900  1.0
  H  H327  1  0.721300  0.371800  0.056900  1.0
  H  H328  1  0.721300  0.628200  0.443100  1.0
  H  H329  1  0.572800  0.623100  0.896200  1.0
  H  H330  1  0.572800  0.376900  0.603800  1.0
  H  H331  1  0.427200  0.376900  0.103800  1.0
  H  H332  1  0.427200  0.623100  0.396200  1.0
  H  H333  1  0.644900  0.667000  0.946000  1.0
  H  H334  1  0.644900  0.333000  0.554000  1.0
  H  H335  1  0.355100  0.333000  0.054000  1.0
  H  H336  1  0.355100  0.667000  0.446000  1.0
  H  H337  1  0.598200  0.732200  0.972100  1.0
  H  H338  1  0.598200  0.267800  0.527900  1.0
  H  H339  1  0.401800  0.267800  0.027900  1.0
  H  H340  1  0.401800  0.732200  0.472100  1.0
  H  H341  1  0.480300  0.750400  0.950800  1.0
  H  H342  1  0.480300  0.249600  0.549200  1.0
  H  H343  1  0.519700  0.249600  0.049200  1.0
  H  H344  1  0.519700  0.750400  0.450800  1.0
  H  H345  1  0.480700  0.578300  0.846700  1.0
  H  H346  1  0.480700  0.421700  0.653300  1.0
  H  H347  1  0.519300  0.421700  0.153300  1.0
  H  H348  1  0.519300  0.578300  0.346700  1.0
  H  H349  1  0.380400  0.565700  0.795700  1.0
  H  H350  1  0.380400  0.434300  0.704300  1.0
  H  H351  1  0.619600  0.434300  0.204300  1.0
  H  H352  1  0.619600  0.565700  0.295700  1.0
  H  H353  1  0.251800  0.655500  0.813300  1.0
  H  H354  1  0.251800  0.344500  0.686700  1.0
  H  H355  1  0.748200  0.344500  0.186700  1.0
  H  H356  1  0.748200  0.655500  0.313300  1.0
  H  H357  1  0.256200  0.610900  0.785300  1.0
  H  H358  1  0.256200  0.389100  0.714700  1.0
  H  H359  1  0.743800  0.389100  0.214700  1.0
  H  H360  1  0.743800  0.610900  0.285300  1.0
  H  H361  1  0.880600  0.496700  0.631100  1.0
  H  H362  1  0.880600  0.503300  0.868900  1.0
  H  H363  1  0.119400  0.503300  0.368900  1.0
  H  H364  1  0.119400  0.496700  0.131100  1.0
  H  H365  1  0.773100  0.497700  0.592000  1.0
  H  H366  1  0.773100  0.502300  0.908000  1.0
  H  H367  1  0.226900  0.502300  0.408000  1.0
  H  H368  1  0.226900  0.497700  0.092000  1.0
  H  H369  1  0.800000  0.532400  0.557800  1.0
  H  H370  1  0.800000  0.467600  0.942200  1.0
  H  H371  1  0.200000  0.467600  0.442200  1.0
  H  H372  1  0.200000  0.532400  0.057800  1.0
  H  H373  1  0.930500  0.564900  0.564400  1.0
  H  H374  1  0.930500  0.435100  0.935600  1.0
  H  H375  1  0.069500  0.435100  0.435600  1.0
  H  H376  1  0.069500  0.564900  0.064400  1.0
  H  H377  1  0.995200  0.499700  0.672300  1.0
  H  H378  1  0.995200  0.500300  0.827700  1.0
  H  H379  1  0.004800  0.500300  0.327700  1.0
  H  H380  1  0.004800  0.499700  0.172300  1.0
  H  H381  1  0.119500  0.531500  0.710800  1.0
  H  H382  1  0.119500  0.468500  0.789200  1.0
  H  H383  1  0.880500  0.468500  0.289200  1.0
  H  H384  1  0.880500  0.531500  0.210800  1.0
  H  H385  1  0.227600  0.600200  0.681800  1.0
  H  H386  1  0.227600  0.399800  0.818200  1.0
  H  H387  1  0.772400  0.399800  0.318200  1.0
  H  H388  1  0.772400  0.600200  0.181800  1.0
  H  H389  1  0.241400  0.583000  0.710300  1.0
  H  H390  1  0.241400  0.417000  0.789700  1.0
  H  H391  1  0.758600  0.417000  0.289700  1.0
  H  H392  1  0.758600  0.583000  0.210300  1.0
  H  H393  1  0.463600  0.640800  0.794200  1.0
  H  H394  1  0.463600  0.359200  0.705800  1.0
  H  H395  1  0.536400  0.359200  0.205800  1.0
  H  H396  1  0.536400  0.640800  0.294200  1.0
  H  H397  1  0.543400  0.660200  0.757700  1.0
  H  H398  1  0.543400  0.339800  0.742300  1.0
  H  H399  1  0.456600  0.339800  0.242300  1.0
  H  H400  1  0.456600  0.660200  0.257700  1.0
  H  H401  1  0.472500  0.679600  0.718600  1.0
  H  H402  1  0.472500  0.320400  0.781400  1.0
  H  H403  1  0.527500  0.320400  0.281400  1.0
  H  H404  1  0.527500  0.679600  0.218600  1.0
  H  H405  1  0.321800  0.676400  0.714800  1.0
  H  H406  1  0.321800  0.323600  0.785200  1.0
  H  H407  1  0.678200  0.323600  0.285200  1.0
  H  H408  1  0.678200  0.676400  0.214800  1.0
  H  H409  1  0.031900  0.613900  0.709300  1.0
  H  H410  1  0.031900  0.386100  0.790700  1.0
  H  H411  1  0.968100  0.386100  0.290700  1.0
  H  H412  1  0.968100  0.613900  0.209300  1.0
  H  H413  1  0.965500  0.670400  0.750300  1.0
  H  H414  1  0.965500  0.329600  0.749700  1.0
  H  H415  1  0.034500  0.329600  0.249700  1.0
  H  H416  1  0.034500  0.670400  0.250300  1.0
  H  H417  1  0.050400  0.719400  0.791600  1.0
  H  H418  1  0.050400  0.280600  0.708400  1.0
  H  H419  1  0.949600  0.280600  0.208400  1.0
  H  H420  1  0.949600  0.719400  0.291600  1.0
  H  H421  1  0.199000  0.713000  0.791000  1.0
  H  H422  1  0.199000  0.287000  0.709000  1.0
  H  H423  1  0.801000  0.287000  0.209000  1.0
  H  H424  1  0.801000  0.713000  0.291000  1.0
  H  H425  1  0.061500  0.687600  0.999400  1.0
  H  H426  1  0.061500  0.312400  0.500600  1.0
  H  H427  1  0.938500  0.312400  0.000600  1.0
  H  H428  1  0.938500  0.687600  0.499400  1.0
  H  H429  1  0.909500  0.678100  0.996500  1.0
  H  H430  1  0.909500  0.321900  0.503500  1.0
  H  H431  1  0.090500  0.321900  0.003500  1.0
  H  H432  1  0.090500  0.678100  0.496500  1.0
  H  H433  1  0.832500  0.688700  0.954300  1.0
  H  H434  1  0.832500  0.311300  0.545700  1.0
  H  H435  1  0.167500  0.311300  0.045700  1.0
  H  H436  1  0.167500  0.688700  0.454300  1.0
  H  H437  1  0.903700  0.701600  0.912700  1.0
  H  H438  1  0.903700  0.298400  0.587300  1.0
  H  H439  1  0.096300  0.298400  0.087300  1.0
  H  H440  1  0.096300  0.701600  0.412700  1.0
  H  H441  1  0.229300  0.699300  0.996000  1.0
  H  H442  1  0.229300  0.300700  0.504000  1.0
  H  H443  1  0.770700  0.300700  0.004000  1.0
  H  H444  1  0.770700  0.699300  0.496000  1.0
  H  H445  1  0.358500  0.707200  0.965300  1.0
  H  H446  1  0.358500  0.292800  0.534700  1.0
  H  H447  1  0.641500  0.292800  0.034700  1.0
  H  H448  1  0.641500  0.707200  0.465300  1.0
  H  H449  1  0.385100  0.774000  0.808800  1.0
  H  H450  1  0.385100  0.226000  0.691200  1.0
  H  H451  1  0.614900  0.226000  0.191200  1.0
  H  H452  1  0.614900  0.774000  0.308800  1.0
  H  H453  1  0.534000  0.761500  0.797800  1.0
  H  H454  1  0.534000  0.238500  0.702200  1.0
  H  H455  1  0.466000  0.238500  0.202200  1.0
  H  H456  1  0.466000  0.761500  0.297800  1.0
  H  H457  1  0.615700  0.736800  0.830000  1.0
  H  H458  1  0.615700  0.263200  0.670000  1.0
  H  H459  1  0.384300  0.263200  0.170000  1.0
  H  H460  1  0.384300  0.736800  0.330000  1.0
  H  H461  1  0.542900  0.718300  0.870200  1.0
  H  H462  1  0.542900  0.281700  0.629800  1.0
  H  H463  1  0.457100  0.281700  0.129800  1.0
  H  H464  1  0.457100  0.718300  0.370200  1.0
  H  H465  1  0.224700  0.790900  0.834200  1.0
  H  H466  1  0.224700  0.209100  0.665800  1.0
  H  H467  1  0.775300  0.209100  0.165800  1.0
  H  H468  1  0.775300  0.790900  0.334200  1.0
  H  H469  1  0.093800  0.774200  0.859700  1.0
  H  H470  1  0.093800  0.225800  0.640300  1.0
  H  H471  1  0.906200  0.225800  0.140300  1.0
  H  H472  1  0.906200  0.774200  0.359700  1.0
  H  H473  1  0.337800  0.557200  0.007100  1.0
  H  H474  1  0.337800  0.442800  0.492900  1.0
  H  H475  1  0.662200  0.442800  0.992900  1.0
  H  H476  1  0.662200  0.557200  0.507100  1.0
  H  H477  1  0.488700  0.569100  0.009500  1.0
  H  H478  1  0.488700  0.430900  0.490500  1.0
  H  H479  1  0.511300  0.430900  0.990500  1.0
  H  H480  1  0.511300  0.569100  0.509500  1.0
  H  H481  1  0.580600  0.524400  0.969200  1.0
  H  H482  1  0.580600  0.475600  0.530800  1.0
  H  H483  1  0.419400  0.475600  0.030800  1.0
  H  H484  1  0.419400  0.524400  0.469200  1.0
  H  H485  1  0.523100  0.467400  0.927800  1.0
  H  H486  1  0.523100  0.532600  0.572200  1.0
  H  H487  1  0.476900  0.532600  0.072200  1.0
  H  H488  1  0.476900  0.467400  0.427800  1.0
  H  H489  1  0.177400  0.530200  0.000500  1.0
  H  H490  1  0.177400  0.469800  0.499500  1.0
  H  H491  1  0.822600  0.469800  0.999500  1.0
  H  H492  1  0.822600  0.530200  0.500500  1.0
  H  H493  1  0.056500  0.512900  0.534300  1.0
  H  H494  1  0.056500  0.487100  0.965700  1.0
  H  H495  1  0.943500  0.487100  0.465700  1.0
  H  H496  1  0.943500  0.512900  0.034300  1.0
  H  H497  1  0.080500  0.721900  0.697000  1.0
  H  H498  1  0.080500  0.278100  0.803000  1.0
  H  H499  1  0.919500  0.278100  0.303000  1.0
  H  H500  1  0.919500  0.721900  0.197000  1.0
  H  H501  1  0.931300  0.725800  0.709500  1.0
  H  H502  1  0.931300  0.274200  0.790500  1.0
  H  H503  1  0.068700  0.274200  0.290500  1.0
  H  H504  1  0.068700  0.725800  0.209500  1.0
  H  H505  1  0.843800  0.673300  0.680200  1.0
  H  H506  1  0.843800  0.326700  0.819800  1.0
  H  H507  1  0.156200  0.326700  0.319800  1.0
  H  H508  1  0.156200  0.673300  0.180200  1.0
  H  H509  1  0.900100  0.616300  0.638800  1.0
  H  H510  1  0.900100  0.383700  0.861200  1.0
  H  H511  1  0.099900  0.383700  0.361200  1.0
  H  H512  1  0.099900  0.616300  0.138800  1.0
  H  H513  1  0.242800  0.707300  0.675800  1.0
  H  H514  1  0.242800  0.292700  0.824200  1.0
  H  H515  1  0.757200  0.292700  0.324200  1.0
  H  H516  1  0.757200  0.707300  0.175800  1.0
  H  H517  1  0.362900  0.336000  0.858000  1.0
  H  H518  1  0.362900  0.664000  0.642000  1.0
  H  H519  1  0.637100  0.664000  0.142000  1.0
  H  H520  1  0.637100  0.336000  0.358000  1.0
  H  H521  1  0.382600  0.886400  0.621000  1.0
  H  H522  1  0.382600  0.113600  0.879000  1.0
  H  H523  1  0.617400  0.113600  0.379000  1.0
  H  H524  1  0.617400  0.886400  0.121000  1.0
  H  H525  1  0.294100  0.848200  0.576600  1.0
  H  H526  1  0.294100  0.151800  0.923400  1.0
  H  H527  1  0.705900  0.151800  0.423400  1.0
  H  H528  1  0.705900  0.848200  0.076600  1.0
  H  H529  1  0.327400  0.780800  0.543800  1.0
  H  H530  1  0.327400  0.219200  0.956200  1.0
  H  H531  1  0.672600  0.219200  0.456200  1.0
  H  H532  1  0.672600  0.780800  0.043800  1.0
  H  H533  1  0.450200  0.756100  0.557000  1.0
  H  H534  1  0.450200  0.243900  0.943000  1.0
  H  H535  1  0.549800  0.243900  0.443000  1.0
  H  H536  1  0.549800  0.756100  0.057000  1.0
  H  H537  1  0.605700  0.934800  0.708600  1.0
  H  H538  1  0.605700  0.065200  0.791400  1.0
  H  H539  1  0.394300  0.065200  0.291400  1.0
  H  H540  1  0.394300  0.934800  0.208600  1.0
  H  H541  1  0.484100  0.926700  0.667100  1.0
  H  H542  1  0.484100  0.073300  0.832900  1.0
  H  H543  1  0.515900  0.073300  0.332900  1.0
  H  H544  1  0.515900  0.926700  0.167100  1.0
  H  H545  1  0.730500  0.886500  0.711600  1.0
  H  H546  1  0.730500  0.113500  0.788400  1.0
  H  H547  1  0.269500  0.113500  0.288400  1.0
  H  H548  1  0.269500  0.886500  0.211600  1.0
  H  H549  1  0.722200  0.841800  0.684000  1.0
  H  H550  1  0.722200  0.158200  0.816000  1.0
  H  H551  1  0.277800  0.158200  0.316000  1.0
  H  H552  1  0.277800  0.841800  0.184000  1.0
  H  H553  1  0.055600  0.028400  0.896700  1.0
  H  H554  1  0.055600  0.971600  0.603300  1.0
  H  H555  1  0.944400  0.971600  0.103300  1.0
  H  H556  1  0.944400  0.028400  0.396700  1.0
  H  H557  1  0.145100  0.028800  0.941200  1.0
  H  H558  1  0.145100  0.971200  0.558800  1.0
  H  H559  1  0.854900  0.971200  0.058800  1.0
  H  H560  1  0.854900  0.028800  0.441200  1.0
  H  H561  1  0.118500  0.985500  0.967000  1.0
  H  H562  1  0.118500  0.014500  0.533000  1.0
  H  H563  1  0.881500  0.014500  0.033000  1.0
  H  H564  1  0.881500  0.985500  0.467000  1.0
  H  H565  1  0.002400  0.941800  0.948100  1.0
  H  H566  1  0.002400  0.058200  0.551900  1.0
  H  H567  1  0.997600  0.058200  0.051900  1.0
  H  H568  1  0.997600  0.941800  0.448100  1.0
  H  H569  1  0.967600  0.021500  0.847300  1.0
  H  H570  1  0.967600  0.978500  0.652700  1.0
  H  H571  1  0.032400  0.978500  0.152700  1.0
  H  H572  1  0.032400  0.021500  0.347300  1.0
  H  H573  1  0.858700  0.987800  0.799400  1.0
  H  H574  1  0.858700  0.012200  0.700600  1.0
  H  H575  1  0.141300  0.012200  0.200600  1.0
  H  H576  1  0.141300  0.987800  0.299400  1.0
  H  H577  1  0.742300  0.928800  0.789200  1.0
  H  H578  1  0.742300  0.071200  0.710800  1.0
  H  H579  1  0.257700  0.071200  0.210800  1.0
  H  H580  1  0.257700  0.928800  0.289200  1.0
  H  H581  1  0.743600  0.910700  0.817200  1.0
  H  H582  1  0.743600  0.089300  0.682800  1.0
  H  H583  1  0.256400  0.089300  0.182800  1.0
  H  H584  1  0.256400  0.910700  0.317200  1.0
  H  H585  1  0.521000  0.851600  0.709100  1.0
  H  H586  1  0.521000  0.148400  0.790900  1.0
  H  H587  1  0.479000  0.148400  0.290900  1.0
  H  H588  1  0.479000  0.851600  0.209100  1.0
  H  H589  1  0.455000  0.835400  0.751000  1.0
  H  H590  1  0.455000  0.164600  0.749000  1.0
  H  H591  1  0.545000  0.164600  0.249000  1.0
  H  H592  1  0.545000  0.835400  0.251000  1.0
  H  H593  1  0.537700  0.825300  0.792100  1.0
  H  H594  1  0.537700  0.174700  0.707900  1.0
  H  H595  1  0.462300  0.174700  0.207900  1.0
  H  H596  1  0.462300  0.825300  0.292100  1.0
  H  H597  1  0.682300  0.836000  0.794400  1.0
  H  H598  1  0.682300  0.164000  0.705600  1.0
  H  H599  1  0.317700  0.164000  0.205600  1.0
  H  H600  1  0.317700  0.836000  0.294400  1.0
  H  H601  1  0.952700  0.907900  0.797300  1.0
  H  H602  1  0.952700  0.092100  0.702700  1.0
  H  H603  1  0.047300  0.092100  0.202700  1.0
  H  H604  1  0.047300  0.907900  0.297300  1.0
  H  H605  1  0.033500  0.854500  0.759900  1.0
  H  H606  1  0.033500  0.145500  0.740100  1.0
  H  H607  1  0.966500  0.145500  0.240100  1.0
  H  H608  1  0.966500  0.854500  0.259900  1.0
  H  H609  1  0.960900  0.799400  0.719100  1.0
  H  H610  1  0.960900  0.200600  0.780900  1.0
  H  H611  1  0.039100  0.200600  0.280900  1.0
  H  H612  1  0.039100  0.799400  0.219100  1.0
  H  H613  1  0.812400  0.797600  0.716600  1.0
  H  H614  1  0.812400  0.202400  0.783400  1.0
  H  H615  1  0.187600  0.202400  0.283400  1.0
  H  H616  1  0.187600  0.797600  0.216600  1.0
  H  H617  1  0.075000  0.838500  0.687800  1.0
  H  H618  1  0.075000  0.161500  0.812200  1.0
  H  H619  1  0.925000  0.161500  0.312200  1.0
  H  H620  1  0.925000  0.838500  0.187800  1.0
  H  H621  1  0.153500  0.780400  0.672100  1.0
  H  H622  1  0.153500  0.219600  0.827900  1.0
  H  H623  1  0.846500  0.219600  0.327900  1.0
  H  H624  1  0.846500  0.780400  0.172100  1.0
  H  H625  1  0.105100  0.722700  0.626700  1.0
  H  H626  1  0.105100  0.277300  0.873300  1.0
  H  H627  1  0.894900  0.277300  0.373300  1.0
  H  H628  1  0.894900  0.722700  0.126700  1.0
  H  H629  1  0.978100  0.723300  0.597100  1.0
  H  H630  1  0.978100  0.276700  0.902900  1.0
  H  H631  1  0.021900  0.276700  0.402900  1.0
  H  H632  1  0.021900  0.723300  0.097100  1.0
  H  H633  1  0.976000  0.895800  0.702700  1.0
  H  H634  1  0.976000  0.104200  0.797300  1.0
  H  H635  1  0.024000  0.104200  0.297300  1.0
  H  H636  1  0.024000  0.895800  0.202700  1.0
  H  H637  1  0.855500  0.934800  0.691300  1.0
  H  H638  1  0.855500  0.065200  0.808700  1.0
  H  H639  1  0.144500  0.065200  0.308700  1.0
  H  H640  1  0.144500  0.934800  0.191300  1.0
  H  H641  1  0.727500  0.914600  0.642200  1.0
  H  H642  1  0.727500  0.085400  0.857800  1.0
  H  H643  1  0.272500  0.085400  0.357800  1.0
  H  H644  1  0.272500  0.914600  0.142200  1.0
  H  H645  1  0.725600  0.869300  0.615600  1.0
  H  H646  1  0.725600  0.130700  0.884400  1.0
  H  H647  1  0.274400  0.130700  0.384400  1.0
  H  H648  1  0.274400  0.869300  0.115600  1.0
  H  H649  1  0.384100  0.107800  0.693100  1.0
  H  H650  1  0.384100  0.892200  0.806900  1.0
  H  H651  1  0.615900  0.892200  0.306900  1.0
  H  H652  1  0.615900  0.107800  0.193100  1.0
  H  H653  1  0.305400  0.150000  0.675800  1.0
  H  H654  1  0.305400  0.850000  0.824200  1.0
  H  H655  1  0.694600  0.850000  0.324200  1.0
  H  H656  1  0.694600  0.150000  0.175800  1.0
  H  H657  1  0.342800  0.155100  0.624600  1.0
  H  H658  1  0.342800  0.844900  0.875400  1.0
  H  H659  1  0.657200  0.844900  0.375400  1.0
  H  H660  1  0.657200  0.155100  0.124600  1.0
  H  H661  1  0.468900  0.123500  0.594700  1.0
  H  H662  1  0.468900  0.876500  0.905300  1.0
  H  H663  1  0.531100  0.876500  0.405300  1.0
  H  H664  1  0.531100  0.123500  0.094700  1.0
  H  H665  1  0.484100  0.065700  0.710200  1.0
  H  H666  1  0.484100  0.934300  0.789800  1.0
  H  H667  1  0.515900  0.934300  0.289800  1.0
  H  H668  1  0.515900  0.065700  0.210200  1.0
  H  H669  1  0.595000  0.012200  0.697100  1.0
  H  H670  1  0.595000  0.987800  0.802900  1.0
  H  H671  1  0.405000  0.987800  0.302900  1.0
  H  H672  1  0.405000  0.012200  0.197100  1.0
  H  H673  1  0.712100  0.978900  0.645100  1.0
  H  H674  1  0.712100  0.021100  0.854900  1.0
  H  H675  1  0.287900  0.021100  0.354900  1.0
  H  H676  1  0.287900  0.978900  0.145100  1.0
  H  H677  1  0.715400  0.996600  0.616700  1.0
  H  H678  1  0.715400  0.003400  0.883300  1.0
  H  H679  1  0.284600  0.003400  0.383300  1.0
  H  H680  1  0.284600  0.996600  0.116700  1.0
  H  H681  1  0.929500  0.889000  0.609600  1.0
  H  H682  1  0.929500  0.111000  0.890400  1.0
  H  H683  1  0.070500  0.111000  0.390400  1.0
  H  H684  1  0.070500  0.889000  0.109600  1.0
  H  H685  1  0.998500  0.899900  0.564500  1.0
  H  H686  1  0.998500  0.100100  0.935500  1.0
  H  H687  1  0.001500  0.100100  0.435500  1.0
  H  H688  1  0.001500  0.899900  0.064500  1.0
  H  H689  1  0.919400  0.920500  0.530300  1.0
  H  H690  1  0.919400  0.079500  0.969700  1.0
  H  H691  1  0.080600  0.079500  0.469700  1.0
  H  H692  1  0.080600  0.920500  0.030300  1.0
  H  H693  1  0.762700  0.928700  0.537700  1.0
  H  H694  1  0.762700  0.071300  0.962300  1.0
  H  H695  1  0.237300  0.071300  0.462300  1.0
  H  H696  1  0.237300  0.928700  0.037700  1.0
  H  H697  1  0.504400  0.979200  0.623100  1.0
  H  H698  1  0.504400  0.020800  0.876900  1.0
  H  H699  1  0.495600  0.020800  0.376900  1.0
  H  H700  1  0.495600  0.979200  0.123100  1.0
  H  H701  1  0.421700  0.928100  0.583900  1.0
  H  H702  1  0.421700  0.071900  0.916100  1.0
  H  H703  1  0.578300  0.071900  0.416100  1.0
  H  H704  1  0.578300  0.928100  0.083900  1.0
  H  H705  1  0.486000  0.873300  0.541700  1.0
  H  H706  1  0.486000  0.126700  0.958300  1.0
  H  H707  1  0.514000  0.126700  0.458300  1.0
  H  H708  1  0.514000  0.873300  0.041700  1.0
  H  H709  1  0.636800  0.869300  0.540300  1.0
  H  H710  1  0.636800  0.130700  0.959700  1.0
  H  H711  1  0.363200  0.130700  0.459700  1.0
  H  H712  1  0.363200  0.869300  0.040300  1.0
  H  H713  1  0.569700  0.730600  0.696900  1.0
  H  H714  1  0.569700  0.269400  0.803100  1.0
  H  H715  1  0.430300  0.269400  0.303100  1.0
  H  H716  1  0.430300  0.730600  0.196900  1.0
  H  H717  1  0.423900  0.737900  0.707900  1.0
  H  H718  1  0.423900  0.262100  0.792100  1.0
  H  H719  1  0.576100  0.262100  0.292100  1.0
  H  H720  1  0.576100  0.737900  0.207900  1.0
  H  H721  1  0.338400  0.763400  0.676700  1.0
  H  H722  1  0.338400  0.236600  0.823300  1.0
  H  H723  1  0.661600  0.236600  0.323300  1.0
  H  H724  1  0.661600  0.763400  0.176700  1.0
  H  H725  1  0.404600  0.781500  0.636500  1.0
  H  H726  1  0.404600  0.218500  0.863500  1.0
  H  H727  1  0.595400  0.218500  0.363500  1.0
  H  H728  1  0.595400  0.781500  0.136500  1.0
  H  H729  1  0.738200  0.725100  0.680500  1.0
  H  H730  1  0.738200  0.274900  0.819500  1.0
  H  H731  1  0.261800  0.274900  0.319500  1.0
  H  H732  1  0.261800  0.725100  0.180500  1.0
  H  H733  1  0.862600  0.740800  0.651200  1.0
  H  H734  1  0.862600  0.259200  0.848800  1.0
  H  H735  1  0.137400  0.259200  0.348800  1.0
  H  H736  1  0.137400  0.740800  0.151200  1.0
  H  H737  1  0.866600  0.797300  0.490000  1.0
  H  H738  1  0.866600  0.202700  0.010000  1.0
  H  H739  1  0.133400  0.202700  0.510000  1.0
  H  H740  1  0.133400  0.797300  0.990000  1.0
  H  H741  1  0.016700  0.802800  0.487400  1.0
  H  H742  1  0.016700  0.197200  0.012600  1.0
  H  H743  1  0.983300  0.197200  0.512600  1.0
  H  H744  1  0.983300  0.802800  0.987400  1.0
  H  H745  1  0.103600  0.800900  0.531700  1.0
  H  H746  1  0.103600  0.199100  0.968300  1.0
  H  H747  1  0.896400  0.199100  0.468300  1.0
  H  H748  1  0.896400  0.800900  0.031700  1.0
  H  H749  1  0.040400  0.793600  0.578800  1.0
  H  H750  1  0.040400  0.206400  0.921200  1.0
  H  H751  1  0.959600  0.206400  0.421200  1.0
  H  H752  1  0.959600  0.793600  0.078800  1.0
  H  H753  1  0.700700  0.796200  0.503000  1.0
  H  H754  1  0.700700  0.203800  0.997000  1.0
  H  H755  1  0.299300  0.203800  0.497000  1.0
  H  H756  1  0.299300  0.796200  0.003000  1.0
  H  H757  1  0.573800  0.793200  0.537500  1.0
  H  H758  1  0.573800  0.206800  0.962500  1.0
  H  H759  1  0.426200  0.206800  0.462500  1.0
  H  H760  1  0.426200  0.793200  0.037500  1.0
  H  H761  1  0.880800  0.786600  0.806400  1.0
  H  H762  1  0.880800  0.213400  0.693600  1.0
  H  H763  1  0.119200  0.213400  0.193600  1.0
  H  H764  1  0.119200  0.786600  0.306400  1.0
  H  H765  1  0.028800  0.786700  0.795500  1.0
  H  H766  1  0.028800  0.213300  0.704500  1.0
  H  H767  1  0.971200  0.213300  0.204500  1.0
  H  H768  1  0.971200  0.786700  0.295500  1.0
  H  H769  1  0.111600  0.842600  0.826700  1.0
  H  H770  1  0.111600  0.157400  0.673300  1.0
  H  H771  1  0.888400  0.157400  0.173300  1.0
  H  H772  1  0.888400  0.842600  0.326700  1.0
  H  H773  1  0.046300  0.898300  0.868800  1.0
  H  H774  1  0.046300  0.101700  0.631200  1.0
  H  H775  1  0.953700  0.101700  0.131200  1.0
  H  H776  1  0.953700  0.898300  0.368800  1.0
  H  H777  1  0.719000  0.793200  0.833500  1.0
  H  H778  1  0.719000  0.206800  0.666500  1.0
  H  H779  1  0.281000  0.206800  0.166500  1.0
  H  H780  1  0.281000  0.793200  0.333500  1.0
  H  H781  1  0.587900  0.834000  0.863000  1.0
  H  H782  1  0.587900  0.166000  0.637000  1.0
  H  H783  1  0.412100  0.166000  0.137000  1.0
  H  H784  1  0.412100  0.834000  0.363000  1.0
  H  H785  1  0.571100  0.056900  0.002700  1.0
  H  H786  1  0.571100  0.943100  0.497300  1.0
  H  H787  1  0.428900  0.943100  0.997300  1.0
  H  H788  1  0.428900  0.056900  0.502700  1.0
  H  H789  1  0.427100  0.065600  0.001500  1.0
  H  H790  1  0.427100  0.934400  0.498500  1.0
  H  H791  1  0.572900  0.934400  0.998500  1.0
  H  H792  1  0.572900  0.065600  0.501500  1.0
  H  H793  1  0.340100  0.016600  0.960600  1.0
  H  H794  1  0.340100  0.983400  0.539400  1.0
  H  H795  1  0.659900  0.983400  0.039400  1.0
  H  H796  1  0.659900  0.016600  0.460600  1.0
  H  H797  1  0.408300  0.961500  0.918900  1.0
  H  H798  1  0.408300  0.038500  0.581100  1.0
  H  H799  1  0.591700  0.038500  0.081100  1.0
  H  H800  1  0.591700  0.961500  0.418900  1.0
  H  H801  1  0.737500  0.033600  0.002300  1.0
  H  H802  1  0.737500  0.966400  0.497700  1.0
  H  H803  1  0.262500  0.966400  0.997700  1.0
  H  H804  1  0.262500  0.033600  0.502300  1.0
  H  H805  1  0.862800  0.994600  0.969800  1.0
  H  H806  1  0.862800  0.005400  0.530200  1.0
  H  H807  1  0.137200  0.005400  0.030200  1.0
  H  H808  1  0.137200  0.994600  0.469800  1.0
  C  C809  1  0.281500  0.411800  0.977200  1
  C  C810  1  0.281500  0.588200  0.522800  1
  C  C811  1  0.718500  0.588200  0.022800  1
  C  C812  1  0.718500  0.411800  0.477200  1
  C  C813  1  0.193000  0.411100  0.024100  1
  C  C814  1  0.193000  0.588900  0.475900  1
  C  C815  1  0.807000  0.588900  0.975900  1
  C  C816  1  0.807000  0.411100  0.524100  1
  C  C817  1  0.346800  0.399100  0.022100  1
  C  C818  1  0.346800  0.600900  0.477900  1
  C  C819  1  0.653200  0.600900  0.977900  1
  C  C820  1  0.653200  0.399100  0.522100  1
  C  C821  1  0.710700  0.793100  0.957400  1
  C  C822  1  0.710700  0.206900  0.542600  1
  C  C823  1  0.289300  0.206900  0.042600  1
  C  C824  1  0.289300  0.793100  0.457400  1
  C  C825  1  0.683500  0.828000  0.989400  1
  C  C826  1  0.683500  0.172000  0.510600  1
  C  C827  1  0.316500  0.172000  0.010600  1
  C  C828  1  0.316500  0.828000  0.489400  1
  C  C829  1  0.679400  0.786100  0.922100  1
  C  C830  1  0.679400  0.213900  0.577900  1
  C  C831  1  0.320600  0.213900  0.077900  1
  C  C832  1  0.320600  0.786100  0.422100  1
  C  C833  1  0.294500  0.696800  0.525400  1
  C  C834  1  0.294500  0.303200  0.974600  1
  C  C835  1  0.705500  0.303200  0.474600  1
  C  C836  1  0.705500  0.696800  0.025400  1
  C  C837  1  0.292000  0.696200  0.581900  1
  C  C838  1  0.292000  0.303800  0.918100  1
  C  C839  1  0.708000  0.303800  0.418100  1
  C  C840  1  0.708000  0.696200  0.081900  1
  C  C841  1  0.188300  0.736400  0.562100  1
  C  C842  1  0.188300  0.263600  0.937900  1
  C  C843  1  0.811700  0.263600  0.437900  1
  C  C844  1  0.811700  0.736400  0.062100  1
  C  C845  1  0.219900  0.956200  0.856400  1
  C  C846  1  0.219900  0.043800  0.643600  1
  C  C847  1  0.780100  0.043800  0.143600  1
  C  C848  1  0.780100  0.956200  0.356400  1
  C  C849  1  0.167700  0.943500  0.824400  1
  C  C850  1  0.167700  0.056500  0.675600  1
  C  C851  1  0.832300  0.056500  0.175600  1
  C  C852  1  0.832300  0.943500  0.324400  1
  C  C853  1  0.287000  0.989000  0.863400  1
  C  C854  1  0.287000  0.011000  0.636600  1
  C  C855  1  0.713000  0.011000  0.136600  1
  C  C856  1  0.713000  0.989000  0.363400  1
  C  C857  1  0.738900  0.649300  0.858700  1
  C  C858  1  0.738900  0.350700  0.641300  1
  C  C859  1  0.261100  0.350700  0.141300  1
  C  C860  1  0.261100  0.649300  0.358700  1
  C  C861  1  0.805700  0.619100  0.857600  1
  C  C862  1  0.805700  0.380900  0.642400  1
  C  C863  1  0.194300  0.380900  0.142400  1
  C  C864  1  0.194300  0.619100  0.357600  1
  C  C865  1  0.675400  0.639600  0.829600  1
  C  C866  1  0.675400  0.360400  0.670400  1
  C  C867  1  0.324600  0.360400  0.170400  1
  C  C868  1  0.324600  0.639600  0.329600  1
  C  C869  1  0.784100  0.592100  0.732500  1
  C  C870  1  0.784100  0.407900  0.767500  1
  C  C871  1  0.215900  0.407900  0.267500  1
  C  C872  1  0.215900  0.592100  0.232500  1
  C  C873  1  0.832300  0.589500  0.701100  1
  C  C874  1  0.832300  0.410500  0.798900  1
  C  C875  1  0.167700  0.410500  0.298900  1
  C  C876  1  0.167700  0.589500  0.201100  1
  C  C877  1  0.687200  0.591600  0.730400  1
  C  C878  1  0.687200  0.408400  0.769600  1
  C  C879  1  0.312800  0.408400  0.269600  1
  C  C880  1  0.312800  0.591600  0.230400  1
  C  C881  1  0.778800  0.377100  0.950900  1
  C  C882  1  0.778800  0.622900  0.549100  1
  C  C883  1  0.221200  0.622900  0.049100  1
  C  C884  1  0.221200  0.377100  0.450900  1
  C  C885  1  0.794700  0.379400  0.987500  1
  C  C886  1  0.794700  0.620600  0.512500  1
  C  C887  1  0.205300  0.620600  0.012500  1
  C  C888  1  0.205300  0.379400  0.487500  1
  C  C889  1  0.785300  0.339000  0.920600  1
  C  C890  1  0.785300  0.661000  0.579400  1
  C  C891  1  0.214700  0.661000  0.079400  1
  C  C892  1  0.214700  0.339000  0.420600  1
  C  C893  1  0.802700  0.332500  0.955800  1
  C  C894  1  0.802700  0.667500  0.544200  1
  C  C895  1  0.197300  0.667500  0.044200  1
  C  C896  1  0.197300  0.332500  0.455800  1
  C  C897  1  0.810400  0.368300  0.989900  1
  C  C898  1  0.810400  0.631700  0.510100  1
  C  C899  1  0.189600  0.631700  0.010100  1
  C  C900  1  0.189600  0.368300  0.489900  1
  C  C901  1  0.754800  0.337600  0.926600  1
  C  C902  1  0.754800  0.662400  0.573400  1
  C  C903  1  0.245200  0.662400  0.073400  1
  C  C904  1  0.245200  0.337600  0.426600  1
  C  C905  1  0.973200  0.683800  0.840080  1.0
  C  C906  1  0.973200  0.316200  0.659920  1.0
  C  C907  1  0.026800  0.316200  0.159920  1.0
  C  C908  1  0.026800  0.683800  0.340080  1.0
  C  C909  1  0.901700  0.684700  0.821400  1.0
  C  C910  1  0.901700  0.315300  0.678600  1.0
  C  C911  1  0.098300  0.315300  0.178600  1.0
  C  C912  1  0.098300  0.684700  0.321400  1.0
  C  C913  1  0.850100  0.717400  0.832000  1.0
  C  C914  1  0.850100  0.282600  0.668000  1.0
  C  C915  1  0.149900  0.282600  0.168000  1.0
  C  C916  1  0.149900  0.717400  0.332000  1.0
  C  C917  1  0.874300  0.750500  0.861200  1.0
  C  C918  1  0.874300  0.249500  0.638800  1.0
  C  C919  1  0.125700  0.249500  0.138800  1.0
  C  C920  1  0.125700  0.750500  0.361200  1.0
  C  C921  1  0.947800  0.749000  0.879500  1.0
  C  C922  1  0.947800  0.251000  0.620500  1.0
  C  C923  1  0.052200  0.251000  0.120500  1.0
  C  C924  1  0.052200  0.749000  0.379500  1.0
  C  C925  1  0.028300  0.649300  0.831790  1.0
  C  C926  1  0.028300  0.350700  0.668210  1.0
  C  C927  1  0.971700  0.350700  0.168210  1.0
  C  C928  1  0.971700  0.649300  0.331790  1.0
  C  C929  1  0.026600  0.611900  0.804510  1.0
  C  C930  1  0.026600  0.388100  0.695490  1.0
  C  C931  1  0.973400  0.388100  0.195490  1.0
  C  C932  1  0.973400  0.611900  0.304510  1.0
  C  C933  1  0.088800  0.591300  0.811790  1.0
  C  C934  1  0.088800  0.408700  0.688210  1.0
  C  C935  1  0.911200  0.408700  0.188210  1.0
  C  C936  1  0.911200  0.591300  0.311790  1.0
  C  C937  1  0.182500  0.603700  0.863500  1.0
  C  C938  1  0.182500  0.396300  0.636500  1.0
  C  C939  1  0.817500  0.396300  0.136500  1.0
  C  C940  1  0.817500  0.603700  0.363500  1.0
  C  C941  1  0.482900  0.402600  0.859280  1.0
  C  C942  1  0.482900  0.597400  0.640720  1.0
  C  C943  1  0.517100  0.597400  0.140720  1.0
  C  C944  1  0.517100  0.402600  0.359280  1.0
  C  C945  1  0.557100  0.381700  0.843800  1.0
  C  C946  1  0.557100  0.618300  0.656200  1.0
  C  C947  1  0.442900  0.618300  0.156200  1.0
  C  C948  1  0.442900  0.381700  0.343800  1.0
  C  C949  1  0.598500  0.359200  0.858100  1.0
  C  C950  1  0.598500  0.640800  0.641900  1.0
  C  C951  1  0.401500  0.640800  0.141900  1.0
  C  C952  1  0.401500  0.359200  0.358100  1.0
  C  C953  1  0.565800  0.358400  0.888300  1.0
  C  C954  1  0.565800  0.641600  0.611700  1.0
  C  C955  1  0.434200  0.641600  0.111700  1.0
  C  C956  1  0.434200  0.358400  0.388300  1.0
  C  C957  1  0.491100  0.379500  0.902260  1.0
  C  C958  1  0.491100  0.620500  0.597740  1.0
  C  C959  1  0.508900  0.620500  0.097740  1.0
  C  C960  1  0.508900  0.379500  0.402260  1.0
  C  C961  1  0.437000  0.427400  0.846070  1.0
  C  C962  1  0.437000  0.572600  0.653930  1.0
  C  C963  1  0.563000  0.572600  0.153930  1.0
  C  C964  1  0.563000  0.427400  0.346070  1.0
  C  C965  1  0.453100  0.435200  0.816810  1.0
  C  C966  1  0.453100  0.564800  0.683190  1.0
  C  C967  1  0.546900  0.564800  0.183190  1.0
  C  C968  1  0.546900  0.435200  0.316810  1.0
  C  C969  1  0.392500  0.462700  0.818330  1.0
  C  C970  1  0.392500  0.537300  0.681670  1.0
  C  C971  1  0.607500  0.537300  0.181670  1.0
  C  C972  1  0.607500  0.462700  0.318330  1.0
  C  C973  1  0.279600  0.500910  0.862790  1.0
  C  C974  1  0.279600  0.499090  0.637210  1.0
  C  C975  1  0.720400  0.499090  0.137210  1.0
  C  C976  1  0.720400  0.500910  0.362790  1.0
  C  C977  1  0.175600  0.572000  0.905160  1.0
  C  C978  1  0.175600  0.428000  0.594840  1.0
  C  C979  1  0.824400  0.428000  0.094840  1.0
  C  C980  1  0.824400  0.572000  0.405160  1.0
  C  C981  1  0.132700  0.589400  0.886670  1.0
  C  C982  1  0.132700  0.410600  0.613330  1.0
  C  C983  1  0.867300  0.410600  0.113330  1.0
  C  C984  1  0.867300  0.589400  0.386670  1.0
  C  C985  1  0.042300  0.592100  0.888900  1.0
  C  C986  1  0.042300  0.407900  0.611100  1.0
  C  C987  1  0.957700  0.407900  0.111100  1.0
  C  C988  1  0.957700  0.592100  0.388900  1.0
  C  C989  1  0.994700  0.578700  0.909400  1.0
  C  C990  1  0.994700  0.421300  0.590600  1.0
  C  C991  1  0.005300  0.421300  0.090600  1.0
  C  C992  1  0.005300  0.578700  0.409400  1.0
  C  C993  1  0.038700  0.561300  0.927500  1.0
  C  C994  1  0.038700  0.438700  0.572500  1.0
  C  C995  1  0.961300  0.438700  0.072500  1.0
  C  C996  1  0.961300  0.561300  0.427500  1.0
  C  C997  1  0.128700  0.557600  0.925600  1.0
  C  C998  1  0.128700  0.442400  0.574400  1.0
  C  C999  1  0.871300  0.442400  0.074400  1.0
  C  C1000  1  0.871300  0.557600  0.425600  1.0
  C  C1001  1  0.272400  0.570900  0.907240  1.0
  C  C1002  1  0.272400  0.429100  0.592760  1.0
  C  C1003  1  0.727600  0.429100  0.092760  1.0
  C  C1004  1  0.727600  0.570900  0.407240  1.0
  C  C1005  1  0.323600  0.538290  0.888990  1.0
  C  C1006  1  0.323600  0.461710  0.611010  1.0
  C  C1007  1  0.676400  0.461710  0.111010  1.0
  C  C1008  1  0.676400  0.538290  0.388990  1.0
  C  C1009  1  0.412200  0.539800  0.894950  1.0
  C  C1010  1  0.412200  0.460200  0.605050  1.0
  C  C1011  1  0.587800  0.460200  0.105050  1.0
  C  C1012  1  0.587800  0.539800  0.394950  1.0
  C  C1013  1  0.449600  0.573300  0.918910  1.0
  C  C1014  1  0.449600  0.426700  0.581090  1.0
  C  C1015  1  0.550400  0.426700  0.081090  1.0
  C  C1016  1  0.550400  0.573300  0.418910  1.0
  C  C1017  1  0.398500  0.605900  0.937230  1.0
  C  C1018  1  0.398500  0.394100  0.562770  1.0
  C  C1019  1  0.601500  0.394100  0.062770  1.0
  C  C1020  1  0.601500  0.605900  0.437230  1.0
  C  C1021  1  0.312300  0.605300  0.931100  1.0
  C  C1022  1  0.312300  0.394700  0.568900  1.0
  C  C1023  1  0.687700  0.394700  0.068900  1.0
  C  C1024  1  0.687700  0.605300  0.431100  1.0
  C  C1025  1  0.481600  0.662400  0.896400  1.0
  C  C1026  1  0.481600  0.337600  0.603600  1.0
  C  C1027  1  0.518400  0.337600  0.103600  1.0
  C  C1028  1  0.518400  0.662400  0.396400  1.0
  C  C1029  1  0.553400  0.649400  0.908000  1.0
  C  C1030  1  0.553400  0.350600  0.592000  1.0
  C  C1031  1  0.446600  0.350600  0.092000  1.0
  C  C1032  1  0.446600  0.649400  0.408000  1.0
  C  C1033  1  0.596700  0.675500  0.937000  1.0
  C  C1034  1  0.596700  0.324500  0.563000  1.0
  C  C1035  1  0.403300  0.324500  0.063000  1.0
  C  C1036  1  0.403300  0.675500  0.437000  1.0
  C  C1037  1  0.568900  0.713500  0.952500  1.0
  C  C1038  1  0.568900  0.286500  0.547500  1.0
  C  C1039  1  0.431100  0.286500  0.047500  1.0
  C  C1040  1  0.431100  0.713500  0.452500  1.0
  C  C1041  1  0.499600  0.724000  0.939560  1.0
  C  C1042  1  0.499600  0.276000  0.560440  1.0
  C  C1043  1  0.500400  0.276000  0.060440  1.0
  C  C1044  1  0.500400  0.724000  0.439560  1.0
  C  C1045  1  0.434300  0.636700  0.864940  1.0
  C  C1046  1  0.434300  0.363300  0.635060  1.0
  C  C1047  1  0.565700  0.363300  0.135060  1.0
  C  C1048  1  0.565700  0.636700  0.364940  1.0
  C  C1049  1  0.443800  0.596700  0.843320  1.0
  C  C1050  1  0.443800  0.403300  0.656680  1.0
  C  C1051  1  0.556200  0.403300  0.156680  1.0
  C  C1052  1  0.556200  0.596700  0.343320  1.0
  C  C1053  1  0.387400  0.589600  0.815730  1.0
  C  C1054  1  0.387400  0.410400  0.684270  1.0
  C  C1055  1  0.612600  0.410400  0.184270  1.0
  C  C1056  1  0.612600  0.589600  0.315730  1.0
  C  C1057  1  0.291600  0.633900  0.799620  1.0
  C  C1058  1  0.291600  0.366100  0.700380  1.0
  C  C1059  1  0.708400  0.366100  0.200380  1.0
  C  C1060  1  0.708400  0.633900  0.299620  1.0
  C  C1061  1  0.966500  0.531400  0.620580  1.0
  C  C1062  1  0.966500  0.468600  0.879420  1.0
  C  C1063  1  0.033500  0.468600  0.379420  1.0
  C  C1064  1  0.033500  0.531400  0.120580  1.0
  C  C1065  1  0.889900  0.511000  0.617400  1.0
  C  C1066  1  0.889900  0.489000  0.882600  1.0
  C  C1067  1  0.110100  0.489000  0.382600  1.0
  C  C1068  1  0.110100  0.511000  0.117400  1.0
  C  C1069  1  0.826000  0.511200  0.594000  1.0
  C  C1070  1  0.826000  0.488800  0.906000  1.0
  C  C1071  1  0.174000  0.488800  0.406000  1.0
  C  C1072  1  0.174000  0.511200  0.094000  1.0
  C  C1073  1  0.841600  0.531600  0.574000  1.0
  C  C1074  1  0.841600  0.468400  0.926000  1.0
  C  C1075  1  0.158400  0.468400  0.426000  1.0
  C  C1076  1  0.158400  0.531600  0.074000  1.0
  C  C1077  1  0.919600  0.550900  0.578200  1.0
  C  C1078  1  0.919600  0.449100  0.921800  1.0
  C  C1079  1  0.080400  0.449100  0.421800  1.0
  C  C1080  1  0.080400  0.550900  0.078200  1.0
  C  C1081  1  0.030400  0.536400  0.647200  1.0
  C  C1082  1  0.030400  0.463600  0.852800  1.0
  C  C1083  1  0.969600  0.463600  0.352800  1.0
  C  C1084  1  0.969600  0.536400  0.147200  1.0
  C  C1085  1  0.032800  0.519200  0.671100  1.0
  C  C1086  1  0.032800  0.480800  0.828900  1.0
  C  C1087  1  0.967200  0.480800  0.328900  1.0
  C  C1088  1  0.967200  0.519200  0.171100  1.0
  C  C1089  1  0.100300  0.536500  0.691830  1.0
  C  C1090  1  0.100300  0.463500  0.808170  1.0
  C  C1091  1  0.899700  0.463500  0.308170  1.0
  C  C1092  1  0.899700  0.536500  0.191830  1.0
  C  C1093  1  0.197600  0.593000  0.698950  1.0
  C  C1094  1  0.197600  0.407000  0.801050  1.0
  C  C1095  1  0.802400  0.407000  0.301050  1.0
  C  C1096  1  0.802400  0.593000  0.198950  1.0
  C  C1097  1  0.302800  0.657000  0.752050  1.0
  C  C1098  1  0.302800  0.343000  0.747950  1.0
  C  C1099  1  0.697200  0.343000  0.247950  1.0
  C  C1100  1  0.697200  0.657000  0.252050  1.0
  C  C1101  1  0.344500  0.646320  0.775980  1.0
  C  C1102  1  0.344500  0.353680  0.724020  1.0
  C  C1103  1  0.655500  0.353680  0.224020  1.0
  C  C1104  1  0.655500  0.646320  0.275980  1.0
  C  C1105  1  0.434700  0.647900  0.777940  1.0
  C  C1106  1  0.434700  0.352100  0.722060  1.0
  C  C1107  1  0.565300  0.352100  0.222060  1.0
  C  C1108  1  0.565300  0.647900  0.277940  1.0
  C  C1109  1  0.482100  0.659700  0.756450  1.0
  C  C1110  1  0.482100  0.340300  0.743550  1.0
  C  C1111  1  0.517900  0.340300  0.243550  1.0
  C  C1112  1  0.517900  0.659700  0.256450  1.0
  C  C1113  1  0.440300  0.670900  0.733000  1.0
  C  C1114  1  0.440300  0.329100  0.767000  1.0
  C  C1115  1  0.559700  0.329100  0.267000  1.0
  C  C1116  1  0.559700  0.670900  0.233000  1.0
  C  C1117  1  0.350500  0.669100  0.731040  1.0
  C  C1118  1  0.350500  0.330900  0.768960  1.0
  C  C1119  1  0.649500  0.330900  0.268960  1.0
  C  C1120  1  0.649500  0.669100  0.231040  1.0
  C  C1121  1  0.206500  0.659300  0.750720  1.0
  C  C1122  1  0.206500  0.340700  0.749280  1.0
  C  C1123  1  0.793500  0.340700  0.249280  1.0
  C  C1124  1  0.793500  0.659300  0.250720  1.0
  C  C1125  1  0.155800  0.629200  0.726000  1.0
  C  C1126  1  0.155800  0.370800  0.774000  1.0
  C  C1127  1  0.844200  0.370800  0.274000  1.0
  C  C1128  1  0.844200  0.629200  0.226000  1.0
  C  C1129  1  0.066100  0.633800  0.726050  1.0
  C  C1130  1  0.066100  0.366200  0.773950  1.0
  C  C1131  1  0.933900  0.366200  0.273950  1.0
  C  C1132  1  0.933900  0.633800  0.226050  1.0
  C  C1133  1  0.026400  0.667400  0.750370  1.0
  C  C1134  1  0.026400  0.332600  0.749630  1.0
  C  C1135  1  0.973600  0.332600  0.249630  1.0
  C  C1136  1  0.973600  0.667400  0.250370  1.0
  C  C1137  1  0.077000  0.696600  0.774750  1.0
  C  C1138  1  0.077000  0.303400  0.725250  1.0
  C  C1139  1  0.923000  0.303400  0.225250  1.0
  C  C1140  1  0.923000  0.696600  0.274750  1.0
  C  C1141  1  0.165300  0.692600  0.774520  1.0
  C  C1142  1  0.165300  0.307400  0.725480  1.0
  C  C1143  1  0.834700  0.307400  0.225480  1.0
  C  C1144  1  0.834700  0.692600  0.274520  1.0
  C  C1145  1  0.067500  0.698500  0.956150  1.0
  C  C1146  1  0.067500  0.301500  0.543850  1.0
  C  C1147  1  0.932500  0.301500  0.043850  1.0
  C  C1148  1  0.932500  0.698500  0.456150  1.0
  C  C1149  1  0.028400  0.690000  0.981560  1.0
  C  C1150  1  0.028400  0.310000  0.518440  1.0
  C  C1151  1  0.971600  0.310000  0.018440  1.0
  C  C1152  1  0.971600  0.690000  0.481560  1.0
  C  C1153  1  0.938500  0.685100  0.980200  1.0
  C  C1154  1  0.938500  0.314900  0.519800  1.0
  C  C1155  1  0.061500  0.314900  0.019800  1.0
  C  C1156  1  0.061500  0.685100  0.480200  1.0
  C  C1157  1  0.893700  0.690600  0.954900  1.0
  C  C1158  1  0.893700  0.309400  0.545100  1.0
  C  C1159  1  0.106300  0.309400  0.045100  1.0
  C  C1160  1  0.106300  0.690600  0.454900  1.0
  C  C1161  1  0.936000  0.698800  0.930600  1.0
  C  C1162  1  0.936000  0.301200  0.569400  1.0
  C  C1163  1  0.064000  0.301200  0.069400  1.0
  C  C1164  1  0.064000  0.698800  0.430600  1.0
  C  C1165  1  0.160400  0.702600  0.953960  1.0
  C  C1166  1  0.160400  0.297400  0.546040  1.0
  C  C1167  1  0.839600  0.297400  0.046040  1.0
  C  C1168  1  0.839600  0.702600  0.453960  1.0
  C  C1169  1  0.230700  0.702200  0.974840  1.0
  C  C1170  1  0.230700  0.297800  0.525160  1.0
  C  C1171  1  0.769300  0.297800  0.025160  1.0
  C  C1172  1  0.769300  0.702200  0.474840  1.0
  C  C1173  1  0.300600  0.706800  0.957750  1.0
  C  C1174  1  0.300600  0.293200  0.542250  1.0
  C  C1175  1  0.699400  0.293200  0.042250  1.0
  C  C1176  1  0.699400  0.706800  0.457750  1.0
  C  C1177  1  0.382000  0.751700  0.845560  1.0
  C  C1178  1  0.382000  0.248300  0.654440  1.0
  C  C1179  1  0.618000  0.248300  0.154440  1.0
  C  C1180  1  0.618000  0.751700  0.345560  1.0
  C  C1181  1  0.418400  0.762500  0.820960  1.0
  C  C1182  1  0.418400  0.237500  0.679040  1.0
  C  C1183  1  0.581600  0.237500  0.179040  1.0
  C  C1184  1  0.581600  0.762500  0.320960  1.0
  C  C1185  1  0.506800  0.755500  0.815100  1.0
  C  C1186  1  0.506800  0.244500  0.684900  1.0
  C  C1187  1  0.493200  0.244500  0.184900  1.0
  C  C1188  1  0.493200  0.755500  0.315100  1.0
  C  C1189  1  0.555100  0.740300  0.833400  1.0
  C  C1190  1  0.555100  0.259700  0.666600  1.0
  C  C1191  1  0.444900  0.259700  0.166600  1.0
  C  C1192  1  0.444900  0.740300  0.333400  1.0
  C  C1193  1  0.511100  0.729800  0.857620  1.0
  C  C1194  1  0.511100  0.270200  0.642380  1.0
  C  C1195  1  0.488900  0.270200  0.142380  1.0
  C  C1196  1  0.488900  0.729800  0.357620  1.0
  C  C1197  1  0.288800  0.755540  0.853970  1.0
  C  C1198  1  0.288800  0.244460  0.646030  1.0
  C  C1199  1  0.711200  0.244460  0.146030  1.0
  C  C1200  1  0.711200  0.755540  0.353970  1.0
  C  C1201  1  0.222200  0.774800  0.846520  1.0
  C  C1202  1  0.222200  0.225200  0.653480  1.0
  C  C1203  1  0.777800  0.225200  0.153480  1.0
  C  C1204  1  0.777800  0.774800  0.346520  1.0
  C  C1205  1  0.150800  0.765400  0.860790  1.0
  C  C1206  1  0.150800  0.234600  0.639210  1.0
  C  C1207  1  0.849200  0.234600  0.139210  1.0
  C  C1208  1  0.849200  0.765400  0.360790  1.0
  C  C1209  1  0.345600  0.503700  0.965840  1.0
  C  C1210  1  0.345600  0.496300  0.534160  1.0
  C  C1211  1  0.654400  0.496300  0.034160  1.0
  C  C1212  1  0.654400  0.503700  0.465840  1.0
  C  C1213  1  0.375900  0.538700  0.991100  1.0
  C  C1214  1  0.375900  0.461300  0.508900  1.0
  C  C1215  1  0.624100  0.461300  0.008900  1.0
  C  C1216  1  0.624100  0.538700  0.491100  1.0
  C  C1217  1  0.465900  0.545600  0.992100  1.0
  C  C1218  1  0.465900  0.454400  0.507900  1.0
  C  C1219  1  0.534100  0.454400  0.007900  1.0
  C  C1220  1  0.534100  0.545600  0.492100  1.0
  C  C1221  1  0.520400  0.519500  0.968600  1.0
  C  C1222  1  0.520400  0.480500  0.531400  1.0
  C  C1223  1  0.479600  0.480500  0.031400  1.0
  C  C1224  1  0.479600  0.519500  0.468600  1.0
  C  C1225  1  0.485400  0.485800  0.944300  1.0
  C  C1226  1  0.485400  0.514200  0.555700  1.0
  C  C1227  1  0.514600  0.514200  0.055700  1.0
  C  C1228  1  0.514600  0.485800  0.444300  1.0
  C  C1229  1  0.257000  0.492800  0.960490  1.0
  C  C1230  1  0.257000  0.507200  0.539510  1.0
  C  C1231  1  0.743000  0.507200  0.039510  1.0
  C  C1232  1  0.743000  0.492800  0.460490  1.0
  C  C1233  1  0.182300  0.508000  0.978980  1.0
  C  C1234  1  0.182300  0.492000  0.521020  1.0
  C  C1235  1  0.817700  0.492000  0.021020  1.0
  C  C1236  1  0.817700  0.508000  0.478980  1.0
  C  C1237  1  0.115900  0.516000  0.540500  1.0
  C  C1238  1  0.115900  0.484000  0.959500  1.0
  C  C1239  1  0.884100  0.484000  0.459500  1.0
  C  C1240  1  0.884100  0.516000  0.040500  1.0
  C  C1241  1  0.074900  0.664400  0.659630  1.0
  C  C1242  1  0.074900  0.335600  0.840370  1.0
  C  C1243  1  0.925100  0.335600  0.340370  1.0
  C  C1244  1  0.925100  0.664400  0.159630  1.0
  C  C1245  1  0.043300  0.700300  0.685200  1.0
  C  C1246  1  0.043300  0.299700  0.814800  1.0
  C  C1247  1  0.956700  0.299700  0.314800  1.0
  C  C1248  1  0.956700  0.700300  0.185200  1.0
  C  C1249  1  0.955200  0.702400  0.692400  1.0
  C  C1250  1  0.955200  0.297600  0.807600  1.0
  C  C1251  1  0.044800  0.297600  0.307600  1.0
  C  C1252  1  0.044800  0.702400  0.192400  1.0
  C  C1253  1  0.903900  0.671600  0.675300  1.0
  C  C1254  1  0.903900  0.328400  0.824700  1.0
  C  C1255  1  0.096100  0.328400  0.324700  1.0
  C  C1256  1  0.096100  0.671600  0.175300  1.0
  C  C1257  1  0.938000  0.637600  0.650600  1.0
  C  C1258  1  0.938000  0.362400  0.849400  1.0
  C  C1259  1  0.062000  0.362400  0.349400  1.0
  C  C1260  1  0.062000  0.637600  0.150600  1.0
  C  C1261  1  0.165500  0.657800  0.649730  1.0
  C  C1262  1  0.165500  0.342200  0.850270  1.0
  C  C1263  1  0.834500  0.342200  0.350270  1.0
  C  C1264  1  0.834500  0.657800  0.149730  1.0
  C  C1265  1  0.238600  0.680700  0.659570  1.0
  C  C1266  1  0.238600  0.319300  0.840430  1.0
  C  C1267  1  0.761400  0.319300  0.340430  1.0
  C  C1268  1  0.761400  0.680700  0.159570  1.0
  C  C1269  1  0.304000  0.343500  0.859230  1.0
  C  C1270  1  0.304000  0.656500  0.640770  1.0
  C  C1271  1  0.696000  0.656500  0.140770  1.0
  C  C1272  1  0.696000  0.343500  0.359230  1.0
  C  C1273  1  0.468700  0.843800  0.614900  1.0
  C  C1274  1  0.468700  0.156200  0.885100  1.0
  C  C1275  1  0.531300  0.156200  0.385100  1.0
  C  C1276  1  0.531300  0.843800  0.114900  1.0
  C  C1277  1  0.396300  0.859600  0.607700  1.0
  C  C1278  1  0.396300  0.140400  0.892300  1.0
  C  C1279  1  0.603700  0.140400  0.392300  1.0
  C  C1280  1  0.603700  0.859600  0.107700  1.0
  C  C1281  1  0.344400  0.837200  0.581800  1.0
  C  C1282  1  0.344400  0.162800  0.918200  1.0
  C  C1283  1  0.655600  0.162800  0.418200  1.0
  C  C1284  1  0.655600  0.837200  0.081800  1.0
  C  C1285  1  0.364100  0.797100  0.562100  1.0
  C  C1286  1  0.364100  0.202900  0.937900  1.0
  C  C1287  1  0.635900  0.202900  0.437900  1.0
  C  C1288  1  0.635900  0.797100  0.062100  1.0
  C  C1289  1  0.435800  0.782900  0.570100  1.0
  C  C1290  1  0.435800  0.217100  0.929900  1.0
  C  C1291  1  0.564200  0.217100  0.429900  1.0
  C  C1292  1  0.564200  0.782900  0.070100  1.0
  C  C1293  1  0.589500  0.911200  0.689600  1.0
  C  C1294  1  0.589500  0.088800  0.810400  1.0
  C  C1295  1  0.410500  0.088800  0.310400  1.0
  C  C1296  1  0.410500  0.911200  0.189600  1.0
  C  C1297  1  0.523300  0.907200  0.667100  1.0
  C  C1298  1  0.523300  0.092800  0.832900  1.0
  C  C1299  1  0.476700  0.092800  0.332900  1.0
  C  C1300  1  0.476700  0.907200  0.167100  1.0
  C  C1301  1  0.526900  0.865900  0.643100  1.0
  C  C1302  1  0.526900  0.134100  0.856900  1.0
  C  C1303  1  0.473100  0.134100  0.356900  1.0
  C  C1304  1  0.473100  0.865900  0.143100  1.0
  C  C1305  1  0.689200  0.864800  0.699990  1.0
  C  C1306  1  0.689200  0.135200  0.800010  1.0
  C  C1307  1  0.310800  0.135200  0.300010  1.0
  C  C1308  1  0.310800  0.864800  0.199990  1.0
  C  C1309  1  0.975800  0.984800  0.895930  1.0
  C  C1310  1  0.975800  0.015200  0.604070  1.0
  C  C1311  1  0.024200  0.015200  0.104070  1.0
  C  C1312  1  0.024200  0.984800  0.395930  1.0
  C  C1313  1  0.044800  0.010800  0.907120  1.0
  C  C1314  1  0.044800  0.989200  0.592880  1.0
  C  C1315  1  0.955200  0.989200  0.092880  1.0
  C  C1316  1  0.955200  0.010800  0.407120  1.0
  C  C1317  1  0.098000  0.011100  0.933600  1.0
  C  C1318  1  0.098000  0.988900  0.566400  1.0
  C  C1319  1  0.902000  0.988900  0.066400  1.0
  C  C1320  1  0.902000  0.011100  0.433600  1.0
  C  C1321  1  0.082200  0.985400  0.948880  1.0
  C  C1322  1  0.082200  0.014600  0.551120  1.0
  C  C1323  1  0.917800  0.014600  0.051120  1.0
  C  C1324  1  0.917800  0.985400  0.448880  1.0
  C  C1325  1  0.013200  0.959400  0.937690  1.0
  C  C1326  1  0.013200  0.040600  0.562310  1.0
  C  C1327  1  0.986800  0.040600  0.062310  1.0
  C  C1328  1  0.986800  0.959400  0.437690  1.0
  C  C1329  1  0.929700  0.981170  0.867900  1.0
  C  C1330  1  0.929700  0.018830  0.632100  1.0
  C  C1331  1  0.070300  0.018830  0.132100  1.0
  C  C1332  1  0.070300  0.981170  0.367900  1.0
  C  C1333  1  0.931700  0.000030  0.845030  1.0
  C  C1334  1  0.931700  0.999970  0.654970  1.0
  C  C1335  1  0.068300  0.999970  0.154970  1.0
  C  C1336  1  0.068300  0.000030  0.345030  1.0
  C  C1337  1  0.870800  0.981140  0.818220  1.0
  C  C1338  1  0.870800  0.018860  0.681780  1.0
  C  C1339  1  0.129200  0.018860  0.181780  1.0
  C  C1340  1  0.129200  0.981140  0.318220  1.0
  C  C1341  1  0.780600  0.919600  0.802930  1.0
  C  C1342  1  0.780600  0.080400  0.697070  1.0
  C  C1343  1  0.219400  0.080400  0.197070  1.0
  C  C1344  1  0.219400  0.919600  0.302930  1.0
  C  C1345  1  0.693400  0.849100  0.752660  1.0
  C  C1346  1  0.693400  0.150900  0.747340  1.0
  C  C1347  1  0.306600  0.150900  0.247340  1.0
  C  C1348  1  0.306600  0.849100  0.252660  1.0
  C  C1349  1  0.644800  0.854400  0.727230  1.0
  C  C1350  1  0.644800  0.145600  0.772770  1.0
  C  C1351  1  0.355200  0.145600  0.272770  1.0
  C  C1352  1  0.355200  0.854400  0.227230  1.0
  C  C1353  1  0.555000  0.848600  0.726440  1.0
  C  C1354  1  0.555000  0.151400  0.773560  1.0
  C  C1355  1  0.445000  0.151400  0.273560  1.0
  C  C1356  1  0.445000  0.848600  0.226440  1.0
  C  C1357  1  0.515900  0.838600  0.751220  1.0
  C  C1358  1  0.515900  0.161400  0.748780  1.0
  C  C1359  1  0.484100  0.161400  0.248780  1.0
  C  C1360  1  0.484100  0.838600  0.251220  1.0
  C  C1361  1  0.564400  0.833100  0.775810  1.0
  C  C1362  1  0.564400  0.166900  0.724190  1.0
  C  C1363  1  0.435600  0.166900  0.224190  1.0
  C  C1364  1  0.435600  0.833100  0.275810  1.0
  C  C1365  1  0.649700  0.838900  0.776700  1.0
  C  C1366  1  0.649700  0.161100  0.723300  1.0
  C  C1367  1  0.350300  0.161100  0.223300  1.0
  C  C1368  1  0.350300  0.838900  0.276700  1.0
  C  C1369  1  0.791800  0.852500  0.754890  1.0
  C  C1370  1  0.791800  0.147500  0.745110  1.0
  C  C1371  1  0.208200  0.147500  0.245110  1.0
  C  C1372  1  0.208200  0.852500  0.254890  1.0
  C  C1373  1  0.833900  0.885400  0.778490  1.0
  C  C1374  1  0.833900  0.114600  0.721510  1.0
  C  C1375  1  0.166100  0.114600  0.221510  1.0
  C  C1376  1  0.166100  0.885400  0.278490  1.0
  C  C1377  1  0.924100  0.885600  0.780580  1.0
  C  C1378  1  0.924100  0.114400  0.719420  1.0
  C  C1379  1  0.075900  0.114400  0.219420  1.0
  C  C1380  1  0.075900  0.885600  0.280580  1.0
  C  C1381  1  0.972200  0.854000  0.758680  1.0
  C  C1382  1  0.972200  0.146000  0.741320  1.0
  C  C1383  1  0.027800  0.146000  0.241320  1.0
  C  C1384  1  0.027800  0.854000  0.258680  1.0
  C  C1385  1  0.928600  0.821200  0.734500  1.0
  C  C1386  1  0.928600  0.178800  0.765500  1.0
  C  C1387  1  0.071400  0.178800  0.265500  1.0
  C  C1388  1  0.071400  0.821200  0.234500  1.0
  C  C1389  1  0.840800  0.820300  0.732800  1.0
  C  C1390  1  0.840800  0.179700  0.767200  1.0
  C  C1391  1  0.159200  0.179700  0.267200  1.0
  C  C1392  1  0.159200  0.820300  0.232800  1.0
  C  C1393  1  0.979900  0.815500  0.651800  1.0
  C  C1394  1  0.979900  0.184500  0.848200  1.0
  C  C1395  1  0.020100  0.184500  0.348200  1.0
  C  C1396  1  0.020100  0.815500  0.151800  1.0
  C  C1397  1  0.055300  0.815200  0.669370  1.0
  C  C1398  1  0.055300  0.184800  0.830630  1.0
  C  C1399  1  0.944700  0.184800  0.330630  1.0
  C  C1400  1  0.944700  0.815200  0.169370  1.0
  C  C1401  1  0.102000  0.780600  0.660000  1.0
  C  C1402  1  0.102000  0.219400  0.840000  1.0
  C  C1403  1  0.898000  0.219400  0.340000  1.0
  C  C1404  1  0.898000  0.780600  0.160000  1.0
  C  C1405  1  0.073200  0.746400  0.633100  1.0
  C  C1406  1  0.073200  0.253600  0.866900  1.0
  C  C1407  1  0.926800  0.253600  0.366900  1.0
  C  C1408  1  0.926800  0.746400  0.133100  1.0
  C  C1409  1  0.997700  0.746700  0.615500  1.0
  C  C1410  1  0.997700  0.253300  0.884500  1.0
  C  C1411  1  0.002300  0.253300  0.384500  1.0
  C  C1412  1  0.002300  0.746700  0.115500  1.0
  C  C1413  1  0.925700  0.849500  0.659600  1.0
  C  C1414  1  0.925700  0.150500  0.840400  1.0
  C  C1415  1  0.074300  0.150500  0.340400  1.0
  C  C1416  1  0.074300  0.849500  0.159600  1.0
  C  C1417  1  0.934300  0.886500  0.684700  1.0
  C  C1418  1  0.934300  0.113500  0.815300  1.0
  C  C1419  1  0.065700  0.113500  0.315300  1.0
  C  C1420  1  0.065700  0.886500  0.184700  1.0
  C  C1421  1  0.868300  0.907900  0.678100  1.0
  C  C1422  1  0.868300  0.092100  0.821900  1.0
  C  C1423  1  0.131700  0.092100  0.321900  1.0
  C  C1424  1  0.131700  0.907900  0.178100  1.0
  C  C1425  1  0.763900  0.892200  0.627300  1.0
  C  C1426  1  0.763900  0.107800  0.872700  1.0
  C  C1427  1  0.236100  0.107800  0.372700  1.0
  C  C1428  1  0.236100  0.892200  0.127300  1.0
  C  C1429  1  0.473200  0.092800  0.654400  1.0
  C  C1430  1  0.473200  0.907200  0.845600  1.0
  C  C1431  1  0.526800  0.907200  0.345600  1.0
  C  C1432  1  0.526800  0.092800  0.154400  1.0
  C  C1433  1  0.401000  0.111500  0.673200  1.0
  C  C1434  1  0.401000  0.888500  0.826800  1.0
  C  C1435  1  0.599000  0.888500  0.326800  1.0
  C  C1436  1  0.599000  0.111500  0.173200  1.0
  C  C1437  1  0.353600  0.135900  0.662600  1.0
  C  C1438  1  0.353600  0.864100  0.837400  1.0
  C  C1439  1  0.646400  0.864100  0.337400  1.0
  C  C1440  1  0.646400  0.135900  0.162600  1.0
  C  C1441  1  0.376600  0.139700  0.632900  1.0
  C  C1442  1  0.376600  0.860300  0.867100  1.0
  C  C1443  1  0.623400  0.860300  0.367100  1.0
  C  C1444  1  0.623400  0.139700  0.132900  1.0
  C  C1445  1  0.451200  0.120300  0.614800  1.0
  C  C1446  1  0.451200  0.879700  0.885200  1.0
  C  C1447  1  0.548800  0.879700  0.385200  1.0
  C  C1448  1  0.548800  0.120300  0.114800  1.0
  C  C1449  1  0.527000  0.065900  0.663270  1.0
  C  C1450  1  0.527000  0.934100  0.836730  1.0
  C  C1451  1  0.473000  0.934100  0.336730  1.0
  C  C1452  1  0.473000  0.065900  0.163270  1.0
  C  C1453  1  0.521500  0.055300  0.690700  1.0
  C  C1454  1  0.521500  0.944700  0.809300  1.0
  C  C1455  1  0.478500  0.944700  0.309300  1.0
  C  C1456  1  0.478500  0.055300  0.190700  1.0
  C  C1457  1  0.582600  0.026200  0.683420  1.0
  C  C1458  1  0.582600  0.973800  0.816580  1.0
  C  C1459  1  0.417400  0.973800  0.316580  1.0
  C  C1460  1  0.417400  0.026200  0.183420  1.0
  C  C1461  1  0.676200  0.987900  0.630580  1.0
  C  C1462  1  0.676200  0.012100  0.869420  1.0
  C  C1463  1  0.323800  0.012100  0.369420  1.0
  C  C1464  1  0.323800  0.987900  0.130580  1.0
  C  C1465  1  0.759000  0.915200  0.579600  1.0
  C  C1466  1  0.759000  0.084800  0.920400  1.0
  C  C1467  1  0.241000  0.084800  0.420400  1.0
  C  C1468  1  0.241000  0.915200  0.079600  1.0
  C  C1469  1  0.808500  0.902400  0.600000  1.0
  C  C1470  1  0.808500  0.097600  0.900000  1.0
  C  C1471  1  0.191500  0.097600  0.400000  1.0
  C  C1472  1  0.191500  0.902400  0.100000  1.0
  C  C1473  1  0.896300  0.897200  0.594900  1.0
  C  C1474  1  0.896300  0.102800  0.905100  1.0
  C  C1475  1  0.103700  0.102800  0.405100  1.0
  C  C1476  1  0.103700  0.897200  0.094900  1.0
  C  C1477  1  0.938000  0.903900  0.568000  1.0
  C  C1478  1  0.938000  0.096100  0.932000  1.0
  C  C1479  1  0.062000  0.096100  0.432000  1.0
  C  C1480  1  0.062000  0.903900  0.068000  1.0
  C  C1481  1  0.891600  0.915600  0.548000  1.0
  C  C1482  1  0.891600  0.084400  0.952000  1.0
  C  C1483  1  0.108400  0.084400  0.452000  1.0
  C  C1484  1  0.108400  0.915600  0.048000  1.0
  C  C1485  1  0.796300  0.921300  0.552700  1.0
  C  C1486  1  0.796300  0.078700  0.947300  1.0
  C  C1487  1  0.203700  0.078700  0.447300  1.0
  C  C1488  1  0.203700  0.921300  0.052700  1.0
  C  C1489  1  0.660500  0.919700  0.582000  1.0
  C  C1490  1  0.660500  0.080300  0.918000  1.0
  C  C1491  1  0.339500  0.080300  0.418000  1.0
  C  C1492  1  0.339500  0.919700  0.082000  1.0
  C  C1493  1  0.620700  0.953900  0.606300  1.0
  C  C1494  1  0.620700  0.046100  0.893700  1.0
  C  C1495  1  0.379300  0.046100  0.393700  1.0
  C  C1496  1  0.379300  0.953900  0.106300  1.0
  C  C1497  1  0.532200  0.956500  0.606600  1.0
  C  C1498  1  0.532200  0.043500  0.893400  1.0
  C  C1499  1  0.467800  0.043500  0.393400  1.0
  C  C1500  1  0.467800  0.956500  0.106600  1.0
  C  C1501  1  0.482900  0.926100  0.582800  1.0
  C  C1502  1  0.482900  0.073900  0.917200  1.0
  C  C1503  1  0.517100  0.073900  0.417200  1.0
  C  C1504  1  0.517100  0.926100  0.082800  1.0
  C  C1505  1  0.520100  0.893600  0.558100  1.0
  C  C1506  1  0.520100  0.106400  0.941900  1.0
  C  C1507  1  0.479900  0.106400  0.441900  1.0
  C  C1508  1  0.479900  0.893600  0.058100  1.0
  C  C1509  1  0.609600  0.891300  0.557800  1.0
  C  C1510  1  0.609600  0.108700  0.942200  1.0
  C  C1511  1  0.390400  0.108700  0.442200  1.0
  C  C1512  1  0.390400  0.891300  0.057800  1.0
  C  C1513  1  0.572400  0.751340  0.660050  1.0
  C  C1514  1  0.572400  0.248660  0.839950  1.0
  C  C1515  1  0.427600  0.248660  0.339950  1.0
  C  C1516  1  0.427600  0.751340  0.160050  1.0
  C  C1517  1  0.534600  0.741000  0.684410  1.0
  C  C1518  1  0.534600  0.259000  0.815590  1.0
  C  C1519  1  0.465400  0.259000  0.315590  1.0
  C  C1520  1  0.465400  0.741000  0.184410  1.0
  C  C1521  1  0.448800  0.745200  0.691000  1.0
  C  C1522  1  0.448800  0.254800  0.809000  1.0
  C  C1523  1  0.551200  0.254800  0.309000  1.0
  C  C1524  1  0.551200  0.745200  0.191000  1.0
  C  C1525  1  0.398900  0.760200  0.672900  1.0
  C  C1526  1  0.398900  0.239800  0.827100  1.0
  C  C1527  1  0.601100  0.239800  0.327100  1.0
  C  C1528  1  0.601100  0.760200  0.172900  1.0
  C  C1529  1  0.439300  0.770700  0.648800  1.0
  C  C1530  1  0.439300  0.229300  0.851200  1.0
  C  C1531  1  0.560700  0.229300  0.351200  1.0
  C  C1532  1  0.560700  0.770700  0.148800  1.0
  C  C1533  1  0.664200  0.750420  0.652720  1.0
  C  C1534  1  0.664200  0.249580  0.847280  1.0
  C  C1535  1  0.335800  0.249580  0.347280  1.0
  C  C1536  1  0.335800  0.750420  0.152720  1.0
  C  C1537  1  0.736400  0.737200  0.664780  1.0
  C  C1538  1  0.736400  0.262800  0.835220  1.0
  C  C1539  1  0.263600  0.262800  0.335220  1.0
  C  C1540  1  0.263600  0.737200  0.164780  1.0
  C  C1541  1  0.803800  0.745900  0.648210  1.0
  C  C1542  1  0.803800  0.254100  0.851790  1.0
  C  C1543  1  0.196200  0.254100  0.351790  1.0
  C  C1544  1  0.196200  0.745900  0.148210  1.0
  C  C1545  1  0.864400  0.792250  0.535980  1.0
  C  C1546  1  0.864400  0.207750  0.964020  1.0
  C  C1547  1  0.135600  0.207750  0.464020  1.0
  C  C1548  1  0.135600  0.792250  0.035980  1.0
  C  C1549  1  0.901900  0.796580  0.508030  1.0
  C  C1550  1  0.901900  0.203420  0.991970  1.0
  C  C1551  1  0.098100  0.203420  0.491970  1.0
  C  C1552  1  0.098100  0.796580  0.008030  1.0
  C  C1553  1  0.991000  0.799800  0.506450  1.0
  C  C1554  1  0.991000  0.200200  0.993550  1.0
  C  C1555  1  0.009000  0.200200  0.493550  1.0
  C  C1556  1  0.009000  0.799800  0.006450  1.0
  C  C1557  1  0.042700  0.798690  0.532810  1.0
  C  C1558  1  0.042700  0.201310  0.967190  1.0
  C  C1559  1  0.957300  0.201310  0.467190  1.0
  C  C1560  1  0.957300  0.798690  0.032810  1.0
  C  C1561  1  0.005100  0.794360  0.560750  1.0
  C  C1562  1  0.005100  0.205640  0.939250  1.0
  C  C1563  1  0.994900  0.205640  0.439250  1.0
  C  C1564  1  0.994900  0.794360  0.060750  1.0
  C  C1565  1  0.773900  0.791100  0.541700  1.0
  C  C1566  1  0.773900  0.208900  0.958300  1.0
  C  C1567  1  0.226100  0.208900  0.458300  1.0
  C  C1568  1  0.226100  0.791100  0.041700  1.0
  C  C1569  1  0.702200  0.793600  0.524300  1.0
  C  C1570  1  0.702200  0.206400  0.975700  1.0
  C  C1571  1  0.297800  0.206400  0.475700  1.0
  C  C1572  1  0.297800  0.793600  0.024300  1.0
  C  C1573  1  0.632500  0.791700  0.543360  1.0
  C  C1574  1  0.632500  0.208300  0.956640  1.0
  C  C1575  1  0.367500  0.208300  0.456640  1.0
  C  C1576  1  0.367500  0.791700  0.043360  1.0
  C  C1577  1  0.875600  0.842380  0.844100  1.0
  C  C1578  1  0.875600  0.157620  0.655900  1.0
  C  C1579  1  0.124400  0.157620  0.155900  1.0
  C  C1580  1  0.124400  0.842380  0.344100  1.0
  C  C1581  1  0.914400  0.809280  0.819090  1.0
  C  C1582  1  0.914400  0.190720  0.680910  1.0
  C  C1583  1  0.085600  0.190720  0.180910  1.0
  C  C1584  1  0.085600  0.809280  0.319090  1.0
  C  C1585  1  0.002300  0.809360  0.812620  1.0
  C  C1586  1  0.002300  0.190640  0.687380  1.0
  C  C1587  1  0.997700  0.190640  0.187380  1.0
  C  C1588  1  0.997700  0.809360  0.312620  1.0
  C  C1589  1  0.051500  0.842530  0.831160  1.0
  C  C1590  1  0.051500  0.157470  0.668840  1.0
  C  C1591  1  0.948500  0.157470  0.168840  1.0
  C  C1592  1  0.948500  0.842530  0.331160  1.0
  C  C1593  1  0.012700  0.875630  0.856170  1.0
  C  C1594  1  0.012700  0.124370  0.643830  1.0
  C  C1595  1  0.987300  0.124370  0.143830  1.0
  C  C1596  1  0.987300  0.875630  0.356170  1.0
  C  C1597  1  0.790100  0.846450  0.853520  1.0
  C  C1598  1  0.790100  0.153550  0.646480  1.0
  C  C1599  1  0.209900  0.153550  0.146480  1.0
  C  C1600  1  0.209900  0.846450  0.353520  1.0
  C  C1601  1  0.718200  0.820820  0.846740  1.0
  C  C1602  1  0.718200  0.179180  0.653260  1.0
  C  C1603  1  0.281800  0.179180  0.153260  1.0
  C  C1604  1  0.281800  0.820820  0.346740  1.0
  C  C1605  1  0.644800  0.843670  0.863250  1.0
  C  C1606  1  0.644800  0.156330  0.636750  1.0
  C  C1607  1  0.355200  0.156330  0.136750  1.0
  C  C1608  1  0.355200  0.843670  0.363250  1.0
  C  C1609  1  0.576400  0.002800  0.961200  1.0
  C  C1610  1  0.576400  0.997200  0.538800  1.0
  C  C1611  1  0.423600  0.997200  0.038800  1.0
  C  C1612  1  0.423600  0.002800  0.461200  1.0
  C  C1613  1  0.536900  0.037300  0.985800  1.0
  C  C1614  1  0.536900  0.962700  0.514200  1.0
  C  C1615  1  0.463100  0.962700  0.014200  1.0
  C  C1616  1  0.463100  0.037300  0.485800  1.0
  C  C1617  1  0.452800  0.042200  0.985100  1.0
  C  C1618  1  0.452800  0.957800  0.514900  1.0
  C  C1619  1  0.547200  0.957800  0.014900  1.0
  C  C1620  1  0.547200  0.042200  0.485100  1.0
  C  C1621  1  0.401000  0.013700  0.960700  1.0
  C  C1622  1  0.401000  0.986300  0.539300  1.0
  C  C1623  1  0.599000  0.986300  0.039300  1.0
  C  C1624  1  0.599000  0.013700  0.460700  1.0
  C  C1625  1  0.442500  0.980600  0.936300  1.0
  C  C1626  1  0.442500  0.019400  0.563700  1.0
  C  C1627  1  0.557500  0.019400  0.063700  1.0
  C  C1628  1  0.557500  0.980600  0.436300  1.0
  C  C1629  1  0.666500  0.994800  0.959130  1.0
  C  C1630  1  0.666500  0.005200  0.540870  1.0
  C  C1631  1  0.333500  0.005200  0.040870  1.0
  C  C1632  1  0.333500  0.994800  0.459130  1.0
  C  C1633  1  0.736800  0.011800  0.980300  1.0
  C  C1634  1  0.736800  0.988200  0.519700  1.0
  C  C1635  1  0.263200  0.988200  0.019700  1.0
  C  C1636  1  0.263200  0.011800  0.480300  1.0
  C  C1637  1  0.804800  0.989900  0.961900  1.0
  C  C1638  1  0.804800  0.010100  0.538100  1.0
  C  C1639  1  0.195200  0.010100  0.038100  1.0
  C  C1640  1  0.195200  0.989900  0.461900  1.0
  N  N1641  1  0.273800  0.408000  0.007070  1
  N  N1642  1  0.273800  0.592000  0.492930  1
  N  N1643  1  0.726200  0.592000  0.992930  1
  N  N1644  1  0.726200  0.408000  0.507070  1
  N  N1645  1  0.261200  0.710600  0.555800  1
  N  N1646  1  0.261200  0.289400  0.944200  1
  N  N1647  1  0.738800  0.289400  0.444200  1
  N  N1648  1  0.738800  0.710600  0.055800  1
  N  N1649  1  0.996700  0.716120  0.868690  1.0
  N  N1650  1  0.996700  0.283880  0.631310  1.0
  N  N1651  1  0.003300  0.283880  0.131310  1.0
  N  N1652  1  0.003300  0.716120  0.368690  1.0
  N  N1653  1  0.126300  0.614930  0.841890  1.0
  N  N1654  1  0.126300  0.385070  0.658110  1.0
  N  N1655  1  0.873700  0.385070  0.158110  1.0
  N  N1656  1  0.873700  0.614930  0.341890  1.0
  N  N1657  1  0.090500  0.651020  0.854820  1.0
  N  N1658  1  0.090500  0.348980  0.645180  1.0
  N  N1659  1  0.909500  0.348980  0.145180  1.0
  N  N1660  1  0.909500  0.651020  0.354820  1.0
  N  N1661  1  0.449900  0.400580  0.888300  1.0
  N  N1662  1  0.449900  0.599420  0.611700  1.0
  N  N1663  1  0.550100  0.599420  0.111700  1.0
  N  N1664  1  0.550100  0.400580  0.388300  1.0
  N  N1665  1  0.341600  0.469820  0.846750  1.0
  N  N1666  1  0.341600  0.530180  0.653250  1.0
  N  N1667  1  0.658400  0.530180  0.153250  1.0
  N  N1668  1  0.658400  0.469820  0.346750  1.0
  N  N1669  1  0.369100  0.447970  0.863760  1.0
  N  N1670  1  0.369100  0.552030  0.636240  1.0
  N  N1671  1  0.630900  0.552030  0.136240  1.0
  N  N1672  1  0.630900  0.447970  0.363760  1.0
  N  N1673  1  0.455500  0.699360  0.911470  1.0
  N  N1674  1  0.455500  0.300640  0.588530  1.0
  N  N1675  1  0.544500  0.300640  0.088530  1.0
  N  N1676  1  0.544500  0.699360  0.411470  1.0
  N  N1677  1  0.344200  0.623980  0.823350  1.0
  N  N1678  1  0.344200  0.376020  0.676650  1.0
  N  N1679  1  0.655800  0.376020  0.176650  1.0
  N  N1680  1  0.655800  0.623980  0.323350  1.0
  N  N1681  1  0.373100  0.652670  0.852790  1.0
  N  N1682  1  0.373100  0.347330  0.647210  1.0
  N  N1683  1  0.626900  0.347330  0.147210  1.0
  N  N1684  1  0.626900  0.652670  0.352790  1.0
  N  N1685  1  0.981200  0.551000  0.600650  1.0
  N  N1686  1  0.981200  0.449000  0.899350  1.0
  N  N1687  1  0.018800  0.449000  0.399350  1.0
  N  N1688  1  0.018800  0.551000  0.100650  1.0
  N  N1689  1  0.136000  0.562250  0.681110  1.0
  N  N1690  1  0.136000  0.437750  0.818890  1.0
  N  N1691  1  0.864000  0.437750  0.318890  1.0
  N  N1692  1  0.864000  0.562250  0.181110  1.0
  N  N1693  1  0.092700  0.562270  0.653320  1.0
  N  N1694  1  0.092700  0.437730  0.846680  1.0
  N  N1695  1  0.907300  0.437730  0.346680  1.0
  N  N1696  1  0.907300  0.562270  0.153320  1.0
  N  N1697  1  0.022500  0.703000  0.931230  1.0
  N  N1698  1  0.022500  0.297000  0.568770  1.0
  N  N1699  1  0.977500  0.297000  0.068770  1.0
  N  N1700  1  0.977500  0.703000  0.431230  1.0
  N  N1701  1  0.278100  0.710880  0.928550  1.0
  N  N1702  1  0.278100  0.289120  0.571450  1.0
  N  N1703  1  0.721900  0.289120  0.071450  1.0
  N  N1704  1  0.721900  0.710880  0.428550  1.0
  N  N1705  1  0.190300  0.708470  0.926570  1.0
  N  N1706  1  0.190300  0.291530  0.573430  1.0
  N  N1707  1  0.809700  0.291530  0.073430  1.0
  N  N1708  1  0.809700  0.708470  0.426570  1.0
  N  N1709  1  0.426600  0.735680  0.863280  1.0
  N  N1710  1  0.426600  0.264320  0.636720  1.0
  N  N1711  1  0.573400  0.264320  0.136720  1.0
  N  N1712  1  0.573400  0.735680  0.363280  1.0
  N  N1713  1  0.172500  0.742400  0.876440  1.0
  N  N1714  1  0.172500  0.257600  0.623560  1.0
  N  N1715  1  0.827500  0.257600  0.123560  1.0
  N  N1716  1  0.827500  0.742400  0.376440  1.0
  N  N1717  1  0.260400  0.736150  0.872070  1.0
  N  N1718  1  0.260400  0.263850  0.627930  1.0
  N  N1719  1  0.739600  0.263850  0.127930  1.0
  N  N1720  1  0.739600  0.736150  0.372070  1.0
  N  N1721  1  0.401400  0.477380  0.942320  1.0
  N  N1722  1  0.401400  0.522620  0.557680  1.0
  N  N1723  1  0.598600  0.522620  0.057680  1.0
  N  N1724  1  0.598600  0.477380  0.442320  1.0
  N  N1725  1  0.148900  0.544460  0.569530  1.0
  N  N1726  1  0.148900  0.455540  0.930470  1.0
  N  N1727  1  0.851100  0.455540  0.430470  1.0
  N  N1728  1  0.851100  0.544460  0.069530  1.0
  N  N1729  1  0.235200  0.460590  0.931330  1.0
  N  N1730  1  0.235200  0.539410  0.568670  1.0
  N  N1731  1  0.764800  0.539410  0.068670  1.0
  N  N1732  1  0.764800  0.460590  0.431330  1.0
  N  N1733  1  0.021600  0.633200  0.642520  1.0
  N  N1734  1  0.021600  0.366800  0.857480  1.0
  N  N1735  1  0.978400  0.366800  0.357480  1.0
  N  N1736  1  0.978400  0.633200  0.142520  1.0
  N  N1737  1  0.272700  0.379760  0.879990  1.0
  N  N1738  1  0.272700  0.620240  0.620010  1.0
  N  N1739  1  0.727300  0.620240  0.120010  1.0
  N  N1740  1  0.727300  0.379760  0.379990  1.0
  N  N1741  1  0.185500  0.621440  0.625960  1.0
  N  N1742  1  0.185500  0.378560  0.874040  1.0
  N  N1743  1  0.814500  0.378560  0.374040  1.0
  N  N1744  1  0.814500  0.621440  0.125960  1.0
  N  N1745  1  0.488700  0.805120  0.596030  1.0
  N  N1746  1  0.488700  0.194880  0.903970  1.0
  N  N1747  1  0.511300  0.194880  0.403970  1.0
  N  N1748  1  0.511300  0.805120  0.096030  1.0
  N  N1749  1  0.627800  0.876270  0.680500  1.0
  N  N1750  1  0.627800  0.123730  0.819500  1.0
  N  N1751  1  0.372200  0.123730  0.319500  1.0
  N  N1752  1  0.372200  0.876270  0.180500  1.0
  N  N1753  1  0.590000  0.848460  0.651960  1.0
  N  N1754  1  0.590000  0.151540  0.848040  1.0
  N  N1755  1  0.410000  0.151540  0.348040  1.0
  N  N1756  1  0.410000  0.848460  0.151960  1.0
  N  N1757  1  0.960000  0.959080  0.911210  1.0
  N  N1758  1  0.960000  0.040920  0.588790  1.0
  N  N1759  1  0.040000  0.040920  0.088790  1.0
  N  N1760  1  0.040000  0.959080  0.411210  1.0
  N  N1761  1  0.831100  0.950610  0.824530  1.0
  N  N1762  1  0.831100  0.049390  0.675470  1.0
  N  N1763  1  0.168900  0.049390  0.175470  1.0
  N  N1764  1  0.168900  0.950610  0.324530  1.0
  N  N1765  1  0.867500  0.950620  0.855230  1.0
  N  N1766  1  0.867500  0.049380  0.644770  1.0
  N  N1767  1  0.132500  0.049380  0.144770  1.0
  N  N1768  1  0.132500  0.950620  0.355230  1.0
  N  N1769  1  0.951100  0.781300  0.624830  1.0
  N  N1770  1  0.951100  0.218700  0.875170  1.0
  N  N1771  1  0.048900  0.218700  0.375170  1.0
  N  N1772  1  0.048900  0.781300  0.124830  1.0
  N  N1773  1  0.825800  0.883000  0.649130  1.0
  N  N1774  1  0.825800  0.117000  0.850870  1.0
  N  N1775  1  0.174200  0.117000  0.350870  1.0
  N  N1776  1  0.174200  0.883000  0.149130  1.0
  N  N1777  1  0.859600  0.847500  0.637280  1.0
  N  N1778  1  0.859600  0.152500  0.862720  1.0
  N  N1779  1  0.140400  0.152500  0.362720  1.0
  N  N1780  1  0.140400  0.847500  0.137280  1.0
  N  N1781  1  0.497400  0.097230  0.625730  1.0
  N  N1782  1  0.497400  0.902770  0.874270  1.0
  N  N1783  1  0.502600  0.902770  0.374270  1.0
  N  N1784  1  0.502600  0.097230  0.125730  1.0
  N  N1785  1  0.622500  0.020970  0.652880  1.0
  N  N1786  1  0.622500  0.979030  0.847120  1.0
  N  N1787  1  0.377500  0.979030  0.347120  1.0
  N  N1788  1  0.377500  0.020970  0.152880  1.0
  N  N1789  1  0.586900  0.045440  0.639650  1.0
  N  N1790  1  0.586900  0.954560  0.860350  1.0
  N  N1791  1  0.413100  0.954560  0.360350  1.0
  N  N1792  1  0.413100  0.045440  0.139650  1.0
  N  N1793  1  0.521800  0.766710  0.641990  1.0
  N  N1794  1  0.521800  0.233290  0.858010  1.0
  N  N1795  1  0.478200  0.233290  0.358010  1.0
  N  N1796  1  0.478200  0.766710  0.141990  1.0
  N  N1797  1  0.776700  0.762450  0.627090  1.0
  N  N1798  1  0.776700  0.237550  0.872910  1.0
  N  N1799  1  0.223300  0.237550  0.372910  1.0
  N  N1800  1  0.223300  0.762450  0.127090  1.0
  N  N1801  1  0.689500  0.764630  0.629660  1.0
  N  N1802  1  0.689500  0.235370  0.870340  1.0
  N  N1803  1  0.310500  0.235370  0.370340  1.0
  N  N1804  1  0.310500  0.764630  0.129660  1.0
  N  N1805  1  0.916000  0.791130  0.562340  1.0
  N  N1806  1  0.916000  0.208870  0.937660  1.0
  N  N1807  1  0.084000  0.208870  0.437660  1.0
  N  N1808  1  0.084000  0.791130  0.062340  1.0
  N  N1809  1  0.660700  0.787450  0.572030  1.0
  N  N1810  1  0.660700  0.212550  0.927970  1.0
  N  N1811  1  0.339300  0.212550  0.427970  1.0
  N  N1812  1  0.339300  0.787450  0.072030  1.0
  N  N1813  1  0.748400  0.786960  0.570300  1.0
  N  N1814  1  0.748400  0.213040  0.929700  1.0
  N  N1815  1  0.251600  0.213040  0.429700  1.0
  N  N1816  1  0.251600  0.786960  0.070300  1.0
  N  N1817  1  0.924700  0.875550  0.862650  1.0
  N  N1818  1  0.924700  0.124450  0.637350  1.0
  N  N1819  1  0.075300  0.124450  0.137350  1.0
  N  N1820  1  0.075300  0.875550  0.362650  1.0
  N  N1821  1  0.671300  0.883420  0.880220  1.0
  N  N1822  1  0.671300  0.116580  0.619780  1.0
  N  N1823  1  0.328700  0.116580  0.119780  1.0
  N  N1824  1  0.328700  0.883420  0.380220  1.0
  N  N1825  1  0.761100  0.885140  0.874210  1.0
  N  N1826  1  0.761100  0.114860  0.625790  1.0
  N  N1827  1  0.238900  0.114860  0.125790  1.0
  N  N1828  1  0.238900  0.885140  0.374210  1.0
  N  N1829  1  0.526800  0.974520  0.936150  1.0
  N  N1830  1  0.526800  0.025480  0.563850  1.0
  N  N1831  1  0.473200  0.025480  0.063850  1.0
  N  N1832  1  0.473200  0.974520  0.436150  1.0
  N  N1833  1  0.781500  0.960900  0.931570  1.0
  N  N1834  1  0.781500  0.039100  0.568430  1.0
  N  N1835  1  0.218500  0.039100  0.068430  1.0
  N  N1836  1  0.218500  0.960900  0.431570  1.0
  N  N1837  1  0.694400  0.963510  0.929780  1.0
  N  N1838  1  0.694400  0.036490  0.570220  1.0
  N  N1839  1  0.305600  0.036490  0.070220  1.0
  N  N1840  1  0.305600  0.963510  0.429780  1.0
  Cl  Cl1841  1  0.556860  0.682200  0.535950  1
  Cl  Cl1842  1  0.556860  0.317800  0.964050  1
  Cl  Cl1843  1  0.443140  0.317800  0.464050  1
  Cl  Cl1844  1  0.443140  0.682200  0.035950  1
  Cl  Cl1845  1  0.667600  0.525710  0.858460  1
  Cl  Cl1846  1  0.667600  0.474290  0.641540  1
  Cl  Cl1847  1  0.332400  0.474290  0.141540  1
  Cl  Cl1848  1  0.332400  0.525710  0.358460  1
  Cl  Cl1849  1  0.728770  0.708100  0.749710  1
  Cl  Cl1850  1  0.728770  0.291900  0.750290  1
  Cl  Cl1851  1  0.271230  0.291900  0.250290  1
  Cl  Cl1852  1  0.271230  0.708100  0.249710  1
  Cl  Cl1853  1  0.235400  0.795170  0.751990  1
  Cl  Cl1854  1  0.235400  0.204830  0.748010  1
  Cl  Cl1855  1  0.764600  0.204830  0.248010  1
  Cl  Cl1856  1  0.764600  0.795170  0.251990  1
  Cl  Cl1857  1  0.438100  0.843530  0.955200  1
  Cl  Cl1858  1  0.438100  0.156470  0.544800  1
  Cl  Cl1859  1  0.561900  0.156470  0.044800  1
  Cl  Cl1860  1  0.561900  0.843530  0.455200  1
  Cl  Cl1861  1  0.154600  0.913010  0.639430  1
  Cl  Cl1862  1  0.154600  0.086990  0.860570  1
  Cl  Cl1863  1  0.845400  0.086990  0.360570  1
  Cl  Cl1864  1  0.845400  0.913010  0.139430  1
  Cl  Cl1865  1  0.029300  0.371410  0.952590  1
  Cl  Cl1866  1  0.029300  0.628590  0.547410  1
  Cl  Cl1867  1  0.970700  0.628590  0.047410  1
  Cl  Cl1868  1  0.970700  0.371410  0.452590  1
  Cl  Cl1869  1  0.262300  0.500000  0.750000  1
  Cl  Cl1870  1  0.737700  0.500000  0.250000  1
  Cl  Cl1871  1  0.705200  0.000000  0.750000  1
  Cl  Cl1872  1  0.294800  0.000000  0.250000  1
  Cl  Cl1873  1  0.756800  0.000000  0.750000  1
  Cl  Cl1874  1  0.243200  0.000000  0.250000  1
  Cl  Cl1875  1  0.477700  0.830800  0.953100  1
  Cl  Cl1876  1  0.477700  0.169200  0.546900  1
  Cl  Cl1877  1  0.522300  0.169200  0.046900  1
  Cl  Cl1878  1  0.522300  0.830800  0.453100  1
  Cl  Cl1879  1  0.211600  0.927800  0.593900  1
  Cl  Cl1880  1  0.211600  0.072200  0.906100  1
  Cl  Cl1881  1  0.788400  0.072200  0.406100  1
  Cl  Cl1882  1  0.788400  0.927800  0.093900  1
  Cl  Cl1883  1  0.038700  0.354210  0.941610  1
  Cl  Cl1884  1  0.038700  0.645790  0.558390  1
  Cl  Cl1885  1  0.961300  0.645790  0.058390  1
  Cl  Cl1886  1  0.961300  0.354210  0.441610  1
  Cl  Cl1887  1  0.236000  0.500000  0.750000  1
  Cl  Cl1888  1  0.764000  0.500000  0.250000  1
  O  O1889  1  0.645300  0.689100  0.527700  1
  O  O1890  1  0.645300  0.310900  0.972300  1
  O  O1891  1  0.354700  0.310900  0.472300  1
  O  O1892  1  0.354700  0.689100  0.027700  1
  O  O1893  1  0.509300  0.690200  0.512170  1
  O  O1894  1  0.509300  0.309800  0.987830  1
  O  O1895  1  0.490700  0.309800  0.487830  1
  O  O1896  1  0.490700  0.690200  0.012170  1
  O  O1897  1  0.552900  0.643600  0.532190  1
  O  O1898  1  0.552900  0.356400  0.967810  1
  O  O1899  1  0.447100  0.356400  0.467810  1
  O  O1900  1  0.447100  0.643600  0.032190  1
  O  O1901  1  0.541700  0.709630  0.570870  1
  O  O1902  1  0.541700  0.290370  0.929130  1
  O  O1903  1  0.458300  0.290370  0.429130  1
  O  O1904  1  0.458300  0.709630  0.070870  1
  O  O1905  1  0.739700  0.508600  0.835910  1
  O  O1906  1  0.739700  0.491400  0.664090  1
  O  O1907  1  0.260300  0.491400  0.164090  1
  O  O1908  1  0.260300  0.508600  0.335910  1
  O  O1909  1  0.614100  0.546900  0.844100  1
  O  O1910  1  0.614100  0.453100  0.655900  1
  O  O1911  1  0.385900  0.453100  0.155900  1
  O  O1912  1  0.385900  0.546900  0.344100  1
  O  O1913  1  0.700800  0.553200  0.891360  1
  O  O1914  1  0.700800  0.446800  0.608640  1
  O  O1915  1  0.299200  0.446800  0.108640  1
  O  O1916  1  0.299200  0.553200  0.391360  1
  O  O1917  1  0.619400  0.495600  0.862900  1
  O  O1918  1  0.619400  0.504400  0.637100  1
  O  O1919  1  0.380600  0.504400  0.137100  1
  O  O1920  1  0.380600  0.495600  0.362900  1
  O  O1921  1  0.688600  0.688430  0.717280  1
  O  O1922  1  0.688600  0.311570  0.782720  1
  O  O1923  1  0.311400  0.311570  0.282720  1
  O  O1924  1  0.311400  0.688430  0.217280  1
  O  O1925  1  0.709300  0.684300  0.769370  1
  O  O1926  1  0.709300  0.315700  0.730630  1
  O  O1927  1  0.290700  0.315700  0.230630  1
  O  O1928  1  0.290700  0.684300  0.269370  1
  O  O1929  1  0.814300  0.714100  0.749200  1
  O  O1930  1  0.814300  0.285900  0.750800  1
  O  O1931  1  0.185700  0.285900  0.250800  1
  O  O1932  1  0.185700  0.714100  0.249200  1
  O  O1933  1  0.682000  0.744200  0.768200  1
  O  O1934  1  0.682000  0.255800  0.731800  1
  O  O1935  1  0.318000  0.255800  0.231800  1
  O  O1936  1  0.318000  0.744200  0.268200  1
  O  O1937  1  0.249200  0.834100  0.755400  1
  O  O1938  1  0.249200  0.165900  0.744600  1
  O  O1939  1  0.750800  0.165900  0.244600  1
  O  O1940  1  0.750800  0.834100  0.255400  1
  O  O1941  1  0.314300  0.780900  0.755500  1
  O  O1942  1  0.314300  0.219100  0.744500  1
  O  O1943  1  0.685700  0.219100  0.244500  1
  O  O1944  1  0.685700  0.780900  0.255500  1
  O  O1945  1  0.189700  0.799000  0.779690  1
  O  O1946  1  0.189700  0.201000  0.720310  1
  O  O1947  1  0.810300  0.201000  0.220310  1
  O  O1948  1  0.810300  0.799000  0.279690  1
  O  O1949  1  0.203900  0.776200  0.719930  1
  O  O1950  1  0.203900  0.223800  0.780070  1
  O  O1951  1  0.796100  0.223800  0.280070  1
  O  O1952  1  0.796100  0.776200  0.219930  1
  O  O1953  1  0.428200  0.816200  0.919600  1
  O  O1954  1  0.428200  0.183800  0.580400  1
  O  O1955  1  0.571800  0.183800  0.080400  1
  O  O1956  1  0.571800  0.816200  0.419600  1
  O  O1957  1  0.521400  0.864600  0.957200  1
  O  O1958  1  0.521400  0.135400  0.542800  1
  O  O1959  1  0.478600  0.135400  0.042800  1
  O  O1960  1  0.478600  0.864600  0.457200  1
  O  O1961  1  0.371700  0.872200  0.966400  1
  O  O1962  1  0.371700  0.127800  0.533600  1
  O  O1963  1  0.628300  0.127800  0.033600  1
  O  O1964  1  0.628300  0.872200  0.466400  1
  O  O1965  1  0.445700  0.823300  0.977100  1
  O  O1966  1  0.445700  0.176700  0.522900  1
  O  O1967  1  0.554300  0.176700  0.022900  1
  O  O1968  1  0.554300  0.823300  0.477100  1
  O  O1969  1  0.093000  0.941200  0.657700  1
  O  O1970  1  0.093000  0.058800  0.842300  1
  O  O1971  1  0.907000  0.058800  0.342300  1
  O  O1972  1  0.907000  0.941200  0.157700  1
  O  O1973  1  0.238500  0.924200  0.655300  1
  O  O1974  1  0.238500  0.075800  0.844700  1
  O  O1975  1  0.761500  0.075800  0.344700  1
  O  O1976  1  0.761500  0.924200  0.155300  1
  O  O1977  1  0.134200  0.874800  0.634200  1
  O  O1978  1  0.134200  0.125200  0.865800  1
  O  O1979  1  0.865800  0.125200  0.365800  1
  O  O1980  1  0.865800  0.874800  0.134200  1
  O  O1981  1  0.165600  0.913500  0.605200  1
  O  O1982  1  0.165600  0.086500  0.894800  1
  O  O1983  1  0.834400  0.086500  0.394800  1
  O  O1984  1  0.834400  0.913500  0.105200  1
  O  O1985  1  0.013400  0.409200  0.978600  1
  O  O1986  1  0.013400  0.590800  0.521400  1
  O  O1987  1  0.986600  0.590800  0.021400  1
  O  O1988  1  0.986600  0.409200  0.478600  1
  O  O1989  1  0.960800  0.361400  0.926500  1
  O  O1990  1  0.960800  0.638600  0.573500  1
  O  O1991  1  0.039200  0.638600  0.073500  1
  O  O1992  1  0.039200  0.361400  0.426500  1
  O  O1993  1  0.032800  0.342800  0.965600  1
  O  O1994  1  0.032800  0.657200  0.534400  1
  O  O1995  1  0.967200  0.657200  0.034400  1
  O  O1996  1  0.967200  0.342800  0.465600  1
  O  O1997  1  0.108600  0.371700  0.934400  1
  O  O1998  1  0.108600  0.628300  0.565600  1
  O  O1999  1  0.891400  0.628300  0.065600  1
  O  O2000  1  0.891400  0.371700  0.434400  1
  O  O2001  1  0.344300  0.409290  0.960540  1
  O  O2002  1  0.344300  0.590710  0.539460  1
  O  O2003  1  0.655700  0.590710  0.039460  1
  O  O2004  1  0.655700  0.409290  0.460540  1
  O  O2005  1  0.758700  0.769600  0.962600  1
  O  O2006  1  0.758700  0.230400  0.537400  1
  O  O2007  1  0.241300  0.230400  0.037400  1
  O  O2008  1  0.241300  0.769600  0.462600  1
  O  O2009  1  0.279000  0.707100  0.503600  1
  O  O2010  1  0.279000  0.292900  0.996400  1
  O  O2011  1  0.721000  0.292900  0.496400  1
  O  O2012  1  0.721000  0.707100  0.003600  1
  O  O2013  1  0.213500  0.940100  0.875900  1
  O  O2014  1  0.213500  0.059900  0.624100  1
  O  O2015  1  0.786500  0.059900  0.124100  1
  O  O2016  1  0.786500  0.940100  0.375900  1
  O  O2017  1  0.741700  0.683500  0.882400  1
  O  O2018  1  0.741700  0.316500  0.617600  1
  O  O2019  1  0.258300  0.316500  0.117600  1
  O  O2020  1  0.258300  0.683500  0.382400  1
  O  O2021  1  0.822900  0.595000  0.759010  1
  O  O2022  1  0.822900  0.405000  0.740990  1
  O  O2023  1  0.177100  0.405000  0.240990  1
  O  O2024  1  0.177100  0.595000  0.259010  1
  O  O2025  1  0.764300  0.407200  0.947500  1
  O  O2026  1  0.764300  0.592800  0.552500  1
  O  O2027  1  0.235700  0.592800  0.052500  1
  O  O2028  1  0.235700  0.407200  0.447500  1
  O  O2029  1  0.849800  0.000000  0.750000  1
  O  O2030  1  0.150200  0.000000  0.250000  1
  O  O2031  1  0.727000  0.964160  0.751100  1
  O  O2032  1  0.727000  0.035840  0.748900  1
  O  O2033  1  0.273000  0.035840  0.248900  1
  O  O2034  1  0.273000  0.964160  0.251100  1
  O  O2035  1  0.727000  0.990600  0.777750  1
  O  O2036  1  0.727000  0.009400  0.722250  1
  O  O2037  1  0.273000  0.009400  0.222250  1
  O  O2038  1  0.273000  0.990600  0.277750  1
  O  O2039  1  0.727000  0.023700  0.784600  1
  O  O2040  1  0.727000  0.976300  0.715400  1
  O  O2041  1  0.273000  0.976300  0.215400  1
  O  O2042  1  0.273000  0.023700  0.284600  1
  O  O2043  1  0.355300  0.500000  0.750000  1
  O  O2044  1  0.644700  0.500000  0.250000  1
  O  O2045  1  0.232600  0.537390  0.775200  1
  O  O2046  1  0.232600  0.462610  0.724800  1
  O  O2047  1  0.767400  0.462610  0.224800  1
  O  O2048  1  0.767400  0.537390  0.275200  1
  O  O2049  1  0.682400  0.567400  0.878200  1
  O  O2050  1  0.682400  0.432600  0.621800  1
  O  O2051  1  0.317600  0.432600  0.121800  1
  O  O2052  1  0.317600  0.567400  0.378200  1
  O  O2053  1  0.650300  0.508100  0.881700  1
  O  O2054  1  0.650300  0.491900  0.618300  1
  O  O2055  1  0.349700  0.491900  0.118300  1
  O  O2056  1  0.349700  0.508100  0.381700  1
  O  O2057  1  0.591600  0.521500  0.836600  1
  O  O2058  1  0.591600  0.478500  0.663400  1
  O  O2059  1  0.408400  0.478500  0.163400  1
  O  O2060  1  0.408400  0.521500  0.336600  1
  O  O2061  1  0.793700  0.679700  0.751000  1
  O  O2062  1  0.793700  0.320300  0.749000  1
  O  O2063  1  0.206300  0.320300  0.249000  1
  O  O2064  1  0.206300  0.679700  0.251000  1
  O  O2065  1  0.785000  0.737800  0.745300  1
  O  O2066  1  0.785000  0.262200  0.754700  1
  O  O2067  1  0.215000  0.262200  0.254700  1
  O  O2068  1  0.215000  0.737800  0.245300  1
  O  O2069  1  0.683500  0.723900  0.778410  1
  O  O2070  1  0.683500  0.276100  0.721590  1
  O  O2071  1  0.316500  0.276100  0.221590  1
  O  O2072  1  0.316500  0.723900  0.278410  1
  O  O2073  1  0.397200  0.808300  0.949000  1
  O  O2074  1  0.397200  0.191700  0.551000  1
  O  O2075  1  0.602800  0.191700  0.051000  1
  O  O2076  1  0.602800  0.808300  0.449000  1
  O  O2077  1  0.532700  0.824000  0.977000  1
  O  O2078  1  0.532700  0.176000  0.523000  1
  O  O2079  1  0.467300  0.176000  0.023000  1
  O  O2080  1  0.467300  0.824000  0.477000  1
  O  O2081  1  0.454900  0.871900  0.965900  1
  O  O2082  1  0.454900  0.128100  0.534100  1
  O  O2083  1  0.545100  0.128100  0.034100  1
  O  O2084  1  0.545100  0.871900  0.465900  1
  O  O2085  1  0.517400  0.818200  0.919500  1
  O  O2086  1  0.517400  0.181800  0.580500  1
  O  O2087  1  0.482600  0.181800  0.080500  1
  O  O2088  1  0.482600  0.818200  0.419500  1
  O  O2089  1  0.239800  0.945400  0.571500  1
  O  O2090  1  0.239800  0.054600  0.928500  1
  O  O2091  1  0.760200  0.054600  0.428500  1
  O  O2092  1  0.760200  0.945400  0.071500  1
  O  O2093  1  0.279800  0.929100  0.617300  1
  O  O2094  1  0.279800  0.070900  0.882700  1
  O  O2095  1  0.720200  0.070900  0.382700  1
  O  O2096  1  0.720200  0.929100  0.117300  1
  O  O2097  1  0.137700  0.948700  0.613900  1
  O  O2098  1  0.137700  0.051300  0.886100  1
  O  O2099  1  0.862300  0.051300  0.386100  1
  O  O2100  1  0.862300  0.948700  0.113900  1
  O  O2101  1  0.187500  0.887600  0.573300  1
  O  O2102  1  0.187500  0.112400  0.926700  1
  O  O2103  1  0.812500  0.112400  0.426700  1
  O  O2104  1  0.812500  0.887600  0.073300  1
  O  O2105  1  0.838700  0.301200  0.950600  1
  O  O2106  1  0.838700  0.698800  0.549400  1
  O  O2107  1  0.161300  0.698800  0.049400  1
  O  O2108  1  0.161300  0.301200  0.450600  1
  O  O2109  1  0.036200  0.325700  0.905900  1
  O  O2110  1  0.036200  0.674300  0.594100  1
  O  O2111  1  0.963800  0.674300  0.094100  1
  O  O2112  1  0.963800  0.325700  0.405900  1
  O  O2113  1  0.019600  0.391200  0.942600  1
  O  O2114  1  0.019600  0.608800  0.557400  1
  O  O2115  1  0.980400  0.608800  0.057400  1
  O  O2116  1  0.980400  0.391200  0.442600  1
  O  O2117  1  0.978100  0.342500  0.960300  1
  O  O2118  1  0.978100  0.657500  0.539700  1
  O  O2119  1  0.021900  0.657500  0.039700  1
  O  O2120  1  0.021900  0.342500  0.460300  1
  O  O2121  1  0.123400  0.353700  0.954300  1
  O  O2122  1  0.123400  0.646300  0.545700  1
  O  O2123  1  0.876600  0.646300  0.045700  1
  O  O2124  1  0.876600  0.353700  0.454300  1
  O  O2125  1  0.612200  0.000000  0.750000  1
  O  O2126  1  0.387800  0.000000  0.250000  1
  O  O2127  1  0.735000  0.981500  0.771700  1
  O  O2128  1  0.735000  0.018500  0.728300  1
  O  O2129  1  0.265000  0.018500  0.228300  1
  O  O2130  1  0.265000  0.981500  0.271700  1
  O  O2131  1  0.143000  0.500000  0.750000  1
  O  O2132  1  0.857000  0.500000  0.250000  1
  O  O2133  1  0.265800  0.538210  0.754500  1
  O  O2134  1  0.265800  0.461790  0.745500  1
  O  O2135  1  0.734200  0.461790  0.245500  1
  O  O2136  1  0.734200  0.538210  0.254500  1
  O  O2137  1  0.265800  0.521300  0.785030  1
  O  O2138  1  0.265800  0.478700  0.714970  1
  O  O2139  1  0.734200  0.478700  0.214970  1
  O  O2140  1  0.734200  0.521300  0.285030  1
  O  O2141  1  0.265800  0.472800  0.763600  1
  O  O2142  1  0.265800  0.527200  0.736400  1
  O  O2143  1  0.734200  0.527200  0.236400  1
  O  O2144  1  0.734200  0.472800  0.263600  1
  O  O2145  1  0.232600  0.535480  0.748200  1.0
  O  O2146  1  0.232600  0.464520  0.751800  1.0
  O  O2147  1  0.767400  0.464520  0.251800  1.0
  O  O2148  1  0.767400  0.535480  0.248200  1.0
  O  O2149  1  0.232600  0.514200  0.785260  1.0
  O  O2150  1  0.232600  0.485800  0.714740  1.0
  O  O2151  1  0.767400  0.485800  0.214740  1.0
  O  O2152  1  0.767400  0.514200  0.285260  1.0
  O  O2153  1  0.735000  0.961450  0.744400  1.0
  O  O2154  1  0.735000  0.038550  0.755600  1.0
  O  O2155  1  0.265000  0.038550  0.255600  1.0
  O  O2156  1  0.265000  0.961450  0.244400  1.0
  O  O2157  1  0.735000  0.013300  0.785190  1.0
  O  O2158  1  0.735000  0.986700  0.714810  1.0
  O  O2159  1  0.265000  0.986700  0.214810  1.0
  O  O2160  1  0.265000  0.013300  0.285190  1.0
