
#######################################################################
#
#                 Cambridge Crystallographic Data Centre
#                                CCDC 
#
#######################################################################
#
# If this CIF has been generated from an entry in the Cambridge 
# Structural Database, then it will include bibliographic, chemical, 
# crystal, experimental, refinement or atomic coordinate data resulting 
# from the CCDC's data processing and validation procedures.
#
#######################################################################

data_FEBXUH
_chemical_formula_moiety         
'C184 H144 Cu8 N48 8+,8(Cl1 O4 1-),4(C3 H6 O1),2(C3 H7 N1 O1)'
_chemical_name_systematic        
"octakis(\m~2~-3-(Pyridin-2-yl)-1H-pyrazol-1-yl)-tetrakis(\m~2~-2,2'-bis((3-(pyridin-2-yl)-1H-pyrazol-1-yl)methyl)biphenyl)-octa-copper(ii) octaperchlorate acetone N,N-dimethylformamide unknown solvate"
_symmetry_cell_setting           monoclinic
_symmetry_space_group_name_H-M   'P 2/c'
_symmetry_Int_Tables_number      13
_space_group_name_Hall           '-P 2yc'
loop_
_symmetry_equiv_pos_site_id
_symmetry_equiv_pos_as_xyz
1 x,y,z
2 -x,y,1/2-z
3 -x,-y,-z
4 x,-y,1/2+z
_cell_length_a                   37.5021(11)
_cell_length_b                   15.4876(4)
_cell_length_c                   42.4530(12)
_cell_angle_alpha                90
_cell_angle_beta                 114.594(1)
_cell_angle_gamma                90
_cell_volume                     22420.5
_exptl_crystal_colour            green
_exptl_crystal_description       block
_cell_formula_units_Z            4
loop_
_atom_site_label
_atom_site_type_symbol
_atom_site_fract_x
_atom_site_fract_y
_atom_site_fract_z
Cu1 Cu 0.28696(3) 0.89915(6) 0.10386(2)
Cu2 Cu 0.57140(3) 0.66298(6) 0.09212(2)
Cu3 Cu 0.28422(2) 0.64905(6) 0.10742(2)
Cu4 Cu 0.41528(3) 0.91112(6) 0.39056(2)
N25 N 0.28388(17) 1.0033(4) 0.13131(15)
C93 C 0.3162(2) 1.0268(5) 0.15992(18)
C94 C 0.3153(3) 1.0983(5) 0.1786(2)
H73 H 0.3376 1.1124 0.1992
C95 C 0.2826(3) 1.1499(5) 0.1680(2)
H74 H 0.2825 1.2011 0.1803
C96 C 0.2495(3) 1.1257(5) 0.1388(2)
H75 H 0.2261 1.1589 0.1314
C97 C 0.2510(2) 1.0522(5) 0.1205(2)
H76 H 0.2287 1.0362 0.1001
N26 N 0.38507(17) 0.8737(4) 0.15811(17)
N27 N 0.34898(17) 0.9095(4) 0.14518(15)
C98 C 0.3507(2) 0.9717(5) 0.16821(19)
C99 C 0.3881(2) 0.9734(6) 0.19549(19)
H77 H 0.3971 1.0106 0.2150
C100 C 0.4087(2) 0.9112(5) 0.18821(19)
H78 H 0.4353 0.8964 0.2020
C101 C 0.3963(2) 0.8175(5) 0.1365(2)
H79 H 0.3735 0.7817 0.1219
H80 H 0.4173 0.7781 0.1515
N28 N 0.59942(16) 0.5501(4) 0.11170(15)
C102 C 0.5974(2) 0.5171(5) 0.14072(18)
C103 C 0.6183(2) 0.4429(5) 0.1562(2)
H81 H 0.6172 0.4207 0.1767
C104 C 0.6408(3) 0.4015(6) 0.1419(2)
H82 H 0.6554 0.3514 0.1526
C105 C 0.6416(2) 0.4342(6) 0.1117(2)
H83 H 0.6561 0.4062 0.1009
C106 C 0.6205(2) 0.5089(5) 0.09774(18)
H84 H 0.6211 0.5317 0.0772
N29 N 0.53018(16) 0.6584(4) 0.15325(14)
N30 N 0.55203(16) 0.6309(4) 0.13624(14)
C107 C 0.5726(2) 0.5630(5) 0.15393(18)
C108 C 0.5648(2) 0.5469(5) 0.18319(18)
H85 H 0.5761 0.5035 0.2003
C109 C 0.5373(2) 0.6075(5) 0.18167(19)
H86 H 0.5254 0.6130 0.1974
C110 C 0.49909(19) 0.7204(4) 0.13721(18)
H87 H 0.5078 0.7650 0.1252
H88 H 0.4932 0.7494 0.1553
C111 C 0.4280(2) 0.8244(5) 0.09484(18)
C112 C 0.4106(2) 0.8673(5) 0.11333(19)
C113 C 0.4079(2) 0.9577(6) 0.1111(2)
H89 H 0.3965 0.9873 0.1241
C114 C 0.4213(2) 1.0053(7) 0.0906(3)
H90 H 0.4186 1.0663 0.0891
C115 C 0.4387(2) 0.9613(6) 0.0725(2)
H91 H 0.4483 0.9926 0.0585
C116 C 0.4424(2) 0.8713(6) 0.0744(2)
H92 H 0.4546 0.8421 0.0619
C117 C 0.4291(2) 0.7276(5) 0.09276(18)
C118 C 0.46171(19) 0.6764(5) 0.11101(16)
C119 C 0.4602(2) 0.5878(5) 0.10505(19)
H93 H 0.4825 0.5530 0.1176
C120 C 0.4267(2) 0.5504(5) 0.08109(19)
H94 H 0.4257 0.4900 0.0771
C121 C 0.3941(2) 0.6015(7) 0.06277(19)
H95 H 0.3711 0.5757 0.0458
C122 C 0.3947(2) 0.6877(7) 0.0689(2)
H96 H 0.3718 0.7213 0.0569
N31 N 0.30064(19) 0.5445(4) 0.08853(15)
C123 C 0.3376(2) 0.5184(5) 0.1036(2)
C124 C 0.3506(3) 0.4466(5) 0.0920(2)
H97 H 0.3769 0.4272 0.1038
C125 C 0.3245(3) 0.4033(6) 0.0630(2)
H98 H 0.3330 0.3551 0.0540
C126 C 0.2865(3) 0.4311(6) 0.0475(2)
H99 H 0.2678 0.4018 0.0279
C127 C 0.2760(3) 0.5004(5) 0.06044(19)
H100 H 0.2496 0.5197 0.0492
N32 N 0.37602(15) 0.6558(3) 0.17665(13)
N33 N 0.34733(15) 0.6269(3) 0.14721(14)
C128 C 0.3633(2) 0.5657(4) 0.13506(17)
C129 C 0.4033(2) 0.5562(4) 0.15668(18)
H101 H 0.4217 0.5193 0.1533
C130 C 0.4104(2) 0.6126(4) 0.18427(19)
H102 H 0.4343 0.6196 0.2043
C131 C 0.3661(2) 0.7084(4) 0.20038(17)
H103 H 0.3445 0.7482 0.1867
H104 H 0.3891 0.7438 0.2147
N34 N 0.4490(2) 1.0188(4) 0.39935(15)
C132 C 0.4686(2) 1.0335(5) 0.37942(19)
C133 C 0.4890(3) 1.1101(6) 0.3826(2)
H105 H 0.5033 1.1194 0.3689
C134 C 0.4888(3) 1.1740(7) 0.4060(2)
H106 H 0.5023 1.2269 0.4080
C135 C 0.4684(3) 1.1584(7) 0.4260(2)
H107 H 0.4676 1.2000 0.4422
C136 C 0.4491(3) 1.0804(6) 0.4218(2)
H108 H 0.4351 1.0695 0.4356
N35 N 0.43775(17) 0.8640(4) 0.31889(13)
N36 N 0.43773(17) 0.9073(4) 0.34668(13)
C137 C 0.4636(2) 0.9696(5) 0.35280(18)
C138 C 0.4808(2) 0.9672(6) 0.3289(2)
H109 H 0.5003 1.0048 0.3277
C139 C 0.4635(2) 0.8997(6) 0.30817(19)
H110 H 0.4685 0.8805 0.2892
C140 C 0.4070(2) 0.8024(5) 0.30105(17)
H111 H 0.3998 0.7724 0.3182
H112 H 0.4170 0.7586 0.2897
C141 C 0.3430(2) 0.6972(5) 0.24795(16)
C142 C 0.35368(19) 0.6555(4) 0.22402(16)
C143 C 0.3521(2) 0.5653(4) 0.22206(17)
H113 H 0.3592 0.5364 0.2058
C144 C 0.3403(2) 0.5179(5) 0.24355(17)
H114 H 0.3398 0.4566 0.2423
C145 C 0.3291(2) 0.5597(5) 0.2670(2)
H115 H 0.3204 0.5275 0.2814
C146 C 0.3309(2) 0.6495(5) 0.26896(19)
H116 H 0.3236 0.6782 0.2852
C147 C 0.3407(2) 0.7935(5) 0.24928(16)
C148 C 0.3708(2) 0.8442(4) 0.27400(16)
C149 C 0.3662(2) 0.9339(5) 0.27395(18)
H117 H 0.3861 0.9681 0.2907
C150 C 0.3326(2) 0.9736(5) 0.24963(18)
H118 H 0.3296 1.0345 0.2497
C151 C 0.3034(2) 0.9230(5) 0.22525(18)
H119 H 0.2806 0.9496 0.2084
C152 C 0.3074(2) 0.8347(5) 0.22548(17)
H120 H 0.2870 0.8010 0.2090
N37 N 0.29700(17) 0.9775(4) 0.06877(15)
C153 C 0.3015(2) 0.9325(5) 0.04385(18)
C154 C 0.3100(2) 0.9716(5) 0.01844(19)
H121 H 0.3124 0.9385 0.0006
C155 C 0.3149(2) 1.0615(6) 0.0198(2)
H122 H 0.3219 1.0905 0.0035
C156 C 0.3094(3) 1.1063(5) 0.0451(2)
H123 H 0.3113 1.1675 0.0457
C157 C 0.3012(2) 1.0640(5) 0.0694(2)
H124 H 0.2984 1.0963 0.0873
N38 N 0.28912(16) 0.7219(4) 0.07145(14)
N39 N 0.29153(16) 0.8097(4) 0.07343(14)
C158 C 0.2974(2) 0.8396(5) 0.04604(17)
C159 C 0.2978(2) 0.7693(5) 0.02516(17)
H125 H 0.3007 0.7707 0.0040
C160 C 0.2932(2) 0.6994(5) 0.04225(17)
H126 H 0.2928 0.6415 0.0347
N40 N 0.26432(17) 0.5734(4) 0.13672(15)
C161 C 0.2483(2) 0.6180(5) 0.15444(18)
C162 C 0.2375(2) 0.5816(5) 0.17904(19)
H127 H 0.2260 0.6149 0.1912
C163 C 0.2445(2) 0.4932(5) 0.1849(2)
H128 H 0.2385 0.4660 0.2022
C164 C 0.2597(2) 0.4449(5) 0.1666(2)
H129 H 0.2632 0.3843 0.1700
C165 C 0.2702(2) 0.4889(5) 0.14238(19)
H130 H 0.2817 0.4571 0.1298
N41 N 0.25760(17) 0.8275(4) 0.12356(15)
N42 N 0.26385(17) 0.7396(4) 0.12793(14)
C166 C 0.24446(19) 0.7112(5) 0.14603(17)
C167 C 0.2252(2) 0.7778(5) 0.15348(18)
H131 H 0.2091 0.7753 0.1658
C168 C 0.2346(2) 0.8492(5) 0.13921(18)
H132 H 0.2258 0.9062 0.1403
N43 N 0.52262(18) 0.5986(4) 0.05768(15)
N44 N 0.45554(18) 0.8511(4) 0.43047(14)
C169 C 0.4963(2) 0.6544(6) 0.03416(18)
C170 C 0.4613(2) 0.6241(7) 0.0089(2)
H133 H 0.4428 0.6622 -0.0071
C171 C 0.4544(3) 0.5341(7) 0.0079(2)
H134 H 0.4309 0.5113 -0.0095
C172 C 0.4805(2) 0.4796(6) 0.0314(2)
H135 H 0.4756 0.4194 0.0308
C173 C 0.5142(2) 0.5146(6) 0.0557(2)
H136 H 0.5326 0.4769 0.0722
N45 N 0.53941(18) 0.7648(4) 0.06867(14)
C174 C 0.5072(2) 0.7430(6) 0.03951(17)
C175 C 0.4920(2) 0.8177(6) 0.02102(19)
H137 H 0.4698 0.8226 -0.0005
C176 C 0.4840(2) 0.8841(6) 0.45950(19)
H138 H 0.4871 0.9435 0.4657
N46 N 0.36680(18) 0.9784(4) 0.35748(16)
C177 C 0.3356(2) 0.9251(5) 0.34037(19)
C178 C 0.2997(2) 0.9567(5) 0.3148(2)
H139 H 0.2781 0.9195 0.3030
C179 C 0.2976(3) 1.0448(5) 0.3076(2)
H140 H 0.2742 1.0687 0.2905
C180 C 0.3284(3) 1.0961(5) 0.3247(2)
H141 H 0.3267 1.1562 0.3198
C181 C 0.3624(3) 1.0620(5) 0.3494(2)
H142 H 0.3837 1.0999 0.3612
N47 N 0.62024(16) 0.7273(4) 0.12001(14)
N48 N 0.37856(17) 0.8145(4) 0.37404(14)
C182 C 0.3422(2) 0.8345(4) 0.35027(17)
C183 C 0.3193(2) 0.7614(5) 0.34043(17)
H143 H 0.2927 0.7572 0.3242
C184 C 0.6565(2) 0.6960(5) 0.14077(18)
H144 H 0.6640 0.6371 0.1420
Cu1A Cu 0.71304(3) 0.89915(6) 0.39614(2)
Cu2A Cu 0.42860(3) 0.66298(6) 0.40788(2)
Cu3A Cu 0.71578(2) 0.64905(6) 0.39258(2)
Cu4A Cu 0.58472(3) 0.91112(6) 0.10944(2)
N25A N 0.71612(17) 1.0033(4) 0.36869(15)
C93A C 0.6838(2) 1.0268(5) 0.34008(18)
C94A C 0.6847(3) 1.0983(5) 0.3214(2)
H73A H 0.6624 1.1124 0.3008
C95A C 0.7174(3) 1.1499(5) 0.3320(2)
H74A H 0.7175 1.2011 0.3197
C96A C 0.7505(3) 1.1257(5) 0.3612(2)
H75A H 0.7739 1.1589 0.3686
C97A C 0.7490(2) 1.0522(5) 0.3795(2)
H76A H 0.7713 1.0362 0.3999
N26A N 0.61493(17) 0.8737(4) 0.34189(17)
N27A N 0.65102(17) 0.9095(4) 0.35482(15)
C98A C 0.6493(2) 0.9717(5) 0.33179(19)
C99A C 0.6119(2) 0.9734(6) 0.30451(19)
H77A H 0.6029 1.0106 0.2850
C100A C 0.5913(2) 0.9112(5) 0.31179(19)
H78A H 0.5647 0.8964 0.2980
C101A C 0.6037(2) 0.8175(5) 0.3635(2)
H79A H 0.6265 0.7817 0.3781
H80A H 0.5827 0.7781 0.3485
N28A N 0.40058(16) 0.5501(4) 0.38830(15)
C102A C 0.4026(2) 0.5171(5) 0.35928(18)
C103A C 0.3817(2) 0.4429(5) 0.3438(2)
H81A H 0.3828 0.4207 0.3233
C104A C 0.3592(3) 0.4015(6) 0.3581(2)
H82A H 0.3446 0.3514 0.3474
C105A C 0.3584(2) 0.4342(6) 0.3883(2)
H83A H 0.3439 0.4062 0.3991
C106A C 0.3795(2) 0.5089(5) 0.40226(18)
H84A H 0.3789 0.5317 0.4228
N29A N 0.46982(16) 0.6584(4) 0.34675(14)
N30A N 0.44797(16) 0.6309(4) 0.36376(14)
C107A C 0.4274(2) 0.5630(5) 0.34607(18)
C108A C 0.4352(2) 0.5469(5) 0.31681(18)
H85A H 0.4239 0.5035 0.2997
C109A C 0.4627(2) 0.6075(5) 0.31833(19)
H86A H 0.4746 0.6130 0.3026
C110A C 0.50091(19) 0.7204(4) 0.36279(18)
H87A H 0.4922 0.7650 0.3748
H88A H 0.5068 0.7494 0.3447
C111A C 0.5720(2) 0.8244(5) 0.40516(18)
C112A C 0.5894(2) 0.8673(5) 0.38667(19)
C113A C 0.5921(2) 0.9577(6) 0.3889(2)
H89A H 0.6035 0.9873 0.3759
C114A C 0.5787(2) 1.0053(7) 0.4094(3)
H90A H 0.5814 1.0663 0.4109
C115A C 0.5613(2) 0.9613(6) 0.4275(2)
H91A H 0.5517 0.9926 0.4415
C116A C 0.5576(2) 0.8713(6) 0.4256(2)
H92A H 0.5454 0.8421 0.4381
C117A C 0.5709(2) 0.7276(5) 0.40724(18)
C118A C 0.53829(19) 0.6764(5) 0.38899(16)
C119A C 0.5398(2) 0.5878(5) 0.39495(19)
H93A H 0.5175 0.5530 0.3824
C120A C 0.5733(2) 0.5504(5) 0.41891(19)
H94A H 0.5743 0.4900 0.4229
C121A C 0.6059(2) 0.6015(7) 0.43723(19)
H95A H 0.6289 0.5757 0.4542
C122A C 0.6053(2) 0.6877(7) 0.4311(2)
H96A H 0.6282 0.7213 0.4431
N31A N 0.69936(19) 0.5445(4) 0.41147(15)
C123A C 0.6624(2) 0.5184(5) 0.3964(2)
C124A C 0.6494(3) 0.4466(5) 0.4080(2)
H97A H 0.6231 0.4272 0.3962
C125A C 0.6755(3) 0.4033(6) 0.4370(2)
H98A H 0.6670 0.3551 0.4460
C126A C 0.7135(3) 0.4311(6) 0.4525(2)
H99A H 0.7322 0.4018 0.4721
C127A C 0.7240(3) 0.5004(5) 0.43956(19)
H100A H 0.7504 0.5197 0.4508
N32A N 0.62398(15) 0.6558(3) 0.32335(13)
N33A N 0.65267(15) 0.6269(3) 0.35279(14)
C128A C 0.6367(2) 0.5657(4) 0.36494(17)
C129A C 0.5967(2) 0.5562(4) 0.34332(18)
H101A H 0.5783 0.5193 0.3467
C130A C 0.5896(2) 0.6126(4) 0.31573(19)
H102A H 0.5657 0.6196 0.2957
C131A C 0.6339(2) 0.7084(4) 0.29962(17)
H103A H 0.6555 0.7482 0.3133
H104A H 0.6109 0.7438 0.2853
N34A N 0.5510(2) 1.0188(4) 0.10065(15)
C132A C 0.5314(2) 1.0335(5) 0.12058(19)
C133A C 0.5110(3) 1.1101(6) 0.1174(2)
H105A H 0.4967 1.1194 0.1311
C134A C 0.5112(3) 1.1740(7) 0.0940(2)
H106A H 0.4977 1.2269 0.0920
C135A C 0.5316(3) 1.1584(7) 0.0740(2)
H107A H 0.5324 1.2000 0.0578
C136A C 0.5509(3) 1.0804(6) 0.0782(2)
H108A H 0.5649 1.0695 0.0644
N35A N 0.56225(17) 0.8640(4) 0.18111(13)
N36A N 0.56227(17) 0.9073(4) 0.15332(13)
C137A C 0.5364(2) 0.9696(5) 0.14720(18)
C138A C 0.5192(2) 0.9672(6) 0.1711(2)
H109A H 0.4997 1.0048 0.1723
C139A C 0.5365(2) 0.8997(6) 0.19183(19)
H110A H 0.5315 0.8805 0.2108
C140A C 0.5930(2) 0.8024(5) 0.19895(17)
H111A H 0.6002 0.7724 0.1818
H112A H 0.5830 0.7586 0.2103
C141A C 0.6570(2) 0.6972(5) 0.25205(16)
C142A C 0.64632(19) 0.6555(4) 0.27598(16)
C143A C 0.6479(2) 0.5653(4) 0.27794(17)
H113A H 0.6408 0.5364 0.2942
C144A C 0.6597(2) 0.5179(5) 0.25645(17)
H114A H 0.6602 0.4566 0.2577
C145A C 0.6709(2) 0.5597(5) 0.2330(2)
H115A H 0.6796 0.5275 0.2186
C146A C 0.6691(2) 0.6495(5) 0.23104(19)
H116A H 0.6764 0.6782 0.2148
C147A C 0.6593(2) 0.7935(5) 0.25072(16)
C148A C 0.6292(2) 0.8442(4) 0.22600(16)
C149A C 0.6338(2) 0.9339(5) 0.22605(18)
H117A H 0.6139 0.9681 0.2093
C150A C 0.6674(2) 0.9736(5) 0.25037(18)
H118A H 0.6704 1.0345 0.2503
C151A C 0.6966(2) 0.9230(5) 0.27475(18)
H119A H 0.7194 0.9496 0.2916
C152A C 0.6926(2) 0.8347(5) 0.27452(17)
H120A H 0.7130 0.8010 0.2910
N37A N 0.70300(17) 0.9775(4) 0.43123(15)
C153A C 0.6985(2) 0.9325(5) 0.45615(18)
C154A C 0.6900(2) 0.9716(5) 0.48156(19)
H121A H 0.6876 0.9385 0.4994
C155A C 0.6851(2) 1.0615(6) 0.4802(2)
H122A H 0.6781 1.0905 0.4965
C156A C 0.6906(3) 1.1063(5) 0.4549(2)
H123A H 0.6887 1.1675 0.4543
C157A C 0.6988(2) 1.0640(5) 0.4306(2)
H124A H 0.7016 1.0963 0.4127
N38A N 0.71088(16) 0.7219(4) 0.42855(14)
N39A N 0.70847(16) 0.8097(4) 0.42657(14)
C158A C 0.7026(2) 0.8396(5) 0.45396(17)
C159A C 0.7022(2) 0.7693(5) 0.47484(17)
H125A H 0.6993 0.7707 0.4960
C160A C 0.7068(2) 0.6994(5) 0.45775(17)
H126A H 0.7072 0.6415 0.4653
N40A N 0.73568(17) 0.5734(4) 0.36328(15)
C161A C 0.7517(2) 0.6180(5) 0.34556(18)
C162A C 0.7625(2) 0.5816(5) 0.32096(19)
H127A H 0.7740 0.6149 0.3088
C163A C 0.7555(2) 0.4932(5) 0.3151(2)
H128A H 0.7615 0.4660 0.2978
C164A C 0.7403(2) 0.4449(5) 0.3334(2)
H129A H 0.7368 0.3843 0.3300
C165A C 0.7298(2) 0.4889(5) 0.35762(19)
H130A H 0.7183 0.4571 0.3702
N41A N 0.74240(17) 0.8275(4) 0.37644(15)
N42A N 0.73615(17) 0.7396(4) 0.37207(14)
C166A C 0.75554(19) 0.7112(5) 0.35397(17)
C167A C 0.7748(2) 0.7778(5) 0.34652(18)
H131A H 0.7909 0.7753 0.3342
C168A C 0.7654(2) 0.8492(5) 0.36079(18)
H132A H 0.7742 0.9062 0.3597
N43A N 0.47738(18) 0.5986(4) 0.44232(15)
N44A N 0.54446(18) 0.8511(4) 0.06953(14)
C169A C 0.5037(2) 0.6544(6) 0.46584(18)
C170A C 0.5387(2) 0.6241(7) 0.4911(2)
H133A H 0.5572 0.6622 0.5071
C171A C 0.5456(3) 0.5341(7) 0.4921(2)
H134A H 0.5691 0.5113 0.5095
C172A C 0.5195(2) 0.4796(6) 0.4686(2)
H135A H 0.5244 0.4194 0.4692
C173A C 0.4858(2) 0.5146(6) 0.4443(2)
H136A H 0.4674 0.4769 0.4278
N45A N 0.46059(18) 0.7648(4) 0.43133(14)
C174A C 0.4928(2) 0.7430(6) 0.46049(17)
C175A C 0.5080(2) 0.8177(6) 0.47898(19)
H137A H 0.5302 0.8226 0.5005
C176A C 0.5160(2) 0.8841(6) 0.04050(19)
H138A H 0.5129 0.9435 0.0343
N46A N 0.63320(18) 0.9784(4) 0.14252(16)
C177A C 0.6644(2) 0.9251(5) 0.15963(19)
C178A C 0.7003(2) 0.9567(5) 0.1852(2)
H139A H 0.7219 0.9195 0.1970
C179A C 0.7024(3) 1.0448(5) 0.1924(2)
H140A H 0.7258 1.0687 0.2095
C180A C 0.6716(3) 1.0961(5) 0.1753(2)
H141A H 0.6733 1.1562 0.1802
C181A C 0.6376(3) 1.0620(5) 0.1506(2)
H142A H 0.6163 1.0999 0.1388
N47A N 0.37976(16) 0.7273(4) 0.37999(14)
N48A N 0.62144(17) 0.8145(4) 0.12596(14)
C182A C 0.6578(2) 0.8345(4) 0.14973(17)
C183A C 0.6807(2) 0.7614(5) 0.15957(17)
H143A H 0.7073 0.7572 0.1758
C184A C 0.3435(2) 0.6960(5) 0.35923(18)
H144A H 0.3360 0.6371 0.3580
N1 N 0.19488(19) 0.5113(4) 0.40397(16)
C1 C 0.1562(3) 0.5313(5) 0.3851(2)
C2 C 0.1404(3) 0.6037(6) 0.3923(3)
H1 H 0.1136 0.6174 0.3790
C3 C 0.1628(4) 0.6556(8) 0.4182(3)
H2 H 0.1518 0.7059 0.4234
C4 C 0.2029(4) 0.6359(7) 0.4379(3)
H3 H 0.2192 0.6726 0.4562
C5 C 0.2171(3) 0.5642(6) 0.4299(2)
H4 H 0.2439 0.5498 0.4430
N2 N 0.12373(18) 0.3722(4) 0.31950(15)
N3 N 0.15154(18) 0.4100(4) 0.34804(16)
C6 C 0.0888(3) 0.4105(6) 0.3104(2)
H5 H 0.0652 0.3943 0.2914
C7 C 0.0928(2) 0.4767(7) 0.3329(2)
H6 H 0.0733 0.5159 0.3329
C8 C 0.1341(2) 0.4731(5) 0.3569(2)
C9 C 0.1352(2) 0.3108(5) 0.30001(18)
H7 H 0.1135 0.2695 0.2884
H8 H 0.1582 0.2778 0.3160
N4 N 0.04092(19) 0.0400(3) 0.08879(16)
C10 C 0.0152(2) 0.0242(4) 0.10407(15)
C11 C -0.0108(2) -0.0448(5) 0.09288(19)
H9 H -0.0284 -0.0556 0.1033
C12 C -0.0111(2) -0.0980(4) 0.06640(19)
H10 H -0.0288 -0.1451 0.0588
C13 C 0.0146(2) -0.0822(4) 0.05112(16)
H11 H 0.0145 -0.1185 0.0330
C14 C 0.0406(2) -0.0132(5) 0.06231(17)
H12 H 0.0582 -0.0024 0.0519
N5 N 0.04939(13) 0.1689(3) 0.17547(11)
N6 N 0.04938(13) 0.1325(3) 0.14477(12)
C15 C 0.01883(17) 0.0703(3) 0.13210(13)
C16 C -0.00003(14) 0.0683(4) 0.15497(17)
H13 H -0.0215 0.0324 0.1527
C17 C 0.01886(16) 0.1292(4) 0.18178(14)
H14 H 0.0122 0.1413 0.2006
C18 C 0.0804(2) 0.2194(5) 0.19707(19)
H15 H 0.0712 0.2577 0.2108
H16 H 0.0893 0.2564 0.1828
C19 C 0.1509(2) 0.3066(6) 0.24734(18)
C20 C 0.1456(2) 0.3552(5) 0.27277(18)
C21 C 0.1514(2) 0.4450(5) 0.27356(18)
H17 H 0.1484 0.4790 0.2909
C22 C 0.1614(2) 0.4841(5) 0.24878(19)
H18 H 0.1646 0.5450 0.2490
C23 C 0.1669(2) 0.4356(6) 0.22419(19)
H19 H 0.1747 0.4623 0.2079
C24 C 0.1611(2) 0.3503(6) 0.2233(2)
H20 H 0.1640 0.3177 0.2056
C25 C 0.1475(2) 0.2082(5) 0.24511(19)
C26 C 0.1146(2) 0.1661(5) 0.22151(18)
C27 C 0.1144(2) 0.0759(5) 0.21942(19)
H21 H 0.0921 0.0473 0.2027
C28 C 0.1460(2) 0.0278(6) 0.24132(19)
H22 H 0.1455 -0.0335 0.2401
C29 C 0.1788(3) 0.0714(6) 0.2655(2)
H23 H 0.2006 0.0391 0.2809
C30 C 0.1797(2) 0.1592(7) 0.2672(2)
H24 H 0.2024 0.1876 0.2834
N7 N 0.2187(2) 0.0489(4) 0.37517(19)
C31 C 0.1845(2) 0.0201(5) 0.3482(2)
C32 C 0.1848(3) -0.0553(5) 0.33063(19)
H25 H 0.1615 -0.0750 0.3122
C33 C 0.2194(3) -0.1020(4) 0.3400(2)
H26 H 0.2196 -0.1535 0.3279
C34 C 0.2536(3) -0.0732(5) 0.3669(2)
H27 H 0.2773 -0.1051 0.3733
C35 C 0.2533(2) 0.0023(5) 0.3845(2)
H28 H 0.2767 0.0219 0.4029
N8 N 0.1170(2) 0.1742(5) 0.35087(17)
N9 N 0.1525(2) 0.1404(4) 0.36272(17)
C36 C 0.1505(4) 0.0743(7) 0.3404(3)
C37 C 0.1135(4) 0.0657(8) 0.3153(3)
H29 H 0.1042 0.0240 0.2973
C38 C 0.0921(3) 0.1317(7) 0.3219(3)
H30 H 0.0652 0.1445 0.3087
C39 C 0.1078(2) 0.2361(6) 0.3727(2)
H31 H 0.0854 0.2725 0.3578
H32 H 0.1307 0.2744 0.3844
N10 N -0.09723(18) 0.5026(4) 0.37427(17)
C40 C -0.0928(2) 0.5268(5) 0.3456(2)
C41 C -0.1115(2) 0.5990(5) 0.3268(2)
H33 H -0.1078 0.6159 0.3069
C42 C -0.1359(3) 0.6464(6) 0.3374(3)
H34 H -0.1500 0.6946 0.3242
C43 C -0.1397(2) 0.6234(6) 0.3671(2)
H35 H -0.1551 0.6572 0.3754
C44 C -0.1203(2) 0.5488(6) 0.3852(2)
H36 H -0.1235 0.5311 0.4053
N11 N -0.02097(17) 0.3775(4) 0.34712(15)
N12 N -0.04544(17) 0.4131(4) 0.36035(15)
C45 C -0.0659(2) 0.4730(5) 0.33673(19)
C46 C -0.0553(2) 0.4785(5) 0.30930(19)
H37 H -0.0657 0.5159 0.2898
C47 C -0.0262(2) 0.4174(6) 0.31658(19)
H38 H -0.0122 0.4050 0.3029
C48 C 0.0121(2) 0.3238(5) 0.36942(19)
H39 H 0.0211 0.2879 0.3549
H40 H 0.0034 0.2846 0.3833
C49 C 0.0848(2) 0.2410(6) 0.4204(3)
C50 C 0.0976(2) 0.1915(6) 0.4000(2)
C51 C 0.1028(2) 0.1037(7) 0.4051(2)
H41 H 0.1110 0.0705 0.3904
C52 C 0.0961(3) 0.0620(7) 0.4320(3)
H42 H 0.1001 0.0015 0.4355
C53 C 0.0844(4) 0.1084(9) 0.4520(3)
H43 H 0.0795 0.0806 0.4697
C54 C 0.0787(4) 0.2037(8) 0.4473(3)
H44 H 0.0713 0.2373 0.4623
C55 C 0.0803(2) 0.3395(6) 0.4180(2)
C56 C 0.0461(2) 0.3793(6) 0.3937(2)
C57 C 0.0435(2) 0.4678(6) 0.3934(2)
H45 H 0.0208 0.4956 0.3769
C58 C 0.0739(2) 0.5171(7) 0.4172(2)
H46 H 0.0719 0.5783 0.4161
C59 C 0.1064(3) 0.4799(9) 0.4419(3)
H47 H 0.1267 0.5140 0.4583
C60 C 0.1087(3) 0.3904(9) 0.4422(3)
H48 H 0.1307 0.3632 0.4597
N13 N 0.23329(17) 0.4782(4) 0.35801(15)
C61 C 0.24866(19) 0.4276(5) 0.33995(18)
C62 C 0.2590(2) 0.4654(5) 0.31559(19)
H49 H 0.2694 0.4303 0.3031
C63 C 0.2548(2) 0.5512(5) 0.3090(2)
H50 H 0.2621 0.5761 0.2921
C64 C 0.2398(2) 0.6011(5) 0.3271(2)
H51 H 0.2366 0.6616 0.3233
C65 C 0.2293(2) 0.5607(5) 0.3512(2)
H52 H 0.2185 0.5954 0.3635
N14 N 0.23755(17) 0.2233(4) 0.37291(16)
N15 N 0.23537(17) 0.3105(4) 0.37034(16)
C66 C 0.24958(19) 0.3358(5) 0.34728(18)
C67 C 0.2628(2) 0.2636(5) 0.33522(18)
H53 H 0.2749 0.2618 0.3195
C68 C 0.2541(2) 0.1962(5) 0.35179(18)
H54 H 0.2592 0.1374 0.3488
N16 N 0.20887(16) 0.0840(4) 0.43766(12)
C69 C 0.20775(16) 0.1356(3) 0.46402(15)
C70 C 0.20342(17) 0.0981(4) 0.49197(12)
H55 H 0.2027 0.1334 0.5100
C71 C 0.20020(18) 0.0090(4) 0.49355(14)
H56 H 0.1972 -0.0167 0.5126
C72 C 0.20131(19) -0.0427(3) 0.46719(17)
H57 H 0.1991 -0.1036 0.4683
C73 C 0.20564(18) -0.0051(4) 0.43925(14)
H58 H 0.2064 -0.0404 0.4212
N17 N 0.21255(18) 0.3393(5) 0.42797(16)
N18 N 0.21304(18) 0.2516(5) 0.42970(17)
C74 C 0.2089(2) 0.2261(6) 0.4583(2)
C75 C 0.2064(2) 0.2978(7) 0.4757(2)
H59 H 0.2038 0.2993 0.4970
C76 C 0.2083(2) 0.3675(7) 0.45664(19)
H60 H 0.2068 0.4262 0.4625
N19 N 0.12445(15) 0.0753(4) 0.13735(12)
C77 C 0.15762(18) 0.1244(3) 0.15590(15)
C78 C 0.19072(14) 0.0856(4) 0.18091(15)
H61 H 0.2134 0.1192 0.1936
C79 C 0.19064(15) -0.0023(4) 0.18738(14)
H62 H 0.2133 -0.0288 0.2045
C80 C 0.15747(19) -0.0515(3) 0.16884(17)
H63 H 0.1574 -0.1116 0.1733
C81 C 0.12437(16) -0.0127(4) 0.14383(15)
H64 H 0.1017 -0.0463 0.1312
N20 N 0.11658(13) 0.3287(3) 0.11978(12)
N21 N 0.11486(13) 0.2389(3) 0.12579(13)
C82 C 0.15355(16) 0.2099(3) 0.14648(14)
C83 C 0.17918(11) 0.2818(4) 0.15326(14)
H65 H 0.2068 0.2810 0.1665
C84 C 0.15633(15) 0.3552(3) 0.13675(15)
H66 H 0.1660 0.4121 0.1370
N22 N 0.02548(19) 0.4732(5) 0.06385(16)
C85 C -0.0028(2) 0.4236(6) 0.03880(19)
C86 C -0.0373(3) 0.4631(6) 0.0142(2)
H67 H -0.0569 0.4289 -0.0027
C87 C -0.0422(3) 0.5472(7) 0.0149(2)
H68 H -0.0656 0.5729 -0.0015
C88 C -0.0137(3) 0.5990(7) 0.0393(2)
H69 H -0.0166 0.6599 0.0394
C89 C 0.0194(3) 0.5575(6) 0.0637(2)
H70 H 0.0385 0.5917 0.0811
N23 N 0.0391(2) 0.2185(5) 0.06843(16)
N24 N 0.03649(19) 0.3056(4) 0.07022(15)
C90 C 0.0052(2) 0.3335(6) 0.04087(18)
C91 C -0.0118(3) 0.2632(6) 0.0197(2)
H71 H -0.0336 0.2625 -0.0023
C92 C 0.0101(3) 0.1952(7) 0.0381(2)
H72 H 0.0054 0.1372 0.0302
Cu5 Cu 0.21682(3) 0.40523(6) 0.39060(2)
Cu6 Cu 0.07726(3) 0.14722(7) 0.10620(3)
Cu7 Cu 0.21591(3) 0.15634(7) 0.40001(3)
Cu8 Cu 0.06875(3) 0.39777(6) 0.09961(2)
N1A N -0.19488(19) 0.5113(4) 0.09603(16)
C1A C -0.1562(3) 0.5313(5) 0.1149(2)
C2A C -0.1404(3) 0.6037(6) 0.1077(3)
H1A H -0.1136 0.6174 0.1210
C3A C -0.1628(4) 0.6556(8) 0.0818(3)
H2A H -0.1518 0.7059 0.0766
C4A C -0.2029(4) 0.6359(7) 0.0621(3)
H3A H -0.2192 0.6726 0.0438
C5A C -0.2171(3) 0.5642(6) 0.0701(2)
H4A H -0.2439 0.5498 0.0570
N2A N -0.12373(18) 0.3722(4) 0.18050(15)
N3A N -0.15154(18) 0.4100(4) 0.15196(16)
C6A C -0.0888(3) 0.4105(6) 0.1896(2)
H5A H -0.0652 0.3943 0.2086
C7A C -0.0928(2) 0.4767(7) 0.1671(2)
H6A H -0.0733 0.5159 0.1671
C8A C -0.1341(2) 0.4731(5) 0.1431(2)
C9A C -0.1352(2) 0.3108(5) 0.19999(18)
H7A H -0.1135 0.2695 0.2116
H8A H -0.1582 0.2778 0.1840
N4A N -0.04092(19) 0.0400(3) 0.41121(16)
C10A C -0.0152(2) 0.0242(4) 0.39593(15)
C11A C 0.0108(2) -0.0448(5) 0.40712(19)
H9A H 0.0284 -0.0556 0.3967
C12A C 0.0111(2) -0.0980(4) 0.43360(19)
H10A H 0.0288 -0.1451 0.4412
C13A C -0.0146(2) -0.0822(4) 0.44888(16)
H11A H -0.0145 -0.1185 0.4670
C14A C -0.0406(2) -0.0132(5) 0.43769(17)
H12A H -0.0582 -0.0024 0.4481
N5A N -0.04939(13) 0.1689(3) 0.32453(11)
N6A N -0.04938(13) 0.1325(3) 0.35523(12)
C15A C -0.01883(17) 0.0703(3) 0.36790(13)
C16A C 0.00003(14) 0.0683(4) 0.34503(17)
H13A H 0.0215 0.0324 0.3473
C17A C -0.01886(16) 0.1292(4) 0.31822(14)
H14A H -0.0122 0.1413 0.2994
C18A C -0.0804(2) 0.2194(5) 0.30293(19)
H15A H -0.0712 0.2577 0.2892
H16A H -0.0893 0.2564 0.3172
C19A C -0.1509(2) 0.3066(6) 0.25266(18)
C20A C -0.1456(2) 0.3552(5) 0.22723(18)
C21A C -0.1514(2) 0.4450(5) 0.22644(18)
H17A H -0.1484 0.4790 0.2091
C22A C -0.1614(2) 0.4841(5) 0.25122(19)
H18A H -0.1646 0.5450 0.2510
C23A C -0.1669(2) 0.4356(6) 0.27581(19)
H19A H -0.1747 0.4623 0.2921
C24A C -0.1611(2) 0.3503(6) 0.2767(2)
H20A H -0.1640 0.3177 0.2944
C25A C -0.1475(2) 0.2082(5) 0.25489(19)
C26A C -0.1146(2) 0.1661(5) 0.27849(18)
C27A C -0.1144(2) 0.0759(5) 0.28058(19)
H21A H -0.0921 0.0473 0.2973
C28A C -0.1460(2) 0.0278(6) 0.25868(19)
H22A H -0.1455 -0.0335 0.2599
C29A C -0.1788(3) 0.0714(6) 0.2345(2)
H23A H -0.2006 0.0391 0.2191
C30A C -0.1797(2) 0.1592(7) 0.2328(2)
H24A H -0.2024 0.1876 0.2166
N7A N -0.2187(2) 0.0489(4) 0.12483(19)
C31A C -0.1845(2) 0.0201(5) 0.1518(2)
C32A C -0.1848(3) -0.0553(5) 0.16937(19)
H25A H -0.1615 -0.0750 0.1878
C33A C -0.2194(3) -0.1020(4) 0.1600(2)
H26A H -0.2196 -0.1535 0.1721
C34A C -0.2536(3) -0.0732(5) 0.1331(2)
H27A H -0.2773 -0.1051 0.1267
C35A C -0.2533(2) 0.0023(5) 0.1155(2)
H28A H -0.2767 0.0219 0.0971
N8A N -0.1170(2) 0.1742(5) 0.14913(17)
N9A N -0.1525(2) 0.1404(4) 0.13728(17)
C36A C -0.1505(4) 0.0743(7) 0.1596(3)
C37A C -0.1135(4) 0.0657(8) 0.1847(3)
H29A H -0.1042 0.0240 0.2027
C38A C -0.0921(3) 0.1317(7) 0.1781(3)
H30A H -0.0652 0.1445 0.1913
C39A C -0.1078(2) 0.2361(6) 0.1273(2)
H31A H -0.0854 0.2725 0.1422
H32A H -0.1307 0.2744 0.1156
N10A N 0.09723(18) 0.5026(4) 0.12573(17)
C40A C 0.0928(2) 0.5268(5) 0.1544(2)
C41A C 0.1115(2) 0.5990(5) 0.1732(2)
H33A H 0.1078 0.6159 0.1931
C42A C 0.1359(3) 0.6464(6) 0.1626(3)
H34A H 0.1500 0.6946 0.1758
C43A C 0.1397(2) 0.6234(6) 0.1329(2)
H35A H 0.1551 0.6572 0.1246
C44A C 0.1203(2) 0.5488(6) 0.1148(2)
H36A H 0.1235 0.5311 0.0947
N11A N 0.02097(17) 0.3775(4) 0.15288(15)
N12A N 0.04544(17) 0.4131(4) 0.13965(15)
C45A C 0.0659(2) 0.4730(5) 0.16327(19)
C46A C 0.0553(2) 0.4785(5) 0.19070(19)
H37A H 0.0657 0.5159 0.2102
C47A C 0.0262(2) 0.4174(6) 0.18342(19)
H38A H 0.0122 0.4050 0.1971
C48A C -0.0121(2) 0.3238(5) 0.13058(19)
H39A H -0.0211 0.2879 0.1451
H40A H -0.0034 0.2846 0.1167
C49A C -0.0848(2) 0.2410(6) 0.0796(3)
C50A C -0.0976(2) 0.1915(6) 0.1000(2)
C51A C -0.1028(2) 0.1037(7) 0.0949(2)
H41A H -0.1110 0.0705 0.1096
C52A C -0.0961(3) 0.0620(7) 0.0680(3)
H42A H -0.1001 0.0015 0.0645
C53A C -0.0844(4) 0.1084(9) 0.0480(3)
H43A H -0.0795 0.0806 0.0303
C54A C -0.0787(4) 0.2037(8) 0.0527(3)
H44A H -0.0713 0.2373 0.0377
C55A C -0.0803(2) 0.3395(6) 0.0820(2)
C56A C -0.0461(2) 0.3793(6) 0.1063(2)
C57A C -0.0435(2) 0.4678(6) 0.1066(2)
H45A H -0.0208 0.4956 0.1231
C58A C -0.0739(2) 0.5171(7) 0.0828(2)
H46A H -0.0719 0.5783 0.0839
C59A C -0.1064(3) 0.4799(9) 0.0581(3)
H47A H -0.1267 0.5140 0.0417
C60A C -0.1087(3) 0.3904(9) 0.0578(3)
H48A H -0.1307 0.3632 0.0403
N13A N -0.23329(17) 0.4782(4) 0.14199(15)
C61A C -0.24866(19) 0.4276(5) 0.16005(18)
C62A C -0.2590(2) 0.4654(5) 0.18441(19)
H49A H -0.2694 0.4303 0.1969
C63A C -0.2548(2) 0.5512(5) 0.1910(2)
H50A H -0.2621 0.5761 0.2079
C64A C -0.2398(2) 0.6011(5) 0.1729(2)
H51A H -0.2366 0.6616 0.1767
C65A C -0.2293(2) 0.5607(5) 0.1488(2)
H52A H -0.2185 0.5954 0.1365
N14A N -0.23755(17) 0.2233(4) 0.12709(16)
N15A N -0.23537(17) 0.3105(4) 0.12966(16)
C66A C -0.24958(19) 0.3358(5) 0.15272(18)
C67A C -0.2628(2) 0.2636(5) 0.16478(18)
H53A H -0.2749 0.2618 0.1805
C68A C -0.2541(2) 0.1962(5) 0.14821(18)
H54A H -0.2592 0.1374 0.1512
N16A N -0.20887(16) 0.0840(4) 0.06234(12)
C69A C -0.20775(16) 0.1356(3) 0.03598(15)
C70A C -0.20342(17) 0.0981(4) 0.00803(12)
H55A H -0.2027 0.1334 -0.0100
C71A C -0.20020(18) 0.0090(4) 0.00645(14)
H56A H -0.1972 -0.0167 -0.0126
C72A C -0.20131(19) -0.0427(3) 0.03281(17)
H57A H -0.1991 -0.1036 0.0317
C73A C -0.20564(18) -0.0051(4) 0.06075(14)
H58A H -0.2064 -0.0404 0.0788
N17A N -0.21255(18) 0.3393(5) 0.07203(16)
N18A N -0.21304(18) 0.2516(5) 0.07030(17)
C74A C -0.2089(2) 0.2261(6) 0.0417(2)
C75A C -0.2064(2) 0.2978(7) 0.0243(2)
H59A H -0.2038 0.2993 0.0030
C76A C -0.2083(2) 0.3675(7) 0.04336(19)
H60A H -0.2068 0.4262 0.0375
N19A N -0.12445(15) 0.0753(4) 0.36265(12)
C77A C -0.15762(18) 0.1244(3) 0.34410(15)
C78A C -0.19072(14) 0.0856(4) 0.31909(15)
H61A H -0.2134 0.1192 0.3064
C79A C -0.19064(15) -0.0023(4) 0.31262(14)
H62A H -0.2133 -0.0288 0.2955
C80A C -0.15747(19) -0.0515(3) 0.33116(17)
H63A H -0.1574 -0.1116 0.3267
C81A C -0.12437(16) -0.0127(4) 0.35617(15)
H64A H -0.1017 -0.0463 0.3688
N20A N -0.11658(13) 0.3287(3) 0.38022(12)
N21A N -0.11486(13) 0.2389(3) 0.37421(13)
C82A C -0.15355(16) 0.2099(3) 0.35352(14)
C83A C -0.17918(11) 0.2818(4) 0.34674(14)
H65A H -0.2068 0.2810 0.3335
C84A C -0.15633(15) 0.3552(3) 0.36325(15)
H66A H -0.1660 0.4121 0.3630
N22A N -0.02548(19) 0.4732(5) 0.43615(16)
C85A C 0.0028(2) 0.4236(6) 0.46120(19)
C86A C 0.0373(3) 0.4631(6) 0.4858(2)
H67A H 0.0569 0.4289 0.5027
C87A C 0.0422(3) 0.5472(7) 0.4851(2)
H68A H 0.0656 0.5729 0.5015
C88A C 0.0137(3) 0.5990(7) 0.4607(2)
H69A H 0.0166 0.6599 0.4606
C89A C -0.0194(3) 0.5575(6) 0.4363(2)
H70A H -0.0385 0.5917 0.4189
N23A N -0.0391(2) 0.2185(5) 0.43157(16)
N24A N -0.03649(19) 0.3056(4) 0.42978(15)
C90A C -0.0052(2) 0.3335(6) 0.45913(18)
C91A C 0.0118(3) 0.2632(6) 0.4803(2)
H71A H 0.0336 0.2625 0.5023
C92A C -0.0101(3) 0.1952(7) 0.4619(2)
H72A H -0.0054 0.1372 0.4698
Cu5A Cu -0.21682(3) 0.40523(6) 0.10940(2)
Cu6A Cu -0.07726(3) 0.14722(7) 0.39380(3)
Cu7A Cu -0.21591(3) 0.15634(7) 0.09999(3)
Cu8A Cu -0.06875(3) 0.39777(6) 0.40039(2)
Cl1 Cl 0.31780(7) 0.44314(15) 0.46405(6)
O1 O 0.3109(2) 0.3547(5) 0.4723(2)
O2 O 0.3098(2) 0.4907(5) 0.48783(18)
O3 O 0.3564(2) 0.4471(5) 0.46781(18)
O4 O 0.29037(18) 0.4583(4) 0.42913(15)
Cl2 Cl 0.47429(10) 0.3324(2) 0.14154(9)
O5 O 0.4914(2) 0.2603(5) 0.16409(19)
O6 O 0.4531(3) 0.3859(6) 0.1559(3)
O7 O 0.4468(3) 0.2992(7) 0.10864(19)
O8 O 0.5044(3) 0.3806(7) 0.1371(3)
Cl3 Cl 0.29190(6) 0.27123(13) 0.25029(5)
O9 O 0.31157(15) 0.3114(3) 0.28272(13)
O10 O 0.3157(2) 0.2907(5) 0.23063(19)
O11 O 0.2859(3) 0.1857(4) 0.2508(2)
O12 O 0.25580(19) 0.3180(5) 0.2318(2)
Cl4 Cl 0.20483(8) 0.76460(16) 0.24801(7)
O13 O 0.1659(2) 0.7508(6) 0.2446(2)
O14 O 0.2191(3) 0.6857(5) 0.2445(2)
O15 O 0.2010(2) 0.8103(5) 0.22031(19)
O16 O 0.2238(2) 0.7961(5) 0.28007(19)
Cl5 Cl 0.15647(17) 0.5619(4) 0.04480(15)
O17 O 0.1838(3) 0.5718(7) 0.0804(2)
O18 O 0.1354(3) 0.4786(6) 0.0428(3)
O19 O 0.1278(3) 0.6283(7) 0.0336(3)
O20 O 0.1767(3) 0.5543(8) 0.0229(3)
Cl6 Cl 0.08699(15) 0.8454(3) 0.36057(13)
O21 O 0.0588(3) 0.9070(6) 0.3423(3)
O22 O 0.0758(3) 0.7615(6) 0.3447(3)
O23 O 0.1252(3) 0.8658(7) 0.3658(3)
O24 O 0.0865(3) 0.8344(7) 0.3948(2)
Cl7 Cl 0.62859(15) 0.9707(3) 0.04741(12)
O25 O 0.5908(2) 0.9866(7) 0.0214(2)
O26 O 0.6386(3) 1.0392(6) 0.0735(2)
O27 O 0.6572(3) 0.9672(7) 0.0344(3)
O28 O 0.6283(3) 0.8914(5) 0.0656(3)
Cl9 Cl 0.5000 0.7377(2) 0.2500
O34 O 0.46452(17) 0.7674(2) 0.2518(3)
O35 O 0.4858(6) 0.7674(2) 0.21474(4)
O34A O 0.53548(17) 0.7674(2) 0.2482(3)
O35A O 0.5142(6) 0.7674(2) 0.28526(4)
O37 O 0.59071(18) 0.6557(4) 0.03946(15)
N49 N 0.5920(2) 0.7262(5) -0.00707(18)
C185 C 0.5882(2) 0.7185(6) 0.0228(2)
H145 H 0.5828 0.7705 0.0318
C186 C 0.5889(4) 0.8070(8) -0.0241(3)
H146 H 0.6128 0.8173 -0.0275
H147 H 0.5856 0.8533 -0.0098
H148 H 0.5662 0.8060 -0.0466
C187 C 0.6009(3) 0.6532(7) -0.0221(3)
H149 H 0.5974 0.6669 -0.0457
H150 H 0.5833 0.6057 -0.0227
H151 H 0.6281 0.6359 -0.0082
O38 O 0.2304(3) 0.2413(7) 0.0374(3)
C188 C 0.2069(5) 0.2893(12) 0.0426(4)
C189 C 0.1720(4) 0.3165(12) 0.0106(4)
H152 H 0.1525 0.2702 0.0034
H153 H 0.1803 0.3285 -0.0081
H154 H 0.1605 0.3688 0.0155
C190 C 0.2139(5) 0.3206(11) 0.0779(3)
H155 H 0.2415 0.3364 0.0906
H156 H 0.2072 0.2748 0.0905
H157 H 0.1974 0.3713 0.0760
O39 O 0.2929(2) 0.7210(5) 0.4964(2)
N50 N 0.2894(3) 0.7388(6) 0.4442(2)
C191 C 0.3032(3) 0.7055(7) 0.4746(3)
H158 H 0.3237 0.6645 0.4799
C192 C 0.3038(4) 0.7080(8) 0.4181(3)
H159 H 0.2832 0.7157 0.3948
H160 H 0.3108 0.6467 0.4221
H161 H 0.3270 0.7414 0.4205
C193 C 0.2636(3) 0.8117(7) 0.4379(3)
H162 H 0.2447 0.8119 0.4135
H163 H 0.2790 0.8652 0.4431
H164 H 0.2495 0.8078 0.4528
O40 O 0.0599(4) 0.7865(9) 0.1241(4)
C194 C 0.0438(5) 0.7801(10) 0.1436(4)
C195 C 0.0565(7) 0.8323(15) 0.1756(5)
H165 H 0.0825 0.8568 0.1809
H166 H 0.0577 0.7956 0.1948
H167 H 0.0377 0.8792 0.1722
C196 C 0.0110(5) 0.7130(11) 0.1366(5)
H168 H -0.0048 0.7081 0.1115
H169 H -0.0058 0.7313 0.1479
H170 H 0.0227 0.6568 0.1458
O41 O 0.3165(3) 0.2583(6) 0.1176(2)
C197 C 0.3507(3) 0.2611(8) 0.1413(3)
C198 C 0.3809(3) 0.1943(8) 0.1424(3)
H171 H 0.3679 0.1481 0.1259
H172 H 0.3935 0.1700 0.1658
H173 H 0.4007 0.2217 0.1364
C199 C 0.3604(3) 0.3246(7) 0.1704(3)
H174 H 0.3360 0.3486 0.1701
H175 H 0.3764 0.3713 0.1676
H176 H 0.3749 0.2953 0.1926
O42 O 0.4050(2) 0.1771(5) 0.24099(19)
C200 C 0.4079(3) 0.2159(6) 0.2675(2)
C201 C 0.4105(4) 0.1677(8) 0.2989(3)
H177 H 0.3912 0.1209 0.2919
H178 H 0.4052 0.2072 0.3144
H179 H 0.4369 0.1434 0.3109
C202 C 0.4084(5) 0.3128(7) 0.2696(4)
H180 H 0.4196 0.3366 0.2544
H181 H 0.4244 0.3307 0.2936
H182 H 0.3816 0.3341 0.2624
O43 O 0.5928(3) 0.2357(7) 0.0525(3)
C203 C 0.6229(4) 0.2212(9) 0.0491(3)
C204 C 0.6206(5) 0.2053(11) 0.0125(3)
H183 H 0.5931 0.2007 -0.0041
H184 H 0.6344 0.1516 0.0123
H185 H 0.6330 0.2536 0.0059
C205 C 0.6610(4) 0.2147(13) 0.0794(3)
H186 H 0.6587 0.2395 0.0997
H187 H 0.6809 0.2464 0.0747
H188 H 0.6687 0.1539 0.0838
Cl13 Cl 0.0000 0.2948(2) 0.2500
O64 O 0.03855(14) 0.2650(2) 0.2556(5)
O66 O -0.0133(6) 0.2650(2) 0.21481(5)
O64A O -0.03855(14) 0.2650(2) 0.2444(5)
O66A O 0.0133(6) 0.2650(2) 0.28519(5)
Cl8? Cl 0.0000 0.2432(2) 0.2500
O29? O 0.0000 0.1502(2) 0.2500
O30? O 0.03584(16) 0.2730(2) 0.2489(3)
O31? O 0.0094(3) 0.2730(2) 0.22225(15)
O32? O -0.0237(4) 0.2730(2) 0.21540(10)
O33? O 0.5000 0.6447(2) 0.2500
O36? O 0.46261(13) 0.7674(2) 0.2248(2)
C206? C 0.6675(5) 0.1973(14) 0.0442(5)
C207? C 0.6317(6) 0.1896(19) 0.0101(5)
C208? C 0.6624(7) 0.2452(19) 0.0734(6)
Cl10? Cl 0.1692(3) 0.5223(6) 0.0469(2)
Cl11? Cl 0.0722(4) 0.7884(9) 0.4061(4)
Cl12? Cl 0.64579(17) 0.9613(3) 0.05839(14)
Cl14? Cl 0.5000 0.7640(2) 0.2500
H189? H 0.6344 0.1386 -0.0024
H190? H 0.6296 0.2413 -0.0039
H191? H 0.6082 0.1840 0.0144
H192? H 0.6867 0.2761 0.0874
H193? H 0.6565 0.2037 0.0880
H194? H 0.6408 0.2866 0.0635
O44? O 0.4326(3) 0.3176(12) 0.1218(5)
O45? O 0.4919(6) 0.3497(12) 0.1183(5)
O46? O 0.4785(7) 0.4084(6) 0.1634(4)
O47? O 0.3203(3) 0.2063(6) 0.2490(3)
O48? O 0.2622(2) 0.2150(6) 0.2547(3)
O49? O 0.2761(3) 0.3165(6) 0.22159(18)
O50? O 0.1917(5) 0.6028(9) 0.0510(5)
O51? O 0.1760(5) 0.4673(11) 0.0230(4)
O52? O 0.1281(3) 0.5451(12) 0.0341(5)
O53? O 0.1818(5) 0.4826(11) 0.0805(3)
O54? O 0.0546(8) 0.7602(19) 0.4285(7)
O55? O 0.0709(9) 0.7202(15) 0.3827(7)
O56? O 0.0513(8) 0.8623(14) 0.3861(7)
O57? O 0.1124(5) 0.8125(19) 0.4267(7)
O58? O 0.6988(4) 0.1613(10) 0.0494(4)
O59? O 0.6743(3) 0.9638(8) 0.0941(2)
O60? O 0.6088(3) 0.9804(7) 0.0574(3)
O61? O 0.6575(3) 1.0219(7) 0.0397(3)
O62? O 0.6463(3) 0.8766(5) 0.0457(3)
O63? O 0.0000 0.3878(2) 0.2500
O65? O 0.0185(3) 0.2650(2) 0.2283(2)
O67? O 0.5000 0.8570(2) 0.2500
O68? O 0.46179(14) 0.7342(2) 0.2455(4)
O69? O 0.4787(2) 0.7342(2) 0.21497(4)
O70? O 0.5272(2) 0.7342(2) 0.2364(3)
loop_
_geom_bond_atom_site_label_1
_geom_bond_atom_site_label_2
_geom_bond_site_symmetry_1
_geom_bond_site_symmetry_2
Cu1 N25 1_555 1_555
Cu2 N28 1_555 1_555
Cu3 N31 1_555 1_555
Cu4 N34 1_555 1_555
N1 C1 1_555 1_555
C1 C2 1_555 1_555
C2 H1 1_555 1_555
C3 C2 1_555 1_555
H2 C3 1_555 1_555
C4 C3 1_555 1_555
H3 C4 1_555 1_555
C5 N1 1_555 1_555
H4 C5 1_555 1_555
N2 N3 1_555 1_555
N3 C8 1_555 1_555
C6 N2 1_555 1_555
H5 C6 1_555 1_555
C7 C6 1_555 1_555
H6 C7 1_555 1_555
C8 C1 1_555 1_555
C9 N2 1_555 1_555
H7 C9 1_555 1_555
H8 C9 1_555 1_555
N4 C10 1_555 1_555
C10 C11 1_555 1_555
C11 H9 1_555 1_555
C12 C11 1_555 1_555
H10 C12 1_555 1_555
C13 C12 1_555 1_555
H11 C13 1_555 1_555
C14 N4 1_555 1_555
H12 C14 1_555 1_555
N5 N6 1_555 1_555
N6 C15 1_555 1_555
C15 C10 1_555 1_555
C16 C15 1_555 1_555
H13 C16 1_555 1_555
C17 N5 1_555 1_555
H14 C17 1_555 1_555
C18 N5 1_555 1_555
H15 C18 1_555 1_555
H16 C18 1_555 1_555
C19 C20 1_555 1_555
C20 C9 1_555 1_555
C21 C20 1_555 1_555
H17 C21 1_555 1_555
C22 C21 1_555 1_555
H18 C22 1_555 1_555
C23 C22 1_555 1_555
H19 C23 1_555 1_555
C24 C19 1_555 1_555
H20 C24 1_555 1_555
C25 C19 1_555 1_555
C26 C18 1_555 1_555
C27 C26 1_555 1_555
H21 C27 1_555 1_555
C28 C27 1_555 1_555
H22 C28 1_555 1_555
C29 C28 1_555 1_555
H23 C29 1_555 1_555
C30 C25 1_555 1_555
H24 C30 1_555 1_555
N7 C31 1_555 1_555
C31 C32 1_555 1_555
C32 H25 1_555 1_555
C33 C32 1_555 1_555
H26 C33 1_555 1_555
C34 C33 1_555 1_555
H27 C34 1_555 1_555
C35 N7 1_555 1_555
H28 C35 1_555 1_555
N8 N9 1_555 1_555
N9 C36 1_555 1_555
C36 C31 1_555 1_555
C37 C36 1_555 1_555
H29 C37 1_555 1_555
C38 N8 1_555 1_555
H30 C38 1_555 1_555
C39 N8 1_555 1_555
H31 C39 1_555 1_555
H32 C39 1_555 1_555
N10 C40 1_555 1_555
C40 C41 1_555 1_555
C41 H33 1_555 1_555
C42 C41 1_555 1_555
H34 C42 1_555 1_555
C43 C42 1_555 1_555
H35 C43 1_555 1_555
C44 N10 1_555 1_555
H36 C44 1_555 1_555
N11 N12 1_555 1_555
N12 C45 1_555 1_555
C45 C40 1_555 1_555
C46 C45 1_555 1_555
H37 C46 1_555 1_555
C47 N11 1_555 1_555
H38 C47 1_555 1_555
C48 N11 1_555 1_555
H39 C48 1_555 1_555
H40 C48 1_555 1_555
C49 C50 1_555 1_555
C50 C39 1_555 1_555
C51 C50 1_555 1_555
H41 C51 1_555 1_555
C52 C51 1_555 1_555
H42 C52 1_555 1_555
C53 C52 1_555 1_555
H43 C53 1_555 1_555
C54 C49 1_555 1_555
H44 C54 1_555 1_555
C55 C49 1_555 1_555
C56 C48 1_555 1_555
C57 C56 1_555 1_555
H45 C57 1_555 1_555
C58 C57 1_555 1_555
H46 C58 1_555 1_555
C59 C58 1_555 1_555
H47 C59 1_555 1_555
C60 C55 1_555 1_555
H48 C60 1_555 1_555
N13 C61 1_555 1_555
C61 C62 1_555 1_555
C62 H49 1_555 1_555
C63 C62 1_555 1_555
H50 C63 1_555 1_555
C64 C63 1_555 1_555
H51 C64 1_555 1_555
C65 N13 1_555 1_555
H52 C65 1_555 1_555
N14 N15 1_555 1_555
N15 C66 1_555 1_555
C66 C61 1_555 1_555
C67 C66 1_555 1_555
H53 C67 1_555 1_555
C68 N14 1_555 1_555
H54 C68 1_555 1_555
N16 C69 1_555 1_555
C69 C70 1_555 1_555
C70 H55 1_555 1_555
C71 C70 1_555 1_555
H56 C71 1_555 1_555
C72 C71 1_555 1_555
H57 C72 1_555 1_555
C73 N16 1_555 1_555
H58 C73 1_555 1_555
N17 N18 1_555 1_555
N18 C74 1_555 1_555
C74 C69 1_555 1_555
C75 C74 1_555 1_555
H59 C75 1_555 1_555
C76 N17 1_555 1_555
H60 C76 1_555 1_555
N19 C77 1_555 1_555
C77 C78 1_555 1_555
C78 H61 1_555 1_555
C79 C78 1_555 1_555
H62 C79 1_555 1_555
C80 C79 1_555 1_555
H63 C80 1_555 1_555
C81 N19 1_555 1_555
H64 C81 1_555 1_555
N20 N21 1_555 1_555
N21 C82 1_555 1_555
C82 C77 1_555 1_555
C83 C82 1_555 1_555
H65 C83 1_555 1_555
C84 N20 1_555 1_555
H66 C84 1_555 1_555
N22 C85 1_555 1_555
C85 C86 1_555 1_555
C86 H67 1_555 1_555
C87 C86 1_555 1_555
H68 C87 1_555 1_555
C88 C87 1_555 1_555
H69 C88 1_555 1_555
C89 N22 1_555 1_555
H70 C89 1_555 1_555
N23 N24 1_555 1_555
N24 C90 1_555 1_555
C90 C85 1_555 1_555
C91 C90 1_555 1_555
H71 C91 1_555 1_555
C92 N23 1_555 1_555
H72 C92 1_555 1_555
Cu5 N1 1_555 1_555
Cu6 N4 1_555 1_555
Cu7 N7 1_555 1_555
Cu8 N20 1_555 1_555
N25 C93 1_555 1_555
C93 C94 1_555 1_555
C94 H73 1_555 1_555
C95 C94 1_555 1_555
H74 C95 1_555 1_555
C96 C95 1_555 1_555
H75 C96 1_555 1_555
C97 N25 1_555 1_555
H76 C97 1_555 1_555
N26 N27 1_555 1_555
N27 Cu1 1_555 1_555
C98 C93 1_555 1_555
C99 C98 1_555 1_555
H77 C99 1_555 1_555
C100 N26 1_555 1_555
H78 C100 1_555 1_555
C101 N26 1_555 1_555
H79 C101 1_555 1_555
H80 C101 1_555 1_555
N28 C102 1_555 1_555
C102 C103 1_555 1_555
C103 H81 1_555 1_555
C104 C103 1_555 1_555
H82 C104 1_555 1_555
C105 C104 1_555 1_555
H83 C105 1_555 1_555
C106 N28 1_555 1_555
H84 C106 1_555 1_555
N29 N30 1_555 1_555
N30 Cu2 1_555 1_555
C107 C102 1_555 1_555
C108 C107 1_555 1_555
H85 C108 1_555 1_555
C109 N29 1_555 1_555
H86 C109 1_555 1_555
C110 N29 1_555 1_555
H87 C110 1_555 1_555
H88 C110 1_555 1_555
C111 C112 1_555 1_555
C112 C101 1_555 1_555
C113 C112 1_555 1_555
H89 C113 1_555 1_555
C114 C113 1_555 1_555
H90 C114 1_555 1_555
C115 C114 1_555 1_555
H91 C115 1_555 1_555
C116 C111 1_555 1_555
H92 C116 1_555 1_555
C117 C111 1_555 1_555
C118 C110 1_555 1_555
C119 C118 1_555 1_555
H93 C119 1_555 1_555
C120 C119 1_555 1_555
H94 C120 1_555 1_555
C121 C120 1_555 1_555
H95 C121 1_555 1_555
C122 C117 1_555 1_555
H96 C122 1_555 1_555
N31 C123 1_555 1_555
C123 C124 1_555 1_555
C124 H97 1_555 1_555
C125 C124 1_555 1_555
H98 C125 1_555 1_555
C126 C125 1_555 1_555
H99 C126 1_555 1_555
C127 N31 1_555 1_555
H100 C127 1_555 1_555
N32 N33 1_555 1_555
N33 Cu3 1_555 1_555
C128 C123 1_555 1_555
C129 C128 1_555 1_555
H101 C129 1_555 1_555
C130 N32 1_555 1_555
H102 C130 1_555 1_555
C131 N32 1_555 1_555
H103 C131 1_555 1_555
H104 C131 1_555 1_555
N34 C132 1_555 1_555
C132 C133 1_555 1_555
C133 H105 1_555 1_555
C134 C133 1_555 1_555
H106 C134 1_555 1_555
C135 C134 1_555 1_555
H107 C135 1_555 1_555
C136 N34 1_555 1_555
H108 C136 1_555 1_555
N35 N36 1_555 1_555
N36 Cu4 1_555 1_555
C137 C132 1_555 1_555
C138 C137 1_555 1_555
H109 C138 1_555 1_555
C139 N35 1_555 1_555
H110 C139 1_555 1_555
C140 N35 1_555 1_555
H111 C140 1_555 1_555
H112 C140 1_555 1_555
C141 C142 1_555 1_555
C142 C131 1_555 1_555
C143 C142 1_555 1_555
H113 C143 1_555 1_555
C144 C143 1_555 1_555
H114 C144 1_555 1_555
C145 C144 1_555 1_555
H115 C145 1_555 1_555
C146 C141 1_555 1_555
H116 C146 1_555 1_555
C147 C141 1_555 1_555
C148 C140 1_555 1_555
C149 C148 1_555 1_555
H117 C149 1_555 1_555
C150 C149 1_555 1_555
H118 C150 1_555 1_555
C151 C150 1_555 1_555
H119 C151 1_555 1_555
C152 C147 1_555 1_555
H120 C152 1_555 1_555
N37 Cu1 1_555 1_555
C153 N37 1_555 1_555
C154 C153 1_555 1_555
H121 C154 1_555 1_555
C155 C154 1_555 1_555
H122 C155 1_555 1_555
C156 C155 1_555 1_555
H123 C156 1_555 1_555
C157 N37 1_555 1_555
H124 C157 1_555 1_555
N38 Cu3 1_555 1_555
N39 Cu1 1_555 1_555
C158 C153 1_555 1_555
C159 C158 1_555 1_555
H125 C159 1_555 1_555
C160 N38 1_555 1_555
H126 C160 1_555 1_555
N40 Cu3 1_555 1_555
C161 N40 1_555 1_555
C162 C161 1_555 1_555
H127 C162 1_555 1_555
C163 C162 1_555 1_555
H128 C163 1_555 1_555
C164 C163 1_555 1_555
H129 C164 1_555 1_555
C165 N40 1_555 1_555
H130 C165 1_555 1_555
N41 Cu1 1_555 1_555
N42 Cu3 1_555 1_555
C166 C161 1_555 1_555
C167 C166 1_555 1_555
H131 C167 1_555 1_555
C168 N41 1_555 1_555
H132 C168 1_555 1_555
N43 Cu2 1_555 1_555
N44 Cu4 1_555 1_555
C169 N43 1_555 1_555
C170 C169 1_555 1_555
H133 C170 1_555 1_555
C171 C170 1_555 1_555
H134 C171 1_555 1_555
C172 C171 1_555 1_555
H135 C172 1_555 1_555
C173 N43 1_555 1_555
H136 C173 1_555 1_555
N45 Cu2 1_555 1_555
C174 C169 1_555 1_555
C175 C174 1_555 1_555
H137 C175 1_555 1_555
C176 N44 1_555 1_555
H138 C176 1_555 1_555
N46 Cu4 1_555 1_555
C177 N46 1_555 1_555
C178 C177 1_555 1_555
H139 C178 1_555 1_555
C179 C178 1_555 1_555
H140 C179 1_555 1_555
C180 C179 1_555 1_555
H141 C180 1_555 1_555
C181 N46 1_555 1_555
H142 C181 1_555 1_555
N47 Cu2 1_555 1_555
N48 Cu4 1_555 1_555
C182 C177 1_555 1_555
C183 C182 1_555 1_555
H143 C183 1_555 1_555
C184 N47 1_555 1_555
H144 C184 1_555 1_555
Cl1 O1 1_555 1_555
O2 Cl1 1_555 1_555
O3 Cl1 1_555 1_555
O4 Cl1 1_555 1_555
Cl2 O5 1_555 1_555
O6 Cl2 1_555 1_555
O7 Cl2 1_555 1_555
O8 Cl2 1_555 1_555
Cl3 O9 1_555 1_555
O10 Cl3 1_555 1_555
O11 Cl3 1_555 1_555
O12 Cl3 1_555 1_555
Cl4 O13 1_555 1_555
O14 Cl4 1_555 1_555
O15 Cl4 1_555 1_555
O16 Cl4 1_555 1_555
Cl5 O17 1_555 1_555
O18 Cl5 1_555 1_555
O19 Cl5 1_555 1_555
O20 Cl5 1_555 1_555
Cl6 O21 1_555 1_555
O22 Cl6 1_555 1_555
O23 Cl6 1_555 1_555
O24 Cl6 1_555 1_555
Cl7 O25 1_555 1_555
O26 Cl7 1_555 1_555
O27 Cl7 1_555 1_555
O28 Cl7 1_555 1_555
Cl9 O34 1_555 1_555
O35 Cl9 1_555 1_555
O37 C185 1_555 1_555
N49 C185 1_555 1_555
C185 H145 1_555 1_555
C186 N49 1_555 1_555
H146 C186 1_555 1_555
H147 C186 1_555 1_555
H148 C186 1_555 1_555
C187 N49 1_555 1_555
H149 C187 1_555 1_555
H150 C187 1_555 1_555
H151 C187 1_555 1_555
O38 C188 1_555 1_555
C188 C189 1_555 1_555
C189 H152 1_555 1_555
H153 C189 1_555 1_555
H154 C189 1_555 1_555
C190 C188 1_555 1_555
H155 C190 1_555 1_555
H156 C190 1_555 1_555
H157 C190 1_555 1_555
O39 C191 1_555 1_555
N50 C191 1_555 1_555
C191 H158 1_555 1_555
C192 N50 1_555 1_555
H159 C192 1_555 1_555
H160 C192 1_555 1_555
H161 C192 1_555 1_555
C193 N50 1_555 1_555
H162 C193 1_555 1_555
H163 C193 1_555 1_555
H164 C193 1_555 1_555
O40 C194 1_555 1_555
C194 C195 1_555 1_555
C195 H165 1_555 1_555
H166 C195 1_555 1_555
H167 C195 1_555 1_555
C196 C194 1_555 1_555
H168 C196 1_555 1_555
H169 C196 1_555 1_555
H170 C196 1_555 1_555
O41 C197 1_555 1_555
C197 C198 1_555 1_555
C198 H171 1_555 1_555
H172 C198 1_555 1_555
H173 C198 1_555 1_555
C199 C197 1_555 1_555
H174 C199 1_555 1_555
H175 C199 1_555 1_555
H176 C199 1_555 1_555
O42 C200 1_555 1_555
C200 C201 1_555 1_555
C201 H177 1_555 1_555
H178 C201 1_555 1_555
H179 C201 1_555 1_555
C202 C200 1_555 1_555
H180 C202 1_555 1_555
H181 C202 1_555 1_555
H182 C202 1_555 1_555
O43 C203 1_555 1_555
C203 C204 1_555 1_555
C204 H183 1_555 1_555
H184 C204 1_555 1_555
H185 C204 1_555 1_555
C205 C203 1_555 1_555
H186 C205 1_555 1_555
H187 C205 1_555 1_555
H188 C205 1_555 1_555
Cl13 O64 1_555 1_555
O66 Cl13 1_555 1_555
Cu1A N25A 1_555 1_555
Cu2A N28A 1_555 1_555
Cu3A N31A 1_555 1_555
Cu4A N34A 1_555 1_555
N1A C1A 1_555 1_555
C1A C2A 1_555 1_555
C2A H1A 1_555 1_555
C3A C2A 1_555 1_555
H2A C3A 1_555 1_555
C4A C3A 1_555 1_555
H3A C4A 1_555 1_555
C5A N1A 1_555 1_555
H4A C5A 1_555 1_555
N2A N3A 1_555 1_555
N3A C8A 1_555 1_555
C6A N2A 1_555 1_555
H5A C6A 1_555 1_555
C7A C6A 1_555 1_555
H6A C7A 1_555 1_555
C8A C1A 1_555 1_555
C9A N2A 1_555 1_555
H7A C9A 1_555 1_555
H8A C9A 1_555 1_555
N4A C10A 1_555 1_555
C10A C11A 1_555 1_555
C11A H9A 1_555 1_555
C12A C11A 1_555 1_555
H10A C12A 1_555 1_555
C13A C12A 1_555 1_555
H11A C13A 1_555 1_555
C14A N4A 1_555 1_555
H12A C14A 1_555 1_555
N5A N6A 1_555 1_555
N6A C15A 1_555 1_555
C15A C10A 1_555 1_555
C16A C15A 1_555 1_555
H13A C16A 1_555 1_555
C17A N5A 1_555 1_555
H14A C17A 1_555 1_555
C18A N5A 1_555 1_555
H15A C18A 1_555 1_555
H16A C18A 1_555 1_555
C19A C20A 1_555 1_555
C20A C9A 1_555 1_555
C21A C20A 1_555 1_555
H17A C21A 1_555 1_555
C22A C21A 1_555 1_555
H18A C22A 1_555 1_555
C23A C22A 1_555 1_555
H19A C23A 1_555 1_555
C24A C19A 1_555 1_555
H20A C24A 1_555 1_555
C25A C19A 1_555 1_555
C26A C18A 1_555 1_555
C27A C26A 1_555 1_555
H21A C27A 1_555 1_555
C28A C27A 1_555 1_555
H22A C28A 1_555 1_555
C29A C28A 1_555 1_555
H23A C29A 1_555 1_555
C30A C25A 1_555 1_555
H24A C30A 1_555 1_555
N7A C31A 1_555 1_555
C31A C32A 1_555 1_555
C32A H25A 1_555 1_555
C33A C32A 1_555 1_555
H26A C33A 1_555 1_555
C34A C33A 1_555 1_555
H27A C34A 1_555 1_555
C35A N7A 1_555 1_555
H28A C35A 1_555 1_555
N8A N9A 1_555 1_555
N9A C36A 1_555 1_555
C36A C31A 1_555 1_555
C37A C36A 1_555 1_555
H29A C37A 1_555 1_555
C38A N8A 1_555 1_555
H30A C38A 1_555 1_555
C39A N8A 1_555 1_555
H31A C39A 1_555 1_555
H32A C39A 1_555 1_555
N10A Cu8 1_555 1_555
C40A N10A 1_555 1_555
C41A C40A 1_555 1_555
H33A C41A 1_555 1_555
C42A C41A 1_555 1_555
H34A C42A 1_555 1_555
C43A C42A 1_555 1_555
H35A C43A 1_555 1_555
C44A N10A 1_555 1_555
H36A C44A 1_555 1_555
N11A N12A 1_555 1_555
N12A Cu8 1_555 1_555
C45A C40A 1_555 1_555
C46A C45A 1_555 1_555
H37A C46A 1_555 1_555
C47A N11A 1_555 1_555
H38A C47A 1_555 1_555
C48A N11A 1_555 1_555
H39A C48A 1_555 1_555
H40A C48A 1_555 1_555
C49A C50A 1_555 1_555
C50A C39A 1_555 1_555
C51A C50A 1_555 1_555
H41A C51A 1_555 1_555
C52A C51A 1_555 1_555
H42A C52A 1_555 1_555
C53A C52A 1_555 1_555
H43A C53A 1_555 1_555
C54A C49A 1_555 1_555
H44A C54A 1_555 1_555
C55A C49A 1_555 1_555
C56A C48A 1_555 1_555
C57A C56A 1_555 1_555
H45A C57A 1_555 1_555
C58A C57A 1_555 1_555
H46A C58A 1_555 1_555
C59A C58A 1_555 1_555
H47A C59A 1_555 1_555
C60A C55A 1_555 1_555
H48A C60A 1_555 1_555
N13A C61A 1_555 1_555
C61A C62A 1_555 1_555
C62A H49A 1_555 1_555
C63A C62A 1_555 1_555
H50A C63A 1_555 1_555
C64A C63A 1_555 1_555
H51A C64A 1_555 1_555
C65A N13A 1_555 1_555
H52A C65A 1_555 1_555
N14A N15A 1_555 1_555
N15A C66A 1_555 1_555
C66A C61A 1_555 1_555
C67A C66A 1_555 1_555
H53A C67A 1_555 1_555
C68A N14A 1_555 1_555
H54A C68A 1_555 1_555
N16A C69A 1_555 1_555
C69A C70A 1_555 1_555
C70A H55A 1_555 1_555
C71A C70A 1_555 1_555
H56A C71A 1_555 1_555
C72A C71A 1_555 1_555
H57A C72A 1_555 1_555
C73A N16A 1_555 1_555
H58A C73A 1_555 1_555
N17A N18A 1_555 1_555
N18A C74A 1_555 1_555
C74A C69A 1_555 1_555
C75A C74A 1_555 1_555
H59A C75A 1_555 1_555
C76A N17A 1_555 1_555
H60A C76A 1_555 1_555
N19A C77A 1_555 1_555
C77A C78A 1_555 1_555
C78A H61A 1_555 1_555
C79A C78A 1_555 1_555
H62A C79A 1_555 1_555
C80A C79A 1_555 1_555
H63A C80A 1_555 1_555
C81A N19A 1_555 1_555
H64A C81A 1_555 1_555
N20A N21A 1_555 1_555
N21A C82A 1_555 1_555
C82A C77A 1_555 1_555
C83A C82A 1_555 1_555
H65A C83A 1_555 1_555
C84A N20A 1_555 1_555
H66A C84A 1_555 1_555
N22A C85A 1_555 1_555
C85A C86A 1_555 1_555
C86A H67A 1_555 1_555
C87A C86A 1_555 1_555
H68A C87A 1_555 1_555
C88A C87A 1_555 1_555
H69A C88A 1_555 1_555
C89A N22A 1_555 1_555
H70A C89A 1_555 1_555
N23A N24A 1_555 1_555
N24A C90A 1_555 1_555
C90A C85A 1_555 1_555
C91A C90A 1_555 1_555
H71A C91A 1_555 1_555
C92A N23A 1_555 1_555
H72A C92A 1_555 1_555
Cu5A N1A 1_555 1_555
Cu6A N4A 1_555 1_555
Cu7A N7A 1_555 1_555
Cu8A N10 1_555 1_555
N25A C93A 1_555 1_555
C93A C94A 1_555 1_555
C94A H73A 1_555 1_555
C95A C94A 1_555 1_555
H74A C95A 1_555 1_555
C96A C95A 1_555 1_555
H75A C96A 1_555 1_555
C97A N25A 1_555 1_555
H76A C97A 1_555 1_555
N26A N27A 1_555 1_555
N27A Cu1A 1_555 1_555
C98A C93A 1_555 1_555
C99A C98A 1_555 1_555
H77A C99A 1_555 1_555
C100A N26A 1_555 1_555
H78A C100A 1_555 1_555
C101A N26A 1_555 1_555
H79A C101A 1_555 1_555
H80A C101A 1_555 1_555
N28A C102A 1_555 1_555
C102A C103A 1_555 1_555
C103A H81A 1_555 1_555
C104A C103A 1_555 1_555
H82A C104A 1_555 1_555
C105A C104A 1_555 1_555
H83A C105A 1_555 1_555
C106A N28A 1_555 1_555
H84A C106A 1_555 1_555
N29A N30A 1_555 1_555
N30A Cu2A 1_555 1_555
C107A C102A 1_555 1_555
C108A C107A 1_555 1_555
H85A C108A 1_555 1_555
C109A N29A 1_555 1_555
H86A C109A 1_555 1_555
C110A N29A 1_555 1_555
H87A C110A 1_555 1_555
H88A C110A 1_555 1_555
C111A C112A 1_555 1_555
C112A C101A 1_555 1_555
C113A C112A 1_555 1_555
H89A C113A 1_555 1_555
C114A C113A 1_555 1_555
H90A C114A 1_555 1_555
C115A C114A 1_555 1_555
H91A C115A 1_555 1_555
C116A C111A 1_555 1_555
H92A C116A 1_555 1_555
C117A C111A 1_555 1_555
C118A C110A 1_555 1_555
C119A C118A 1_555 1_555
H93A C119A 1_555 1_555
C120A C119A 1_555 1_555
H94A C120A 1_555 1_555
C121A C120A 1_555 1_555
H95A C121A 1_555 1_555
C122A C117A 1_555 1_555
H96A C122A 1_555 1_555
N31A C123A 1_555 1_555
C123A C124A 1_555 1_555
C124A H97A 1_555 1_555
C125A C124A 1_555 1_555
H98A C125A 1_555 1_555
C126A C125A 1_555 1_555
H99A C126A 1_555 1_555
C127A N31A 1_555 1_555
H100A C127A 1_555 1_555
N32A N33A 1_555 1_555
N33A Cu3A 1_555 1_555
C128A C123A 1_555 1_555
C129A C128A 1_555 1_555
H101A C129A 1_555 1_555
C130A N32A 1_555 1_555
H102A C130A 1_555 1_555
C131A N32A 1_555 1_555
H103A C131A 1_555 1_555
H104A C131A 1_555 1_555
N34A C132A 1_555 1_555
C132A C133A 1_555 1_555
C133A H105A 1_555 1_555
C134A C133A 1_555 1_555
H106A C134A 1_555 1_555
C135A C134A 1_555 1_555
H107A C135A 1_555 1_555
C136A N34A 1_555 1_555
H108A C136A 1_555 1_555
N35A N36A 1_555 1_555
N36A Cu4A 1_555 1_555
C137A C132A 1_555 1_555
C138A C137A 1_555 1_555
H109A C138A 1_555 1_555
C139A N35A 1_555 1_555
H110A C139A 1_555 1_555
C140A N35A 1_555 1_555
H111A C140A 1_555 1_555
H112A C140A 1_555 1_555
C141A C142A 1_555 1_555
C142A C131A 1_555 1_555
C143A C142A 1_555 1_555
H113A C143A 1_555 1_555
C144A C143A 1_555 1_555
H114A C144A 1_555 1_555
C145A C144A 1_555 1_555
H115A C145A 1_555 1_555
C146A C141A 1_555 1_555
H116A C146A 1_555 1_555
C147A C141A 1_555 1_555
C148A C140A 1_555 1_555
C149A C148A 1_555 1_555
H117A C149A 1_555 1_555
C150A C149A 1_555 1_555
H118A C150A 1_555 1_555
C151A C150A 1_555 1_555
H119A C151A 1_555 1_555
C152A C147A 1_555 1_555
H120A C152A 1_555 1_555
N37A Cu1A 1_555 1_555
C153A N37A 1_555 1_555
C154A C153A 1_555 1_555
H121A C154A 1_555 1_555
C155A C154A 1_555 1_555
H122A C155A 1_555 1_555
C156A C155A 1_555 1_555
H123A C156A 1_555 1_555
C157A N37A 1_555 1_555
H124A C157A 1_555 1_555
N38A Cu3A 1_555 1_555
N39A Cu1A 1_555 1_555
C158A C153A 1_555 1_555
C159A C158A 1_555 1_555
H125A C159A 1_555 1_555
C160A N38A 1_555 1_555
H126A C160A 1_555 1_555
N40A Cu3A 1_555 1_555
C161A N40A 1_555 1_555
C162A C161A 1_555 1_555
H127A C162A 1_555 1_555
C163A C162A 1_555 1_555
H128A C163A 1_555 1_555
C164A C163A 1_555 1_555
H129A C164A 1_555 1_555
C165A N40A 1_555 1_555
H130A C165A 1_555 1_555
N41A Cu1A 1_555 1_555
N42A Cu3A 1_555 1_555
C166A C161A 1_555 1_555
C167A C166A 1_555 1_555
H131A C167A 1_555 1_555
C168A N41A 1_555 1_555
H132A C168A 1_555 1_555
N43A Cu2A 1_555 1_555
N44A N45 1_555 1_555
C169A N43A 1_555 1_555
C170A C169A 1_555 1_555
H133A C170A 1_555 1_555
C171A C170A 1_555 1_555
H134A C171A 1_555 1_555
C172A C171A 1_555 1_555
H135A C172A 1_555 1_555
C173A N43A 1_555 1_555
H136A C173A 1_555 1_555
N45A N44 1_555 1_555
C174A C169A 1_555 1_555
C175A C176 1_555 1_555
H137A C175A 1_555 1_555
C176A C175 1_555 1_555
H138A C176A 1_555 1_555
N46A Cu4A 1_555 1_555
C177A N46A 1_555 1_555
C178A C177A 1_555 1_555
H139A C178A 1_555 1_555
C179A C178A 1_555 1_555
H140A C179A 1_555 1_555
C180A C179A 1_555 1_555
H141A C180A 1_555 1_555
C181A N46A 1_555 1_555
H142A C181A 1_555 1_555
N47A N48 1_555 1_555
N48A N47 1_555 1_555
C182A C177A 1_555 1_555
C183A C184 1_555 1_555
H143A C183A 1_555 1_555
C184A C183 1_555 1_555
H144A C184A 1_555 1_555
O34A Cl9 1_555 1_555
O35A Cl9 1_555 1_555
O64A Cl13 1_555 1_555
O66A Cl13 1_555 1_555
C4 C5 1_555 1_555
N3 Cu5 1_555 1_555
C7 C8 1_555 1_555
C13 C14 1_555 1_555
N6 Cu6 1_555 1_555
C16 C17 1_555 1_555
C23 C24 1_555 1_555
C25 C26 1_555 1_555
C29 C30 1_555 1_555
C34 C35 1_555 1_555
N9 Cu7 1_555 1_555
C37 C38 1_555 1_555
C43 C44 1_555 1_555
N12 Cu8A 1_555 1_555
C46 C47 1_555 1_555
C53 C54 1_555 1_555
C55 C56 1_555 1_555
C59 C60 1_555 1_555
N13 Cu5 1_555 1_555
C64 C65 1_555 1_555
N14 Cu7 1_555 1_555
N15 Cu5 1_555 1_555
C67 C68 1_555 1_555
N16 Cu7 1_555 1_555
C72 C73 1_555 1_555
N17 Cu5 1_555 1_555
N18 Cu7 1_555 1_555
C75 C76 1_555 1_555
N19 Cu6 1_555 1_555
C80 C81 1_555 1_555
N21 Cu6 1_555 1_555
C83 C84 1_555 1_555
N22 Cu8 1_555 1_555
C88 C89 1_555 1_555
N23 Cu6 1_555 1_555
N24 Cu8 1_555 1_555
C91 C92 1_555 1_555
C96 C97 1_555 1_555
N27 C98 1_555 1_555
C99 C100 1_555 1_555
C105 C106 1_555 1_555
N30 C107 1_555 1_555
C108 C109 1_555 1_555
C115 C116 1_555 1_555
C117 C118 1_555 1_555
C121 C122 1_555 1_555
C126 C127 1_555 1_555
N33 C128 1_555 1_555
C129 C130 1_555 1_555
C135 C136 1_555 1_555
N36 C137 1_555 1_555
C138 C139 1_555 1_555
C145 C146 1_555 1_555
C147 C148 1_555 1_555
C151 C152 1_555 1_555
C156 C157 1_555 1_555
N38 N39 1_555 1_555
N39 C158 1_555 1_555
C159 C160 1_555 1_555
C164 C165 1_555 1_555
N41 N42 1_555 1_555
N42 C166 1_555 1_555
C167 C168 1_555 1_555
C172 C173 1_555 1_555
N45 C174 1_555 1_555
C180 C181 1_555 1_555
N48 C182 1_555 1_555
Cu2A N45A 1_555 1_555
Cu2A N47A 1_555 1_555
Cu4A N44A 1_555 1_555
Cu4A N48A 1_555 1_555
C4A C5A 1_555 1_555
N3A Cu5A 1_555 1_555
C7A C8A 1_555 1_555
C13A C14A 1_555 1_555
N6A Cu6A 1_555 1_555
C16A C17A 1_555 1_555
C23A C24A 1_555 1_555
C25A C26A 1_555 1_555
C29A C30A 1_555 1_555
C34A C35A 1_555 1_555
N9A Cu7A 1_555 1_555
C37A C38A 1_555 1_555
C43A C44A 1_555 1_555
N12A C45A 1_555 1_555
C46A C47A 1_555 1_555
C53A C54A 1_555 1_555
C55A C56A 1_555 1_555
C59A C60A 1_555 1_555
N13A Cu5A 1_555 1_555
C64A C65A 1_555 1_555
N14A Cu7A 1_555 1_555
N15A Cu5A 1_555 1_555
C67A C68A 1_555 1_555
N16A Cu7A 1_555 1_555
C72A C73A 1_555 1_555
N17A Cu5A 1_555 1_555
N18A Cu7A 1_555 1_555
C75A C76A 1_555 1_555
N19A Cu6A 1_555 1_555
C80A C81A 1_555 1_555
N20A Cu8A 1_555 1_555
N21A Cu6A 1_555 1_555
C83A C84A 1_555 1_555
N22A Cu8A 1_555 1_555
C88A C89A 1_555 1_555
N23A Cu6A 1_555 1_555
N24A Cu8A 1_555 1_555
C91A C92A 1_555 1_555
C96A C97A 1_555 1_555
N27A C98A 1_555 1_555
C99A C100A 1_555 1_555
C105A C106A 1_555 1_555
N30A C107A 1_555 1_555
C108A C109A 1_555 1_555
C115A C116A 1_555 1_555
C117A C118A 1_555 1_555
C121A C122A 1_555 1_555
C126A C127A 1_555 1_555
N33A C128A 1_555 1_555
C129A C130A 1_555 1_555
C135A C136A 1_555 1_555
N36A C137A 1_555 1_555
C138A C139A 1_555 1_555
C145A C146A 1_555 1_555
C147A C148A 1_555 1_555
C151A C152A 1_555 1_555
C156A C157A 1_555 1_555
N38A N39A 1_555 1_555
N39A C158A 1_555 1_555
C159A C160A 1_555 1_555
C164A C165A 1_555 1_555
N41A N42A 1_555 1_555
N42A C166A 1_555 1_555
C167A C168A 1_555 1_555
N44A C176A 1_555 1_555
C172A C173A 1_555 1_555
N45A C174A 1_555 1_555
C174A C175A 1_555 1_555
C180A C181A 1_555 1_555
N47A C184A 1_555 1_555
N48A C182A 1_555 1_555
C182A C183A 1_555 1_555

#END
