
#######################################################################
#
#                 Cambridge Crystallographic Data Centre
#                                CCDC 
#
#######################################################################
#
# If this CIF has been generated from an entry in the Cambridge 
# Structural Database, then it will include bibliographic, chemical, 
# crystal, experimental, refinement or atomic coordinate data resulting 
# from the CCDC's data processing and validation procedures.
#
#######################################################################

data_FECHOL
_chemical_formula_moiety         
'C84 H76 Cu4 N20 O8 4+,4(B1 F4 1-),C2 H3 N1,2(H2 O1)'
_chemical_name_systematic        
'tetrakis(\m~2~-5-(2-Hydroxyethylcarbamoyl)-1,3-phenylenebis(2-iminomethylpyridine))-tetra-copper(i) tetrakis(tetrafluoroborate) acetonitrile solvate dihydrate'
_symmetry_cell_setting           tetragonal
_symmetry_space_group_name_H-M   'I 41/a'
_symmetry_Int_Tables_number      88
_space_group_name_Hall           '-I 4ad'
loop_
_symmetry_equiv_pos_site_id
_symmetry_equiv_pos_as_xyz
1 x,y,z
2 3/4-y,1/4+x,1/4+z
3 1/2+x,1/2+y,1/2+z
4 1/4-y,3/4+x,3/4+z
5 1/4+y,1/4-x,1/4+z
6 1/2-x,-y,1/2+z
7 3/4+y,3/4-x,3/4+z
8 -x,1/2-y,z
9 -x,-y,-z
10 1/4+y,3/4-x,3/4-z
11 1/2-x,1/2-y,1/2-z
12 3/4+y,1/4-x,1/4-z
13 3/4-y,3/4+x,3/4-z
14 1/2+x,y,1/2-z
15 1/4-y,1/4+x,1/4-z
16 x,1/2+y,-z
_cell_length_a                   14.6561(3)
_cell_length_b                   14.6561(3)
_cell_length_c                   43.9683(14)
_cell_angle_alpha                90
_cell_angle_beta                 90
_cell_angle_gamma                90
_cell_volume                     9444.45
_exptl_crystal_colour            violet
_exptl_crystal_description       prism
_cell_formula_units_Z            4
loop_
_atom_site_label
_atom_site_type_symbol
_atom_site_fract_x
_atom_site_fract_y
_atom_site_fract_z
Cu1 Cu 0.73466(3) 0.33510(3) 0.386022(11)
O1 O 0.54943(18) 0.36223(19) 0.53236(7)
O2 O 0.3851(3) 0.24039(19) 0.57884(7)
N1 N 0.67271(17) 0.29965(17) 0.42518(7)
N2 N 0.82315(17) 0.23188(17) 0.39922(7)
N3 N 0.71866(17) 0.35476(17) 0.34071(7)
N4 N 0.80211(17) 0.45787(16) 0.38267(7)
N5 N 0.3993(3) 0.3866(3) 0.52546(8)
C1 C 0.5319(3) 0.3825(3) 0.41915(8)
C2 C 0.5940(2) 0.3405(2) 0.43867(8)
C3 C 0.5781(3) 0.3407(2) 0.46991(9)
C4 C 0.4984(3) 0.3793(2) 0.48145(8)
C5 C 0.4372(3) 0.4212(3) 0.46180(8)
C6 C 0.6741(2) 0.2958(2) 0.31931(8)
C7 C 0.7184(3) 0.2394(3) 0.44002(9)
C8 C 0.8005(3) 0.1996(3) 0.42662(9)
C9 C 0.8507(3) 0.1333(3) 0.44149(11)
C10 C 0.9278(3) 0.0988(3) 0.42745(12)
C11 C 0.9506(3) 0.1313(3) 0.39935(11)
C12 C 0.8975(3) 0.1979(3) 0.38585(10)
C13 C 0.7672(3) 0.4219(3) 0.33105(9)
C14 C 0.8116(3) 0.4818(3) 0.35318(9)
C15 C 0.8620(3) 0.5569(3) 0.34410(9)
C16 C 0.9031(3) 0.6101(3) 0.36609(11)
C17 C 0.8935(3) 0.5861(3) 0.39598(10)
C18 C 0.8427(3) 0.5096(3) 0.40345(9)
C19 C 0.4839(3) 0.3751(3) 0.51533(9)
C20 C 0.3731(3) 0.3936(3) 0.55744(9)
C21 C 0.3258(3) 0.3117(3) 0.57009(11)
H1 H 0.412(3) 0.214(3) 0.5641(7)
H2 H 0.359(2) 0.404(3) 0.5129(8)
H3 H 0.54272 0.38249 0.39721
H4 H 0.62320 0.31403 0.48376
H5 H 0.38152 0.44883 0.46997
H6 H 0.69793 0.22029 0.46024
H7 H 0.83202 0.11104 0.46154
H8 H 0.96533 0.05276 0.43746
H9 H 1.00423 0.10713 0.38874
H10 H 0.91546 0.22105 0.36595
H11 H 0.77437 0.43247 0.30929
H12 H 0.86817 0.57216 0.32242
H13 H 0.93847 0.66424 0.36032
H14 H 0.92294 0.62268 0.41189
H15 H 0.83647 0.49331 0.42495
H16 H 0.42870 0.40416 0.56925
H17 H 0.33214 0.44608 0.55958
H18 H 0.29100 0.33029 0.58789
H19 H 0.28438 0.28779 0.55444
Cu1L Cu 0.41490(3) 0.48466(3) 0.363978(11)
Cu1G Cu 0.26534(3) 0.16490(3) 0.386022(11)
Cu1I Cu 0.58510(3) 0.01534(3) 0.363978(11)
O1I O 0.61223(19) 0.20057(18) 0.21764(7)
O1G O 0.45057(18) 0.13777(19) 0.53236(7)
O1L O 0.38777(19) 0.29943(18) 0.21764(7)
O2I O 0.49039(19) 0.3649(3) 0.17116(7)
O2G O 0.6149(3) 0.25961(19) 0.57884(7)
O2L O 0.50961(19) 0.1351(3) 0.17116(7)
N1L N 0.45035(17) 0.42271(17) 0.32482(7)
N1G N 0.32729(17) 0.20035(17) 0.42518(7)
N1I N 0.54965(17) 0.07729(17) 0.32482(7)
N2I N 0.48188(17) -0.07315(17) 0.35078(7)
N2G N 0.17685(17) 0.26812(17) 0.39922(7)
N2L N 0.51812(17) 0.57315(17) 0.35078(7)
N3L N 0.39524(17) 0.46866(17) 0.40929(7)
N3G N 0.28134(17) 0.14524(17) 0.34071(7)
N3I N 0.60476(17) 0.03134(17) 0.40929(7)
N4I N 0.70787(16) -0.05211(17) 0.36733(7)
N4G N 0.19789(17) 0.04213(16) 0.38267(7)
N4L N 0.29213(16) 0.55211(17) 0.36733(7)
N5I N 0.6366(3) 0.3507(3) 0.22454(8)
N5G N 0.6007(3) 0.1134(3) 0.52546(8)
N5L N 0.3634(3) 0.1493(3) 0.22454(8)
C1L C 0.3675(3) 0.2819(3) 0.33085(8)
C1G C 0.4681(3) 0.1175(3) 0.41915(8)
C1I C 0.6325(3) 0.2181(3) 0.33085(8)
C2L C 0.4095(2) 0.3440(2) 0.31133(8)
C2G C 0.4060(2) 0.1595(2) 0.43867(8)
C2I C 0.5905(2) 0.1560(2) 0.31133(8)
C3I C 0.5907(2) 0.1719(3) 0.28009(9)
C3G C 0.4219(3) 0.1593(2) 0.46991(9)
C3L C 0.4093(2) 0.3281(3) 0.28009(9)
C4I C 0.6293(2) 0.2516(3) 0.26855(8)
C4G C 0.5016(3) 0.1207(2) 0.48145(8)
C4L C 0.3707(2) 0.2484(3) 0.26855(8)
C5I C 0.6712(3) 0.3128(3) 0.28820(8)
C5G C 0.5628(3) 0.0788(3) 0.46180(8)
C5L C 0.3288(3) 0.1872(3) 0.28820(8)
C6L C 0.4542(2) 0.4241(2) 0.43069(8)
C6G C 0.3259(2) 0.2042(2) 0.31931(8)
C6I C 0.5458(2) 0.0759(2) 0.43069(8)
C7I C 0.4894(3) 0.0316(3) 0.30998(9)
C7G C 0.2816(3) 0.2606(3) 0.44002(9)
C7L C 0.5106(3) 0.4684(3) 0.30998(9)
C8I C 0.4496(3) -0.0505(3) 0.32338(9)
C8G C 0.1995(3) 0.3004(3) 0.42662(9)
C8L C 0.5504(3) 0.5505(3) 0.32338(9)
C9I C 0.3833(3) -0.1007(3) 0.30851(11)
C9G C 0.1493(3) 0.3667(3) 0.44149(11)
C9L C 0.6167(3) 0.6007(3) 0.30851(11)
C10I C 0.3488(3) -0.1778(3) 0.32255(12)
C10G C 0.0722(3) 0.4012(3) 0.42745(12)
C10L C 0.6512(3) 0.6778(3) 0.32255(12)
C11I C 0.3813(3) -0.2006(3) 0.35065(11)
C11G C 0.0494(3) 0.3687(3) 0.39935(11)
C11L C 0.6187(3) 0.7006(3) 0.35065(11)
C12I C 0.4479(3) -0.1475(3) 0.36415(10)
C12G C 0.1025(3) 0.3021(3) 0.38585(10)
C12L C 0.5521(3) 0.6475(3) 0.36415(10)
C13I C 0.6719(3) -0.0172(3) 0.41895(9)
C13G C 0.2328(3) 0.0781(3) 0.33105(9)
C13L C 0.3281(3) 0.5172(3) 0.41895(9)
C14I C 0.7318(3) -0.0616(3) 0.39682(9)
C14G C 0.1884(3) 0.0182(3) 0.35318(9)
C14L C 0.2682(3) 0.5616(3) 0.39682(9)
C15I C 0.8069(3) -0.1120(3) 0.40590(9)
C15G C 0.1380(3) -0.0569(3) 0.34410(9)
C15L C 0.1931(3) 0.6120(3) 0.40590(9)
C16I C 0.8601(3) -0.1531(3) 0.38391(11)
C16G C 0.0969(3) -0.1101(3) 0.36609(11)
C16L C 0.1399(3) 0.6531(3) 0.38391(11)
C17I C 0.8361(3) -0.1435(3) 0.35402(10)
C17G C 0.1065(3) -0.0861(3) 0.39598(10)
C17L C 0.1639(3) 0.6435(3) 0.35402(10)
C18I C 0.7596(3) -0.0927(3) 0.34655(9)
C18G C 0.1573(3) -0.0096(3) 0.40345(9)
C18L C 0.2404(3) 0.5927(3) 0.34655(9)
C19I C 0.6251(3) 0.2661(3) 0.23467(9)
C19G C 0.5161(3) 0.1249(3) 0.51533(9)
C19L C 0.3749(3) 0.2339(3) 0.23467(9)
C20I C 0.6436(3) 0.3769(3) 0.19256(9)
C20G C 0.6269(3) 0.1064(3) 0.55744(9)
C20L C 0.3564(3) 0.1231(3) 0.19256(9)
C21I C 0.5617(3) 0.4242(3) 0.17991(11)
C21G C 0.6742(3) 0.1883(3) 0.57009(11)
C21L C 0.4383(3) 0.0758(3) 0.17991(11)
H1I H 0.464(3) 0.338(3) 0.1859(7)
H1G H 0.588(3) 0.286(3) 0.5641(7)
H1L H 0.536(3) 0.162(3) 0.1859(7)
H2I H 0.654(3) 0.391(2) 0.2371(8)
H2G H 0.641(2) 0.096(3) 0.5129(8)
H2L H 0.346(3) 0.109(2) 0.2371(8)
H3I H 0.63249 0.20728 0.35279
H3G H 0.45728 0.11751 0.39721
H3L H 0.36751 0.29272 0.35279
H4I H 0.56403 0.12680 0.26624
H4G H 0.37680 0.18597 0.48376
H4L H 0.43597 0.37320 0.26624
H5I H 0.69883 0.36848 0.28003
H5G H 0.61848 0.05117 0.46997
H5L H 0.30117 0.13152 0.28003
H6I H 0.47029 0.05207 0.28976
H6G H 0.30207 0.27971 0.46024
H6L H 0.52971 0.44793 0.28976
H7I H 0.36104 -0.08202 0.28846
H7G H 0.16798 0.38896 0.46154
H7L H 0.63896 0.58202 0.28846
H8I H 0.30276 -0.21533 0.31254
H8G H 0.03467 0.44724 0.43746
H8L H 0.69724 0.71533 0.31254
H9I H 0.35713 -0.25423 0.36126
H9G H -0.00423 0.39287 0.38874
H9L H 0.64287 0.75423 0.36126
H10I H 0.47105 -0.16546 0.38405
H10G H 0.08454 0.27895 0.36595
H10L H 0.52895 0.66546 0.38405
H11I H 0.68247 -0.02437 0.44071
H11G H 0.22563 0.06753 0.30929
H11L H 0.31753 0.52437 0.44071
H12I H 0.82216 -0.11817 0.42758
H12G H 0.13183 -0.07216 0.32242
H12L H 0.17784 0.61817 0.42758
H13I H 0.91424 -0.18847 0.38968
H13G H 0.06153 -0.16424 0.36032
H13L H 0.08576 0.68847 0.38968
H14I H 0.87268 -0.17294 0.33811
H14G H 0.07706 -0.12268 0.41189
H14L H 0.12732 0.67294 0.33811
H15I H 0.74331 -0.08647 0.32505
H15G H 0.16353 0.00669 0.42495
H15L H 0.25669 0.58647 0.32505
H16I H 0.65416 0.32130 0.18075
H16G H 0.57130 0.09584 0.56925
H16L H 0.34584 0.17870 0.18075
H17I H 0.69608 0.41786 0.19042
H17G H 0.66786 0.05392 0.55958
H17L H 0.30392 0.08214 0.19042
H18I H 0.58029 0.45900 0.16211
H18G H 0.70900 0.16971 0.58789
H18L H 0.41971 0.04100 0.16211
H19I H 0.53779 0.46562 0.19556
H19G H 0.71562 0.21221 0.55444
H19L H 0.46221 0.03438 0.19556
B1 B 0.3223(13) 0.5601(10) 0.2509(4)
F1 F 0.3393(8) 0.5703(11) 0.2798(3)
F2 F 0.2409(13) 0.5050(10) 0.2471(3)
F3 F 0.3003(8) 0.6371(5) 0.2357(3)
F4 F 0.4089(7) 0.5270(5) 0.2383(3)
N6 N 0.00000 0.25000 0.5613(3)
C22 C 0.00000 0.25000 0.5395(5)
C23 C 0.00000 0.25000 0.5025(4)
O3 O 0.7801(8) 0.1972(11) 0.5057(4)
O4 O 0.9470(12) 0.5869(10) 0.4737(4)
loop_
_geom_bond_atom_site_label_1
_geom_bond_atom_site_label_2
_geom_bond_site_symmetry_1
_geom_bond_site_symmetry_2
Cu1 N1 1_555 1_555
O1 C19 1_555 1_555
O2 C21 1_555 1_555
N1 C2 1_555 1_555
N2 Cu1 1_555 1_555
N3 Cu1 1_555 1_555
N4 Cu1 1_555 1_555
N5 C19 1_555 1_555
C1 C2 1_555 1_555
C2 C3 1_555 1_555
C3 C4 1_555 1_555
C4 C5 1_555 1_555
C5 H5 1_555 1_555
C6 N3 1_555 1_555
C7 N1 1_555 1_555
C8 N2 1_555 1_555
C9 C8 1_555 1_555
C10 C9 1_555 1_555
C11 C10 1_555 1_555
C12 N2 1_555 1_555
C13 N3 1_555 1_555
C14 N4 1_555 1_555
C15 C14 1_555 1_555
C16 C15 1_555 1_555
C17 C16 1_555 1_555
C18 N4 1_555 1_555
C19 C4 1_555 1_555
C20 N5 1_555 1_555
C21 C20 1_555 1_555
B1 F1 1_555 1_555
F2 B1 1_555 1_555
F3 B1 1_555 1_555
F4 B1 1_555 1_555
N6 C22 1_555 1_555
C22 C23 1_555 1_555
H1 O2 1_555 1_555
H2 N5 1_555 1_555
H3 C1 1_555 1_555
H4 C3 1_555 1_555
H6 C7 1_555 1_555
H7 C9 1_555 1_555
H8 C10 1_555 1_555
H9 C11 1_555 1_555
H10 C12 1_555 1_555
H11 C13 1_555 1_555
H12 C15 1_555 1_555
H13 C16 1_555 1_555
H14 C17 1_555 1_555
H15 C18 1_555 1_555
H16 C20 1_555 1_555
H17 C20 1_555 1_555
H18 C21 1_555 1_555
H19 C21 1_555 1_555
Cu1L N1L 1_555 1_555
Cu1G N1G 1_555 1_555
Cu1I N1I 1_555 1_555
O1I C19I 1_555 1_555
O1G C19G 1_555 1_555
O1L C19L 1_555 1_555
O2I C21I 1_555 1_555
O2G C21G 1_555 1_555
O2L C21L 1_555 1_555
N1L C2L 1_555 1_555
N1G C2G 1_555 1_555
N1I C2I 1_555 1_555
N2I Cu1I 1_555 1_555
N2G Cu1G 1_555 1_555
N2L Cu1L 1_555 1_555
N3L Cu1L 1_555 1_555
N3G Cu1G 1_555 1_555
N3I Cu1I 1_555 1_555
N4I Cu1I 1_555 1_555
N4G Cu1G 1_555 1_555
N4L Cu1L 1_555 1_555
N5I C19I 1_555 1_555
N5G C19G 1_555 1_555
N5L C19L 1_555 1_555
C1L C2L 1_555 1_555
C1G C2G 1_555 1_555
C1I C6 1_555 1_555
C2L C3L 1_555 1_555
C2G C3G 1_555 1_555
C2I C1I 1_555 1_555
C3I C2I 1_555 1_555
C3G C4G 1_555 1_555
C3L C4L 1_555 1_555
C4I C3I 1_555 1_555
C4G C5G 1_555 1_555
C4L C5L 1_555 1_555
C5I C6 1_555 1_555
C5G C6I 1_555 1_555
C5L C6G 1_555 1_555
C6L C1 1_555 1_555
C6G N3G 1_555 1_555
C6I N3I 1_555 1_555
C7I N1I 1_555 1_555
C7G N1G 1_555 1_555
C7L N1L 1_555 1_555
C8I N2I 1_555 1_555
C8G N2G 1_555 1_555
C8L N2L 1_555 1_555
C9I C8I 1_555 1_555
C9G C8G 1_555 1_555
C9L C8L 1_555 1_555
C10I C9I 1_555 1_555
C10G C9G 1_555 1_555
C10L C9L 1_555 1_555
C11I C10I 1_555 1_555
C11G C10G 1_555 1_555
C11L C10L 1_555 1_555
C12I N2I 1_555 1_555
C12G N2G 1_555 1_555
C12L N2L 1_555 1_555
C13I N3I 1_555 1_555
C13G N3G 1_555 1_555
C13L N3L 1_555 1_555
C14I N4I 1_555 1_555
C14G N4G 1_555 1_555
C14L N4L 1_555 1_555
C15I C14I 1_555 1_555
C15G C14G 1_555 1_555
C15L C14L 1_555 1_555
C16I C15I 1_555 1_555
C16G C15G 1_555 1_555
C16L C15L 1_555 1_555
C17I C16I 1_555 1_555
C17G C16G 1_555 1_555
C17L C16L 1_555 1_555
C18I N4I 1_555 1_555
C18G N4G 1_555 1_555
C18L N4L 1_555 1_555
C19I C4I 1_555 1_555
C19G C4G 1_555 1_555
C19L C4L 1_555 1_555
C20I N5I 1_555 1_555
C20G N5G 1_555 1_555
C20L N5L 1_555 1_555
C21I C20I 1_555 1_555
C21G C20G 1_555 1_555
C21L C20L 1_555 1_555
H1I O2I 1_555 1_555
H1G O2G 1_555 1_555
H1L O2L 1_555 1_555
H2I N5I 1_555 1_555
H2G N5G 1_555 1_555
H2L N5L 1_555 1_555
H3I C1I 1_555 1_555
H3G C1G 1_555 1_555
H3L C1L 1_555 1_555
H4I C3I 1_555 1_555
H4G C3G 1_555 1_555
H4L C3L 1_555 1_555
H5I C5I 1_555 1_555
H5G C5G 1_555 1_555
H5L C5L 1_555 1_555
H6I C7I 1_555 1_555
H6G C7G 1_555 1_555
H6L C7L 1_555 1_555
H7I C9I 1_555 1_555
H7G C9G 1_555 1_555
H7L C9L 1_555 1_555
H8I C10I 1_555 1_555
H8G C10G 1_555 1_555
H8L C10L 1_555 1_555
H9I C11I 1_555 1_555
H9G C11G 1_555 1_555
H9L C11L 1_555 1_555
H10I C12I 1_555 1_555
H10G C12G 1_555 1_555
H10L C12L 1_555 1_555
H11I C13I 1_555 1_555
H11G C13G 1_555 1_555
H11L C13L 1_555 1_555
H12I C15I 1_555 1_555
H12G C15G 1_555 1_555
H12L C15L 1_555 1_555
H13I C16I 1_555 1_555
H13G C16G 1_555 1_555
H13L C16L 1_555 1_555
H14I C17I 1_555 1_555
H14G C17G 1_555 1_555
H14L C17L 1_555 1_555
H15I C18I 1_555 1_555
H15G C18G 1_555 1_555
H15L C18L 1_555 1_555
H16I C20I 1_555 1_555
H16G C20G 1_555 1_555
H16L C20L 1_555 1_555
H17I C20I 1_555 1_555
H17G C20G 1_555 1_555
H17L C20L 1_555 1_555
H18I C21I 1_555 1_555
H18G C21G 1_555 1_555
H18L C21L 1_555 1_555
H19I C21I 1_555 1_555
H19G C21G 1_555 1_555
H19L C21L 1_555 1_555
C5 C6L 1_555 1_555
C7 C8 1_555 1_555
C11 C12 1_555 1_555
C13 C14 1_555 1_555
C17 C18 1_555 1_555
N3L C6L 1_555 1_555
C1L C6G 1_555 1_555
C1G C6I 1_555 1_555
C4I C5I 1_555 1_555
C7I C8I 1_555 1_555
C7G C8G 1_555 1_555
C7L C8L 1_555 1_555
C11I C12I 1_555 1_555
C11G C12G 1_555 1_555
C11L C12L 1_555 1_555
C13I C14I 1_555 1_555
C13G C14G 1_555 1_555
C13L C14L 1_555 1_555
C17I C18I 1_555 1_555
C17G C18G 1_555 1_555
C17L C18L 1_555 1_555

#END
