
#######################################################################
#
#                 Cambridge Crystallographic Data Centre
#                                CCDC 
#
#######################################################################
#
# If this CIF has been generated from an entry in the Cambridge 
# Structural Database, then it will include bibliographic, chemical, 
# crystal, experimental, refinement or atomic coordinate data resulting 
# from the CCDC's data processing and validation procedures.
#
#######################################################################

data_FEMRUL
_chemical_name_common            
'bis(mu!2$-Anthracene-1,8-diyl)-bis(mu!2$-isonicotinato)-octakis(triethylphosphine)-tetra-platinum dinitrate chloroform solvate'
_chemical_formula_moiety         
'C88 H144 N2 O4 P8 Pt4 2+,2(N1 O3 1-),3(C1 H1 Cl3)'
_chemical_name_systematic        
'bis(\m~2~-Anthracene-1,8-diyl)-bis(\m~2~-pyridine-4-carboxylato)-octakis(triethylphosphine)-tetra-platinum dinitrate chloroform solvate'
_symmetry_cell_setting           triclinic
_symmetry_space_group_name_H-M   'P -1'
_symmetry_Int_Tables_number      2
_space_group_name_Hall           '-P 1'
loop_
_symmetry_equiv_pos_site_id
_symmetry_equiv_pos_as_xyz
1 x,y,z
2 -x,-y,-z
_cell_length_a                   13.1654(2)
_cell_length_b                   14.8448(2)
_cell_length_c                   16.6288(3)
_cell_angle_alpha                70.9567(6)
_cell_angle_beta                 69.6170(7)
_cell_angle_gamma                74.8414(14)
_cell_volume                     2839.31
_exptl_crystal_colour            yellow
_exptl_crystal_description       prism
_cell_formula_units_Z            1
_exptl_crystal_recrystallization_method chloroform/hexane
loop_
_atom_site_label
_atom_site_type_symbol
_atom_site_fract_x
_atom_site_fract_y
_atom_site_fract_z
Pt1 Pt 0.160397(12) 0.148053(12) 0.654063(9)
Pt4 Pt -0.279226(13) 0.211201(11) 0.813354(9)
P1 P 0.21469(7) 0.29862(7) 0.62577(5)
P2 P 0.13716(11) -0.00479(9) 0.65969(9)
P3 P -0.35962(10) 0.10355(8) 0.78928(7)
P6 P -0.22823(8) 0.33197(7) 0.84041(6)
C1 C 0.1243(3) 0.2026(2) 0.5374(2)
C2 C 0.2049(4) 0.2005(3) 0.4600(2)
H1 H 0.2776 0.1723 0.4631
C3 C 0.1875(4) 0.2376(3) 0.3749(2)
H2 H 0.2464 0.2339 0.3224
C4 C 0.0793(4) 0.2806(3) 0.3707(2)
H3 H 0.0648 0.3075 0.3148
C5 C -0.0092(3) 0.2834(2) 0.45168(18)
C6 C -0.1141(3) 0.3278(2) 0.44696(19)
H4 H -0.1268 0.3551 0.3904
C7 C -0.2012(3) 0.3332(2) 0.52294(19)
C8 C -0.3078(3) 0.3853(3) 0.5188(2)
H5 H -0.3196 0.4156 0.4622
C9 C -0.3921(3) 0.3932(3) 0.5915(3)
H6 H -0.4616 0.4300 0.5868
C10 C -0.3743(3) 0.3441(3) 0.6772(2)
H7 H -0.4337 0.3501 0.7288
C11 C -0.2786(3) 0.2907(2) 0.6879(2)
C12 C -0.1846(3) 0.2870(2) 0.61090(19)
C13 C -0.0753(3) 0.2420(2) 0.61266(19)
H8 H -0.0628 0.2111 0.6690
C14 C 0.0158(3) 0.2403(2) 0.53620(18)
C15 C 0.2278(3) 0.3157(3) 0.7247(2)
H9 H 0.1540 0.3191 0.7684
H10 H 0.2747 0.2574 0.7507
C16 C 0.2739(3) 0.4020(3) 0.7148(3)
H11 H 0.2777 0.4019 0.7727
H12 H 0.2264 0.4610 0.6925
H13 H 0.3478 0.3997 0.6729
C17 C 0.3490(3) 0.3093(4) 0.5430(3)
H14 H 0.3453 0.3045 0.4862
H15 H 0.3665 0.3738 0.5328
C18 C 0.4410(3) 0.2316(4) 0.5714(3)
H16 H 0.5110 0.2412 0.5255
H17 H 0.4256 0.1677 0.5794
H18 H 0.4454 0.2362 0.6275
C19 C 0.1277(3) 0.4082(2) 0.5802(3)
H19 H 0.0505 0.3971 0.6053
H20 H 0.1329 0.4612 0.6016
C20 C 0.1522(3) 0.4430(3) 0.4795(3)
H21 H 0.1001 0.5016 0.4637
H22 H 0.1449 0.3924 0.4568
H23 H 0.2272 0.4572 0.4531
C21 C 0.1385(5) -0.0971(4) 0.7630(2)
H24 H 0.1422 -0.1592 0.7511
H25 H 0.2091 -0.1006 0.7734
C22 C 0.0547(7) -0.0962(8) 0.8472(4)
H26 H 0.0735 -0.1531 0.8932
H27 H -0.0166 -0.0974 0.8415
H28 H 0.0505 -0.0374 0.8637
C23 C 0.2142(9) -0.0412(8) 0.5740(7)
H29 H 0.2911 -0.0371 0.5661
H30 H 0.1934 0.0036 0.5212
C24 C 0.2097(12) -0.1512(11) 0.5765(10)
H31 H 0.2680 -0.1706 0.5265
H32 H 0.1381 -0.1534 0.5722
H33 H 0.2203 -0.1955 0.6325
C25 C 0.0078(2) -0.0005(4) 0.6422(4)
H34 H -0.0513 0.0320 0.6847
H35 H 0.0089 0.0407 0.5817
C26 C -0.02245(19) -0.09426(18) 0.6517(2)
H36 H -0.1018 -0.0917 0.6790
H37 H 0.0168 -0.1467 0.6893
H38 H -0.0021 -0.1060 0.5929
C27 C -0.3612(6) -0.0179(6) 0.8673(6)
H39 H -0.3711 -0.0154 0.9283
H40 H -0.4201 -0.0484 0.8678
C28 C -0.2467(7) -0.0719(7) 0.8282(6)
H41 H -0.2372 -0.1381 0.8657
H42 H -0.1903 -0.0384 0.8261
H43 H -0.2395 -0.0735 0.7680
C29 C -0.5027(4) 0.1485(4) 0.8043(4)
H44 H -0.5116 0.2093 0.7578
H45 H -0.5365 0.1011 0.7960
C30 C -0.5601(6) 0.1664(5) 0.8887(5)
H46 H -0.6378 0.1912 0.8920
H47 H -0.5283 0.2142 0.8972
H48 H -0.5540 0.1061 0.9353
C31 C -0.3214(4) 0.0894(4) 0.6790(3)
H49 H -0.3394 0.1532 0.6388
H50 H -0.2407 0.0693 0.6595
C32 C -0.3764(4) 0.0155(4) 0.6672(4)
H51 H -0.3467 0.0101 0.6058
H52 H -0.4560 0.0377 0.6806
H53 H -0.3613 -0.0478 0.7078
C33 C -0.1107(4) 0.3849(4) 0.7633(4)
H54 H -0.0461 0.3325 0.7604
H55 H -0.1227 0.4075 0.7038
C34 C -0.0812(5) 0.4653(5) 0.7788(4)
H56 H -0.0160 0.4857 0.7313
H57 H -0.0653 0.4442 0.8361
H58 H -0.1425 0.5195 0.7793
C35 C -0.3309(7) 0.4340(7) 0.8322(4)
H59 H -0.3039 0.4943 0.8214
H60 H -0.3663 0.4406 0.7864
C36 C -0.4056(10) 0.4025(12) 0.9266(5)
H61 H -0.4756 0.4473 0.9336
H62 H -0.3700 0.4030 0.9693
H63 H -0.4191 0.3371 0.9375
C37 C -0.2273(4) 0.3257(5) 0.9507(2)
H64 H -0.2161 0.3890 0.9510
H65 H -0.2999 0.3136 0.9929
C38 C -0.1388(3) 0.2475(7) 0.9829(2)
H66 H -0.1624 0.1844 1.0025
H67 H -0.1268 0.2607 1.0326
H68 H -0.0703 0.2469 0.9343
O3 O 0.2415(3) 0.0952(3) 0.7631(2)
O4 O 0.0745(3) 0.1496(3) 0.8450(3)
N2 N -0.2422(3) 0.1039(3) 0.9317(2)
C45 C 0.1647(4) 0.0995(4) 0.8383(3)
C46 C 0.1964(4) 0.0337(4) 0.9161(2)
C47 C 0.2910(3) -0.0311(4) 0.9129(3)
H73 H 0.3436 -0.0317 0.8568
C48 C -0.3145(4) 0.0980(4) 1.0099(3)
H74 H -0.3838 0.1393 1.0151
C49 C -0.1428(4) 0.0420(4) 0.9256(3)
H75 H -0.0884 0.0465 0.8696
C50 C 0.1205(4) 0.0289(4) 0.9977(3)
H76 H 0.0528 0.0726 1.0034
Pt1A Pt -0.160397(12) -0.148053(12) 1.345937(9)
Pt4A Pt 0.279226(13) -0.211201(11) 1.186646(9)
P1A P -0.21469(7) -0.29862(7) 1.37423(5)
P2A P -0.13716(11) 0.00479(9) 1.34031(9)
P3A P 0.35962(10) -0.10355(8) 1.21072(7)
P6A P 0.22823(8) -0.33197(7) 1.15959(6)
C1A C -0.1243(3) -0.2026(2) 1.4626(2)
C2A C -0.2049(4) -0.2005(3) 1.5400(2)
H1A H -0.2776 -0.1723 1.5369
C3A C -0.1875(4) -0.2376(3) 1.6251(2)
H2A H -0.2464 -0.2339 1.6776
C4A C -0.0793(4) -0.2806(3) 1.6293(2)
H3A H -0.0648 -0.3075 1.6852
C5A C 0.0092(3) -0.2834(2) 1.54832(18)
C6A C 0.1141(3) -0.3278(2) 1.55304(19)
H4A H 0.1268 -0.3551 1.6096
C7A C 0.2012(3) -0.3332(2) 1.47706(19)
C8A C 0.3078(3) -0.3853(3) 1.4812(2)
H5A H 0.3196 -0.4156 1.5378
C9A C 0.3921(3) -0.3932(3) 1.4085(3)
H6A H 0.4616 -0.4300 1.4132
C10A C 0.3743(3) -0.3441(3) 1.3228(2)
H7A H 0.4337 -0.3501 1.2712
C11A C 0.2786(3) -0.2907(2) 1.3121(2)
C12A C 0.1846(3) -0.2870(2) 1.38910(19)
C13A C 0.0753(3) -0.2420(2) 1.38734(19)
H8A H 0.0628 -0.2111 1.3310
C14A C -0.0158(3) -0.2403(2) 1.46380(18)
C15A C -0.2278(3) -0.3157(3) 1.2753(2)
H9A H -0.1540 -0.3191 1.2316
H10A H -0.2747 -0.2574 1.2493
C16A C -0.2739(3) -0.4020(3) 1.2852(3)
H11A H -0.2777 -0.4019 1.2273
H12A H -0.2264 -0.4610 1.3075
H13A H -0.3478 -0.3997 1.3271
C17A C -0.3490(3) -0.3093(4) 1.4570(3)
H14A H -0.3453 -0.3045 1.5138
H15A H -0.3665 -0.3738 1.4672
C18A C -0.4410(3) -0.2316(4) 1.4286(3)
H16A H -0.5110 -0.2412 1.4745
H17A H -0.4256 -0.1677 1.4206
H18A H -0.4454 -0.2362 1.3725
C19A C -0.1277(3) -0.4082(2) 1.4198(3)
H19A H -0.0505 -0.3971 1.3947
H20A H -0.1329 -0.4612 1.3984
C20A C -0.1522(3) -0.4430(3) 1.5205(3)
H21A H -0.1001 -0.5016 1.5363
H22A H -0.1449 -0.3924 1.5432
H23A H -0.2272 -0.4572 1.5469
C21A C -0.1385(5) 0.0971(4) 1.2370(2)
H24A H -0.1422 0.1592 1.2489
H25A H -0.2091 0.1006 1.2266
C22A C -0.0547(7) 0.0962(8) 1.1528(4)
H26A H -0.0735 0.1531 1.1068
H27A H 0.0166 0.0974 1.1585
H28A H -0.0505 0.0374 1.1363
C23A C -0.2142(9) 0.0412(8) 1.4260(7)
H29A H -0.2911 0.0371 1.4339
H30A H -0.1934 -0.0036 1.4788
C24A C -0.2097(12) 0.1512(11) 1.4235(10)
H31A H -0.2680 0.1706 1.4735
H32A H -0.1381 0.1534 1.4278
H33A H -0.2203 0.1955 1.3675
C25A C -0.0078(2) 0.0005(4) 1.3578(4)
H34A H 0.0513 -0.0320 1.3153
H35A H -0.0089 -0.0407 1.4183
C26A C 0.02245(19) 0.09426(18) 1.3483(2)
H36A H 0.1018 0.0917 1.3210
H37A H -0.0168 0.1467 1.3107
H38A H 0.0021 0.1060 1.4071
C27A C 0.3612(6) 0.0179(6) 1.1327(6)
H39A H 0.3711 0.0154 1.0717
H40A H 0.4201 0.0484 1.1322
C28A C 0.2467(7) 0.0719(7) 1.1718(6)
H41A H 0.2372 0.1381 1.1343
H42A H 0.1903 0.0384 1.1739
H43A H 0.2395 0.0735 1.2320
C29A C 0.5027(4) -0.1485(4) 1.1957(4)
H44A H 0.5116 -0.2093 1.2422
H45A H 0.5365 -0.1011 1.2040
C30A C 0.5601(6) -0.1664(5) 1.1113(5)
H46A H 0.6378 -0.1912 1.1080
H47A H 0.5283 -0.2142 1.1028
H48A H 0.5540 -0.1061 1.0647
C31A C 0.3214(4) -0.0894(4) 1.3210(3)
H49A H 0.3394 -0.1532 1.3612
H50A H 0.2407 -0.0693 1.3405
C32A C 0.3764(4) -0.0155(4) 1.3328(4)
H51A H 0.3467 -0.0101 1.3942
H52A H 0.4560 -0.0377 1.3194
H53A H 0.3613 0.0478 1.2922
C33A C 0.1107(4) -0.3849(4) 1.2367(4)
H54A H 0.0461 -0.3325 1.2396
H55A H 0.1227 -0.4075 1.2962
C34A C 0.0812(5) -0.4653(5) 1.2212(4)
H56A H 0.0160 -0.4857 1.2687
H57A H 0.0653 -0.4442 1.1639
H58A H 0.1425 -0.5195 1.2207
C35A C 0.3309(7) -0.4340(7) 1.1678(4)
H59A H 0.3039 -0.4943 1.1786
H60A H 0.3663 -0.4406 1.2136
C36A C 0.4056(10) -0.4025(12) 1.0734(5)
H61A H 0.4756 -0.4473 1.0664
H62A H 0.3700 -0.4030 1.0307
H63A H 0.4191 -0.3371 1.0625
C37A C 0.2273(4) -0.3257(5) 1.0493(2)
H64A H 0.2161 -0.3890 1.0490
H65A H 0.2999 -0.3136 1.0071
C38A C 0.1388(3) -0.2475(7) 1.0171(2)
H66A H 0.1624 -0.1844 0.9975
H67A H 0.1268 -0.2607 0.9674
H68A H 0.0703 -0.2469 1.0657
O3A O -0.2415(3) -0.0952(3) 1.2369(2)
O4A O -0.0745(3) -0.1496(3) 1.1550(3)
N2A N 0.2422(3) -0.1039(3) 1.0683(2)
C45A C -0.1647(4) -0.0995(4) 1.1617(3)
C46A C -0.1964(4) -0.0337(4) 1.0839(2)
C47A C -0.2910(3) 0.0311(4) 1.0871(3)
H73A H -0.3436 0.0317 1.1432
C48A C 0.3145(4) -0.0980(4) 0.9901(3)
H74A H 0.3838 -0.1393 0.9849
C49A C 0.1428(4) -0.0420(4) 1.0744(3)
H75A H 0.0884 -0.0465 1.1304
C50A C -0.1205(4) -0.0289(4) 1.0023(3)
H76A H -0.0528 -0.0726 0.9966
C51 C 0.5374(7) 0.3285(6) 0.2516(6)
H77 H 0.4816 0.3539 0.2179
Cl1 Cl 0.5161(3) 0.4016(3) 0.3216(2)
Cl2 Cl 0.5244(3) 0.2043(3) 0.3151(3)
Cl5 Cl 0.6654(4) 0.3384(3) 0.1786(3)
N3 N 0.62679(15) 0.70789(13) 0.88976(14)
O5 O 0.7022(2) 0.64737(18) 0.8583(2)
O6 O 0.6231(3) 0.7240(2) 0.96004(13)
O7 O 0.55471(18) 0.7529(3) 0.85204(18)
N4 N 0.92686(14) 0.61282(15) 1.01885(10)
O8 O 0.87588(19) 0.54369(14) 1.0557(2)
O9 O 1.02320(17) 0.5991(2) 0.96906(18)
O10 O 0.8851(2) 0.69500(13) 1.02976(19)
loop_
_geom_bond_atom_site_label_1
_geom_bond_atom_site_label_2
_geom_bond_site_symmetry_1
_geom_bond_site_symmetry_2
Pt1 P1 1_555 1_555
Pt4 P3 1_555 1_555
P1 C15 1_555 1_555
P2 Pt1 1_555 1_555
P3 C27 1_555 1_555
P6 Pt4 1_555 1_555
C1 Pt1 1_555 1_555
C2 C1 1_555 1_555
H1 C2 1_555 1_555
C3 C2 1_555 1_555
H2 C3 1_555 1_555
C4 C3 1_555 1_555
H3 C4 1_555 1_555
C5 C4 1_555 1_555
C6 C5 1_555 1_555
H4 C6 1_555 1_555
C7 C6 1_555 1_555
C8 C7 1_555 1_555
H5 C8 1_555 1_555
C9 C8 1_555 1_555
H6 C9 1_555 1_555
C10 C9 1_555 1_555
H7 C10 1_555 1_555
C11 Pt4 1_555 1_555
C12 C7 1_555 1_555
C13 C12 1_555 1_555
H8 C13 1_555 1_555
C14 C1 1_555 1_555
C15 H9 1_555 1_555
H10 C15 1_555 1_555
C16 C15 1_555 1_555
H11 C16 1_555 1_555
H12 C16 1_555 1_555
H13 C16 1_555 1_555
C17 P1 1_555 1_555
H14 C17 1_555 1_555
H15 C17 1_555 1_555
C18 C17 1_555 1_555
H16 C18 1_555 1_555
H17 C18 1_555 1_555
H18 C18 1_555 1_555
C19 P1 1_555 1_555
H19 C19 1_555 1_555
H20 C19 1_555 1_555
C20 C19 1_555 1_555
H21 C20 1_555 1_555
H22 C20 1_555 1_555
H23 C20 1_555 1_555
C21 P2 1_555 1_555
H24 C21 1_555 1_555
H25 C21 1_555 1_555
C22 C21 1_555 1_555
H26 C22 1_555 1_555
H27 C22 1_555 1_555
H28 C22 1_555 1_555
C23 P2 1_555 1_555
H29 C23 1_555 1_555
H30 C23 1_555 1_555
C24 C23 1_555 1_555
H31 C24 1_555 1_555
H32 C24 1_555 1_555
H33 C24 1_555 1_555
C25 P2 1_555 1_555
H34 C25 1_555 1_555
H35 C25 1_555 1_555
C26 C25 1_555 1_555
H36 C26 1_555 1_555
H37 C26 1_555 1_555
H38 C26 1_555 1_555
C27 H39 1_555 1_555
H40 C27 1_555 1_555
C28 C27 1_555 1_555
H41 C28 1_555 1_555
H42 C28 1_555 1_555
H43 C28 1_555 1_555
C29 P3 1_555 1_555
H44 C29 1_555 1_555
H45 C29 1_555 1_555
C30 C29 1_555 1_555
H46 C30 1_555 1_555
H47 C30 1_555 1_555
H48 C30 1_555 1_555
C31 P3 1_555 1_555
H49 C31 1_555 1_555
H50 C31 1_555 1_555
C32 C31 1_555 1_555
H51 C32 1_555 1_555
H52 C32 1_555 1_555
H53 C32 1_555 1_555
C33 P6 1_555 1_555
H54 C33 1_555 1_555
H55 C33 1_555 1_555
C34 C33 1_555 1_555
H56 C34 1_555 1_555
H57 C34 1_555 1_555
H58 C34 1_555 1_555
C35 P6 1_555 1_555
H59 C35 1_555 1_555
H60 C35 1_555 1_555
C36 C35 1_555 1_555
H61 C36 1_555 1_555
H62 C36 1_555 1_555
H63 C36 1_555 1_555
C37 P6 1_555 1_555
H64 C37 1_555 1_555
H65 C37 1_555 1_555
C38 C37 1_555 1_555
H66 C38 1_555 1_555
H67 C38 1_555 1_555
H68 C38 1_555 1_555
O3 Pt1 1_555 1_555
O4 C45 1_555 1_555
N2 Pt4 1_555 1_555
C45 O3 1_555 1_555
C46 C45 1_555 1_555
C47 C46 1_555 1_555
H73 C47 1_555 1_555
C48 N2 1_555 1_555
H74 C48 1_555 1_555
C49 N2 1_555 1_555
H75 C49 1_555 1_555
C50 C46 1_555 1_555
H76 C50 1_555 1_555
C51 H77 1_555 1_555
Cl1 C51 1_555 1_555
Cl2 C51 1_555 1_555
Cl5 C51 1_555 1_555
N3 O5 1_555 1_555
O6 N3 1_555 1_555
O7 N3 1_555 1_555
N4 O8 1_555 1_555
O9 N4 1_555 1_555
O10 N4 1_555 1_555
Pt1A P1A 1_555 1_555
Pt4A P3A 1_555 1_555
P1A C15A 1_555 1_555
P2A Pt1A 1_555 1_555
P3A C27A 1_555 1_555
P6A Pt4A 1_555 1_555
C1A Pt1A 1_555 1_555
C2A C1A 1_555 1_555
H1A C2A 1_555 1_555
C3A C2A 1_555 1_555
H2A C3A 1_555 1_555
C4A C3A 1_555 1_555
H3A C4A 1_555 1_555
C5A C4A 1_555 1_555
C6A C5A 1_555 1_555
H4A C6A 1_555 1_555
C7A C6A 1_555 1_555
C8A C7A 1_555 1_555
H5A C8A 1_555 1_555
C9A C8A 1_555 1_555
H6A C9A 1_555 1_555
C10A C9A 1_555 1_555
H7A C10A 1_555 1_555
C11A Pt4A 1_555 1_555
C12A C7A 1_555 1_555
C13A C12A 1_555 1_555
H8A C13A 1_555 1_555
C14A C1A 1_555 1_555
C15A H9A 1_555 1_555
H10A C15A 1_555 1_555
C16A C15A 1_555 1_555
H11A C16A 1_555 1_555
H12A C16A 1_555 1_555
H13A C16A 1_555 1_555
C17A P1A 1_555 1_555
H14A C17A 1_555 1_555
H15A C17A 1_555 1_555
C18A C17A 1_555 1_555
H16A C18A 1_555 1_555
H17A C18A 1_555 1_555
H18A C18A 1_555 1_555
C19A P1A 1_555 1_555
H19A C19A 1_555 1_555
H20A C19A 1_555 1_555
C20A C19A 1_555 1_555
H21A C20A 1_555 1_555
H22A C20A 1_555 1_555
H23A C20A 1_555 1_555
C21A P2A 1_555 1_555
H24A C21A 1_555 1_555
H25A C21A 1_555 1_555
C22A C21A 1_555 1_555
H26A C22A 1_555 1_555
H27A C22A 1_555 1_555
H28A C22A 1_555 1_555
C23A P2A 1_555 1_555
H29A C23A 1_555 1_555
H30A C23A 1_555 1_555
C24A C23A 1_555 1_555
H31A C24A 1_555 1_555
H32A C24A 1_555 1_555
H33A C24A 1_555 1_555
C25A P2A 1_555 1_555
H34A C25A 1_555 1_555
H35A C25A 1_555 1_555
C26A C25A 1_555 1_555
H36A C26A 1_555 1_555
H37A C26A 1_555 1_555
H38A C26A 1_555 1_555
C27A H39A 1_555 1_555
H40A C27A 1_555 1_555
C28A C27A 1_555 1_555
H41A C28A 1_555 1_555
H42A C28A 1_555 1_555
H43A C28A 1_555 1_555
C29A P3A 1_555 1_555
H44A C29A 1_555 1_555
H45A C29A 1_555 1_555
C30A C29A 1_555 1_555
H46A C30A 1_555 1_555
H47A C30A 1_555 1_555
H48A C30A 1_555 1_555
C31A P3A 1_555 1_555
H49A C31A 1_555 1_555
H50A C31A 1_555 1_555
C32A C31A 1_555 1_555
H51A C32A 1_555 1_555
H52A C32A 1_555 1_555
H53A C32A 1_555 1_555
C33A P6A 1_555 1_555
H54A C33A 1_555 1_555
H55A C33A 1_555 1_555
C34A C33A 1_555 1_555
H56A C34A 1_555 1_555
H57A C34A 1_555 1_555
H58A C34A 1_555 1_555
C35A P6A 1_555 1_555
H59A C35A 1_555 1_555
H60A C35A 1_555 1_555
C36A C35A 1_555 1_555
H61A C36A 1_555 1_555
H62A C36A 1_555 1_555
H63A C36A 1_555 1_555
C37A P6A 1_555 1_555
H64A C37A 1_555 1_555
H65A C37A 1_555 1_555
C38A C37A 1_555 1_555
H66A C38A 1_555 1_555
H67A C38A 1_555 1_555
H68A C38A 1_555 1_555
O3A Pt1A 1_555 1_555
O4A C45A 1_555 1_555
N2A Pt4A 1_555 1_555
C45A O3A 1_555 1_555
C46A C45A 1_555 1_555
C47A C48 1_555 1_555
H73A C47A 1_555 1_555
C48A C47 1_555 1_555
H74A C48A 1_555 1_555
C49A C50 1_555 1_555
H75A C49A 1_555 1_555
C50A C49 1_555 1_555
H76A C50A 1_555 1_555
C5 C14 1_555 1_555
C10 C11 1_555 1_555
C11 C12 1_555 1_555
C13 C14 1_555 1_555
C5A C14A 1_555 1_555
C10A C11A 1_555 1_555
C11A C12A 1_555 1_555
C13A C14A 1_555 1_555
N2A C48A 1_555 1_555
N2A C49A 1_555 1_555
C46A C47A 1_555 1_555
C46A C50A 1_555 1_555

#END
