# generated using pymatgen
data_H67Pd3C83N25O39
_symmetry_space_group_name_H-M   'P 1'
_cell_length_a   29.16200000
_cell_length_b   29.16200000
_cell_length_c   30.45100000
_cell_angle_alpha   90.00000000
_cell_angle_beta   90.00000000
_cell_angle_gamma   90.00000000
_symmetry_Int_Tables_number   1
_chemical_formula_structural   H67Pd3C83N25O39
_chemical_formula_sum   'H536 Pd24 C664 N200 O312'
_cell_volume   25896.20775204
_cell_formula_units_Z   8
loop_
 _symmetry_equiv_pos_site_id
 _symmetry_equiv_pos_as_xyz
  1  'x, y, z'
loop_
 _atom_site_type_symbol
 _atom_site_label
 _atom_site_symmetry_multiplicity
 _atom_site_fract_x
 _atom_site_fract_y
 _atom_site_fract_z
 _atom_site_occupancy
  H  H1  1  0.747800  0.771700  0.898700  1
  H  H2  1  0.252200  0.228300  0.398700  1
  H  H3  1  0.728300  0.247800  0.648700  1
  H  H4  1  0.271700  0.752200  0.148700  1
  H  H5  1  0.752200  0.271700  0.851300  1
  H  H6  1  0.247800  0.728300  0.351300  1
  H  H7  1  0.771700  0.747800  0.101300  1
  H  H8  1  0.228300  0.252200  0.601300  1
  H  H9  1  0.644200  0.719700  0.970000  1
  H  H10  1  0.355800  0.280300  0.470000  1
  H  H11  1  0.780300  0.144200  0.720000  1
  H  H12  1  0.219700  0.855800  0.220000  1
  H  H13  1  0.855800  0.219700  0.780000  1
  H  H14  1  0.144200  0.780300  0.280000  1
  H  H15  1  0.719700  0.644200  0.030000  1
  H  H16  1  0.280300  0.355800  0.530000  1
  H  H17  1  0.626100  0.792800  0.994800  1
  H  H18  1  0.373900  0.207200  0.494800  1
  H  H19  1  0.707200  0.126100  0.744800  1
  H  H20  1  0.292800  0.873900  0.244800  1
  H  H21  1  0.873900  0.292800  0.755200  1
  H  H22  1  0.126100  0.707200  0.255200  1
  H  H23  1  0.792800  0.626100  0.005200  1
  H  H24  1  0.207200  0.373900  0.505200  1
  H  H25  1  0.762700  0.852900  0.899700  1
  H  H26  1  0.237300  0.147100  0.399700  1
  H  H27  1  0.647100  0.262700  0.649700  1
  H  H28  1  0.352900  0.737300  0.149700  1
  H  H29  1  0.737300  0.352900  0.850300  1
  H  H30  1  0.262700  0.647100  0.350300  1
  H  H31  1  0.852900  0.762700  0.100300  1
  H  H32  1  0.147100  0.237300  0.600300  1
  H  H33  1  0.744700  0.925900  0.924400  1
  H  H34  1  0.255300  0.074100  0.424400  1
  H  H35  1  0.574100  0.244700  0.674400  1
  H  H36  1  0.425900  0.755300  0.174400  1
  H  H37  1  0.755300  0.425900  0.825600  1
  H  H38  1  0.244700  0.574100  0.325600  1
  H  H39  1  0.925900  0.744700  0.075600  1
  H  H40  1  0.074100  0.255300  0.575600  1
  H  H41  1  0.683900  0.936500  0.972500  1
  H  H42  1  0.316100  0.063500  0.472500  1
  H  H43  1  0.563500  0.183900  0.722500  1
  H  H44  1  0.436500  0.816100  0.222500  1
  H  H45  1  0.816100  0.436500  0.777500  1
  H  H46  1  0.183900  0.563500  0.277500  1
  H  H47  1  0.936500  0.683900  0.027500  1
  H  H48  1  0.063500  0.316100  0.527500  1
  H  H49  1  0.641000  0.874000  0.995700  1
  H  H50  1  0.359000  0.126000  0.495700  1
  H  H51  1  0.626000  0.141000  0.745700  1
  H  H52  1  0.374000  0.859000  0.245700  1
  H  H53  1  0.859000  0.374000  0.754300  1
  H  H54  1  0.141000  0.626000  0.254300  1
  H  H55  1  0.874000  0.641000  0.004300  1
  H  H56  1  0.126000  0.359000  0.504300  1
  H  H57  1  0.793100  0.600800  0.842000  1
  H  H58  1  0.206900  0.399200  0.342000  1
  H  H59  1  0.899200  0.293100  0.592000  1
  H  H60  1  0.100800  0.706900  0.092000  1
  H  H61  1  0.706900  0.100800  0.908000  1
  H  H62  1  0.293100  0.899200  0.408000  1
  H  H63  1  0.600800  0.793100  0.158000  1
  H  H64  1  0.399200  0.206900  0.658000  1
  H  H65  1  0.757300  0.562800  0.854300  1
  H  H66  1  0.242700  0.437200  0.354300  1
  H  H67  1  0.937200  0.257300  0.604300  1
  H  H68  1  0.062800  0.742700  0.104300  1
  H  H69  1  0.742700  0.062800  0.895700  1
  H  H70  1  0.257300  0.937200  0.395700  1
  H  H71  1  0.562800  0.757300  0.145700  1
  H  H72  1  0.437200  0.242700  0.645700  1
  H  H73  1  0.787000  0.585800  0.891100  1
  H  H74  1  0.213000  0.414200  0.391100  1
  H  H75  1  0.914200  0.287000  0.641100  1
  H  H76  1  0.085800  0.713000  0.141100  1
  H  H77  1  0.713000  0.085800  0.858900  1
  H  H78  1  0.287000  0.914200  0.358900  1
  H  H79  1  0.585800  0.787000  0.108900  1
  H  H80  1  0.414200  0.213000  0.608900  1
  H  H81  1  0.726300  0.638300  0.803500  1
  H  H82  1  0.273700  0.361700  0.303500  1
  H  H83  1  0.861700  0.226300  0.553500  1
  H  H84  1  0.138300  0.773700  0.053500  1
  H  H85  1  0.773700  0.138300  0.946500  1
  H  H86  1  0.226300  0.861700  0.446500  1
  H  H87  1  0.638300  0.726300  0.196500  1
  H  H88  1  0.361700  0.273700  0.696500  1
  H  H89  1  0.680700  0.646200  0.829700  1
  H  H90  1  0.319300  0.353800  0.329700  1
  H  H91  1  0.853800  0.180700  0.579700  1
  H  H92  1  0.146200  0.819300  0.079700  1
  H  H93  1  0.819300  0.146200  0.920300  1
  H  H94  1  0.180700  0.853800  0.420300  1
  H  H95  1  0.646200  0.680700  0.170300  1
  H  H96  1  0.353800  0.319300  0.670300  1
  H  H97  1  0.697900  0.596200  0.820600  1
  H  H98  1  0.302100  0.403800  0.320600  1
  H  H99  1  0.903800  0.197900  0.570600  1
  H  H100  1  0.096200  0.802100  0.070600  1
  H  H101  1  0.802100  0.096200  0.929400  1
  H  H102  1  0.197900  0.903800  0.429400  1
  H  H103  1  0.596200  0.697900  0.179400  1
  H  H104  1  0.403800  0.302100  0.679400  1
  H  H105  1  0.641600  0.574800  0.922900  1
  H  H106  1  0.358400  0.425200  0.422900  1
  H  H107  1  0.925200  0.141600  0.672900  1
  H  H108  1  0.074800  0.858400  0.172900  1
  H  H109  1  0.858400  0.074800  0.827100  1
  H  H110  1  0.141600  0.925200  0.327100  1
  H  H111  1  0.574800  0.641600  0.077100  1
  H  H112  1  0.425200  0.358400  0.577100  1
  H  H113  1  0.664300  0.554500  0.880400  1
  H  H114  1  0.335700  0.445500  0.380400  1
  H  H115  1  0.945500  0.164300  0.630400  1
  H  H116  1  0.054500  0.835700  0.130400  1
  H  H117  1  0.835700  0.054500  0.869600  1
  H  H118  1  0.164300  0.945500  0.369600  1
  H  H119  1  0.554500  0.664300  0.119600  1
  H  H120  1  0.445500  0.335700  0.619600  1
  H  H121  1  0.636400  0.600400  0.878000  1
  H  H122  1  0.363600  0.399600  0.378000  1
  H  H123  1  0.899600  0.136400  0.628000  1
  H  H124  1  0.100400  0.863600  0.128000  1
  H  H125  1  0.863600  0.100400  0.872000  1
  H  H126  1  0.136400  0.899600  0.372000  1
  H  H127  1  0.600400  0.636400  0.122000  1
  H  H128  1  0.399600  0.363600  0.622000  1
  H  H129  1  0.698600  0.577900  0.965000  1
  H  H130  1  0.301400  0.422100  0.465000  1
  H  H131  1  0.922100  0.198600  0.715000  1
  H  H132  1  0.077900  0.801400  0.215000  1
  H  H133  1  0.801400  0.077900  0.785000  1
  H  H134  1  0.198600  0.922100  0.285000  1
  H  H135  1  0.577900  0.698600  0.035000  1
  H  H136  1  0.422100  0.301400  0.535000  1
  H  H137  1  0.740900  0.610600  0.959800  1
  H  H138  1  0.259100  0.389400  0.459800  1
  H  H139  1  0.889400  0.240900  0.709800  1
  H  H140  1  0.110600  0.759100  0.209800  1
  H  H141  1  0.759100  0.110600  0.790200  1
  H  H142  1  0.240900  0.889400  0.290200  1
  H  H143  1  0.610600  0.740900  0.040200  1
  H  H144  1  0.389400  0.259100  0.540200  1
  H  H145  1  0.740800  0.562700  0.936500  1
  H  H146  1  0.259200  0.437300  0.436500  1
  H  H147  1  0.937300  0.240800  0.686500  1
  H  H148  1  0.062700  0.759200  0.186500  1
  H  H149  1  0.759200  0.062700  0.813500  1
  H  H150  1  0.240800  0.937300  0.313500  1
  H  H151  1  0.562700  0.740800  0.063500  1
  H  H152  1  0.437300  0.259200  0.563500  1
  H  H153  1  0.788700  0.509800  0.973300  1.0
  H  H154  1  0.211300  0.490200  0.473300  1.0
  H  H155  1  0.990200  0.288700  0.723300  1.0
  H  H156  1  0.009800  0.711300  0.223300  1.0
  H  H157  1  0.711300  0.009800  0.776700  1.0
  H  H158  1  0.288700  0.990200  0.276700  1.0
  H  H159  1  0.509800  0.788700  0.026700  1.0
  H  H160  1  0.490200  0.211300  0.526700  1.0
  H  H161  1  0.745900  0.852400  0.760500  1.0
  H  H162  1  0.254100  0.147600  0.260500  1.0
  H  H163  1  0.647600  0.245900  0.510500  1.0
  H  H164  1  0.352400  0.754100  0.010500  1.0
  H  H165  1  0.754100  0.352400  0.989500  1.0
  H  H166  1  0.245900  0.647600  0.489500  1.0
  H  H167  1  0.852400  0.745900  0.239500  1.0
  H  H168  1  0.147600  0.254100  0.739500  1.0
  H  H169  1  0.603900  0.496700  0.968600  1.0
  H  H170  1  0.396100  0.503300  0.468600  1.0
  H  H171  1  0.003300  0.103900  0.718600  1.0
  H  H172  1  0.996700  0.896100  0.218600  1.0
  H  H173  1  0.896100  0.996700  0.781400  1.0
  H  H174  1  0.103900  0.003300  0.281400  1.0
  H  H175  1  0.496700  0.603900  0.031400  1.0
  H  H176  1  0.503300  0.396100  0.531400  1.0
  H  H177  1  0.876500  0.553400  0.062400  1.0
  H  H178  1  0.123500  0.446600  0.562400  1.0
  H  H179  1  0.946600  0.376500  0.812400  1.0
  H  H180  1  0.053400  0.623500  0.312400  1.0
  H  H181  1  0.623500  0.053400  0.687600  1.0
  H  H182  1  0.376500  0.946600  0.187600  1.0
  H  H183  1  0.553400  0.876500  0.937600  1.0
  H  H184  1  0.446600  0.123500  0.437600  1.0
  H  H185  1  0.003800  0.576400  0.855100  1.0
  H  H186  1  0.996200  0.423600  0.355100  1.0
  H  H187  1  0.923600  0.503800  0.605100  1.0
  H  H188  1  0.076400  0.496200  0.105100  1.0
  H  H189  1  0.496200  0.076400  0.894900  1.0
  H  H190  1  0.503800  0.923600  0.394900  1.0
  H  H191  1  0.576400  0.003800  0.144900  1.0
  H  H192  1  0.423600  0.996200  0.644900  1.0
  H  H193  1  0.737600  0.721600  0.741700  1.0
  H  H194  1  0.262400  0.278400  0.241700  1.0
  H  H195  1  0.778400  0.237600  0.491700  1.0
  H  H196  1  0.221600  0.762400  0.991700  1.0
  H  H197  1  0.762400  0.221600  0.008300  1.0
  H  H198  1  0.237600  0.778400  0.508300  1.0
  H  H199  1  0.721600  0.737600  0.258300  1.0
  H  H200  1  0.278400  0.262400  0.758300  1.0
  H  H201  1  0.969900  0.612500  0.949600  1.0
  H  H202  1  0.030100  0.387500  0.449600  1.0
  H  H203  1  0.887500  0.469900  0.699600  1.0
  H  H204  1  0.112500  0.530100  0.199600  1.0
  H  H205  1  0.530100  0.112500  0.800400  1.0
  H  H206  1  0.469900  0.887500  0.300400  1.0
  H  H207  1  0.612500  0.969900  0.050400  1.0
  H  H208  1  0.387500  0.030100  0.550400  1.0
  H  H209  1  0.800300  0.709100  0.784700  1.0
  H  H210  1  0.199700  0.290900  0.284700  1.0
  H  H211  1  0.790900  0.300300  0.534700  1.0
  H  H212  1  0.209100  0.699700  0.034700  1.0
  H  H213  1  0.699700  0.209100  0.965300  1.0
  H  H214  1  0.300300  0.790900  0.465300  1.0
  H  H215  1  0.709100  0.800300  0.215300  1.0
  H  H216  1  0.290900  0.199700  0.715300  1.0
  H  H217  1  0.561100  0.429300  0.045400  1.0
  H  H218  1  0.438900  0.570700  0.545400  1.0
  H  H219  1  0.070700  0.061100  0.795400  1.0
  H  H220  1  0.929300  0.938900  0.295400  1.0
  H  H221  1  0.938900  0.929300  0.704600  1.0
  H  H222  1  0.061100  0.070700  0.204600  1.0
  H  H223  1  0.429300  0.561100  0.954600  1.0
  H  H224  1  0.570700  0.438900  0.454600  1.0
  H  H225  1  0.941800  0.013100  0.083000  1.0
  H  H226  1  0.058200  0.986900  0.583000  1.0
  H  H227  1  0.486900  0.441800  0.833000  1.0
  H  H228  1  0.513100  0.558200  0.333000  1.0
  H  H229  1  0.558200  0.513100  0.667000  1.0
  H  H230  1  0.441800  0.486900  0.167000  1.0
  H  H231  1  0.013100  0.941800  0.917000  1.0
  H  H232  1  0.986900  0.058200  0.417000  1.0
  H  H233  1  0.803900  0.844600  0.808500  1.0
  H  H234  1  0.196100  0.155400  0.308500  1.0
  H  H235  1  0.655400  0.303900  0.558500  1.0
  H  H236  1  0.344600  0.696100  0.058500  1.0
  H  H237  1  0.696100  0.344600  0.941500  1.0
  H  H238  1  0.303900  0.655400  0.441500  1.0
  H  H239  1  0.844600  0.803900  0.191500  1.0
  H  H240  1  0.155400  0.196100  0.691500  1.0
  H  H241  1  0.950600  0.357200  0.975600  1.0
  H  H242  1  0.049400  0.642800  0.475600  1.0
  H  H243  1  0.142800  0.450600  0.725600  1.0
  H  H244  1  0.857200  0.549400  0.225600  1.0
  H  H245  1  0.549400  0.857200  0.774400  1.0
  H  H246  1  0.450600  0.142800  0.274400  1.0
  H  H247  1  0.357200  0.950600  0.024400  1.0
  H  H248  1  0.642800  0.049400  0.524400  1.0
  H  H249  1  0.948700  0.687200  0.935900  1.0
  H  H250  1  0.051300  0.312800  0.435900  1.0
  H  H251  1  0.812800  0.448700  0.685900  1.0
  H  H252  1  0.187200  0.551300  0.185900  1.0
  H  H253  1  0.551300  0.187200  0.814100  1.0
  H  H254  1  0.448700  0.812800  0.314100  1.0
  H  H255  1  0.687200  0.948700  0.064100  1.0
  H  H256  1  0.312800  0.051300  0.564100  1.0
  H  H257  1  0.898200  0.942500  0.929000  1.0
  H  H258  1  0.101800  0.057500  0.429000  1.0
  H  H259  1  0.557500  0.398200  0.679000  1.0
  H  H260  1  0.442500  0.601800  0.179000  1.0
  H  H261  1  0.601800  0.442500  0.821000  1.0
  H  H262  1  0.398200  0.557500  0.321000  1.0
  H  H263  1  0.942500  0.898200  0.071000  1.0
  H  H264  1  0.057500  0.101800  0.571000  1.0
  H  H265  1  0.850100  0.498100  0.924000  1.0
  H  H266  1  0.149900  0.501900  0.424000  1.0
  H  H267  1  0.001900  0.350100  0.674000  1.0
  H  H268  1  0.998100  0.649900  0.174000  1.0
  H  H269  1  0.649900  0.998100  0.826000  1.0
  H  H270  1  0.350100  0.001900  0.326000  1.0
  H  H271  1  0.498100  0.850100  0.076000  1.0
  H  H272  1  0.501900  0.149900  0.576000  1.0
  H  H273  1  0.575800  0.795300  0.711000  1.0
  H  H274  1  0.424200  0.204700  0.211000  1.0
  H  H275  1  0.704700  0.075800  0.461000  1.0
  H  H276  1  0.295300  0.924200  0.961000  1.0
  H  H277  1  0.924200  0.295300  0.039000  1.0
  H  H278  1  0.075800  0.704700  0.539000  1.0
  H  H279  1  0.795300  0.575800  0.289000  1.0
  H  H280  1  0.204700  0.424200  0.789000  1.0
  H  H281  1  0.927900  0.435000  0.976200  1.0
  H  H282  1  0.072100  0.565000  0.476200  1.0
  H  H283  1  0.065000  0.427900  0.726200  1.0
  H  H284  1  0.935000  0.572100  0.226200  1.0
  H  H285  1  0.572100  0.935000  0.773800  1.0
  H  H286  1  0.427900  0.065000  0.273800  1.0
  H  H287  1  0.435000  0.927900  0.023800  1.0
  H  H288  1  0.565000  0.072100  0.523800  1.0
  H  H289  1  0.057600  0.570700  0.802700  1.0
  H  H290  1  0.942400  0.429300  0.302700  1.0
  H  H291  1  0.929300  0.557600  0.552700  1.0
  H  H292  1  0.070700  0.442400  0.052700  1.0
  H  H293  1  0.442400  0.070700  0.947300  1.0
  H  H294  1  0.557600  0.929300  0.447300  1.0
  H  H295  1  0.570700  0.057600  0.197300  1.0
  H  H296  1  0.429300  0.942400  0.697300  1.0
  H  H297  1  0.515400  0.814500  0.666300  1.0
  H  H298  1  0.484600  0.185500  0.166300  1.0
  H  H299  1  0.685500  0.015400  0.416300  1.0
  H  H300  1  0.314500  0.984600  0.916300  1.0
  H  H301  1  0.984600  0.314500  0.083700  1.0
  H  H302  1  0.015400  0.685500  0.583700  1.0
  H  H303  1  0.814500  0.515400  0.333700  1.0
  H  H304  1  0.185500  0.484600  0.833700  1.0
  H  H305  1  0.678500  0.505700  0.991900  1.0
  H  H306  1  0.321500  0.494300  0.491900  1.0
  H  H307  1  0.994300  0.178500  0.741900  1.0
  H  H308  1  0.005700  0.821500  0.241900  1.0
  H  H309  1  0.821500  0.005700  0.758100  1.0
  H  H310  1  0.178500  0.994300  0.258100  1.0
  H  H311  1  0.505700  0.678500  0.008100  1.0
  H  H312  1  0.494300  0.321500  0.508100  1.0
  H  H313  1  0.874000  0.886700  0.884200  1.0
  H  H314  1  0.126000  0.113300  0.384200  1.0
  H  H315  1  0.613300  0.374000  0.634200  1.0
  H  H316  1  0.386700  0.626000  0.134200  1.0
  H  H317  1  0.626000  0.386700  0.865800  1.0
  H  H318  1  0.374000  0.613300  0.365800  1.0
  H  H319  1  0.886700  0.874000  0.115800  1.0
  H  H320  1  0.113300  0.126000  0.615800  1.0
  H  H321  1  0.608400  0.861200  0.579300  1.0
  H  H322  1  0.391600  0.138800  0.079300  1.0
  H  H323  1  0.638800  0.108400  0.329300  1.0
  H  H324  1  0.361200  0.891600  0.829300  1.0
  H  H325  1  0.891600  0.361200  0.170700  1.0
  H  H326  1  0.108400  0.638800  0.670700  1.0
  H  H327  1  0.861200  0.608400  0.420700  1.0
  H  H328  1  0.138800  0.391600  0.920700  1.0
  H  H329  1  0.652900  0.843600  0.789700  1.0
  H  H330  1  0.347100  0.156400  0.289700  1.0
  H  H331  1  0.656400  0.152900  0.539700  1.0
  H  H332  1  0.343600  0.847100  0.039700  1.0
  H  H333  1  0.847100  0.343600  0.960300  1.0
  H  H334  1  0.152900  0.656400  0.460300  1.0
  H  H335  1  0.843600  0.652900  0.210300  1.0
  H  H336  1  0.156400  0.347100  0.710300  1.0
  H  H337  1  0.935900  0.542700  0.013800  1.0
  H  H338  1  0.064100  0.457300  0.513800  1.0
  H  H339  1  0.957300  0.435900  0.763800  1.0
  H  H340  1  0.042700  0.564100  0.263800  1.0
  H  H341  1  0.564100  0.042700  0.736200  1.0
  H  H342  1  0.435900  0.957300  0.236200  1.0
  H  H343  1  0.542700  0.935900  0.986200  1.0
  H  H344  1  0.457300  0.064100  0.486200  1.0
  H  H345  1  0.477300  0.325200  0.050800  1.0
  H  H346  1  0.522700  0.674800  0.550800  1.0
  H  H347  1  0.174800  0.977300  0.800800  1.0
  H  H348  1  0.825200  0.022700  0.300800  1.0
  H  H349  1  0.022700  0.825200  0.699200  1.0
  H  H350  1  0.977300  0.174800  0.199200  1.0
  H  H351  1  0.325200  0.477300  0.949200  1.0
  H  H352  1  0.674800  0.522700  0.449200  1.0
  H  H353  1  0.867200  0.641900  0.839100  1.0
  H  H354  1  0.132800  0.358100  0.339100  1.0
  H  H355  1  0.858100  0.367200  0.589100  1.0
  H  H356  1  0.141900  0.632800  0.089100  1.0
  H  H357  1  0.632800  0.141900  0.910900  1.0
  H  H358  1  0.367200  0.858100  0.410900  1.0
  H  H359  1  0.641900  0.867200  0.160900  1.0
  H  H360  1  0.358100  0.132800  0.660900  1.0
  H  H361  1  0.064800  0.437200  0.835700  1.0
  H  H362  1  0.935200  0.562800  0.335700  1.0
  H  H363  1  0.062800  0.564800  0.585700  1.0
  H  H364  1  0.937200  0.435200  0.085700  1.0
  H  H365  1  0.435200  0.937200  0.914300  1.0
  H  H366  1  0.564800  0.062800  0.414300  1.0
  H  H367  1  0.437200  0.064800  0.164300  1.0
  H  H368  1  0.562800  0.935200  0.664300  1.0
  H  H369  1  0.555600  0.531700  0.083900  1.0
  H  H370  1  0.444400  0.468300  0.583900  1.0
  H  H371  1  0.968300  0.055600  0.833900  1.0
  H  H372  1  0.031700  0.944400  0.333900  1.0
  H  H373  1  0.944400  0.031700  0.666100  1.0
  H  H374  1  0.055600  0.968300  0.166100  1.0
  H  H375  1  0.531700  0.555600  0.916100  1.0
  H  H376  1  0.468300  0.444400  0.416100  1.0
  H  H377  1  0.892600  0.569300  0.856600  1.0
  H  H378  1  0.107400  0.430700  0.356600  1.0
  H  H379  1  0.930700  0.392600  0.606600  1.0
  H  H380  1  0.069300  0.607400  0.106600  1.0
  H  H381  1  0.607400  0.069300  0.893400  1.0
  H  H382  1  0.392600  0.930700  0.393400  1.0
  H  H383  1  0.569300  0.892600  0.143400  1.0
  H  H384  1  0.430700  0.107400  0.643400  1.0
  H  H385  1  0.616300  0.831900  0.853800  1.0
  H  H386  1  0.383700  0.168100  0.353800  1.0
  H  H387  1  0.668100  0.116300  0.603800  1.0
  H  H388  1  0.331900  0.883700  0.103800  1.0
  H  H389  1  0.883700  0.331900  0.896200  1.0
  H  H390  1  0.116300  0.668100  0.396200  1.0
  H  H391  1  0.831900  0.616300  0.146200  1.0
  H  H392  1  0.168100  0.383700  0.646200  1.0
  H  H393  1  0.635500  0.718600  0.753200  1.0
  H  H394  1  0.364500  0.281400  0.253200  1.0
  H  H395  1  0.781400  0.135500  0.503200  1.0
  H  H396  1  0.218600  0.864500  0.003200  1.0
  H  H397  1  0.864500  0.218600  0.996800  1.0
  H  H398  1  0.135500  0.781400  0.496800  1.0
  H  H399  1  0.718600  0.635500  0.246800  1.0
  H  H400  1  0.281400  0.364500  0.746800  1.0
  H  H401  1  0.703300  0.588400  0.185500  1.0
  H  H402  1  0.296700  0.411600  0.685500  1.0
  H  H403  1  0.911600  0.203300  0.935500  1.0
  H  H404  1  0.088400  0.796700  0.435500  1.0
  H  H405  1  0.796700  0.088400  0.564500  1.0
  H  H406  1  0.203300  0.911600  0.064500  1.0
  H  H407  1  0.588400  0.703300  0.814500  1.0
  H  H408  1  0.411600  0.296700  0.314500  1.0
  H  H409  1  0.957900  0.799200  0.949200  1.0
  H  H410  1  0.042100  0.200800  0.449200  1.0
  H  H411  1  0.700800  0.457900  0.699200  1.0
  H  H412  1  0.299200  0.542100  0.199200  1.0
  H  H413  1  0.542100  0.299200  0.800800  1.0
  H  H414  1  0.457900  0.700800  0.300800  1.0
  H  H415  1  0.799200  0.957900  0.050800  1.0
  H  H416  1  0.200800  0.042100  0.550800  1.0
  H  H417  1  0.545100  0.355500  0.065800  1.0
  H  H418  1  0.454900  0.644500  0.565800  1.0
  H  H419  1  0.144500  0.045100  0.815800  1.0
  H  H420  1  0.855500  0.954900  0.315800  1.0
  H  H421  1  0.954900  0.855500  0.684200  1.0
  H  H422  1  0.045100  0.144500  0.184200  1.0
  H  H423  1  0.355500  0.545100  0.934200  1.0
  H  H424  1  0.644500  0.454900  0.434200  1.0
  H  H425  1  0.630200  0.548600  0.109600  1.0
  H  H426  1  0.369800  0.451400  0.609600  1.0
  H  H427  1  0.951400  0.130200  0.859600  1.0
  H  H428  1  0.048600  0.869800  0.359600  1.0
  H  H429  1  0.869800  0.048600  0.640400  1.0
  H  H430  1  0.130200  0.951400  0.140400  1.0
  H  H431  1  0.548600  0.630200  0.890400  1.0
  H  H432  1  0.451400  0.369800  0.390400  1.0
  H  H433  1  0.966000  0.076600  0.121300  1.0
  H  H434  1  0.034000  0.923400  0.621300  1.0
  H  H435  1  0.423400  0.466000  0.871300  1.0
  H  H436  1  0.576600  0.534000  0.371300  1.0
  H  H437  1  0.534000  0.576600  0.628700  1.0
  H  H438  1  0.466000  0.423400  0.128700  1.0
  H  H439  1  0.076600  0.966000  0.878700  1.0
  H  H440  1  0.923400  0.034000  0.378700  1.0
  H  H441  1  0.006200  0.334800  0.932700  1.0
  H  H442  1  0.993800  0.665200  0.432700  1.0
  H  H443  1  0.165200  0.506200  0.682700  1.0
  H  H444  1  0.834800  0.493800  0.182700  1.0
  H  H445  1  0.493800  0.834800  0.817300  1.0
  H  H446  1  0.506200  0.165200  0.317300  1.0
  H  H447  1  0.334800  0.006200  0.067300  1.0
  H  H448  1  0.665200  0.993800  0.567300  1.0
  H  H449  1  0.984900  0.863900  0.987100  1.0
  H  H450  1  0.015100  0.136100  0.487100  1.0
  H  H451  1  0.636100  0.484900  0.737100  1.0
  H  H452  1  0.363900  0.515100  0.237100  1.0
  H  H453  1  0.515100  0.363900  0.762900  1.0
  H  H454  1  0.484900  0.636100  0.262900  1.0
  H  H455  1  0.863900  0.984900  0.012900  1.0
  H  H456  1  0.136100  0.015100  0.512900  1.0
  H  H457  1  0.417800  0.371300  0.016200  1.0
  H  H458  1  0.582200  0.628700  0.516200  1.0
  H  H459  1  0.128700  0.917800  0.766200  1.0
  H  H460  1  0.871300  0.082200  0.266200  1.0
  H  H461  1  0.082200  0.871300  0.733800  1.0
  H  H462  1  0.917800  0.128700  0.233800  1.0
  H  H463  1  0.371300  0.417800  0.983800  1.0
  H  H464  1  0.628700  0.582200  0.483800  1.0
  H  H465  1  0.063400  0.090800  0.025900  1.0
  H  H466  1  0.936600  0.909200  0.525900  1.0
  H  H467  1  0.409200  0.563400  0.775900  1.0
  H  H468  1  0.590800  0.436600  0.275900  1.0
  H  H469  1  0.436600  0.590800  0.724100  1.0
  H  H470  1  0.563400  0.409200  0.224100  1.0
  H  H471  1  0.090800  0.063400  0.974100  1.0
  H  H472  1  0.909200  0.936600  0.474100  1.0
  H  H473  1  0.680100  0.863200  0.561700  1.0
  H  H474  1  0.319900  0.136800  0.061700  1.0
  H  H475  1  0.636800  0.180100  0.311700  1.0
  H  H476  1  0.363200  0.819900  0.811700  1.0
  H  H477  1  0.819900  0.363200  0.188300  1.0
  H  H478  1  0.180100  0.636800  0.688300  1.0
  H  H479  1  0.863200  0.680100  0.438300  1.0
  H  H480  1  0.136800  0.319900  0.938300  1.0
  H  H481  1  0.778500  0.806000  0.666900  1.0
  H  H482  1  0.221500  0.194000  0.166900  1.0
  H  H483  1  0.694000  0.278500  0.416900  1.0
  H  H484  1  0.306000  0.721500  0.916900  1.0
  H  H485  1  0.721500  0.306000  0.083100  1.0
  H  H486  1  0.278500  0.694000  0.583100  1.0
  H  H487  1  0.806000  0.778500  0.333100  1.0
  H  H488  1  0.194000  0.221500  0.833100  1.0
  H  H489  1  0.031600  0.383900  0.869600  1.0
  H  H490  1  0.968400  0.616100  0.369600  1.0
  H  H491  1  0.116100  0.531600  0.619600  1.0
  H  H492  1  0.883900  0.468400  0.119600  1.0
  H  H493  1  0.468400  0.883900  0.880400  1.0
  H  H494  1  0.531600  0.116100  0.380400  1.0
  H  H495  1  0.383900  0.031600  0.130400  1.0
  H  H496  1  0.616100  0.968400  0.630400  1.0
  H  H497  1  0.533600  0.855500  0.598200  1.0
  H  H498  1  0.466400  0.144500  0.098200  1.0
  H  H499  1  0.644500  0.033600  0.348200  1.0
  H  H500  1  0.355500  0.966400  0.848200  1.0
  H  H501  1  0.966400  0.355500  0.151800  1.0
  H  H502  1  0.033600  0.644500  0.651800  1.0
  H  H503  1  0.855500  0.533600  0.401800  1.0
  H  H504  1  0.144500  0.466400  0.901800  1.0
  H  H505  1  0.808100  0.838000  0.604400  1.0
  H  H506  1  0.191900  0.162000  0.104400  1.0
  H  H507  1  0.662000  0.308100  0.354400  1.0
  H  H508  1  0.338000  0.691900  0.854400  1.0
  H  H509  1  0.691900  0.338000  0.145600  1.0
  H  H510  1  0.308100  0.662000  0.645600  1.0
  H  H511  1  0.838000  0.808100  0.395600  1.0
  H  H512  1  0.162000  0.191900  0.895600  1.0
  H  H513  1  0.756000  0.864000  0.551000  1.0
  H  H514  1  0.244000  0.136000  0.051000  1.0
  H  H515  1  0.636000  0.256000  0.301000  1.0
  H  H516  1  0.364000  0.744000  0.801000  1.0
  H  H517  1  0.744000  0.364000  0.199000  1.0
  H  H518  1  0.256000  0.636000  0.699000  1.0
  H  H519  1  0.864000  0.756000  0.449000  1.0
  H  H520  1  0.136000  0.244000  0.949000  1.0
  H  H521  1  0.029900  0.115500  0.090300  1.0
  H  H522  1  0.970100  0.884500  0.590300  1.0
  H  H523  1  0.384500  0.529900  0.840300  1.0
  H  H524  1  0.615500  0.470100  0.340300  1.0
  H  H525  1  0.470100  0.615500  0.659700  1.0
  H  H526  1  0.529900  0.384500  0.159700  1.0
  H  H527  1  0.115500  0.029900  0.909700  1.0
  H  H528  1  0.884500  0.970100  0.409700  1.0
  H  H529  1  0.086800  0.492200  0.793400  1.0
  H  H530  1  0.913200  0.507800  0.293400  1.0
  H  H531  1  0.007800  0.586800  0.543400  1.0
  H  H532  1  0.992200  0.413200  0.043400  1.0
  H  H533  1  0.413200  0.992200  0.956600  1.0
  H  H534  1  0.586800  0.007800  0.456600  1.0
  H  H535  1  0.492200  0.086800  0.206600  1.0
  H  H536  1  0.507800  0.913200  0.706600  1.0
  Pd  Pd537  1  0.509230  0.509230  0.000000  1
  Pd  Pd538  1  0.490770  0.490770  0.500000  1
  Pd  Pd539  1  0.990770  0.009230  0.750000  1
  Pd  Pd540  1  0.009230  0.990770  0.250000  1
  Pd  Pd541  1  0.962640  0.962640  0.000000  1
  Pd  Pd542  1  0.037360  0.037360  0.500000  1
  Pd  Pd543  1  0.537360  0.462640  0.750000  1
  Pd  Pd544  1  0.462640  0.537360  0.250000  1
  Pd  Pd545  1  0.679890  0.798760  0.709450  1.0
  Pd  Pd546  1  0.320110  0.201240  0.209450  1.0
  Pd  Pd547  1  0.701240  0.179890  0.459450  1.0
  Pd  Pd548  1  0.298760  0.820110  0.959450  1.0
  Pd  Pd549  1  0.820110  0.298760  0.040550  1.0
  Pd  Pd550  1  0.179890  0.701240  0.540550  1.0
  Pd  Pd551  1  0.798760  0.679890  0.290550  1.0
  Pd  Pd552  1  0.201240  0.320110  0.790550  1.0
  Pd  Pd553  1  0.948390  0.519030  0.919320  1.0
  Pd  Pd554  1  0.051610  0.480970  0.419320  1.0
  Pd  Pd555  1  0.980970  0.448390  0.669320  1.0
  Pd  Pd556  1  0.019030  0.551610  0.169320  1.0
  Pd  Pd557  1  0.551610  0.019030  0.830680  1.0
  Pd  Pd558  1  0.448390  0.980970  0.330680  1.0
  Pd  Pd559  1  0.519030  0.948390  0.080680  1.0
  Pd  Pd560  1  0.480970  0.051610  0.580680  1.0
  C  C561  1  0.723500  0.775900  0.918000  1
  C  C562  1  0.276500  0.224100  0.418000  1
  C  C563  1  0.724100  0.223500  0.668000  1
  C  C564  1  0.275900  0.776500  0.168000  1
  C  C565  1  0.776500  0.275900  0.832000  1
  C  C566  1  0.223500  0.724100  0.332000  1
  C  C567  1  0.775900  0.723500  0.082000  1
  C  C568  1  0.224100  0.276500  0.582000  1
  C  C569  1  0.697800  0.738500  0.931900  1
  C  C570  1  0.302200  0.261500  0.431900  1
  C  C571  1  0.761500  0.197800  0.681900  1
  C  C572  1  0.238500  0.802200  0.181900  1
  C  C573  1  0.802200  0.238500  0.818100  1
  C  C574  1  0.197800  0.761500  0.318100  1
  C  C575  1  0.738500  0.697800  0.068100  1
  C  C576  1  0.261500  0.302200  0.568100  1
  C  C577  1  0.661300  0.744800  0.960700  1
  C  C578  1  0.338700  0.255200  0.460700  1
  C  C579  1  0.755200  0.161300  0.710700  1
  C  C580  1  0.244800  0.838700  0.210700  1
  C  C581  1  0.838700  0.244800  0.789300  1
  C  C582  1  0.161300  0.755200  0.289300  1
  C  C583  1  0.744800  0.661300  0.039300  1
  C  C584  1  0.255200  0.338700  0.539300  1
  C  C585  1  0.650500  0.788600  0.975500  1
  C  C586  1  0.349500  0.211400  0.475500  1
  C  C587  1  0.711400  0.150500  0.725500  1
  C  C588  1  0.288600  0.849500  0.225500  1
  C  C589  1  0.849500  0.288600  0.774500  1
  C  C590  1  0.150500  0.711400  0.274500  1
  C  C591  1  0.788600  0.650500  0.024500  1
  C  C592  1  0.211400  0.349500  0.524500  1
  C  C593  1  0.676200  0.826000  0.961600  1
  C  C594  1  0.323800  0.174000  0.461600  1
  C  C595  1  0.674000  0.176200  0.711600  1
  C  C596  1  0.326000  0.823800  0.211600  1
  C  C597  1  0.823800  0.326000  0.788400  1
  C  C598  1  0.176200  0.674000  0.288400  1
  C  C599  1  0.826000  0.676200  0.038400  1
  C  C600  1  0.174000  0.323800  0.538400  1
  C  C601  1  0.712700  0.819700  0.932800  1
  C  C602  1  0.287300  0.180300  0.432800  1
  C  C603  1  0.680300  0.212700  0.682800  1
  C  C604  1  0.319700  0.787300  0.182800  1
  C  C605  1  0.787300  0.319700  0.817200  1
  C  C606  1  0.212700  0.680300  0.317200  1
  C  C607  1  0.819700  0.712700  0.067200  1
  C  C608  1  0.180300  0.287300  0.567200  1
  C  C609  1  0.738300  0.857100  0.918900  1
  C  C610  1  0.261700  0.142900  0.418900  1
  C  C611  1  0.642900  0.238300  0.668900  1
  C  C612  1  0.357100  0.761700  0.168900  1
  C  C613  1  0.761700  0.357100  0.831100  1
  C  C614  1  0.238300  0.642900  0.331100  1
  C  C615  1  0.857100  0.738300  0.081100  1
  C  C616  1  0.142900  0.261700  0.581100  1
  C  C617  1  0.727500  0.900900  0.933700  1
  C  C618  1  0.272500  0.099100  0.433700  1
  C  C619  1  0.599100  0.227500  0.683700  1
  C  C620  1  0.400900  0.772500  0.183700  1
  C  C621  1  0.772500  0.400900  0.816300  1
  C  C622  1  0.227500  0.599100  0.316300  1
  C  C623  1  0.900900  0.727500  0.066300  1
  C  C624  1  0.099100  0.272500  0.566300  1
  C  C625  1  0.691100  0.907200  0.962500  1
  C  C626  1  0.308900  0.092800  0.462500  1
  C  C627  1  0.592800  0.191100  0.712500  1
  C  C628  1  0.407200  0.808900  0.212500  1
  C  C629  1  0.808900  0.407200  0.787500  1
  C  C630  1  0.191100  0.592800  0.287500  1
  C  C631  1  0.907200  0.691100  0.037500  1
  C  C632  1  0.092800  0.308900  0.537500  1
  C  C633  1  0.665400  0.869800  0.976500  1
  C  C634  1  0.334600  0.130200  0.476500  1
  C  C635  1  0.630200  0.165400  0.726500  1
  C  C636  1  0.369800  0.834600  0.226500  1
  C  C637  1  0.834600  0.369800  0.773500  1
  C  C638  1  0.165400  0.630200  0.273500  1
  C  C639  1  0.869800  0.665400  0.023500  1
  C  C640  1  0.130200  0.334600  0.523500  1
  C  C641  1  0.703100  0.692600  0.912800  1
  C  C642  1  0.296900  0.307400  0.412800  1
  C  C643  1  0.807400  0.203100  0.662800  1
  C  C644  1  0.192600  0.796900  0.162800  1
  C  C645  1  0.796900  0.192600  0.837200  1
  C  C646  1  0.203100  0.807400  0.337200  1
  C  C647  1  0.692600  0.703100  0.087200  1
  C  C648  1  0.307400  0.296900  0.587200  1
  C  C649  1  0.734400  0.627900  0.870000  1
  C  C650  1  0.265600  0.372100  0.370000  1
  C  C651  1  0.872100  0.234400  0.620000  1
  C  C652  1  0.127900  0.765600  0.120000  1
  C  C653  1  0.765600  0.127900  0.880000  1
  C  C654  1  0.234400  0.872100  0.380000  1
  C  C655  1  0.627900  0.734400  0.130000  1
  C  C656  1  0.372100  0.265600  0.630000  1
  C  C657  1  0.771400  0.590900  0.863800  1
  C  C658  1  0.228600  0.409100  0.363800  1
  C  C659  1  0.909100  0.271400  0.613800  1
  C  C660  1  0.090900  0.728600  0.113800  1
  C  C661  1  0.728600  0.090900  0.886200  1
  C  C662  1  0.271400  0.909100  0.386200  1
  C  C663  1  0.590900  0.771400  0.136200  1
  C  C664  1  0.409100  0.228600  0.636200  1
  C  C665  1  0.707300  0.627100  0.827000  1
  C  C666  1  0.292700  0.372900  0.327000  1
  C  C667  1  0.872900  0.207300  0.577000  1
  C  C668  1  0.127100  0.792700  0.077000  1
  C  C669  1  0.792700  0.127100  0.923000  1
  C  C670  1  0.207300  0.872900  0.423000  1
  C  C671  1  0.627100  0.707300  0.173000  1
  C  C672  1  0.372900  0.292700  0.673000  1
  C  C673  1  0.700400  0.609500  0.905300  1
  C  C674  1  0.299600  0.390500  0.405300  1
  C  C675  1  0.890500  0.200400  0.655300  1
  C  C676  1  0.109500  0.799600  0.155300  1
  C  C677  1  0.799600  0.109500  0.844700  1
  C  C678  1  0.200400  0.890500  0.344700  1
  C  C679  1  0.609500  0.700400  0.094700  1
  C  C680  1  0.390500  0.299600  0.594700  1
  C  C681  1  0.656600  0.582300  0.895800  1
  C  C682  1  0.343400  0.417700  0.395800  1
  C  C683  1  0.917700  0.156600  0.645800  1
  C  C684  1  0.082300  0.843400  0.145800  1
  C  C685  1  0.843400  0.082300  0.854200  1
  C  C686  1  0.156600  0.917700  0.354200  1
  C  C687  1  0.582300  0.656600  0.104200  1
  C  C688  1  0.417700  0.343400  0.604200  1
  C  C689  1  0.722100  0.588300  0.945300  1
  C  C690  1  0.277900  0.411700  0.445300  1
  C  C691  1  0.911700  0.222100  0.695300  1
  C  C692  1  0.088300  0.777900  0.195300  1
  C  C693  1  0.777900  0.088300  0.804700  1
  C  C694  1  0.222100  0.911700  0.304700  1
  C  C695  1  0.588300  0.722100  0.054700  1
  C  C696  1  0.411700  0.277900  0.554700  1
  C  C697  1  0.818600  0.516800  0.981700  1.0
  C  C698  1  0.181400  0.483200  0.481700  1.0
  C  C699  1  0.983200  0.318600  0.731700  1.0
  C  C700  1  0.016800  0.681400  0.231700  1.0
  C  C701  1  0.681400  0.016800  0.768300  1.0
  C  C702  1  0.318600  0.983200  0.268300  1.0
  C  C703  1  0.516800  0.818600  0.018300  1.0
  C  C704  1  0.483200  0.181400  0.518300  1.0
  C  C705  1  0.756700  0.823100  0.766600  1.0
  C  C706  1  0.243300  0.176900  0.266600  1.0
  C  C707  1  0.676900  0.256700  0.516600  1.0
  C  C708  1  0.323100  0.743300  0.016600  1.0
  C  C709  1  0.743300  0.323100  0.983400  1.0
  C  C710  1  0.256700  0.676900  0.483400  1.0
  C  C711  1  0.823100  0.756700  0.233400  1.0
  C  C712  1  0.176900  0.243300  0.733400  1.0
  C  C713  1  0.609700  0.507100  0.996900  1.0
  C  C714  1  0.390300  0.492900  0.496900  1.0
  C  C715  1  0.992900  0.109700  0.746900  1.0
  C  C716  1  0.007100  0.890300  0.246900  1.0
  C  C717  1  0.890300  0.007100  0.753100  1.0
  C  C718  1  0.109700  0.992900  0.253100  1.0
  C  C719  1  0.507100  0.609700  0.003100  1.0
  C  C720  1  0.492900  0.390300  0.503100  1.0
  C  C721  1  0.807700  0.775100  0.804500  1.0
  C  C722  1  0.192300  0.224900  0.304500  1.0
  C  C723  1  0.724900  0.307700  0.554500  1.0
  C  C724  1  0.275100  0.692300  0.054500  1.0
  C  C725  1  0.692300  0.275100  0.945500  1.0
  C  C726  1  0.307700  0.724900  0.445500  1.0
  C  C727  1  0.775100  0.807700  0.195500  1.0
  C  C728  1  0.224900  0.192300  0.695500  1.0
  C  C729  1  0.870400  0.542600  0.034300  1.0
  C  C730  1  0.129600  0.457400  0.534300  1.0
  C  C731  1  0.957400  0.370400  0.784300  1.0
  C  C732  1  0.042600  0.629600  0.284300  1.0
  C  C733  1  0.629600  0.042600  0.715700  1.0
  C  C734  1  0.370400  0.957400  0.215700  1.0
  C  C735  1  0.542600  0.870400  0.965700  1.0
  C  C736  1  0.457400  0.129600  0.465700  1.0
  C  C737  1  0.015600  0.547300  0.850000  1.0
  C  C738  1  0.984400  0.452700  0.350000  1.0
  C  C739  1  0.952700  0.515600  0.600000  1.0
  C  C740  1  0.047300  0.484400  0.100000  1.0
  C  C741  1  0.484400  0.047300  0.900000  1.0
  C  C742  1  0.515600  0.952700  0.400000  1.0
  C  C743  1  0.547300  0.015600  0.150000  1.0
  C  C744  1  0.452700  0.984400  0.650000  1.0
  C  C745  1  0.014300  0.475300  0.866500  1.0
  C  C746  1  0.985700  0.524700  0.366500  1.0
  C  C747  1  0.024700  0.514300  0.616500  1.0
  C  C748  1  0.975300  0.485700  0.116500  1.0
  C  C749  1  0.485700  0.975300  0.883500  1.0
  C  C750  1  0.514300  0.024700  0.383500  1.0
  C  C751  1  0.475300  0.014300  0.133500  1.0
  C  C752  1  0.524700  0.985700  0.633500  1.0
  C  C753  1  0.911000  0.836200  0.914200  1.0
  C  C754  1  0.089000  0.163800  0.414200  1.0
  C  C755  1  0.663800  0.411000  0.664200  1.0
  C  C756  1  0.336200  0.589000  0.164200  1.0
  C  C757  1  0.589000  0.336200  0.835800  1.0
  C  C758  1  0.411000  0.663800  0.335800  1.0
  C  C759  1  0.836200  0.911000  0.085800  1.0
  C  C760  1  0.163800  0.089000  0.585800  1.0
  C  C761  1  0.752200  0.746500  0.754800  1.0
  C  C762  1  0.247800  0.253500  0.254800  1.0
  C  C763  1  0.753500  0.252200  0.504800  1.0
  C  C764  1  0.246500  0.747800  0.004800  1.0
  C  C765  1  0.747800  0.246500  0.995200  1.0
  C  C766  1  0.252200  0.753500  0.495200  1.0
  C  C767  1  0.746500  0.752200  0.245200  1.0
  C  C768  1  0.253500  0.247800  0.745200  1.0
  C  C769  1  0.948600  0.618500  0.927600  1.0
  C  C770  1  0.051400  0.381500  0.427600  1.0
  C  C771  1  0.881500  0.448600  0.677600  1.0
  C  C772  1  0.118500  0.551400  0.177600  1.0
  C  C773  1  0.551400  0.118500  0.822400  1.0
  C  C774  1  0.448600  0.881500  0.322400  1.0
  C  C775  1  0.618500  0.948600  0.072400  1.0
  C  C776  1  0.381500  0.051400  0.572400  1.0
  C  C777  1  0.788500  0.738600  0.781600  1.0
  C  C778  1  0.211500  0.261400  0.281600  1.0
  C  C779  1  0.761400  0.288500  0.531600  1.0
  C  C780  1  0.238600  0.711500  0.031600  1.0
  C  C781  1  0.711500  0.238600  0.968400  1.0
  C  C782  1  0.288500  0.761400  0.468400  1.0
  C  C783  1  0.738600  0.788500  0.218400  1.0
  C  C784  1  0.261400  0.211500  0.718400  1.0
  C  C785  1  0.532100  0.417300  0.040000  1.0
  C  C786  1  0.467900  0.582700  0.540000  1.0
  C  C787  1  0.082700  0.032100  0.790000  1.0
  C  C788  1  0.917300  0.967900  0.290000  1.0
  C  C789  1  0.967900  0.917300  0.710000  1.0
  C  C790  1  0.032100  0.082700  0.210000  1.0
  C  C791  1  0.417300  0.532100  0.960000  1.0
  C  C792  1  0.582700  0.467900  0.460000  1.0
  C  C793  1  0.998400  0.439100  0.895300  1.0
  C  C794  1  0.001600  0.560900  0.395300  1.0
  C  C795  1  0.060900  0.498400  0.645300  1.0
  C  C796  1  0.939100  0.501600  0.145300  1.0
  C  C797  1  0.501600  0.939100  0.854700  1.0
  C  C798  1  0.498400  0.060900  0.354700  1.0
  C  C799  1  0.439100  0.998400  0.104700  1.0
  C  C800  1  0.560900  0.001600  0.604700  1.0
  C  C801  1  0.891000  0.721000  0.874700  1.0
  C  C802  1  0.109000  0.279000  0.374700  1.0
  C  C803  1  0.779000  0.391000  0.624700  1.0
  C  C804  1  0.221000  0.609000  0.124700  1.0
  C  C805  1  0.609000  0.221000  0.875300  1.0
  C  C806  1  0.391000  0.779000  0.375300  1.0
  C  C807  1  0.721000  0.891000  0.125300  1.0
  C  C808  1  0.279000  0.109000  0.625300  1.0
  C  C809  1  0.709900  0.543500  0.065100  1.0
  C  C810  1  0.290100  0.456500  0.565100  1.0
  C  C811  1  0.956500  0.209900  0.815100  1.0
  C  C812  1  0.043500  0.790100  0.315100  1.0
  C  C813  1  0.790100  0.043500  0.684900  1.0
  C  C814  1  0.209900  0.956500  0.184900  1.0
  C  C815  1  0.543500  0.709900  0.934900  1.0
  C  C816  1  0.456500  0.290100  0.434900  1.0
  C  C817  1  0.662600  0.531500  0.052500  1.0
  C  C818  1  0.337400  0.468500  0.552500  1.0
  C  C819  1  0.968500  0.162600  0.802500  1.0
  C  C820  1  0.031500  0.837400  0.302500  1.0
  C  C821  1  0.837400  0.031500  0.697500  1.0
  C  C822  1  0.162600  0.968500  0.197500  1.0
  C  C823  1  0.531500  0.662600  0.947500  1.0
  C  C824  1  0.468500  0.337400  0.447500  1.0
  C  C825  1  0.966000  0.029800  0.071000  1.0
  C  C826  1  0.034000  0.970200  0.571000  1.0
  C  C827  1  0.470200  0.466000  0.821000  1.0
  C  C828  1  0.529800  0.534000  0.321000  1.0
  C  C829  1  0.534000  0.529800  0.679000  1.0
  C  C830  1  0.466000  0.470200  0.179000  1.0
  C  C831  1  0.029800  0.966000  0.929000  1.0
  C  C832  1  0.970200  0.034000  0.429000  1.0
  C  C833  1  0.791200  0.818900  0.795200  1.0
  C  C834  1  0.208800  0.181100  0.295200  1.0
  C  C835  1  0.681100  0.291200  0.545200  1.0
  C  C836  1  0.318900  0.708800  0.045200  1.0
  C  C837  1  0.708800  0.318900  0.954800  1.0
  C  C838  1  0.291200  0.681100  0.454800  1.0
  C  C839  1  0.818900  0.791200  0.204800  1.0
  C  C840  1  0.181100  0.208800  0.704800  1.0
  C  C841  1  0.963700  0.377800  0.956000  1.0
  C  C842  1  0.036300  0.622200  0.456000  1.0
  C  C843  1  0.122200  0.463700  0.706000  1.0
  C  C844  1  0.877800  0.536300  0.206000  1.0
  C  C845  1  0.536300  0.877800  0.794000  1.0
  C  C846  1  0.463700  0.122200  0.294000  1.0
  C  C847  1  0.377800  0.963700  0.044000  1.0
  C  C848  1  0.622200  0.036300  0.544000  1.0
  C  C849  1  0.936700  0.663700  0.918900  1.0
  C  C850  1  0.063300  0.336300  0.418900  1.0
  C  C851  1  0.836300  0.436700  0.668900  1.0
  C  C852  1  0.163700  0.563300  0.168900  1.0
  C  C853  1  0.563300  0.163700  0.831100  1.0
  C  C854  1  0.436700  0.836300  0.331100  1.0
  C  C855  1  0.663700  0.936700  0.081100  1.0
  C  C856  1  0.336300  0.063300  0.581100  1.0
  C  C857  1  0.911300  0.913600  0.932100  1.0
  C  C858  1  0.088700  0.086400  0.432100  1.0
  C  C859  1  0.586400  0.411300  0.682100  1.0
  C  C860  1  0.413600  0.588700  0.182100  1.0
  C  C861  1  0.588700  0.413600  0.817900  1.0
  C  C862  1  0.411300  0.586400  0.317900  1.0
  C  C863  1  0.913600  0.911300  0.067900  1.0
  C  C864  1  0.086400  0.088700  0.567900  1.0
  C  C865  1  0.855300  0.509800  0.952000  1.0
  C  C866  1  0.144700  0.490200  0.452000  1.0
  C  C867  1  0.990200  0.355300  0.702000  1.0
  C  C868  1  0.009800  0.644700  0.202000  1.0
  C  C869  1  0.644700  0.009800  0.798000  1.0
  C  C870  1  0.355300  0.990200  0.298000  1.0
  C  C871  1  0.509800  0.855300  0.048000  1.0
  C  C872  1  0.490200  0.144700  0.548000  1.0
  C  C873  1  0.581800  0.808200  0.683700  1.0
  C  C874  1  0.418200  0.191800  0.183700  1.0
  C  C875  1  0.691800  0.081800  0.433700  1.0
  C  C876  1  0.308200  0.918200  0.933700  1.0
  C  C877  1  0.918200  0.308200  0.066300  1.0
  C  C878  1  0.081800  0.691800  0.566300  1.0
  C  C879  1  0.808200  0.581800  0.316300  1.0
  C  C880  1  0.191800  0.418200  0.816300  1.0
  C  C881  1  0.893400  0.795600  0.889300  1.0
  C  C882  1  0.106600  0.204400  0.389300  1.0
  C  C883  1  0.704400  0.393400  0.639300  1.0
  C  C884  1  0.295600  0.606600  0.139300  1.0
  C  C885  1  0.606600  0.295600  0.860700  1.0
  C  C886  1  0.393400  0.704400  0.360700  1.0
  C  C887  1  0.795600  0.893400  0.110700  1.0
  C  C888  1  0.204400  0.106600  0.610700  1.0
  C  C889  1  0.827200  0.533700  0.022600  1.0
  C  C890  1  0.172800  0.466300  0.522600  1.0
  C  C891  1  0.966300  0.327200  0.772600  1.0
  C  C892  1  0.033700  0.672800  0.272600  1.0
  C  C893  1  0.672800  0.033700  0.727400  1.0
  C  C894  1  0.327200  0.966300  0.227400  1.0
  C  C895  1  0.533700  0.827200  0.977400  1.0
  C  C896  1  0.466300  0.172800  0.477400  1.0
  C  C897  1  0.949300  0.424600  0.955800  1.0
  C  C898  1  0.050700  0.575400  0.455800  1.0
  C  C899  1  0.075400  0.449300  0.705800  1.0
  C  C900  1  0.924600  0.550700  0.205800  1.0
  C  C901  1  0.550700  0.924600  0.794200  1.0
  C  C902  1  0.449300  0.075400  0.294200  1.0
  C  C903  1  0.424600  0.949300  0.044200  1.0
  C  C904  1  0.575400  0.050700  0.544200  1.0
  C  C905  1  0.047500  0.545800  0.819100  1.0
  C  C906  1  0.952500  0.454200  0.319100  1.0
  C  C907  1  0.954200  0.547500  0.569100  1.0
  C  C908  1  0.045800  0.452500  0.069100  1.0
  C  C909  1  0.452500  0.045800  0.930900  1.0
  C  C910  1  0.547500  0.954200  0.430900  1.0
  C  C911  1  0.545800  0.047500  0.180900  1.0
  C  C912  1  0.454200  0.952500  0.680900  1.0
  C  C913  1  0.844200  0.769700  0.837600  1.0
  C  C914  1  0.155800  0.230300  0.337600  1.0
  C  C915  1  0.730300  0.344200  0.587600  1.0
  C  C916  1  0.269700  0.655800  0.087600  1.0
  C  C917  1  0.655800  0.269700  0.912400  1.0
  C  C918  1  0.344200  0.730300  0.412400  1.0
  C  C919  1  0.769700  0.844200  0.162400  1.0
  C  C920  1  0.230300  0.155800  0.662400  1.0
  C  C921  1  0.785200  0.543800  0.053100  1.0
  C  C922  1  0.214800  0.456200  0.553100  1.0
  C  C923  1  0.956200  0.285200  0.803100  1.0
  C  C924  1  0.043800  0.714800  0.303100  1.0
  C  C925  1  0.714800  0.043800  0.696900  1.0
  C  C926  1  0.285200  0.956200  0.196900  1.0
  C  C927  1  0.543800  0.785200  0.946900  1.0
  C  C928  1  0.456200  0.214800  0.446900  1.0
  C  C929  1  0.634800  0.832100  0.633100  1.0
  C  C930  1  0.365200  0.167900  0.133100  1.0
  C  C931  1  0.667900  0.134800  0.383100  1.0
  C  C932  1  0.332100  0.865200  0.883100  1.0
  C  C933  1  0.865200  0.332100  0.116900  1.0
  C  C934  1  0.134800  0.667900  0.616900  1.0
  C  C935  1  0.832100  0.634800  0.366900  1.0
  C  C936  1  0.167900  0.365200  0.866900  1.0
  C  C937  1  0.545500  0.820500  0.658000  1.0
  C  C938  1  0.454500  0.179500  0.158000  1.0
  C  C939  1  0.679500  0.045500  0.408000  1.0
  C  C940  1  0.320500  0.954500  0.908000  1.0
  C  C941  1  0.954500  0.320500  0.092000  1.0
  C  C942  1  0.045500  0.679500  0.592000  1.0
  C  C943  1  0.820500  0.545500  0.342000  1.0
  C  C944  1  0.179500  0.454500  0.842000  1.0
  C  C945  1  0.654300  0.513400  0.010400  1.0
  C  C946  1  0.345700  0.486600  0.510400  1.0
  C  C947  1  0.986600  0.154300  0.760400  1.0
  C  C948  1  0.013400  0.845700  0.260400  1.0
  C  C949  1  0.845700  0.013400  0.739600  1.0
  C  C950  1  0.154300  0.986600  0.239600  1.0
  C  C951  1  0.513400  0.654300  0.989600  1.0
  C  C952  1  0.486600  0.345700  0.489600  1.0
  C  C953  1  0.907000  0.673900  0.884900  1.0
  C  C954  1  0.093000  0.326100  0.384900  1.0
  C  C955  1  0.826100  0.407000  0.634900  1.0
  C  C956  1  0.173900  0.593000  0.134900  1.0
  C  C957  1  0.593000  0.173900  0.865100  1.0
  C  C958  1  0.407000  0.826100  0.365100  1.0
  C  C959  1  0.673900  0.907000  0.115100  1.0
  C  C960  1  0.326100  0.093000  0.615100  1.0
  C  C961  1  0.895100  0.880500  0.906400  1.0
  C  C962  1  0.104900  0.119500  0.406400  1.0
  C  C963  1  0.619500  0.395100  0.656400  1.0
  C  C964  1  0.380500  0.604900  0.156400  1.0
  C  C965  1  0.604900  0.380500  0.843600  1.0
  C  C966  1  0.395100  0.619500  0.343600  1.0
  C  C967  1  0.880500  0.895100  0.093600  1.0
  C  C968  1  0.119500  0.104900  0.593600  1.0
  C  C969  1  0.600500  0.847700  0.605900  1.0
  C  C970  1  0.399500  0.152300  0.105900  1.0
  C  C971  1  0.652300  0.100500  0.355900  1.0
  C  C972  1  0.347700  0.899500  0.855900  1.0
  C  C973  1  0.899500  0.347700  0.144100  1.0
  C  C974  1  0.100500  0.652300  0.644100  1.0
  C  C975  1  0.847700  0.600500  0.394100  1.0
  C  C976  1  0.152300  0.399500  0.894100  1.0
  C  C977  1  0.640000  0.815000  0.795100  1.0
  C  C978  1  0.360000  0.185000  0.295100  1.0
  C  C979  1  0.685000  0.140000  0.545100  1.0
  C  C980  1  0.315000  0.860000  0.045100  1.0
  C  C981  1  0.860000  0.315000  0.954900  1.0
  C  C982  1  0.140000  0.685000  0.454900  1.0
  C  C983  1  0.815000  0.640000  0.204900  1.0
  C  C984  1  0.185000  0.360000  0.704900  1.0
  C  C985  1  0.682900  0.835800  0.623700  1.0
  C  C986  1  0.317100  0.164200  0.123700  1.0
  C  C987  1  0.664200  0.182900  0.373700  1.0
  C  C988  1  0.335800  0.817100  0.873700  1.0
  C  C989  1  0.817100  0.335800  0.126300  1.0
  C  C990  1  0.182900  0.664200  0.626300  1.0
  C  C991  1  0.835800  0.682900  0.376300  1.0
  C  C992  1  0.164200  0.317100  0.876300  1.0
  C  C993  1  0.906000  0.536200  0.005300  1.0
  C  C994  1  0.094000  0.463800  0.505300  1.0
  C  C995  1  0.963800  0.406000  0.755300  1.0
  C  C996  1  0.036200  0.594000  0.255300  1.0
  C  C997  1  0.594000  0.036200  0.744700  1.0
  C  C998  1  0.406000  0.963800  0.244700  1.0
  C  C999  1  0.536200  0.906000  0.994700  1.0
  C  C1000  1  0.463800  0.094000  0.494700  1.0
  C  C1001  1  0.483200  0.355500  0.043300  1.0
  C  C1002  1  0.516800  0.644500  0.543300  1.0
  C  C1003  1  0.144500  0.983200  0.793300  1.0
  C  C1004  1  0.855500  0.016800  0.293300  1.0
  C  C1005  1  0.016800  0.855500  0.706700  1.0
  C  C1006  1  0.983200  0.144500  0.206700  1.0
  C  C1007  1  0.355500  0.483200  0.956700  1.0
  C  C1008  1  0.644500  0.516800  0.456700  1.0
  C  C1009  1  0.888400  0.637400  0.861500  1.0
  C  C1010  1  0.111600  0.362600  0.361500  1.0
  C  C1011  1  0.862600  0.388400  0.611500  1.0
  C  C1012  1  0.137400  0.611600  0.111500  1.0
  C  C1013  1  0.611600  0.137400  0.888500  1.0
  C  C1014  1  0.388400  0.862600  0.388500  1.0
  C  C1015  1  0.637400  0.888400  0.138500  1.0
  C  C1016  1  0.362600  0.111600  0.638500  1.0
  C  C1017  1  0.051400  0.466100  0.837400  1.0
  C  C1018  1  0.948600  0.533900  0.337400  1.0
  C  C1019  1  0.033900  0.551400  0.587400  1.0
  C  C1020  1  0.966100  0.448600  0.087400  1.0
  C  C1021  1  0.448600  0.966100  0.912600  1.0
  C  C1022  1  0.551400  0.033900  0.412600  1.0
  C  C1023  1  0.466100  0.051400  0.162600  1.0
  C  C1024  1  0.533900  0.948600  0.662600  1.0
  C  C1025  1  0.580600  0.528800  0.065100  1.0
  C  C1026  1  0.419400  0.471200  0.565100  1.0
  C  C1027  1  0.971200  0.080600  0.815100  1.0
  C  C1028  1  0.028800  0.919400  0.315100  1.0
  C  C1029  1  0.919400  0.028800  0.684900  1.0
  C  C1030  1  0.080600  0.971200  0.184900  1.0
  C  C1031  1  0.528800  0.580600  0.934900  1.0
  C  C1032  1  0.471200  0.419400  0.434900  1.0
  C  C1033  1  0.758200  0.572200  0.117100  1.0
  C  C1034  1  0.241800  0.427800  0.617100  1.0
  C  C1035  1  0.927800  0.258200  0.867100  1.0
  C  C1036  1  0.072200  0.741800  0.367100  1.0
  C  C1037  1  0.741800  0.072200  0.632900  1.0
  C  C1038  1  0.258200  0.927800  0.132900  1.0
  C  C1039  1  0.572200  0.758200  0.882900  1.0
  C  C1040  1  0.427800  0.241800  0.382900  1.0
  C  C1041  1  0.903300  0.593700  0.873400  1.0
  C  C1042  1  0.096700  0.406300  0.373400  1.0
  C  C1043  1  0.906300  0.403300  0.623400  1.0
  C  C1044  1  0.093700  0.596700  0.123400  1.0
  C  C1045  1  0.596700  0.093700  0.876600  1.0
  C  C1046  1  0.403300  0.906300  0.376600  1.0
  C  C1047  1  0.593700  0.903300  0.126600  1.0
  C  C1048  1  0.406300  0.096700  0.626600  1.0
  C  C1049  1  0.618200  0.808200  0.833500  1.0
  C  C1050  1  0.381800  0.191800  0.333500  1.0
  C  C1051  1  0.691800  0.118200  0.583500  1.0
  C  C1052  1  0.308200  0.881800  0.083500  1.0
  C  C1053  1  0.881800  0.308200  0.916500  1.0
  C  C1054  1  0.118200  0.691800  0.416500  1.0
  C  C1055  1  0.808200  0.618200  0.166500  1.0
  C  C1056  1  0.191800  0.381800  0.666500  1.0
  C  C1057  1  0.767800  0.599400  0.157600  1.0
  C  C1058  1  0.232200  0.400600  0.657600  1.0
  C  C1059  1  0.900600  0.267800  0.907600  1.0
  C  C1060  1  0.099400  0.732200  0.407600  1.0
  C  C1061  1  0.732200  0.099400  0.592400  1.0
  C  C1062  1  0.267800  0.900600  0.092400  1.0
  C  C1063  1  0.599400  0.767800  0.842400  1.0
  C  C1064  1  0.400600  0.232200  0.342400  1.0
  C  C1065  1  0.628700  0.741900  0.773100  1.0
  C  C1066  1  0.371300  0.258100  0.273100  1.0
  C  C1067  1  0.758100  0.128700  0.523100  1.0
  C  C1068  1  0.241900  0.871300  0.023100  1.0
  C  C1069  1  0.871300  0.241900  0.976900  1.0
  C  C1070  1  0.128700  0.758100  0.476900  1.0
  C  C1071  1  0.741900  0.628700  0.226900  1.0
  C  C1072  1  0.258100  0.371300  0.726900  1.0
  C  C1073  1  0.731500  0.602600  0.189400  1.0
  C  C1074  1  0.268500  0.397400  0.689400  1.0
  C  C1075  1  0.897400  0.231500  0.939400  1.0
  C  C1076  1  0.102600  0.768500  0.439400  1.0
  C  C1077  1  0.768500  0.102600  0.560600  1.0
  C  C1078  1  0.231500  0.897400  0.060600  1.0
  C  C1079  1  0.602600  0.731500  0.810600  1.0
  C  C1080  1  0.397400  0.268500  0.310600  1.0
  C  C1081  1  0.945800  0.828200  0.944300  1.0
  C  C1082  1  0.054200  0.171800  0.444300  1.0
  C  C1083  1  0.671800  0.445800  0.694300  1.0
  C  C1084  1  0.328200  0.554200  0.194300  1.0
  C  C1085  1  0.554200  0.328200  0.805700  1.0
  C  C1086  1  0.445800  0.671800  0.305700  1.0
  C  C1087  1  0.828200  0.945800  0.055700  1.0
  C  C1088  1  0.171800  0.054200  0.555700  1.0
  C  C1089  1  0.522800  0.373000  0.051700  1.0
  C  C1090  1  0.477200  0.627000  0.551700  1.0
  C  C1091  1  0.127000  0.022800  0.801700  1.0
  C  C1092  1  0.873000  0.977200  0.301700  1.0
  C  C1093  1  0.977200  0.873000  0.698300  1.0
  C  C1094  1  0.022800  0.127000  0.198300  1.0
  C  C1095  1  0.373000  0.522800  0.948300  1.0
  C  C1096  1  0.627000  0.477200  0.448300  1.0
  C  C1097  1  0.625600  0.538200  0.081000  1.0
  C  C1098  1  0.374400  0.461800  0.581000  1.0
  C  C1099  1  0.961800  0.125600  0.831000  1.0
  C  C1100  1  0.038200  0.874400  0.331000  1.0
  C  C1101  1  0.874400  0.038200  0.669000  1.0
  C  C1102  1  0.125600  0.961800  0.169000  1.0
  C  C1103  1  0.538200  0.625600  0.919000  1.0
  C  C1104  1  0.461800  0.374400  0.419000  1.0
  C  C1105  1  0.980000  0.067300  0.095300  1.0
  C  C1106  1  0.020000  0.932700  0.595300  1.0
  C  C1107  1  0.432700  0.480000  0.845300  1.0
  C  C1108  1  0.567300  0.520000  0.345300  1.0
  C  C1109  1  0.520000  0.567300  0.654700  1.0
  C  C1110  1  0.480000  0.432700  0.154700  1.0
  C  C1111  1  0.067300  0.980000  0.904700  1.0
  C  C1112  1  0.932700  0.020000  0.404700  1.0
  C  C1113  1  0.994400  0.364200  0.929400  1.0
  C  C1114  1  0.005600  0.635800  0.429400  1.0
  C  C1115  1  0.135800  0.494400  0.679400  1.0
  C  C1116  1  0.864200  0.505600  0.179400  1.0
  C  C1117  1  0.505600  0.864200  0.820600  1.0
  C  C1118  1  0.494400  0.135800  0.320600  1.0
  C  C1119  1  0.364200  0.994400  0.070600  1.0
  C  C1120  1  0.635800  0.005600  0.570600  1.0
  C  C1121  1  0.458000  0.428800  0.009900  1.0
  C  C1122  1  0.542000  0.571200  0.509900  1.0
  C  C1123  1  0.071200  0.958000  0.759900  1.0
  C  C1124  1  0.928800  0.042000  0.259900  1.0
  C  C1125  1  0.042000  0.928800  0.740100  1.0
  C  C1126  1  0.958000  0.071200  0.240100  1.0
  C  C1127  1  0.428800  0.458000  0.990100  1.0
  C  C1128  1  0.571200  0.542000  0.490100  1.0
  C  C1129  1  0.961200  0.867400  0.967000  1.0
  C  C1130  1  0.038800  0.132600  0.467000  1.0
  C  C1131  1  0.632600  0.461200  0.717000  1.0
  C  C1132  1  0.367400  0.538800  0.217000  1.0
  C  C1133  1  0.538800  0.367400  0.783000  1.0
  C  C1134  1  0.461200  0.632600  0.283000  1.0
  C  C1135  1  0.867400  0.961200  0.033000  1.0
  C  C1136  1  0.132600  0.038800  0.533000  1.0
  C  C1137  1  0.446700  0.383300  0.021700  1.0
  C  C1138  1  0.553300  0.616700  0.521700  1.0
  C  C1139  1  0.116700  0.946700  0.771700  1.0
  C  C1140  1  0.883300  0.053300  0.271700  1.0
  C  C1141  1  0.053300  0.883300  0.728300  1.0
  C  C1142  1  0.946700  0.116700  0.228300  1.0
  C  C1143  1  0.383300  0.446700  0.978300  1.0
  C  C1144  1  0.616700  0.553300  0.478300  1.0
  C  C1145  1  0.037900  0.076600  0.038000  1.0
  C  C1146  1  0.962100  0.923400  0.538000  1.0
  C  C1147  1  0.423400  0.537900  0.788000  1.0
  C  C1148  1  0.576600  0.462100  0.288000  1.0
  C  C1149  1  0.462100  0.576600  0.712000  1.0
  C  C1150  1  0.537900  0.423400  0.212000  1.0
  C  C1151  1  0.076600  0.037900  0.962000  1.0
  C  C1152  1  0.923400  0.962100  0.462000  1.0
  C  C1153  1  0.699900  0.852600  0.583400  1.0
  C  C1154  1  0.300100  0.147400  0.083400  1.0
  C  C1155  1  0.647400  0.199900  0.333400  1.0
  C  C1156  1  0.352600  0.800100  0.833400  1.0
  C  C1157  1  0.800100  0.352600  0.166600  1.0
  C  C1158  1  0.199900  0.647400  0.666600  1.0
  C  C1159  1  0.852600  0.699900  0.416600  1.0
  C  C1160  1  0.147400  0.300100  0.916600  1.0
  C  C1161  1  0.759000  0.818700  0.646000  1.0
  C  C1162  1  0.241000  0.181300  0.146000  1.0
  C  C1163  1  0.681300  0.259000  0.396000  1.0
  C  C1164  1  0.318700  0.741000  0.896000  1.0
  C  C1165  1  0.741000  0.318700  0.104000  1.0
  C  C1166  1  0.259000  0.681300  0.604000  1.0
  C  C1167  1  0.818700  0.759000  0.354000  1.0
  C  C1168  1  0.181300  0.241000  0.854000  1.0
  C  C1169  1  0.016700  0.040600  0.019800  1.0
  C  C1170  1  0.983300  0.959400  0.519800  1.0
  C  C1171  1  0.459400  0.516700  0.769800  1.0
  C  C1172  1  0.540600  0.483300  0.269800  1.0
  C  C1173  1  0.483300  0.540600  0.730200  1.0
  C  C1174  1  0.516700  0.459400  0.230200  1.0
  C  C1175  1  0.040600  0.016700  0.980200  1.0
  C  C1176  1  0.959400  0.983300  0.480200  1.0
  C  C1177  1  0.012800  0.394600  0.892000  1.0
  C  C1178  1  0.987200  0.605400  0.392000  1.0
  C  C1179  1  0.105400  0.512800  0.642000  1.0
  C  C1180  1  0.894600  0.487200  0.142000  1.0
  C  C1181  1  0.487200  0.894600  0.858000  1.0
  C  C1182  1  0.512800  0.105400  0.358000  1.0
  C  C1183  1  0.394600  0.012800  0.108000  1.0
  C  C1184  1  0.605400  0.987200  0.608000  1.0
  C  C1185  1  0.556500  0.843900  0.616300  1.0
  C  C1186  1  0.443500  0.156100  0.116300  1.0
  C  C1187  1  0.656100  0.056500  0.366300  1.0
  C  C1188  1  0.343900  0.943500  0.866300  1.0
  C  C1189  1  0.943500  0.343900  0.133700  1.0
  C  C1190  1  0.056500  0.656100  0.633700  1.0
  C  C1191  1  0.843900  0.556500  0.383700  1.0
  C  C1192  1  0.156100  0.443500  0.883700  1.0
  C  C1193  1  0.776600  0.836400  0.609100  1.0
  C  C1194  1  0.223400  0.163600  0.109100  1.0
  C  C1195  1  0.663600  0.276600  0.359100  1.0
  C  C1196  1  0.336400  0.723400  0.859100  1.0
  C  C1197  1  0.723400  0.336400  0.140900  1.0
  C  C1198  1  0.276600  0.663600  0.640900  1.0
  C  C1199  1  0.836400  0.776600  0.390900  1.0
  C  C1200  1  0.163600  0.223400  0.890900  1.0
  C  C1201  1  0.744600  0.852700  0.577400  1.0
  C  C1202  1  0.255400  0.147300  0.077400  1.0
  C  C1203  1  0.647300  0.244600  0.327400  1.0
  C  C1204  1  0.352700  0.755400  0.827400  1.0
  C  C1205  1  0.755400  0.352700  0.172600  1.0
  C  C1206  1  0.244600  0.647300  0.672600  1.0
  C  C1207  1  0.852700  0.744600  0.422600  1.0
  C  C1208  1  0.147300  0.255400  0.922600  1.0
  C  C1209  1  0.018000  0.090000  0.076000  1.0
  C  C1210  1  0.982000  0.910000  0.576000  1.0
  C  C1211  1  0.410000  0.518000  0.826000  1.0
  C  C1212  1  0.590000  0.482000  0.326000  1.0
  C  C1213  1  0.482000  0.590000  0.674000  1.0
  C  C1214  1  0.518000  0.410000  0.174000  1.0
  C  C1215  1  0.090000  0.018000  0.924000  1.0
  C  C1216  1  0.910000  0.982000  0.424000  1.0
  C  C1217  1  0.064700  0.498100  0.814600  1.0
  C  C1218  1  0.935300  0.501900  0.314600  1.0
  C  C1219  1  0.001900  0.564700  0.564600  1.0
  C  C1220  1  0.998100  0.435300  0.064600  1.0
  C  C1221  1  0.435300  0.998100  0.935400  1.0
  C  C1222  1  0.564700  0.001900  0.435400  1.0
  C  C1223  1  0.498100  0.064700  0.185400  1.0
  C  C1224  1  0.501900  0.935300  0.685400  1.0
  N  N1225  1  0.841500  0.418000  0.037700  1
  N  N1226  1  0.158500  0.582000  0.537700  1
  N  N1227  1  0.082000  0.341500  0.787700  1
  N  N1228  1  0.918000  0.658500  0.287700  1
  N  N1229  1  0.658500  0.918000  0.712300  1
  N  N1230  1  0.341500  0.082000  0.212300  1
  N  N1231  1  0.418000  0.841500  0.962300  1
  N  N1232  1  0.582000  0.158500  0.462300  1
  N  N1233  1  0.878500  0.452300  0.852100  1
  N  N1234  1  0.121500  0.547700  0.352100  1
  N  N1235  1  0.047700  0.378500  0.602100  1
  N  N1236  1  0.952300  0.621500  0.102100  1
  N  N1237  1  0.621500  0.952300  0.897900  1
  N  N1238  1  0.378500  0.047700  0.397900  1
  N  N1239  1  0.452300  0.878500  0.147900  1
  N  N1240  1  0.547700  0.121500  0.647900  1
  N  N1241  1  0.973200  0.923900  0.827100  1
  N  N1242  1  0.026800  0.076100  0.327100  1
  N  N1243  1  0.576100  0.473200  0.577100  1
  N  N1244  1  0.423900  0.526800  0.077100  1
  N  N1245  1  0.526800  0.423900  0.922900  1
  N  N1246  1  0.473200  0.576100  0.422900  1
  N  N1247  1  0.923900  0.973200  0.172900  1
  N  N1248  1  0.076100  0.026800  0.672900  1
  N  N1249  1  0.047100  0.530400  0.969500  1
  N  N1250  1  0.952900  0.469600  0.469500  1
  N  N1251  1  0.969600  0.547100  0.719500  1
  N  N1252  1  0.030400  0.452900  0.219500  1
  N  N1253  1  0.452900  0.030400  0.780500  1
  N  N1254  1  0.547100  0.969600  0.280500  1
  N  N1255  1  0.530400  0.047100  0.030500  1
  N  N1256  1  0.469600  0.952900  0.530500  1
  N  N1257  1  0.073700  0.917600  0.048400  1
  N  N1258  1  0.926300  0.082400  0.548400  1
  N  N1259  1  0.582400  0.573700  0.798400  1
  N  N1260  1  0.417600  0.426300  0.298400  1
  N  N1261  1  0.426300  0.417600  0.701600  1
  N  N1262  1  0.573700  0.582400  0.201600  1
  N  N1263  1  0.917600  0.073700  0.951600  1
  N  N1264  1  0.082400  0.926300  0.451600  1
  N  N1265  1  0.737400  0.677600  0.885600  1
  N  N1266  1  0.262600  0.322400  0.385600  1
  N  N1267  1  0.822400  0.237400  0.635600  1
  N  N1268  1  0.177600  0.762600  0.135600  1
  N  N1269  1  0.762600  0.177600  0.864400  1
  N  N1270  1  0.237400  0.822400  0.364400  1
  N  N1271  1  0.677600  0.737400  0.114400  1
  N  N1272  1  0.322400  0.262600  0.614400  1
  N  N1273  1  0.678900  0.653100  0.921600  1
  N  N1274  1  0.321100  0.346900  0.421600  1
  N  N1275  1  0.846900  0.178900  0.671600  1
  N  N1276  1  0.153100  0.821100  0.171600  1
  N  N1277  1  0.821100  0.153100  0.828400  1
  N  N1278  1  0.178900  0.846900  0.328400  1
  N  N1279  1  0.653100  0.678900  0.078400  1
  N  N1280  1  0.346900  0.321100  0.578400  1
  N  N1281  1  0.626100  0.813800  0.671600  1.0
  N  N1282  1  0.373900  0.186200  0.171600  1.0
  N  N1283  1  0.686200  0.126100  0.421600  1.0
  N  N1284  1  0.313800  0.873900  0.921600  1.0
  N  N1285  1  0.873900  0.313800  0.078400  1.0
  N  N1286  1  0.126100  0.686200  0.578400  1.0
  N  N1287  1  0.813800  0.626100  0.328400  1.0
  N  N1288  1  0.186200  0.373900  0.828400  1.0
  N  N1289  1  0.711600  0.819100  0.653600  1.0
  N  N1290  1  0.288400  0.180900  0.153600  1.0
  N  N1291  1  0.680900  0.211600  0.403600  1.0
  N  N1292  1  0.319100  0.788400  0.903600  1.0
  N  N1293  1  0.788400  0.319100  0.096400  1.0
  N  N1294  1  0.211600  0.680900  0.596400  1.0
  N  N1295  1  0.819100  0.711600  0.346400  1.0
  N  N1296  1  0.180900  0.288400  0.846400  1.0
  N  N1297  1  0.643800  0.783500  0.765200  1.0
  N  N1298  1  0.356200  0.216500  0.265200  1.0
  N  N1299  1  0.716500  0.143800  0.515200  1.0
  N  N1300  1  0.283500  0.856200  0.015200  1.0
  N  N1301  1  0.856200  0.283500  0.984800  1.0
  N  N1302  1  0.143800  0.716500  0.484800  1.0
  N  N1303  1  0.783500  0.643800  0.234800  1.0
  N  N1304  1  0.216500  0.356200  0.734800  1.0
  N  N1305  1  0.737100  0.788200  0.746500  1.0
  N  N1306  1  0.262900  0.211800  0.246500  1.0
  N  N1307  1  0.711800  0.237100  0.496500  1.0
  N  N1308  1  0.288200  0.762900  0.996500  1.0
  N  N1309  1  0.762900  0.288200  0.003500  1.0
  N  N1310  1  0.237100  0.711800  0.503500  1.0
  N  N1311  1  0.788200  0.737100  0.253500  1.0
  N  N1312  1  0.211800  0.262900  0.753500  1.0
  N  N1313  1  0.861000  0.724700  0.843600  1.0
  N  N1314  1  0.139000  0.275300  0.343600  1.0
  N  N1315  1  0.775300  0.361000  0.593600  1.0
  N  N1316  1  0.224700  0.639000  0.093600  1.0
  N  N1317  1  0.639000  0.224700  0.906400  1.0
  N  N1318  1  0.361000  0.775300  0.406400  1.0
  N  N1319  1  0.724700  0.861000  0.156400  1.0
  N  N1320  1  0.275300  0.139000  0.656400  1.0
  N  N1321  1  0.860500  0.804700  0.859100  1.0
  N  N1322  1  0.139500  0.195300  0.359100  1.0
  N  N1323  1  0.695300  0.360500  0.609100  1.0
  N  N1324  1  0.304700  0.639500  0.109100  1.0
  N  N1325  1  0.639500  0.304700  0.890900  1.0
  N  N1326  1  0.360500  0.695300  0.390900  1.0
  N  N1327  1  0.804700  0.860500  0.140900  1.0
  N  N1328  1  0.195300  0.139500  0.640900  1.0
  N  N1329  1  0.909900  0.754800  0.899000  1.0
  N  N1330  1  0.090100  0.245200  0.399000  1.0
  N  N1331  1  0.745200  0.409900  0.649000  1.0
  N  N1332  1  0.254800  0.590100  0.149000  1.0
  N  N1333  1  0.590100  0.254800  0.851000  1.0
  N  N1334  1  0.409900  0.745200  0.351000  1.0
  N  N1335  1  0.754800  0.909900  0.101000  1.0
  N  N1336  1  0.245200  0.090100  0.601000  1.0
  N  N1337  1  0.943600  0.909400  0.961100  1.0
  N  N1338  1  0.056400  0.090600  0.461100  1.0
  N  N1339  1  0.590600  0.443600  0.711100  1.0
  N  N1340  1  0.409400  0.556400  0.211100  1.0
  N  N1341  1  0.556400  0.409400  0.788900  1.0
  N  N1342  1  0.443600  0.590600  0.288900  1.0
  N  N1343  1  0.909400  0.943600  0.038900  1.0
  N  N1344  1  0.090600  0.056400  0.538900  1.0
  N  N1345  1  0.930700  0.584000  0.905800  1.0
  N  N1346  1  0.069300  0.416000  0.405800  1.0
  N  N1347  1  0.916000  0.430700  0.655800  1.0
  N  N1348  1  0.084000  0.569300  0.155800  1.0
  N  N1349  1  0.569300  0.084000  0.844200  1.0
  N  N1350  1  0.430700  0.916000  0.344200  1.0
  N  N1351  1  0.584000  0.930700  0.094200  1.0
  N  N1352  1  0.416000  0.069300  0.594200  1.0
  N  N1353  1  0.981800  0.014400  0.033700  1.0
  N  N1354  1  0.018200  0.985600  0.533700  1.0
  N  N1355  1  0.485600  0.481800  0.783700  1.0
  N  N1356  1  0.514400  0.518200  0.283700  1.0
  N  N1357  1  0.518200  0.514400  0.716300  1.0
  N  N1358  1  0.481800  0.485600  0.216300  1.0
  N  N1359  1  0.014400  0.981800  0.966300  1.0
  N  N1360  1  0.985600  0.018200  0.466300  1.0
  N  N1361  1  0.998400  0.516600  0.873500  1.0
  N  N1362  1  0.001600  0.483400  0.373500  1.0
  N  N1363  1  0.983400  0.498400  0.623500  1.0
  N  N1364  1  0.016600  0.501600  0.123500  1.0
  N  N1365  1  0.501600  0.016600  0.876500  1.0
  N  N1366  1  0.498400  0.983400  0.376500  1.0
  N  N1367  1  0.516600  0.998400  0.126500  1.0
  N  N1368  1  0.483400  0.001600  0.626500  1.0
  N  N1369  1  0.967400  0.454100  0.925100  1.0
  N  N1370  1  0.032600  0.545900  0.425100  1.0
  N  N1371  1  0.045900  0.467400  0.675100  1.0
  N  N1372  1  0.954100  0.532600  0.175100  1.0
  N  N1373  1  0.532600  0.954100  0.824900  1.0
  N  N1374  1  0.467400  0.045900  0.324900  1.0
  N  N1375  1  0.454100  0.967400  0.074900  1.0
  N  N1376  1  0.545900  0.032600  0.574900  1.0
  N  N1377  1  0.897400  0.520600  0.965200  1.0
  N  N1378  1  0.102600  0.479400  0.465200  1.0
  N  N1379  1  0.979400  0.397400  0.715200  1.0
  N  N1380  1  0.020600  0.602600  0.215200  1.0
  N  N1381  1  0.602600  0.020600  0.784800  1.0
  N  N1382  1  0.397400  0.979400  0.284800  1.0
  N  N1383  1  0.520600  0.897400  0.034800  1.0
  N  N1384  1  0.479400  0.102600  0.534800  1.0
  N  N1385  1  0.744600  0.532100  0.038900  1.0
  N  N1386  1  0.255400  0.467900  0.538900  1.0
  N  N1387  1  0.967900  0.244600  0.788900  1.0
  N  N1388  1  0.032100  0.755400  0.288900  1.0
  N  N1389  1  0.755400  0.032100  0.711100  1.0
  N  N1390  1  0.244600  0.967900  0.211100  1.0
  N  N1391  1  0.532100  0.744600  0.961100  1.0
  N  N1392  1  0.467900  0.255400  0.461100  1.0
  N  N1393  1  0.795700  0.564300  0.090400  1.0
  N  N1394  1  0.204300  0.435700  0.590400  1.0
  N  N1395  1  0.935700  0.295700  0.840400  1.0
  N  N1396  1  0.064300  0.704300  0.340400  1.0
  N  N1397  1  0.704300  0.064300  0.659600  1.0
  N  N1398  1  0.295700  0.935700  0.159600  1.0
  N  N1399  1  0.564300  0.795700  0.909600  1.0
  N  N1400  1  0.435700  0.204300  0.409600  1.0
  N  N1401  1  0.714300  0.562700  0.104900  1.0
  N  N1402  1  0.285700  0.437300  0.604900  1.0
  N  N1403  1  0.937300  0.214300  0.854900  1.0
  N  N1404  1  0.062700  0.785700  0.354900  1.0
  N  N1405  1  0.785700  0.062700  0.645100  1.0
  N  N1406  1  0.214300  0.937300  0.145100  1.0
  N  N1407  1  0.562700  0.714300  0.895100  1.0
  N  N1408  1  0.437300  0.285700  0.395100  1.0
  N  N1409  1  0.574100  0.515800  0.024100  1.0
  N  N1410  1  0.425900  0.484200  0.524100  1.0
  N  N1411  1  0.984200  0.074100  0.774100  1.0
  N  N1412  1  0.015800  0.925900  0.274100  1.0
  N  N1413  1  0.925900  0.015800  0.725900  1.0
  N  N1414  1  0.074100  0.984200  0.225900  1.0
  N  N1415  1  0.515800  0.574100  0.975900  1.0
  N  N1416  1  0.484200  0.425900  0.475900  1.0
  N  N1417  1  0.499700  0.444300  0.020600  1.0
  N  N1418  1  0.500300  0.555700  0.520600  1.0
  N  N1419  1  0.055700  0.999700  0.770600  1.0
  N  N1420  1  0.944300  0.000300  0.270600  1.0
  N  N1421  1  0.000300  0.944300  0.729400  1.0
  N  N1422  1  0.999700  0.055700  0.229400  1.0
  N  N1423  1  0.444300  0.499700  0.979400  1.0
  N  N1424  1  0.555700  0.500300  0.479400  1.0
  O  O1425  1  0.527400  0.763100  0.530100  1
  O  O1426  1  0.472600  0.236900  0.030100  1
  O  O1427  1  0.736900  0.027400  0.280100  1
  O  O1428  1  0.263100  0.972600  0.780100  1
  O  O1429  1  0.972600  0.263100  0.219900  1
  O  O1430  1  0.027400  0.736900  0.719900  1
  O  O1431  1  0.763100  0.527400  0.469900  1
  O  O1432  1  0.236900  0.472600  0.969900  1
  O  O1433  1  0.108500  0.383500  0.995100  1
  O  O1434  1  0.891500  0.616500  0.495100  1
  O  O1435  1  0.116500  0.608500  0.745100  1
  O  O1436  1  0.883500  0.391500  0.245100  1
  O  O1437  1  0.391500  0.883500  0.754900  1
  O  O1438  1  0.608500  0.116500  0.254900  1
  O  O1439  1  0.383500  0.108500  0.004900  1
  O  O1440  1  0.616500  0.891500  0.504900  1
  O  O1441  1  0.596200  0.323300  0.129300  1
  O  O1442  1  0.403800  0.676700  0.629300  1
  O  O1443  1  0.176700  0.096200  0.879300  1
  O  O1444  1  0.823300  0.903800  0.379300  1
  O  O1445  1  0.903800  0.823300  0.620700  1
  O  O1446  1  0.096200  0.176700  0.120700  1
  O  O1447  1  0.323300  0.596200  0.870700  1
  O  O1448  1  0.676700  0.403800  0.370700  1
  O  O1449  1  0.864900  0.906900  0.788800  1
  O  O1450  1  0.135100  0.093100  0.288800  1
  O  O1451  1  0.593100  0.364900  0.538800  1
  O  O1452  1  0.406900  0.635100  0.038800  1
  O  O1453  1  0.635100  0.406900  0.961200  1
  O  O1454  1  0.364900  0.593100  0.461200  1
  O  O1455  1  0.906900  0.864900  0.211200  1
  O  O1456  1  0.093100  0.135100  0.711200  1
  O  O1457  1  0.917600  0.770000  0.754500  1
  O  O1458  1  0.082400  0.230000  0.254500  1
  O  O1459  1  0.730000  0.417600  0.504500  1
  O  O1460  1  0.270000  0.582400  0.004500  1
  O  O1461  1  0.582400  0.270000  0.995500  1
  O  O1462  1  0.417600  0.730000  0.495500  1
  O  O1463  1  0.770000  0.917600  0.245500  1
  O  O1464  1  0.230000  0.082400  0.745500  1
  O  O1465  1  0.489600  0.844600  0.437700  1
  O  O1466  1  0.510400  0.155400  0.937700  1
  O  O1467  1  0.655400  0.989600  0.187700  1
  O  O1468  1  0.344600  0.010400  0.687700  1
  O  O1469  1  0.010400  0.344600  0.312300  1
  O  O1470  1  0.989600  0.655400  0.812300  1
  O  O1471  1  0.844600  0.489600  0.562300  1
  O  O1472  1  0.155400  0.510400  0.062300  1
  O  O1473  1  0.502200  0.776100  0.756600  1
  O  O1474  1  0.497800  0.223900  0.256600  1
  O  O1475  1  0.723900  0.002200  0.506600  1
  O  O1476  1  0.276100  0.997800  0.006600  1
  O  O1477  1  0.997800  0.276100  0.993400  1
  O  O1478  1  0.002200  0.723900  0.493400  1
  O  O1479  1  0.776100  0.502200  0.243400  1
  O  O1480  1  0.223900  0.497800  0.743400  1
  O  O1481  1  0.470000  0.728000  0.598000  1
  O  O1482  1  0.530000  0.272000  0.098000  1
  O  O1483  1  0.772000  0.970000  0.348000  1
  O  O1484  1  0.228000  0.030000  0.848000  1
  O  O1485  1  0.030000  0.228000  0.152000  1
  O  O1486  1  0.970000  0.772000  0.652000  1
  O  O1487  1  0.728000  0.470000  0.402000  1
  O  O1488  1  0.272000  0.530000  0.902000  1
  O  O1489  1  0.619000  0.414300  0.111200  1
  O  O1490  1  0.381000  0.585700  0.611200  1
  O  O1491  1  0.085700  0.119000  0.861200  1
  O  O1492  1  0.914300  0.881000  0.361200  1
  O  O1493  1  0.881000  0.914300  0.638800  1
  O  O1494  1  0.119000  0.085700  0.138800  1
  O  O1495  1  0.414300  0.619000  0.888800  1
  O  O1496  1  0.585700  0.381000  0.388800  1
  O  O1497  1  0.656000  0.454000  0.172200  1
  O  O1498  1  0.344000  0.546000  0.672200  1
  O  O1499  1  0.046000  0.156000  0.922200  1
  O  O1500  1  0.954000  0.844000  0.422200  1
  O  O1501  1  0.844000  0.954000  0.577800  1
  O  O1502  1  0.156000  0.046000  0.077800  1
  O  O1503  1  0.454000  0.656000  0.827800  1
  O  O1504  1  0.546000  0.344000  0.327800  1
  O  O1505  1  0.671800  0.695400  0.684500  1
  O  O1506  1  0.328200  0.304600  0.184500  1
  O  O1507  1  0.804600  0.171800  0.434500  1
  O  O1508  1  0.195400  0.828200  0.934500  1
  O  O1509  1  0.828200  0.195400  0.065500  1
  O  O1510  1  0.171800  0.804600  0.565500  1
  O  O1511  1  0.695400  0.671800  0.315500  1
  O  O1512  1  0.304600  0.328200  0.815500  1
  O  O1513  1  0.733100  0.438600  0.084700  1
  O  O1514  1  0.266900  0.561400  0.584700  1
  O  O1515  1  0.061400  0.233100  0.834700  1
  O  O1516  1  0.938600  0.766900  0.334700  1
  O  O1517  1  0.766900  0.938600  0.665300  1
  O  O1518  1  0.233100  0.061400  0.165300  1
  O  O1519  1  0.438600  0.733100  0.915300  1
  O  O1520  1  0.561400  0.266900  0.415300  1
  O  O1521  1  0.747300  0.475700  0.163900  1
  O  O1522  1  0.252700  0.524300  0.663900  1
  O  O1523  1  0.024300  0.247300  0.913900  1
  O  O1524  1  0.975700  0.752700  0.413900  1
  O  O1525  1  0.752700  0.975700  0.586100  1
  O  O1526  1  0.247300  0.024300  0.086100  1
  O  O1527  1  0.475700  0.747300  0.836100  1
  O  O1528  1  0.524300  0.252700  0.336100  1
  O  O1529  1  0.030200  0.635100  0.016200  1
  O  O1530  1  0.969800  0.364900  0.516200  1
  O  O1531  1  0.864900  0.530200  0.766200  1
  O  O1532  1  0.135100  0.469800  0.266200  1
  O  O1533  1  0.469800  0.135100  0.733800  1
  O  O1534  1  0.530200  0.864900  0.233800  1
  O  O1535  1  0.635100  0.030200  0.983800  1
  O  O1536  1  0.364900  0.969800  0.483800  1
  O  O1537  1  0.915300  0.669000  0.756100  1
  O  O1538  1  0.084700  0.331000  0.256100  1
  O  O1539  1  0.831000  0.415300  0.506100  1
  O  O1540  1  0.169000  0.584700  0.006100  1
  O  O1541  1  0.584700  0.169000  0.993900  1
  O  O1542  1  0.415300  0.831000  0.493900  1
  O  O1543  1  0.669000  0.915300  0.243900  1
  O  O1544  1  0.331000  0.084700  0.743900  1
  O  O1545  1  0.957200  0.799700  0.808100  1
  O  O1546  1  0.042800  0.200300  0.308100  1
  O  O1547  1  0.700300  0.457200  0.558100  1
  O  O1548  1  0.299700  0.542800  0.058100  1
  O  O1549  1  0.542800  0.299700  0.941900  1
  O  O1550  1  0.457200  0.700300  0.441900  1
  O  O1551  1  0.799700  0.957200  0.191900  1
  O  O1552  1  0.200300  0.042800  0.691900  1
  O  O1553  1  0.855500  0.799600  0.690200  1
  O  O1554  1  0.144500  0.200400  0.190200  1
  O  O1555  1  0.700400  0.355500  0.440200  1
  O  O1556  1  0.299600  0.644500  0.940200  1
  O  O1557  1  0.644500  0.299600  0.059800  1
  O  O1558  1  0.355500  0.700400  0.559800  1
  O  O1559  1  0.799600  0.855500  0.309800  1
  O  O1560  1  0.200400  0.144500  0.809800  1
  O  O1561  1  0.839000  0.637200  0.761100  1
  O  O1562  1  0.161000  0.362800  0.261100  1
  O  O1563  1  0.862800  0.339000  0.511100  1
  O  O1564  1  0.137200  0.661000  0.011100  1
  O  O1565  1  0.661000  0.137200  0.988900  1
  O  O1566  1  0.339000  0.862800  0.488900  1
  O  O1567  1  0.637200  0.839000  0.238900  1
  O  O1568  1  0.362800  0.161000  0.738900  1
  O  O1569  1  0.703400  0.914100  0.823300  1
  O  O1570  1  0.296600  0.085900  0.323300  1
  O  O1571  1  0.585900  0.203400  0.573300  1
  O  O1572  1  0.414100  0.796600  0.073300  1
  O  O1573  1  0.796600  0.414100  0.926700  1
  O  O1574  1  0.203400  0.585900  0.426700  1
  O  O1575  1  0.914100  0.703400  0.176700  1
  O  O1576  1  0.085900  0.296600  0.676700  1
  O  O1577  1  0.536700  0.693700  0.712800  1
  O  O1578  1  0.463300  0.306300  0.212800  1
  O  O1579  1  0.806300  0.036700  0.462800  1
  O  O1580  1  0.193700  0.963300  0.962800  1
  O  O1581  1  0.963300  0.193700  0.037200  1
  O  O1582  1  0.036700  0.806300  0.537200  1
  O  O1583  1  0.693700  0.536700  0.287200  1
  O  O1584  1  0.306300  0.463300  0.787200  1
  O  O1585  1  0.429700  0.837200  0.721700  1
  O  O1586  1  0.570300  0.162800  0.221700  1
  O  O1587  1  0.662800  0.929700  0.471700  1
  O  O1588  1  0.337200  0.070300  0.971700  1
  O  O1589  1  0.070300  0.337200  0.028300  1
  O  O1590  1  0.929700  0.662800  0.528300  1
  O  O1591  1  0.837200  0.429700  0.278300  1
  O  O1592  1  0.162800  0.570300  0.778300  1
  O  O1593  1  0.806200  0.407600  0.015800  1
  O  O1594  1  0.193800  0.592400  0.515800  1
  O  O1595  1  0.092400  0.306200  0.765800  1
  O  O1596  1  0.907600  0.693800  0.265800  1
  O  O1597  1  0.693800  0.907600  0.734200  1
  O  O1598  1  0.306200  0.092400  0.234200  1
  O  O1599  1  0.407600  0.806200  0.984200  1
  O  O1600  1  0.592400  0.193800  0.484200  1
  O  O1601  1  0.877300  0.412800  0.025900  1
  O  O1602  1  0.122700  0.587200  0.525900  1
  O  O1603  1  0.087200  0.377300  0.775900  1
  O  O1604  1  0.912800  0.622700  0.275900  1
  O  O1605  1  0.622700  0.912800  0.724100  1
  O  O1606  1  0.377300  0.087200  0.224100  1
  O  O1607  1  0.412800  0.877300  0.974100  1
  O  O1608  1  0.587200  0.122700  0.474100  1
  O  O1609  1  0.831700  0.431200  0.077000  1
  O  O1610  1  0.168300  0.568800  0.577000  1
  O  O1611  1  0.068800  0.331700  0.827000  1
  O  O1612  1  0.931200  0.668300  0.327000  1
  O  O1613  1  0.668300  0.931200  0.673000  1
  O  O1614  1  0.331700  0.068800  0.173000  1
  O  O1615  1  0.431200  0.831700  0.923000  1
  O  O1616  1  0.568800  0.168300  0.423000  1
  O  O1617  1  0.846600  0.484100  0.851900  1
  O  O1618  1  0.153400  0.515900  0.351900  1
  O  O1619  1  0.015900  0.346600  0.601900  1
  O  O1620  1  0.984100  0.653400  0.101900  1
  O  O1621  1  0.653400  0.984100  0.898100  1
  O  O1622  1  0.346600  0.015900  0.398100  1
  O  O1623  1  0.484100  0.846600  0.148100  1
  O  O1624  1  0.515900  0.153400  0.648100  1
  O  O1625  1  0.911500  0.462500  0.828500  1
  O  O1626  1  0.088500  0.537500  0.328500  1
  O  O1627  1  0.037500  0.411500  0.578500  1
  O  O1628  1  0.962500  0.588500  0.078500  1
  O  O1629  1  0.588500  0.962500  0.921500  1
  O  O1630  1  0.411500  0.037500  0.421500  1
  O  O1631  1  0.462500  0.911500  0.171500  1
  O  O1632  1  0.537500  0.088500  0.671500  1
  O  O1633  1  0.876500  0.417800  0.875300  1
  O  O1634  1  0.123500  0.582200  0.375300  1
  O  O1635  1  0.082200  0.376500  0.625300  1
  O  O1636  1  0.917800  0.623500  0.125300  1
  O  O1637  1  0.623500  0.917800  0.874700  1
  O  O1638  1  0.376500  0.082200  0.374700  1
  O  O1639  1  0.417800  0.876500  0.124700  1
  O  O1640  1  0.582200  0.123500  0.624700  1
  O  O1641  1  0.952300  0.961900  0.836300  1
  O  O1642  1  0.047700  0.038100  0.336300  1
  O  O1643  1  0.538100  0.452300  0.586300  1
  O  O1644  1  0.461900  0.547700  0.086300  1
  O  O1645  1  0.547700  0.461900  0.913700  1
  O  O1646  1  0.452300  0.538100  0.413700  1
  O  O1647  1  0.961900  0.952300  0.163700  1
  O  O1648  1  0.038100  0.047700  0.663700  1
  O  O1649  1  0.004300  0.908800  0.843000  1
  O  O1650  1  0.995700  0.091200  0.343000  1
  O  O1651  1  0.591200  0.504300  0.593000  1
  O  O1652  1  0.408800  0.495700  0.093000  1
  O  O1653  1  0.495700  0.408800  0.907000  1
  O  O1654  1  0.504300  0.591200  0.407000  1
  O  O1655  1  0.908800  0.004300  0.157000  1
  O  O1656  1  0.091200  0.995700  0.657000  1
  O  O1657  1  0.942300  0.894000  0.811500  1
  O  O1658  1  0.057700  0.106000  0.311500  1
  O  O1659  1  0.606000  0.442300  0.561500  1
  O  O1660  1  0.394000  0.557700  0.061500  1
  O  O1661  1  0.557700  0.394000  0.938500  1
  O  O1662  1  0.442300  0.606000  0.438500  1
  O  O1663  1  0.894000  0.942300  0.188500  1
  O  O1664  1  0.106000  0.057700  0.688500  1
  O  O1665  1  0.012100  0.530600  0.994300  1
  O  O1666  1  0.987900  0.469400  0.494300  1
  O  O1667  1  0.969400  0.512100  0.744300  1
  O  O1668  1  0.030600  0.487900  0.244300  1
  O  O1669  1  0.487900  0.030600  0.755700  1
  O  O1670  1  0.512100  0.969400  0.255700  1
  O  O1671  1  0.530600  0.012100  0.005700  1
  O  O1672  1  0.469400  0.987900  0.505700  1
  O  O1673  1  0.065800  0.499900  0.956400  1
  O  O1674  1  0.934200  0.500100  0.456400  1
  O  O1675  1  0.000100  0.565800  0.706400  1
  O  O1676  1  0.999900  0.434200  0.206400  1
  O  O1677  1  0.434200  0.999900  0.793600  1
  O  O1678  1  0.565800  0.000100  0.293600  1
  O  O1679  1  0.499900  0.065800  0.043600  1
  O  O1680  1  0.500100  0.934200  0.543600  1
  O  O1681  1  0.054200  0.574500  0.961400  1
  O  O1682  1  0.945800  0.425500  0.461400  1
  O  O1683  1  0.925500  0.554200  0.711400  1
  O  O1684  1  0.074500  0.445800  0.211400  1
  O  O1685  1  0.445800  0.074500  0.788600  1
  O  O1686  1  0.554200  0.925500  0.288600  1
  O  O1687  1  0.574500  0.054200  0.038600  1
  O  O1688  1  0.425500  0.945800  0.538600  1
  O  O1689  1  0.061800  0.947000  0.077300  1
  O  O1690  1  0.938200  0.053000  0.577300  1
  O  O1691  1  0.553000  0.561800  0.827300  1
  O  O1692  1  0.447000  0.438200  0.327300  1
  O  O1693  1  0.438200  0.447000  0.672700  1
  O  O1694  1  0.561800  0.553000  0.172700  1
  O  O1695  1  0.947000  0.061800  0.922700  1
  O  O1696  1  0.053000  0.938200  0.422700  1
  O  O1697  1  0.101200  0.924000  0.023900  1
  O  O1698  1  0.898800  0.076000  0.523900  1
  O  O1699  1  0.576000  0.601200  0.773900  1
  O  O1700  1  0.424000  0.398800  0.273900  1
  O  O1701  1  0.398800  0.424000  0.726100  1
  O  O1702  1  0.601200  0.576000  0.226100  1
  O  O1703  1  0.924000  0.101200  0.976100  1
  O  O1704  1  0.076000  0.898800  0.476100  1
  O  O1705  1  0.034600  0.894900  0.044000  1
  O  O1706  1  0.965400  0.105100  0.544000  1
  O  O1707  1  0.605100  0.534600  0.794000  1
  O  O1708  1  0.394900  0.465400  0.294000  1
  O  O1709  1  0.465400  0.394900  0.706000  1
  O  O1710  1  0.534600  0.605100  0.206000  1
  O  O1711  1  0.894900  0.034600  0.956000  1
  O  O1712  1  0.105100  0.965400  0.456000  1
  O  O1713  1  0.767000  0.704100  0.867000  1
  O  O1714  1  0.233000  0.295900  0.367000  1
  O  O1715  1  0.795900  0.267000  0.617000  1
  O  O1716  1  0.204100  0.733000  0.117000  1
  O  O1717  1  0.733000  0.204100  0.883000  1
  O  O1718  1  0.267000  0.795900  0.383000  1
  O  O1719  1  0.704100  0.767000  0.133000  1
  O  O1720  1  0.295900  0.233000  0.633000  1
  O  O1721  1  0.646000  0.652900  0.950000  1
  O  O1722  1  0.354000  0.347100  0.450000  1
  O  O1723  1  0.847100  0.146000  0.700000  1
  O  O1724  1  0.152900  0.854000  0.200000  1
  O  O1725  1  0.854000  0.152900  0.800000  1
  O  O1726  1  0.146000  0.847100  0.300000  1
  O  O1727  1  0.652900  0.646000  0.050000  1
  O  O1728  1  0.347100  0.354000  0.550000  1
  O  O1729  1  0.501000  0.706400  0.642800  1
  O  O1730  1  0.499000  0.293600  0.142800  1
  O  O1731  1  0.793600  0.001000  0.392800  1
  O  O1732  1  0.206400  0.999000  0.892800  1
  O  O1733  1  0.999000  0.206400  0.107200  1
  O  O1734  1  0.001000  0.793600  0.607200  1
  O  O1735  1  0.706400  0.501000  0.357200  1
  O  O1736  1  0.293600  0.499000  0.857200  1
