
#######################################################################
#
#                 Cambridge Crystallographic Data Centre
#                                CCDC 
#
#######################################################################
#
# If this CIF has been generated from an entry in the Cambridge 
# Structural Database, then it will include bibliographic, chemical, 
# crystal, experimental, refinement or atomic coordinate data resulting 
# from the CCDC's data processing and validation procedures.
#
#######################################################################

data_FENNET
_chemical_formula_moiety         
'C176 H144 B4 Co5 Fe4 N52 10+,10(B1 F4 1-),40(C1 H4 O1),12(H2 O1)'
_chemical_name_systematic        
"dodecakis(\m~2~-Cyano)-tetrakis(hydridotris(1H-pyrazol-1-yl)borate)-bis((S)-N,N'-bis(pyridin-2-ylmethyl)-1,1'-binaphthalene-2,2'-diamine)-bis((R)-N,N'-bis(pyridin-2-ylmethyl)-1,1'-binaphthalene-2,2'-diamine)-cobalt(ii)-tetra-cobalt(iii)-tetra-iron(iii) decakis(tetrafluoroborate) methanol solvate dodecahydrate"
_symmetry_cell_setting           orthorhombic
_symmetry_space_group_name_H-M   'F d d d'
_symmetry_Int_Tables_number      70
_space_group_name_Hall           '-F 2uv 2vw'
loop_
_symmetry_equiv_pos_site_id
_symmetry_equiv_pos_as_xyz
1 x,y,z
2 3/4-x,3/4-y,z
3 3/4-x,y,3/4-z
4 x,3/4-y,3/4-z
5 x,1/2+y,1/2+z
6 3/4-x,1/4-y,1/2+z
7 3/4-x,1/2+y,1/4-z
8 x,1/4-y,1/4-z
9 1/2+x,y,1/2+z
10 1/4-x,3/4-y,1/2+z
11 1/4-x,y,1/4-z
12 1/2+x,3/4-y,1/4-z
13 1/2+x,1/2+y,z
14 1/4-x,1/4-y,z
15 1/4-x,1/2+y,3/4-z
16 1/2+x,1/4-y,3/4-z
17 -x,-y,-z
18 1/4+x,1/4+y,-z
19 1/4+x,-y,1/4+z
20 -x,1/4+y,1/4+z
21 -x,1/2-y,1/2-z
22 1/4+x,3/4+y,1/2-z
23 1/4+x,1/2-y,3/4+z
24 -x,3/4+y,3/4+z
25 1/2-x,-y,1/2-z
26 3/4+x,1/4+y,1/2-z
27 3/4+x,-y,3/4+z
28 1/2-x,1/4+y,3/4+z
29 1/2-x,1/2-y,-z
30 3/4+x,3/4+y,-z
31 3/4+x,1/2-y,1/4+z
32 1/2-x,3/4+y,1/4+z
_cell_length_a                   30.828(5)
_cell_length_b                   58.969(11)
_cell_length_c                   65.164(12)
_cell_angle_alpha                90
_cell_angle_beta                 90
_cell_angle_gamma                90
_cell_volume                     118461
_exptl_crystal_colour            green
_exptl_crystal_description       block
_cell_formula_units_Z            16
loop_
_atom_site_label
_atom_site_type_symbol
_atom_site_fract_x
_atom_site_fract_y
_atom_site_fract_z
B3 B 0.7420(6) 0.3374(3) 0.0184(3)
F1 F 0.7877(3) 0.33649(14) 0.01624(13)
F2 F 0.7272(3) 0.32127(17) 0.02737(16)
F3 F 0.7404(3) 0.35587(18) 0.03190(14)
F4 F 0.7245(2) 0.34566(10) 0.00038(11)
B4 B 0.5710(6) 0.2419(3) 0.0676(4)
F5 F 0.5288(2) 0.24745(10) 0.06229(11)
F6 F 0.5815(2) 0.22131(13) 0.06702(13)
F7 F 0.5954(3) 0.25207(13) 0.05065(14)
F8 F 0.5854(3) 0.25620(17) 0.08268(15)
Co1 Co 0.90877(4) 0.17771(2) 0.05257(3)
Co2 Co 0.82354(5) 0.1250 0.1250
Co3 Co 0.75612(4) 0.09623(2) 0.03997(2)
Fe1 Fe 0.75556(4) 0.17203(2) 0.07160(2)
Fe2 Fe 0.90486(4) 0.09581(2) 0.06615(3)
B1 B 0.6923(4) 0.2114(2) 0.0789(2)
H1 H 0.6714 0.2241 0.0813
B2 B 0.9747(5) 0.0582(3) 0.0644(3)
H2 H 0.9975 0.0461 0.0641
C1 C 0.7430(3) 0.09448(18) 0.08356(16)
H3 H 0.7414 0.1105 0.0827
C2 C 0.7366(3) 0.08610(18) 0.10262(16)
H4 H 0.7300 0.0957 0.1139
C3 C 0.7403(3) 0.06197(18) 0.10488(16)
H5 H 0.7368 0.0548 0.1178
C4 C 0.7490(3) 0.04968(17) 0.08748(16)
H6 H 0.7508 0.0336 0.0879
C5 C 0.7695(3) 0.04894(16) 0.04969(15)
H7 H 0.7997 0.0436 0.0515
H8 H 0.7506 0.0355 0.0479
C6 C 0.7386(3) 0.05607(15) 0.01609(19)
C7 C 0.7008(3) 0.04436(15) 0.02037(17)
H9 H 0.6933 0.0409 0.0341
C8 C 0.6742(3) 0.03787(15) 0.00453(18)
H10 H 0.6488 0.0296 0.0080
C9 C 0.7473(3) 0.06111(14) -0.00485(19)
C10 C 0.7904(3) 0.07503(16) -0.00957(15)
C11 C 0.7942(3) 0.09618(15) -0.00149(15)
C12 C 0.8230(3) 0.06536(17) -0.02119(16)
C13 C 0.8620(3) 0.07729(19) -0.02509(16)
C14 C 0.8655(3) 0.10033(17) -0.01613(15)
H11 H 0.8908 0.1092 -0.0184
C15 C 0.7201(3) 0.10975(16) 0.00169(15)
H12 H 0.7208 0.1022 -0.0119
H13 H 0.7145 0.1261 -0.0005
C16 C 0.6812(3) 0.04220(17) -0.01557(19)
C17 C 0.9336(4) 0.22055(16) 0.0331(2)
C18 C 0.9788(3) 0.22234(16) 0.03636(18)
C19 C 0.9160(3) 0.22492(16) 0.01370(19)
H14 H 0.8858 0.2228 0.0116
C20 C 1.0050(4) 0.22973(16) 0.02016(18)
C21 C 1.0506(3) 0.23043(16) 0.02275(18)
H15 H 1.0631 0.2261 0.0355
C22 C 1.0778(4) 0.23753(18) 0.0064(2)
H16 H 1.1082 0.2390 0.0082
C23 C 0.8333(3) 0.10856(16) -0.00485(15)
H17 H 0.8364 0.1231 0.0012
C24 C 0.8957(3) 0.06719(18) -0.03589(16)
H18 H 0.9217 0.0756 -0.0379
C25 C 0.8933(4) 0.04637(19) -0.04353(19)
H19 H 0.9157 0.0402 -0.0519
C26 C 0.8556(4) 0.03388(19) -0.0386(2)
H20 H 0.8531 0.0186 -0.0431
C27 C 0.7184(4) 0.05536(17) -0.0207(2)
C28 C 0.7259(4) 0.06067(18) -0.04130(19)
H21 H 0.7509 0.0691 -0.0450
C29 C 0.6980(4) 0.0539(2) -0.0559(2)
H22 H 0.7030 0.0587 -0.0696
C30 C 0.6621(4) 0.0401(2) -0.0520(2)
H23 H 0.6441 0.0340 -0.0625
C31 C 0.6554(4) 0.03623(19) -0.03145(19)
H24 H 0.6295 0.0284 -0.0280
C32 C 0.6849(4) 0.09974(14) 0.01455(19)
C33 C 0.6400(4) 0.09732(15) 0.00685(17)
H25 H 0.6333 0.1006 -0.0071
C34 C 0.6632(4) 0.08758(15) 0.04682(17)
H26 H 0.6702 0.0841 0.0607
C35 C 0.7307(3) 0.19326(17) 0.03063(17)
H27 H 0.7475 0.1832 0.0225
C36 C 0.7050(3) 0.21049(18) 0.0221(2)
H28 H 0.7014 0.2150 0.0082
C37 C 0.6870(3) 0.21872(18) 0.0394(2)
H29 H 0.6662 0.2306 0.0392
C38 C 0.7479(3) 0.23214(17) 0.10248(17)
H30 H 0.7314 0.2450 0.1067
C39 C 0.7886(3) 0.22790(17) 0.10800(18)
H31 H 0.8073 0.2372 0.1159
C40 C 0.7977(3) 0.20714(17) 0.09975(19)
H32 H 0.8240 0.1991 0.1017
C41 C 0.6730(3) 0.15291(16) 0.09106(14)
H33 H 0.6820 0.1375 0.0909
C42 C 0.6329(3) 0.16070(17) 0.09959(16)
H34 H 0.6108 0.1522 0.1062
C43 C 0.6344(3) 0.18368(17) 0.09574(17)
H35 H 0.6121 0.1942 0.0990
C44 C 0.9422(4) 0.23255(16) -0.0031(2)
H36 H 0.9299 0.2358 -0.0161
C45 C 0.9868(4) 0.23498(16) 0.0005(2)
C46 C 1.0136(4) 0.24118(17) -0.01661(19)
H37 H 1.0013 0.2442 -0.0297
C47 C 1.0574(4) 0.24257(18) -0.0136(2)
H38 H 1.0753 0.2470 -0.0247
C48 C 0.9504(4) 0.17033(18) 0.0154(2)
C49 C 0.9573(5) 0.16628(19) -0.0035(2)
H39 H 0.9863 0.1644 -0.0081
C50 C 0.9206(4) 0.1645(2) -0.0189(2)
H40 H 0.9245 0.1619 -0.0331
C51 C 0.8811(4) 0.16697(17) -0.0094(2)
H41 H 0.8556 0.1667 -0.0176
C52 C 0.8773(4) 0.17000(15) 0.01207(18)
H42 H 0.8488 0.1700 0.0177
C53 C 0.9877(3) 0.17262(18) 0.0296(2)
H43 H 1.0056 0.1587 0.0290
H44 H 1.0060 0.1856 0.0252
C54 C 0.9959(3) 0.21515(18) 0.05620(18)
C55 C 1.0131(4) 0.2315(2) 0.07020(19)
C56 C 1.0325(4) 0.2255(3) 0.0903(2)
C57 C 1.0134(4) 0.1872(2) 0.0822(2)
H45 H 1.0138 0.1716 0.0859
C58 C 0.9959(3) 0.19400(19) 0.06319(19)
C59 C 0.9052(3) 0.22233(16) 0.06854(17)
H46 H 0.9283 0.2340 0.0686
H47 H 0.8772 0.2303 0.0703
C60 C 0.9114(3) 0.2084(2) 0.0853(2)
C61 C 0.9207(3) 0.2015(2) 0.1209(2)
H48 H 0.9247 0.2075 0.1343
C62 C 0.9185(3) 0.1781(2) 0.1171(2)
H49 H 0.9205 0.1673 0.1279
C63 C 0.9132(3) 0.1715(2) 0.09648(18)
H50 H 0.9108 0.1557 0.0939
C64 C 0.8145(4) 0.17558(15) 0.06055(16)
C65 C 0.7783(3) 0.15415(18) 0.09227(17)
C66 C 0.8774(3) 0.10337(17) 0.08977(18)
C67 C 1.0197(4) 0.0779(2) 0.0942(2)
H51 H 1.0411 0.0666 0.0964
C68 C 1.0172(3) 0.0970(2) 0.1049(2)
H52 H 1.0369 0.1031 0.1147
C69 C 0.9934(5) 0.0682(3) 0.0251(2)
H53 H 1.0174 0.0586 0.0223
C70 C 0.9749(4) 0.0835(2) 0.0122(2)
H54 H 0.9822 0.0861 -0.0018
C71 C 0.8509(3) 0.09715(14) 0.05154(17)
C72 C 0.7554(3) 0.06198(19) 0.06850(18)
C73 C 1.0294(3) 0.2027(3) 0.0948(2)
H55 H 1.0393 0.1977 0.1078
C74 C 1.0498(5) 0.2409(3) 0.1021(2)
H56 H 1.0651 0.2361 0.1140
C75 C 1.0471(5) 0.2630(3) 0.0984(3)
H57 H 1.0566 0.2739 0.1082
C76 C 1.0296(5) 0.2697(3) 0.0791(3)
H58 H 1.0288 0.2855 0.0759
C77 C 1.0137(4) 0.2548(2) 0.0649(2)
H59 H 1.0035 0.2599 0.0519
C78 C 0.8648(3) 0.05126(19) 0.07993(17)
H60 H 0.8377 0.0575 0.0839
C79 C 0.9784(4) 0.1057(2) 0.0979(2)
H61 H 0.9649 0.1186 0.1039
C80 C 0.9426(3) 0.0947(2) 0.0236(2)
H62 H 0.9256 0.1068 0.0184
C81 C 0.9167(3) 0.2146(2) 0.1043(3)
H63 H 0.9178 0.2304 0.1067
C82 C 0.8226(3) 0.0433(2) -0.02744(16)
H64 H 0.7985 0.0341 -0.0239
C83 C 0.7492(3) 0.14510(18) 0.05650(17)
C84 C 0.9156(5) 0.0272(2) 0.0742(2)
H65 H 0.9318 0.0135 0.0727
C85 C 0.8742(5) 0.0285(3) 0.0807(3)
H66 H 0.8557 0.0164 0.0848
C86 C 0.6205(3) 0.08543(15) 0.0398(2)
H67 H 0.5983 0.0805 0.0489
C87 C 0.6107(4) 0.09079(16) 0.0190(2)
H68 H 0.5818 0.0894 0.0142
C88 C 0.9105(3) 0.1266(2) 0.06069(17)
N1 N 0.7295(2) 0.19226(12) 0.05098(13)
N2 N 0.7002(2) 0.20909(12) 0.05700(17)
N3 N 0.7340(2) 0.21611(14) 0.09051(14)
N4 N 0.7650(3) 0.19990(12) 0.08876(13)
N5 N 0.6721(3) 0.18892(13) 0.08673(12)
N6 N 0.6957(2) 0.16987(13) 0.08353(11)
N7 N 0.7613(2) 0.10668(12) 0.01208(13)
H69 H 0.7714 0.1214 0.0136
N8 N 0.7510(2) 0.08450(12) 0.06624(12)
N9 N 0.6942(2) 0.09456(12) 0.03378(16)
N10 N 0.7667(2) 0.06337(12) 0.03153(13)
H70 H 0.7942 0.0632 0.0257
N11 N 0.9111(2) 0.18503(16) 0.08050(16)
N12 N 0.9050(2) 0.21088(12) 0.04753(14)
H71 H 0.8773 0.2133 0.0423
N13 N 0.9114(3) 0.17290(12) 0.02545(18)
N14 N 0.9731(2) 0.17626(13) 0.05063(15)
H72 H 0.9801 0.1628 0.0572
N15 N 0.8482(2) 0.17743(12) 0.05508(13)
N16 N 0.7893(3) 0.14408(15) 0.10717(14)
N17 N 0.8598(3) 0.10834(13) 0.10570(14)
N18 N 0.9611(2) 0.09412(15) 0.08180(16)
N19 N 0.9872(3) 0.07625(16) 0.07933(17)
N20 N 0.9705(3) 0.06947(17) 0.0429(2)
N21 N 0.9385(3) 0.08684(17) 0.04200(17)
N22 N 0.8175(3) 0.09797(12) 0.04481(14)
N23 N 0.7482(2) 0.12730(14) 0.04795(13)
N24 N 0.8977(3) 0.06350(13) 0.07316(13)
N25 N 0.9305(3) 0.04781(18) 0.07009(14)
N26 N 0.9103(2) 0.14639(14) 0.05809(14)
Co1G Co 0.90877(4) 0.07229(2) 0.19743(3)
Co3G Co 0.75612(4) 0.15377(2) 0.21003(2)
Fe1G Fe 0.75556(4) 0.07797(2) 0.17840(2)
Fe2G Fe 0.90486(4) 0.15419(2) 0.18385(3)
B1G B 0.6923(4) 0.0386(2) 0.1711(2)
H1G H 0.6714 0.0259 0.1687
B2G B 0.9747(5) 0.1918(3) 0.1856(3)
H2G H 0.9975 0.2039 0.1859
C1G C 0.7430(3) 0.15552(18) 0.16644(16)
H3G H 0.7414 0.1395 0.1673
C2G C 0.7366(3) 0.16390(18) 0.14738(16)
H4G H 0.7300 0.1543 0.1361
C3G C 0.7403(3) 0.18803(18) 0.14512(16)
H5G H 0.7368 0.1952 0.1322
C4G C 0.7490(3) 0.20032(17) 0.16252(16)
H6G H 0.7508 0.2164 0.1621
C5G C 0.7695(3) 0.20106(16) 0.20031(15)
H7G H 0.7997 0.2064 0.1985
H8G H 0.7506 0.2145 0.2021
C6G C 0.7386(3) 0.19393(15) 0.23391(19)
C7G C 0.7008(3) 0.20564(15) 0.22963(17)
H9G H 0.6933 0.2091 0.2159
C8G C 0.6742(3) 0.21213(15) 0.24547(18)
H10G H 0.6488 0.2204 0.2420
C9G C 0.7473(3) 0.18889(14) 0.25485(19)
C10G C 0.7904(3) 0.17497(16) 0.25957(15)
C11G C 0.7942(3) 0.15382(15) 0.25149(15)
C12G C 0.8230(3) 0.18464(17) 0.27119(16)
C13G C 0.8620(3) 0.17271(19) 0.27509(16)
C14G C 0.8655(3) 0.14967(17) 0.26613(15)
H11G H 0.8908 0.1408 0.2684
C15G C 0.7201(3) 0.14025(16) 0.24831(15)
H12G H 0.7208 0.1478 0.2619
H13G H 0.7145 0.1239 0.2505
C16G C 0.6812(3) 0.20780(17) 0.26557(19)
C17G C 0.9336(4) 0.02945(16) 0.2169(2)
C18G C 0.9788(3) 0.02766(16) 0.21364(18)
C19G C 0.9160(3) 0.02508(16) 0.23630(19)
H14G H 0.8858 0.0272 0.2384
C20G C 1.0050(4) 0.02027(16) 0.22984(18)
C21G C 1.0506(3) 0.01957(16) 0.22725(18)
H15G H 1.0631 0.0239 0.2145
C22G C 1.0778(4) 0.01247(18) 0.2436(2)
H16G H 1.1082 0.0110 0.2418
C23G C 0.8333(3) 0.14144(16) 0.25485(15)
H17G H 0.8364 0.1269 0.2488
C24G C 0.8957(3) 0.18281(18) 0.28589(16)
H18G H 0.9217 0.1744 0.2879
C25G C 0.8933(4) 0.20363(19) 0.29353(19)
H19G H 0.9157 0.2098 0.3019
C26G C 0.8556(4) 0.21612(19) 0.2886(2)
H20G H 0.8531 0.2314 0.2931
C27G C 0.7184(4) 0.19464(17) 0.2707(2)
C28G C 0.7259(4) 0.18933(18) 0.29130(19)
H21G H 0.7509 0.1809 0.2950
C29G C 0.6980(4) 0.1961(2) 0.3059(2)
H22G H 0.7030 0.1913 0.3196
C30G C 0.6621(4) 0.2099(2) 0.3020(2)
H23G H 0.6441 0.2160 0.3125
C31G C 0.6554(4) 0.21377(19) 0.28145(19)
H24G H 0.6295 0.2216 0.2780
C32G C 0.6849(4) 0.15026(14) 0.23545(19)
C33G C 0.6400(4) 0.15268(15) 0.24315(17)
H25G H 0.6333 0.1494 0.2571
C34G C 0.6632(4) 0.16242(15) 0.20318(17)
H26G H 0.6702 0.1659 0.1893
C35G C 0.7307(3) 0.05674(17) 0.21937(17)
H27G H 0.7475 0.0668 0.2275
C36G C 0.7050(3) 0.03951(18) 0.2279(2)
H28G H 0.7014 0.0350 0.2418
C37G C 0.6870(3) 0.03128(18) 0.2106(2)
H29G H 0.6662 0.0194 0.2108
C38G C 0.7479(3) 0.01786(17) 0.14752(17)
H30G H 0.7314 0.0050 0.1433
C39G C 0.7886(3) 0.02210(17) 0.14200(18)
H31G H 0.8073 0.0128 0.1341
C40G C 0.7977(3) 0.04286(17) 0.15025(19)
H32G H 0.8240 0.0509 0.1483
C41G C 0.6730(3) 0.09709(16) 0.15894(14)
H33G H 0.6820 0.1125 0.1591
C42G C 0.6329(3) 0.08930(17) 0.15041(16)
H34G H 0.6108 0.0978 0.1438
C43G C 0.6344(3) 0.06632(17) 0.15426(17)
H35G H 0.6121 0.0558 0.1510
C44G C 0.9422(4) 0.01745(16) 0.2531(2)
H36G H 0.9299 0.0142 0.2661
C45G C 0.9868(4) 0.01502(16) 0.2495(2)
C46G C 1.0136(4) 0.00882(17) 0.26661(19)
H37G H 1.0013 0.0058 0.2797
C47G C 1.0574(4) 0.00743(18) 0.2636(2)
H38G H 1.0753 0.0030 0.2747
C48G C 0.9504(4) 0.07967(18) 0.2346(2)
C49G C 0.9573(5) 0.08372(19) 0.2535(2)
H39G H 0.9863 0.0856 0.2581
C50G C 0.9206(4) 0.0855(2) 0.2689(2)
H40G H 0.9245 0.0881 0.2831
C51G C 0.8811(4) 0.08303(17) 0.2594(2)
H41G H 0.8556 0.0833 0.2676
C52G C 0.8773(4) 0.08000(15) 0.23793(18)
H42G H 0.8488 0.0800 0.2323
C53G C 0.9877(3) 0.07738(18) 0.2204(2)
H43G H 1.0056 0.0913 0.2210
H44G H 1.0060 0.0644 0.2248
C54G C 0.9959(3) 0.03485(18) 0.19380(18)
C55G C 1.0131(4) 0.0185(2) 0.17980(19)
C56G C 1.0325(4) 0.0245(3) 0.1597(2)
C57G C 1.0134(4) 0.0628(2) 0.1678(2)
H45G H 1.0138 0.0784 0.1641
C58G C 0.9959(3) 0.05600(19) 0.18681(19)
C59G C 0.9052(3) 0.02767(16) 0.18146(17)
H46G H 0.9283 0.0160 0.1814
H47G H 0.8772 0.0197 0.1797
C60G C 0.9114(3) 0.0416(2) 0.1647(2)
C61G C 0.9207(3) 0.0485(2) 0.1291(2)
H48G H 0.9247 0.0425 0.1157
C62G C 0.9185(3) 0.0719(2) 0.1329(2)
H49G H 0.9205 0.0827 0.1221
C63G C 0.9132(3) 0.0785(2) 0.15352(18)
H50G H 0.9108 0.0943 0.1561
C64G C 0.8145(4) 0.07442(15) 0.18945(16)
C65G C 0.7783(3) 0.09585(18) 0.15773(17)
C66G C 0.8774(3) 0.14663(17) 0.16023(18)
C67G C 1.0197(4) 0.1721(2) 0.1558(2)
H51G H 1.0411 0.1834 0.1536
C68G C 1.0172(3) 0.1530(2) 0.1451(2)
H52G H 1.0369 0.1469 0.1353
C69G C 0.9934(5) 0.1818(3) 0.2249(2)
H53G H 1.0174 0.1914 0.2277
C70G C 0.9749(4) 0.1665(2) 0.2378(2)
H54G H 0.9822 0.1639 0.2518
C71G C 0.8509(3) 0.15285(14) 0.19846(17)
C72G C 0.7554(3) 0.18802(19) 0.18150(18)
C73G C 1.0294(3) 0.0473(3) 0.1552(2)
H55G H 1.0393 0.0523 0.1422
C74G C 1.0498(5) 0.0091(3) 0.1479(2)
H56G H 1.0651 0.0139 0.1360
C75G C 1.0471(5) -0.0130(3) 0.1516(3)
H57G H 1.0566 -0.0239 0.1418
C76G C 1.0296(5) -0.0197(3) 0.1709(3)
H58G H 1.0288 -0.0355 0.1741
C77G C 1.0137(4) -0.0048(2) 0.1851(2)
H59G H 1.0035 -0.0099 0.1981
C78G C 0.8648(3) 0.19874(19) 0.17007(17)
H60G H 0.8377 0.1925 0.1661
C79G C 0.9784(4) 0.1443(2) 0.1521(2)
H61G H 0.9649 0.1314 0.1461
C80G C 0.9426(3) 0.1553(2) 0.2264(2)
H62G H 0.9256 0.1432 0.2316
C81G C 0.9167(3) 0.0354(2) 0.1457(3)
H63G H 0.9178 0.0196 0.1433
C82G C 0.8226(3) 0.2067(2) 0.27744(16)
H64G H 0.7985 0.2159 0.2739
C83G C 0.7492(3) 0.10490(18) 0.19350(17)
C84G C 0.9156(5) 0.2228(2) 0.1758(2)
H65G H 0.9318 0.2365 0.1773
C85G C 0.8742(5) 0.2215(3) 0.1693(3)
H66G H 0.8557 0.2336 0.1652
C86G C 0.6205(3) 0.16457(15) 0.2102(2)
H67G H 0.5983 0.1695 0.2011
C87G C 0.6107(4) 0.15921(16) 0.2310(2)
H68G H 0.5818 0.1606 0.2358
C88G C 0.9105(3) 0.1234(2) 0.18931(17)
N1G N 0.7295(2) 0.05774(12) 0.19902(13)
N2G N 0.7002(2) 0.04091(12) 0.19300(17)
N3G N 0.7340(2) 0.03389(14) 0.15949(14)
N4G N 0.7650(3) 0.05010(12) 0.16124(13)
N5G N 0.6721(3) 0.06108(13) 0.16327(12)
N6G N 0.6957(2) 0.08013(13) 0.16647(11)
N7G N 0.7613(2) 0.14332(12) 0.23792(13)
H69G H 0.7714 0.1286 0.2364
N8G N 0.7510(2) 0.16550(12) 0.18376(12)
N9G N 0.6942(2) 0.15544(12) 0.21622(16)
N10G N 0.7667(2) 0.18663(12) 0.21847(13)
H70G H 0.7942 0.1868 0.2243
N11G N 0.9111(2) 0.06497(16) 0.16950(16)
N12G N 0.9050(2) 0.03912(12) 0.20247(14)
H71G H 0.8773 0.0367 0.2077
N13G N 0.9114(3) 0.07710(12) 0.22455(18)
N14G N 0.9731(2) 0.07374(13) 0.19937(15)
H72G H 0.9801 0.0872 0.1928
N15G N 0.8482(2) 0.07257(12) 0.19492(13)
N16G N 0.7893(3) 0.10592(15) 0.14283(14)
N17G N 0.8598(3) 0.14166(13) 0.14430(14)
N18G N 0.9611(2) 0.15588(15) 0.16820(16)
N19G N 0.9872(3) 0.17375(16) 0.17067(17)
N20G N 0.9705(3) 0.18053(17) 0.2071(2)
N21G N 0.9385(3) 0.16316(17) 0.20800(17)
N22G N 0.8175(3) 0.15203(12) 0.20519(14)
N23G N 0.7482(2) 0.12270(14) 0.20205(13)
N24G N 0.8977(3) 0.18650(13) 0.17684(13)
N25G N 0.9305(3) 0.20219(18) 0.17991(14)
N26G N 0.9103(2) 0.10361(14) 0.19191(14)
loop_
_geom_bond_atom_site_label_1
_geom_bond_atom_site_label_2
_geom_bond_site_symmetry_1
_geom_bond_site_symmetry_2
Co1 N11 1_555 1_555
Co2 N16 1_555 1_555
Co3 N7 1_555 1_555
Fe1 C64 1_555 1_555
Fe2 C66 1_555 1_555
B1 H1 1_555 1_555
B2 H2 1_555 1_555
C1 H3 1_555 1_555
C2 C1 1_555 1_555
H4 C2 1_555 1_555
C3 C2 1_555 1_555
H5 C3 1_555 1_555
C4 C3 1_555 1_555
H6 C4 1_555 1_555
C5 H7 1_555 1_555
H8 C5 1_555 1_555
C6 C7 1_555 1_555
C7 H9 1_555 1_555
C8 C7 1_555 1_555
H10 C8 1_555 1_555
C9 C6 1_555 1_555
C10 C9 1_555 1_555
C11 C10 1_555 1_555
C12 C10 1_555 1_555
C13 C12 1_555 1_555
C14 C13 1_555 1_555
H11 C14 1_555 1_555
C15 H12 1_555 1_555
H13 C15 1_555 1_555
C16 C8 1_555 1_555
C17 C18 1_555 1_555
C18 C20 1_555 1_555
C19 C17 1_555 1_555
H14 C19 1_555 1_555
C20 C21 1_555 1_555
C21 H15 1_555 1_555
C22 C21 1_555 1_555
H16 C22 1_555 1_555
C23 C11 1_555 1_555
H17 C23 1_555 1_555
C24 C13 1_555 1_555
H18 C24 1_555 1_555
C25 C24 1_555 1_555
H19 C25 1_555 1_555
C26 C25 1_555 1_555
H20 C26 1_555 1_555
C27 C9 1_555 1_555
C28 C27 1_555 1_555
H21 C28 1_555 1_555
C29 C28 1_555 1_555
H22 C29 1_555 1_555
C30 C29 1_555 1_555
H23 C30 1_555 1_555
C31 C16 1_555 1_555
H24 C31 1_555 1_555
C32 C15 1_555 1_555
C33 C32 1_555 1_555
H25 C33 1_555 1_555
C34 H26 1_555 1_555
C35 H27 1_555 1_555
C36 C35 1_555 1_555
H28 C36 1_555 1_555
C37 C36 1_555 1_555
H29 C37 1_555 1_555
C38 H30 1_555 1_555
C39 C38 1_555 1_555
H31 C39 1_555 1_555
C40 C39 1_555 1_555
H32 C40 1_555 1_555
C41 H33 1_555 1_555
C42 C41 1_555 1_555
H34 C42 1_555 1_555
C43 C42 1_555 1_555
H35 C43 1_555 1_555
C44 C19 1_555 1_555
H36 C44 1_555 1_555
C45 C20 1_555 1_555
C46 C45 1_555 1_555
H37 C46 1_555 1_555
C47 C22 1_555 1_555
H38 C47 1_555 1_555
C48 C49 1_555 1_555
C49 H39 1_555 1_555
C50 C49 1_555 1_555
H40 C50 1_555 1_555
C51 C50 1_555 1_555
H41 C51 1_555 1_555
C52 C51 1_555 1_555
H42 C52 1_555 1_555
C53 C48 1_555 1_555
H43 C53 1_555 1_555
H44 C53 1_555 1_555
C54 C18 1_555 1_555
C55 C54 1_555 1_555
C56 C55 1_555 1_555
C57 H45 1_555 1_555
C58 C54 1_555 1_555
C59 H46 1_555 1_555
H47 C59 1_555 1_555
C60 C59 1_555 1_555
C61 H48 1_555 1_555
C62 C61 1_555 1_555
H49 C62 1_555 1_555
C63 C62 1_555 1_555
H50 C63 1_555 1_555
C64 N15 1_555 1_555
C65 Fe1 1_555 1_555
C66 N17 1_555 1_555
C67 H51 1_555 1_555
C68 C67 1_555 1_555
H52 C68 1_555 1_555
C69 H53 1_555 1_555
C70 C69 1_555 1_555
H54 C70 1_555 1_555
C71 Fe2 1_555 1_555
C72 C4 1_555 1_555
C73 C56 1_555 1_555
H55 C73 1_555 1_555
C74 C56 1_555 1_555
H56 C74 1_555 1_555
C75 C74 1_555 1_555
H57 C75 1_555 1_555
C76 C75 1_555 1_555
H58 C76 1_555 1_555
C77 C55 1_555 1_555
H59 C77 1_555 1_555
C78 H60 1_555 1_555
C79 C68 1_555 1_555
H61 C79 1_555 1_555
C80 C70 1_555 1_555
H62 C80 1_555 1_555
C81 C60 1_555 1_555
H63 C81 1_555 1_555
C82 C12 1_555 1_555
H64 C82 1_555 1_555
C83 Fe1 1_555 1_555
C84 H65 1_555 1_555
C85 C78 1_555 1_555
H66 C85 1_555 1_555
C86 C34 1_555 1_555
H67 C86 1_555 1_555
C87 C33 1_555 1_555
H68 C87 1_555 1_555
C88 Fe2 1_555 1_555
N1 Fe1 1_555 1_555
N2 B1 1_555 1_555
N3 B1 1_555 1_555
N4 Fe1 1_555 1_555
N5 B1 1_555 1_555
N6 Fe1 1_555 1_555
N7 C11 1_555 1_555
H69 N7 1_555 1_555
N8 Co3 1_555 1_555
N9 Co3 1_555 1_555
N10 Co3 1_555 1_555
H70 N10 1_555 1_555
N11 C60 1_555 1_555
N12 Co1 1_555 1_555
H71 N12 1_555 1_555
N13 Co1 1_555 1_555
N14 Co1 1_555 1_555
H72 N14 1_555 1_555
N15 Co1 1_555 1_555
N16 C65 1_555 1_555
N17 Co2 1_555 1_555
N18 Fe2 1_555 1_555
N19 B2 1_555 1_555
N20 B2 1_555 1_555
N21 Fe2 1_555 1_555
N22 Co3 1_555 1_555
N23 Co3 1_555 1_555
N24 Fe2 1_555 1_555
N25 B2 1_555 1_555
N26 Co1 1_555 1_555
B3 F1 1_555 1_555
F2 B3 1_555 1_555
F3 B3 1_555 1_555
F4 B3 1_555 1_555
B4 F5 1_555 1_555
F6 B4 1_555 1_555
F7 B4 1_555 1_555
F8 B4 1_555 1_555
Co1G N11G 1_555 1_555
Co3G N7G 1_555 1_555
Fe1G C64G 1_555 1_555
Fe2G C66G 1_555 1_555
B1G H1G 1_555 1_555
B2G H2G 1_555 1_555
C1G H3G 1_555 1_555
C2G C1G 1_555 1_555
H4G C2G 1_555 1_555
C3G C2G 1_555 1_555
H5G C3G 1_555 1_555
C4G C3G 1_555 1_555
H6G C4G 1_555 1_555
C5G H7G 1_555 1_555
H8G C5G 1_555 1_555
C6G C7G 1_555 1_555
C7G H9G 1_555 1_555
C8G C7G 1_555 1_555
H10G C8G 1_555 1_555
C9G C6G 1_555 1_555
C10G C9G 1_555 1_555
C11G C10G 1_555 1_555
C12G C10G 1_555 1_555
C13G C12G 1_555 1_555
C14G C13G 1_555 1_555
H11G C14G 1_555 1_555
C15G H12G 1_555 1_555
H13G C15G 1_555 1_555
C16G C8G 1_555 1_555
C17G C18G 1_555 1_555
C18G C20G 1_555 1_555
C19G C17G 1_555 1_555
H14G C19G 1_555 1_555
C20G C21G 1_555 1_555
C21G H15G 1_555 1_555
C22G C21G 1_555 1_555
H16G C22G 1_555 1_555
C23G C11G 1_555 1_555
H17G C23G 1_555 1_555
C24G C13G 1_555 1_555
H18G C24G 1_555 1_555
C25G C24G 1_555 1_555
H19G C25G 1_555 1_555
C26G C25G 1_555 1_555
H20G C26G 1_555 1_555
C27G C9G 1_555 1_555
C28G C27G 1_555 1_555
H21G C28G 1_555 1_555
C29G C28G 1_555 1_555
H22G C29G 1_555 1_555
C30G C29G 1_555 1_555
H23G C30G 1_555 1_555
C31G C16G 1_555 1_555
H24G C31G 1_555 1_555
C32G C15G 1_555 1_555
C33G C32G 1_555 1_555
H25G C33G 1_555 1_555
C34G H26G 1_555 1_555
C35G H27G 1_555 1_555
C36G C35G 1_555 1_555
H28G C36G 1_555 1_555
C37G C36G 1_555 1_555
H29G C37G 1_555 1_555
C38G H30G 1_555 1_555
C39G C38G 1_555 1_555
H31G C39G 1_555 1_555
C40G C39G 1_555 1_555
H32G C40G 1_555 1_555
C41G H33G 1_555 1_555
C42G C41G 1_555 1_555
H34G C42G 1_555 1_555
C43G C42G 1_555 1_555
H35G C43G 1_555 1_555
C44G C19G 1_555 1_555
H36G C44G 1_555 1_555
C45G C20G 1_555 1_555
C46G C45G 1_555 1_555
H37G C46G 1_555 1_555
C47G C22G 1_555 1_555
H38G C47G 1_555 1_555
C48G C49G 1_555 1_555
C49G H39G 1_555 1_555
C50G C49G 1_555 1_555
H40G C50G 1_555 1_555
C51G C50G 1_555 1_555
H41G C51G 1_555 1_555
C52G C51G 1_555 1_555
H42G C52G 1_555 1_555
C53G C48G 1_555 1_555
H43G C53G 1_555 1_555
H44G C53G 1_555 1_555
C54G C18G 1_555 1_555
C55G C54G 1_555 1_555
C56G C55G 1_555 1_555
C57G H45G 1_555 1_555
C58G C54G 1_555 1_555
C59G H46G 1_555 1_555
H47G C59G 1_555 1_555
C60G C59G 1_555 1_555
C61G H48G 1_555 1_555
C62G C61G 1_555 1_555
H49G C62G 1_555 1_555
C63G C62G 1_555 1_555
H50G C63G 1_555 1_555
C64G N15G 1_555 1_555
C65G Fe1G 1_555 1_555
C66G N17G 1_555 1_555
C67G H51G 1_555 1_555
C68G C67G 1_555 1_555
H52G C68G 1_555 1_555
C69G H53G 1_555 1_555
C70G C69G 1_555 1_555
H54G C70G 1_555 1_555
C71G Fe2G 1_555 1_555
C72G C4G 1_555 1_555
C73G C56G 1_555 1_555
H55G C73G 1_555 1_555
C74G C56G 1_555 1_555
H56G C74G 1_555 1_555
C75G C74G 1_555 1_555
H57G C75G 1_555 1_555
C76G C75G 1_555 1_555
H58G C76G 1_555 1_555
C77G C55G 1_555 1_555
H59G C77G 1_555 1_555
C78G H60G 1_555 1_555
C79G C68G 1_555 1_555
H61G C79G 1_555 1_555
C80G C70G 1_555 1_555
H62G C80G 1_555 1_555
C81G C60G 1_555 1_555
H63G C81G 1_555 1_555
C82G C12G 1_555 1_555
H64G C82G 1_555 1_555
C83G Fe1G 1_555 1_555
C84G H65G 1_555 1_555
C85G C78G 1_555 1_555
H66G C85G 1_555 1_555
C86G C34G 1_555 1_555
H67G C86G 1_555 1_555
C87G C33G 1_555 1_555
H68G C87G 1_555 1_555
C88G Fe2G 1_555 1_555
N1G Fe1G 1_555 1_555
N2G B1G 1_555 1_555
N3G B1G 1_555 1_555
N4G Fe1G 1_555 1_555
N5G B1G 1_555 1_555
N6G Fe1G 1_555 1_555
N7G C11G 1_555 1_555
H69G N7G 1_555 1_555
N8G Co3G 1_555 1_555
N9G Co3G 1_555 1_555
N10G Co3G 1_555 1_555
H70G N10G 1_555 1_555
N11G C60G 1_555 1_555
N12G Co1G 1_555 1_555
H71G N12G 1_555 1_555
N13G Co1G 1_555 1_555
N14G Co1G 1_555 1_555
H72G N14G 1_555 1_555
N15G Co1G 1_555 1_555
N16G Co2 1_555 1_555
N17G Co2 1_555 1_555
N18G Fe2G 1_555 1_555
N19G B2G 1_555 1_555
N20G B2G 1_555 1_555
N21G Fe2G 1_555 1_555
N22G Co3G 1_555 1_555
N23G Co3G 1_555 1_555
N24G Fe2G 1_555 1_555
N25G B2G 1_555 1_555
N26G Co1G 1_555 1_555
C1 N8 1_555 1_555
C5 C72 1_555 1_555
C5 N10 1_555 1_555
C6 N10 1_555 1_555
C14 C23 1_555 1_555
C15 N7 1_555 1_555
C16 C27 1_555 1_555
C17 N12 1_555 1_555
C26 C82 1_555 1_555
C30 C31 1_555 1_555
C32 N9 1_555 1_555
C34 N9 1_555 1_555
C35 N1 1_555 1_555
C37 N2 1_555 1_555
C38 N3 1_555 1_555
C40 N4 1_555 1_555
C41 N6 1_555 1_555
C43 N5 1_555 1_555
C44 C45 1_555 1_555
C46 C47 1_555 1_555
C48 N13 1_555 1_555
C52 N13 1_555 1_555
C53 N14 1_555 1_555
C57 C58 1_555 1_555
C57 C73 1_555 1_555
C58 N14 1_555 1_555
C59 N12 1_555 1_555
C61 C81 1_555 1_555
C63 N11 1_555 1_555
C67 N19 1_555 1_555
C69 N20 1_555 1_555
C71 N22 1_555 1_555
C72 N8 1_555 1_555
C76 C77 1_555 1_555
C78 N24 1_555 1_555
C79 N18 1_555 1_555
C80 N21 1_555 1_555
C83 N23 1_555 1_555
C84 C85 1_555 1_555
C84 N25 1_555 1_555
C86 C87 1_555 1_555
C88 N26 1_555 1_555
N1 N2 1_555 1_555
N3 N4 1_555 1_555
N5 N6 1_555 1_555
N18 N19 1_555 1_555
N20 N21 1_555 1_555
N24 N25 1_555 1_555
C1G N8G 1_555 1_555
C5G C72G 1_555 1_555
C5G N10G 1_555 1_555
C6G N10G 1_555 1_555
C14G C23G 1_555 1_555
C15G N7G 1_555 1_555
C16G C27G 1_555 1_555
C17G N12G 1_555 1_555
C26G C82G 1_555 1_555
C30G C31G 1_555 1_555
C32G N9G 1_555 1_555
C34G N9G 1_555 1_555
C35G N1G 1_555 1_555
C37G N2G 1_555 1_555
C38G N3G 1_555 1_555
C40G N4G 1_555 1_555
C41G N6G 1_555 1_555
C43G N5G 1_555 1_555
C44G C45G 1_555 1_555
C46G C47G 1_555 1_555
C48G N13G 1_555 1_555
C52G N13G 1_555 1_555
C53G N14G 1_555 1_555
C57G C58G 1_555 1_555
C57G C73G 1_555 1_555
C58G N14G 1_555 1_555
C59G N12G 1_555 1_555
C61G C81G 1_555 1_555
C63G N11G 1_555 1_555
C65G N16G 1_555 1_555
C67G N19G 1_555 1_555
C69G N20G 1_555 1_555
C71G N22G 1_555 1_555
C72G N8G 1_555 1_555
C76G C77G 1_555 1_555
C78G N24G 1_555 1_555
C79G N18G 1_555 1_555
C80G N21G 1_555 1_555
C83G N23G 1_555 1_555
C84G C85G 1_555 1_555
C84G N25G 1_555 1_555
C86G C87G 1_555 1_555
C88G N26G 1_555 1_555
N1G N2G 1_555 1_555
N3G N4G 1_555 1_555
N5G N6G 1_555 1_555
N18G N19G 1_555 1_555
N20G N21G 1_555 1_555
N24G N25G 1_555 1_555

#END
