# generated using pymatgen
data_Fe4Co5B8H144C176(N13F4)4
_symmetry_space_group_name_H-M   'P 1'
_cell_length_a   30.82800000
_cell_length_b   33.27051452
_cell_length_c   36.04411353
_cell_angle_alpha   78.57272946
_cell_angle_beta   64.68195084
_cell_angle_gamma   62.40018939
_symmetry_Int_Tables_number   1
_chemical_formula_structural   Fe4Co5B8H144C176(N13F4)4
_chemical_formula_sum   'Fe16 Co20 B32 H576 C704 N208 F64'
_cell_volume   29615.34914461
_cell_formula_units_Z   4
loop_
 _symmetry_equiv_pos_site_id
 _symmetry_equiv_pos_as_xyz
  1  'x, y, z'
loop_
 _atom_site_type_symbol
 _atom_site_label
 _atom_site_symmetry_multiplicity
 _atom_site_fract_x
 _atom_site_fract_y
 _atom_site_fract_z
 _atom_site_occupancy
  B  B1  1  0.386200  0.674800  0.036800  1
  B  B2  1  0.577000  0.825200  0.036800  1
  B  B3  1  0.939000  0.674800  0.463200  1
  B  B4  1  0.597800  0.825200  0.463200  1
  B  B5  1  0.613800  0.325200  0.963200  1
  B  B6  1  0.423000  0.174800  0.963200  1
  B  B7  1  0.061000  0.325200  0.536800  1
  B  B8  1  0.402200  0.174800  0.536800  1
  B  B9  1  0.261500  0.483800  0.135200  1
  B  B10  1  0.603300  0.016200  0.135200  1
  B  B11  1  0.254700  0.483800  0.364800  1
  B  B12  1  0.380500  0.016200  0.364800  1
  B  B13  1  0.738500  0.516200  0.864800  1
  B  B14  1  0.396700  0.983800  0.864800  1
  B  B15  1  0.745300  0.516200  0.635200  1
  B  B16  1  0.619500  0.983800  0.635200  1
  B  B17  1  0.402000  0.422800  0.157800  1.0
  B  B18  1  0.440200  0.077200  0.157800  1.0
  B  B19  1  0.175200  0.422800  0.342200  1.0
  B  B20  1  0.482600  0.077200  0.342200  1.0
  B  B21  1  0.598000  0.577200  0.842200  1.0
  B  B22  1  0.559800  0.922800  0.842200  1.0
  B  B23  1  0.824800  0.577200  0.657800  1.0
  B  B24  1  0.517400  0.922800  0.657800  1.0
  B  B25  1  0.852100  0.116400  0.128800  1.0
  B  B26  1  0.019100  0.383600  0.128800  1.0
  B  B27  1  0.031500  0.116400  0.371200  1.0
  B  B28  1  0.597300  0.383600  0.371200  1.0
  B  B29  1  0.147900  0.883600  0.871200  1.0
  B  B30  1  0.980900  0.616400  0.871200  1.0
  B  B31  1  0.968500  0.883600  0.628800  1.0
  B  B32  1  0.402700  0.616400  0.628800  1.0
  C  C33  1  0.564960  0.188960  0.167120  1.0
  C  C34  1  0.267920  0.311040  0.167120  1.0
  C  C35  1  0.246080  0.188960  0.332880  1.0
  C  C36  1  0.421040  0.311040  0.332880  1.0
  C  C37  1  0.435040  0.811040  0.832880  1.0
  C  C38  1  0.732080  0.688960  0.832880  1.0
  C  C39  1  0.753920  0.811040  0.667120  1.0
  C  C40  1  0.578960  0.688960  0.667120  1.0
  C  C41  1  0.547880  0.172200  0.205240  1.0
  C  C42  1  0.246880  0.327800  0.205240  1.0
  C  C43  1  0.279920  0.172200  0.294760  1.0
  C  C44  1  0.425320  0.327800  0.294760  1.0
  C  C45  1  0.452120  0.827800  0.794760  1.0
  C  C46  1  0.753120  0.672200  0.794760  1.0
  C  C47  1  0.720080  0.827800  0.705240  1.0
  C  C48  1  0.574680  0.672200  0.705240  1.0
  C  C49  1  0.573450  0.123940  0.209760  1.0
  C  C50  1  0.216790  0.376060  0.209760  1.0
  C  C51  1  0.302610  0.123940  0.290240  1.0
  C  C52  1  0.407150  0.376060  0.290240  1.0
  C  C53  1  0.426550  0.876060  0.790240  1.0
  C  C54  1  0.783210  0.623940  0.790240  1.0
  C  C55  1  0.697390  0.876060  0.709760  1.0
  C  C56  1  0.592850  0.623940  0.709760  1.0
  C  C57  1  0.611840  0.099360  0.174960  1.0
  C  C58  1  0.213200  0.400640  0.174960  1.0
  C  C59  1  0.288800  0.099360  0.325040  1.0
  C  C60  1  0.386160  0.400640  0.325040  1.0
  C  C61  1  0.388160  0.900640  0.825040  1.0
  C  C62  1  0.786800  0.599360  0.825040  1.0
  C  C63  1  0.711200  0.900640  0.674960  1.0
  C  C64  1  0.613840  0.599360  0.674960  1.0
  C  C65  1  0.670870  0.097880  0.099380  1.0
  C  C66  1  0.229750  0.402120  0.099380  1.0
  C  C67  1  0.231250  0.097880  0.400620  1.0
  C  C68  1  0.368130  0.402120  0.400620  1.0
  C  C69  1  0.329130  0.902120  0.900620  1.0
  C  C70  1  0.770250  0.597880  0.900620  1.0
  C  C71  1  0.768750  0.902120  0.599380  1.0
  C  C72  1  0.631870  0.597880  0.599380  1.0
  C  C73  1  0.666440  0.112140  0.032180  1.0
  C  C74  1  0.301380  0.387860  0.032180  1.0
  C  C75  1  0.221420  0.112140  0.467820  1.0
  C  C76  1  0.310760  0.387860  0.467820  1.0
  C  C77  1  0.333560  0.887860  0.967820  1.0
  C  C78  1  0.698620  0.612140  0.967820  1.0
  C  C79  1  0.778580  0.887860  0.532180  1.0
  C  C80  1  0.689240  0.612140  0.532180  1.0
  C  C81  1  0.636070  0.088720  0.040740  1.0
  C  C82  1  0.323190  0.411280  0.040740  1.0
  C  C83  1  0.275210  0.088720  0.459260  1.0
  C  C84  1  0.265530  0.411280  0.459260  1.0
  C  C85  1  0.363930  0.911280  0.959260  1.0
  C  C86  1  0.676810  0.588720  0.959260  1.0
  C  C87  1  0.724790  0.911280  0.540740  1.0
  C  C88  1  0.734470  0.588720  0.540740  1.0
  C  C89  1  0.631800  0.075740  0.009060  1.0
  C  C90  1  0.359140  0.424260  0.009060  1.0
  C  C91  1  0.292460  0.075740  0.490940  1.0
  C  C92  1  0.216600  0.424260  0.490940  1.0
  C  C93  1  0.368200  0.924260  0.990940  1.0
  C  C94  1  0.640860  0.575740  0.990940  1.0
  C  C95  1  0.707540  0.924260  0.509060  1.0
  C  C96  1  0.783400  0.575740  0.509060  1.0
  C  C97  1  0.691040  0.122220  0.990300  1.0
  C  C98  1  0.318660  0.377780  0.990300  1.0
  C  C99  1  0.186740  0.122220  0.509700  1.0
  C  C100  1  0.303560  0.377780  0.509700  1.0
  C  C101  1  0.308960  0.877780  0.009700  1.0
  C  C102  1  0.681340  0.622220  0.009700  1.0
  C  C103  1  0.813260  0.877780  0.490300  1.0
  C  C104  1  0.696440  0.622220  0.490300  1.0
  C  C105  1  0.724940  0.150060  0.980860  1.0
  C  C106  1  0.294200  0.349940  0.980860  1.0
  C  C107  1  0.125000  0.150060  0.519140  1.0
  C  C108  1  0.355860  0.349940  0.519140  1.0
  C  C109  1  0.275060  0.849940  0.019140  1.0
  C  C110  1  0.705800  0.650060  0.019140  1.0
  C  C111  1  0.875000  0.849940  0.480860  1.0
  C  C112  1  0.644140  0.650060  0.480860  1.0
  C  C113  1  0.699510  0.192360  0.997020  1.0
  C  C114  1  0.303470  0.307640  0.997020  1.0
  C  C115  1  0.108130  0.192360  0.502980  1.0
  C  C116  1  0.388890  0.307640  0.502980  1.0
  C  C117  1  0.300490  0.807640  0.002980  1.0
  C  C118  1  0.696530  0.692360  0.002980  1.0
  C  C119  1  0.891870  0.807640  0.497020  1.0
  C  C120  1  0.611110  0.692360  0.497020  1.0
  C  C121  1  0.778830  0.130720  0.957620  1.0
  C  C122  1  0.263550  0.369280  0.957620  1.0
  C  C123  1  0.090450  0.130720  0.542380  1.0
  C  C124  1  0.367170  0.369280  0.542380  1.0
  C  C125  1  0.221170  0.869280  0.042380  1.0
  C  C126  1  0.736450  0.630720  0.042380  1.0
  C  C127  1  0.909550  0.869280  0.457620  1.0
  C  C128  1  0.632830  0.630720  0.457620  1.0
  C  C129  1  0.809800  0.154580  0.949820  1.0
  C  C130  1  0.240380  0.345420  0.949820  1.0
  C  C131  1  0.035620  0.154580  0.550180  1.0
  C  C132  1  0.414200  0.345420  0.550180  1.0
  C  C133  1  0.190200  0.845420  0.050180  1.0
  C  C134  1  0.759620  0.654580  0.050180  1.0
  C  C135  1  0.964380  0.845420  0.449820  1.0
  C  C136  1  0.585800  0.654580  0.449820  1.0
  C  C137  1  0.781300  0.200660  0.967740  1.0
  C  C138  1  0.250960  0.299340  0.967740  1.0
  C  C139  1  0.018040  0.200660  0.532260  1.0
  C  C140  1  0.449700  0.299340  0.532260  1.0
  C  C141  1  0.218700  0.799340  0.032260  1.0
  C  C142  1  0.749040  0.700660  0.032260  1.0
  C  C143  1  0.981960  0.799340  0.467740  1.0
  C  C144  1  0.550300  0.700660  0.467740  1.0
  C  C145  1  0.608660  0.219500  0.003380  1.0
  C  C146  1  0.387960  0.280500  0.003380  1.0
  C  C147  1  0.171840  0.219500  0.496620  1.0
  C  C148  1  0.331540  0.280500  0.496620  1.0
  C  C149  1  0.391340  0.780500  0.996620  1.0
  C  C150  1  0.612040  0.719500  0.996620  1.0
  C  C151  1  0.828160  0.780500  0.503380  1.0
  C  C152  1  0.668460  0.719500  0.503380  1.0
  C  C153  1  0.654570  0.084400  0.968860  1.0
  C  C154  1  0.376570  0.415600  0.968860  1.0
  C  C155  1  0.261030  0.084400  0.531140  1.0
  C  C156  1  0.207830  0.415600  0.531140  1.0
  C  C157  1  0.345430  0.915600  0.031140  1.0
  C  C158  1  0.623430  0.584400  0.031140  1.0
  C  C159  1  0.738970  0.915600  0.468860  1.0
  C  C160  1  0.792170  0.584400  0.468860  1.0
  C  C161  1  0.679950  0.441100  0.066200  1.0
  C  C162  1  0.253850  0.058900  0.066200  1.0
  C  C163  1  0.878950  0.441100  0.433800  1.0
  C  C164  1  0.687250  0.058900  0.433800  1.0
  C  C165  1  0.320050  0.558900  0.933800  1.0
  C  C166  1  0.746150  0.941100  0.933800  1.0
  C  C167  1  0.121050  0.558900  0.566200  1.0
  C  C168  1  0.312750  0.941100  0.566200  1.0
  C  C169  1  0.720100  0.444680  0.072720  1.0
  C  C170  1  0.207180  0.055320  0.072720  1.0
  C  C171  1  0.835220  0.444680  0.427280  1.0
  C  C172  1  0.737500  0.055320  0.427280  1.0
  C  C173  1  0.279900  0.555320  0.927280  1.0
  C  C174  1  0.792820  0.944680  0.927280  1.0
  C  C175  1  0.164780  0.555320  0.572720  1.0
  C  C176  1  0.262500  0.944680  0.572720  1.0
  C  C177  1  0.677380  0.449840  0.027400  1.0
  C  C178  1  0.295220  0.050160  0.027400  1.0
  C  C179  1  0.872780  0.449840  0.472600  1.0
  C  C180  1  0.654620  0.050160  0.472600  1.0
  C  C181  1  0.322620  0.550160  0.972600  1.0
  C  C182  1  0.704780  0.949840  0.972600  1.0
  C  C183  1  0.127220  0.550160  0.527400  1.0
  C  C184  1  0.345380  0.949840  0.527400  1.0
  C  C185  1  0.755110  0.459460  0.040320  1.0
  C  C186  1  0.204570  0.040540  0.040320  1.0
  C  C187  1  0.785430  0.459460  0.459680  1.0
  C  C188  1  0.754890  0.040540  0.459680  1.0
  C  C189  1  0.244890  0.540540  0.959680  1.0
  C  C190  1  0.795430  0.959460  0.959680  1.0
  C  C191  1  0.214570  0.540540  0.540320  1.0
  C  C192  1  0.245110  0.959460  0.540320  1.0
  C  C193  1  0.797420  0.460860  0.045500  1.0
  C  C194  1  0.157080  0.039140  0.045500  1.0
  C  C195  1  0.741720  0.460860  0.454500  1.0
  C  C196  1  0.803780  0.039140  0.454500  1.0
  C  C197  1  0.202580  0.539140  0.954500  1.0
  C  C198  1  0.842920  0.960860  0.954500  1.0
  C  C199  1  0.258280  0.539140  0.545500  1.0
  C  C200  1  0.196220  0.960860  0.545500  1.0
  C  C201  1  0.833870  0.475060  0.012800  1.0
  C  C202  1  0.153330  0.024940  0.012800  1.0
  C  C203  1  0.691070  0.475060  0.487200  1.0
  C  C204  1  0.821730  0.024940  0.487200  1.0
  C  C205  1  0.166130  0.524940  0.987200  1.0
  C  C206  1  0.846670  0.975060  0.987200  1.0
  C  C207  1  0.308930  0.524940  0.512800  1.0
  C  C208  1  0.178270  0.975060  0.512800  1.0
  C  C209  1  0.729590  0.217120  0.990300  1.0
  C  C210  1  0.280110  0.282880  0.990300  1.0
  C  C211  1  0.053290  0.217120  0.509700  1.0
  C  C212  1  0.437010  0.282880  0.509700  1.0
  C  C213  1  0.270410  0.782880  0.009700  1.0
  C  C214  1  0.719890  0.717120  0.009700  1.0
  C  C215  1  0.946710  0.782880  0.490300  1.0
  C  C216  1  0.562990  0.717120  0.490300  1.0
  C  C217  1  0.864400  0.134380  0.928220  1.0
  C  C218  1  0.207380  0.365620  0.928220  1.0
  C  C219  1  0.001220  0.134380  0.571780  1.0
  C  C220  1  0.427000  0.365620  0.571780  1.0
  C  C221  1  0.135600  0.865620  0.071780  1.0
  C  C222  1  0.792620  0.634380  0.071780  1.0
  C  C223  1  0.998780  0.865620  0.428220  1.0
  C  C224  1  0.573000  0.634380  0.428220  1.0
  C  C225  1  0.890460  0.092740  0.912940  1.0
  C  C226  1  0.196600  0.407260  0.912940  1.0
  C  C227  1  0.016800  0.092740  0.587060  1.0
  C  C228  1  0.396140  0.407260  0.587060  1.0
  C  C229  1  0.109540  0.907260  0.087060  1.0
  C  C230  1  0.803400  0.592740  0.087060  1.0
  C  C231  1  0.983200  0.907260  0.412940  1.0
  C  C232  1  0.603860  0.592740  0.412940  1.0
  C  C233  1  0.860320  0.067760  0.922800  1.0
  C  C234  1  0.216880  0.432240  0.922800  1.0
  C  C235  1  0.071920  0.067760  0.577200  1.0
  C  C236  1  0.350880  0.432240  0.577200  1.0
  C  C237  1  0.139680  0.932240  0.077200  1.0
  C  C238  1  0.783120  0.567760  0.077200  1.0
  C  C239  1  0.928080  0.932240  0.422800  1.0
  C  C240  1  0.649120  0.567760  0.422800  1.0
  C  C241  1  0.683740  0.110720  0.958600  1.0
  C  C242  1  0.357660  0.389280  0.958600  1.0
  C  C243  1  0.205540  0.110720  0.541400  1.0
  C  C244  1  0.253060  0.389280  0.541400  1.0
  C  C245  1  0.316260  0.889280  0.041400  1.0
  C  C246  1  0.642340  0.610720  0.041400  1.0
  C  C247  1  0.794460  0.889280  0.458600  1.0
  C  C248  1  0.746940  0.610720  0.458600  1.0
  C  C249  1  0.706530  0.121340  0.917400  1.0
  C  C250  1  0.376070  0.378660  0.917400  1.0
  C  C251  1  0.172130  0.121340  0.582600  1.0
  C  C252  1  0.245270  0.378660  0.582600  1.0
  C  C253  1  0.293470  0.878660  0.082600  1.0
  C  C254  1  0.623930  0.621340  0.082600  1.0
  C  C255  1  0.827870  0.878660  0.417400  1.0
  C  C256  1  0.754730  0.621340  0.417400  1.0
  C  C257  1  0.700000  0.107800  0.888200  1.0
  C  C258  1  0.411800  0.392200  0.888200  1.0
  C  C259  1  0.192200  0.107800  0.611800  1.0
  C  C260  1  0.196000  0.392200  0.611800  1.0
  C  C261  1  0.300000  0.892200  0.111800  1.0
  C  C262  1  0.588200  0.607800  0.111800  1.0
  C  C263  1  0.807800  0.892200  0.388200  1.0
  C  C264  1  0.804000  0.607800  0.388200  1.0
  C  C265  1  0.674000  0.080200  0.896000  1.0
  C  C266  1  0.430000  0.419800  0.896000  1.0
  C  C267  1  0.245800  0.080200  0.604000  1.0
  C  C268  1  0.150200  0.419800  0.604000  1.0
  C  C269  1  0.326000  0.919800  0.104000  1.0
  C  C270  1  0.570000  0.580200  0.104000  1.0
  C  C271  1  0.754200  0.919800  0.396000  1.0
  C  C272  1  0.849800  0.580200  0.396000  1.0
  C  C273  1  0.650620  0.072460  0.937100  1.0
  C  C274  1  0.412280  0.427540  0.937100  1.0
  C  C275  1  0.276920  0.072460  0.562900  1.0
  C  C276  1  0.160180  0.427540  0.562900  1.0
  C  C277  1  0.349380  0.927540  0.062900  1.0
  C  C278  1  0.587720  0.572460  0.062900  1.0
  C  C279  1  0.723080  0.927540  0.437100  1.0
  C  C280  1  0.839820  0.572460  0.437100  1.0
  C  C281  1  0.570610  0.199480  0.029100  1.0
  C  C282  1  0.400290  0.300520  0.029100  1.0
  C  C283  1  0.229910  0.199480  0.470900  1.0
  C  C284  1  0.299190  0.300520  0.470900  1.0
  C  C285  1  0.429390  0.800520  0.970900  1.0
  C  C286  1  0.599710  0.699480  0.970900  1.0
  C  C287  1  0.770090  0.800520  0.529100  1.0
  C  C288  1  0.700810  0.699480  0.529100  1.0
  C  C289  1  0.535830  0.194640  0.013700  1.0
  C  C290  1  0.450470  0.305360  0.013700  1.0
  C  C291  1  0.269530  0.194640  0.486300  1.0
  C  C292  1  0.244170  0.305360  0.486300  1.0
  C  C293  1  0.464170  0.805360  0.986300  1.0
  C  C294  1  0.549530  0.694640  0.986300  1.0
  C  C295  1  0.730470  0.805360  0.513700  1.0
  C  C296  1  0.755830  0.694640  0.513700  1.0
  C  C297  1  0.528800  0.175160  0.093640  1.0
  C  C298  1  0.377560  0.324840  0.093640  1.0
  C  C299  1  0.296040  0.175160  0.406360  1.0
  C  C300  1  0.297600  0.324840  0.406360  1.0
  C  C301  1  0.471200  0.824840  0.906360  1.0
  C  C302  1  0.622440  0.675160  0.906360  1.0
  C  C303  1  0.703960  0.824840  0.593640  1.0
  C  C304  1  0.702400  0.675160  0.593640  1.0
  C  C305  1  0.506810  0.386520  0.061260  1.0
  C  C306  1  0.431930  0.113480  0.061260  1.0
  C  C307  1  0.106670  0.386520  0.438740  1.0
  C  C308  1  0.454590  0.113480  0.438740  1.0
  C  C309  1  0.493190  0.613480  0.938740  1.0
  C  C310  1  0.568070  0.886520  0.938740  1.0
  C  C311  1  0.893330  0.613480  0.561260  1.0
  C  C312  1  0.545410  0.886520  0.561260  1.0
  C  C313  1  0.472410  0.420980  0.044200  1.0
  C  C314  1  0.483390  0.079020  0.044200  1.0
  C  C315  1  0.106610  0.420980  0.455800  1.0
  C  C316  1  0.437590  0.079020  0.455800  1.0
  C  C317  1  0.527590  0.579020  0.955800  1.0
  C  C318  1  0.516610  0.920980  0.955800  1.0
  C  C319  1  0.893390  0.579020  0.544200  1.0
  C  C320  1  0.562410  0.920980  0.544200  1.0
  C  C321  1  0.428880  0.437440  0.078800  1.0
  C  C322  1  0.492320  0.062560  0.078800  1.0
  C  C323  1  0.133680  0.437440  0.421200  1.0
  C  C324  1  0.445120  0.062560  0.421200  1.0
  C  C325  1  0.571120  0.562560  0.921200  1.0
  C  C326  1  0.507680  0.937440  0.921200  1.0
  C  C327  1  0.866320  0.562560  0.578800  1.0
  C  C328  1  0.554880  0.937440  0.578800  1.0
  C  C329  1  0.413280  0.464280  0.204960  1.0
  C  C330  1  0.381760  0.035720  0.204960  1.0
  C  C331  1  0.122440  0.464280  0.295040  1.0
  C  C332  1  0.582520  0.035720  0.295040  1.0
  C  C333  1  0.586720  0.535720  0.795040  1.0
  C  C334  1  0.618240  0.964280  0.795040  1.0
  C  C335  1  0.877560  0.535720  0.704960  1.0
  C  C336  1  0.417480  0.964280  0.704960  1.0
  C  C337  1  0.452700  0.455800  0.216000  1.0
  C  C338  1  0.331300  0.044200  0.216000  1.0
  C  C339  1  0.091500  0.455800  0.284000  1.0
  C  C340  1  0.624500  0.044200  0.284000  1.0
  C  C341  1  0.547300  0.544200  0.784000  1.0
  C  C342  1  0.668700  0.955800  0.784000  1.0
  C  C343  1  0.908500  0.544200  0.716000  1.0
  C  C344  1  0.375500  0.955800  0.716000  1.0
  C  C345  1  0.490810  0.414280  0.199500  1.0
  C  C346  1  0.309690  0.085720  0.199500  1.0
  C  C347  1  0.094910  0.414280  0.300500  1.0
  C  C348  1  0.604590  0.085720  0.300500  1.0
  C  C349  1  0.509190  0.585720  0.800500  1.0
  C  C350  1  0.690310  0.914280  0.800500  1.0
  C  C351  1  0.905090  0.585720  0.699500  1.0
  C  C352  1  0.395410  0.914280  0.699500  1.0
  C  C353  1  0.429030  0.305820  0.182120  1.0
  C  C354  1  0.388850  0.194180  0.182120  1.0
  C  C355  1  0.265150  0.305820  0.317880  1.0
  C  C356  1  0.416970  0.194180  0.317880  1.0
  C  C357  1  0.570970  0.694180  0.817880  1.0
  C  C358  1  0.611150  0.805820  0.817880  1.0
  C  C359  1  0.734850  0.694180  0.682120  1.0
  C  C360  1  0.583030  0.805820  0.682120  1.0
  C  C361  1  0.372610  0.321400  0.199180  1.0
  C  C362  1  0.428210  0.178600  0.199180  1.0
  C  C363  1  0.305990  0.321400  0.300820  1.0
  C  C364  1  0.393190  0.178600  0.300820  1.0
  C  C365  1  0.627390  0.678600  0.800820  1.0
  C  C366  1  0.571790  0.821400  0.800820  1.0
  C  C367  1  0.694010  0.678600  0.699180  1.0
  C  C368  1  0.606810  0.821400  0.699180  1.0
  C  C369  1  0.354980  0.367360  0.191480  1.0
  C  C370  1  0.453540  0.132640  0.191480  1.0
  C  C371  1  0.277660  0.367360  0.308520  1.0
  C  C372  1  0.413820  0.132640  0.308520  1.0
  C  C373  1  0.645020  0.632640  0.808520  1.0
  C  C374  1  0.546460  0.867360  0.808520  1.0
  C  C375  1  0.722340  0.632640  0.691480  1.0
  C  C376  1  0.586180  0.867360  0.691480  1.0
  C  C377  1  0.712750  0.465100  0.993800  1.0
  C  C378  1  0.293450  0.034900  0.993800  1.0
  C  C379  1  0.822150  0.465100  0.506200  1.0
  C  C380  1  0.671650  0.034900  0.506200  1.0
  C  C381  1  0.287250  0.534900  0.006200  1.0
  C  C382  1  0.706550  0.965100  0.006200  1.0
  C  C383  1  0.177850  0.534900  0.493800  1.0
  C  C384  1  0.328350  0.965100  0.493800  1.0
  C  C385  1  0.751320  0.469960  0.001000  1.0
  C  C386  1  0.247680  0.030040  0.001000  1.0
  C  C387  1  0.778720  0.469960  0.499000  1.0
  C  C388  1  0.722280  0.030040  0.499000  1.0
  C  C389  1  0.248680  0.530040  0.999000  1.0
  C  C390  1  0.752320  0.969960  0.999000  1.0
  C  C391  1  0.221280  0.530040  0.501000  1.0
  C  C392  1  0.277720  0.969960  0.501000  1.0
  C  C393  1  0.789030  0.482360  0.966780  1.0
  C  C394  1  0.244190  0.017640  0.966780  1.0
  C  C395  1  0.728610  0.482360  0.533220  1.0
  C  C396  1  0.738170  0.017640  0.533220  1.0
  C  C397  1  0.210970  0.517640  0.033220  1.0
  C  C398  1  0.755810  0.982360  0.033220  1.0
  C  C399  1  0.271390  0.517640  0.466780  1.0
  C  C400  1  0.261830  0.982360  0.466780  1.0
  C  C401  1  0.828430  0.485140  0.972800  1.0
  C  C402  1  0.198770  0.014860  0.972800  1.0
  C  C403  1  0.686430  0.485140  0.527200  1.0
  C  C404  1  0.786370  0.014860  0.527200  1.0
  C  C405  1  0.171570  0.514860  0.027200  1.0
  C  C406  1  0.801230  0.985140  0.027200  1.0
  C  C407  1  0.313570  0.514860  0.472800  1.0
  C  C408  1  0.213630  0.985140  0.472800  1.0
  C  C409  1  0.764670  0.340660  0.030800  1.0
  C  C410  1  0.204530  0.159340  0.030800  1.0
  C  C411  1  0.894670  0.340660  0.469200  1.0
  C  C412  1  0.636130  0.159340  0.469200  1.0
  C  C413  1  0.235330  0.659340  0.969200  1.0
  C  C414  1  0.795470  0.840660  0.969200  1.0
  C  C415  1  0.105330  0.659340  0.530800  1.0
  C  C416  1  0.363870  0.840660  0.530800  1.0
  C  C417  1  0.794520  0.332560  0.993000  1.0
  C  C418  1  0.212480  0.167440  0.993000  1.0
  C  C419  1  0.872920  0.332560  0.507000  1.0
  C  C420  1  0.620080  0.167440  0.507000  1.0
  C  C421  1  0.205480  0.667440  0.007000  1.0
  C  C422  1  0.787520  0.832560  0.007000  1.0
  C  C423  1  0.127080  0.667440  0.493000  1.0
  C  C424  1  0.379920  0.832560  0.493000  1.0
  C  C425  1  0.775000  0.329000  0.962200  1.0
  C  C426  1  0.262800  0.171000  0.962200  1.0
  C  C427  1  0.896000  0.329000  0.537800  1.0
  C  C428  1  0.566200  0.171000  0.537800  1.0
  C  C429  1  0.225000  0.671000  0.037800  1.0
  C  C430  1  0.737200  0.829000  0.037800  1.0
  C  C431  1  0.104000  0.671000  0.462200  1.0
  C  C432  1  0.433800  0.829000  0.462200  1.0
  C  C433  1  0.723530  0.333940  0.981200  1.0
  C  C434  1  0.295270  0.166060  0.981200  1.0
  C  C435  1  0.942530  0.333940  0.518800  1.0
  C  C436  1  0.538670  0.166060  0.518800  1.0
  C  C437  1  0.276470  0.666060  0.018800  1.0
  C  C438  1  0.704730  0.833940  0.018800  1.0
  C  C439  1  0.057470  0.666060  0.481200  1.0
  C  C440  1  0.461330  0.833940  0.481200  1.0
  C  C441  1  0.695230  0.340000  0.024140  1.0
  C  C442  1  0.280630  0.160000  0.024140  1.0
  C  C443  1  0.964770  0.340000  0.475860  1.0
  C  C444  1  0.559370  0.160000  0.475860  1.0
  C  C445  1  0.304770  0.660000  0.975860  1.0
  C  C446  1  0.719370  0.840000  0.975860  1.0
  C  C447  1  0.035230  0.660000  0.524140  1.0
  C  C448  1  0.440630  0.840000  0.524140  1.0
  C  C449  1  0.785480  0.345240  0.059200  1.0
  C  C450  1  0.155320  0.154760  0.059200  1.0
  C  C451  1  0.869280  0.345240  0.440800  1.0
  C  C452  1  0.689920  0.154760  0.440800  1.0
  C  C453  1  0.214520  0.654760  0.940800  1.0
  C  C454  1  0.844680  0.845240  0.940800  1.0
  C  C455  1  0.130720  0.654760  0.559200  1.0
  C  C456  1  0.310080  0.845240  0.559200  1.0
  C  C457  1  0.724550  0.430300  0.112400  1.0
  C  C458  1  0.163050  0.069700  0.112400  1.0
  C  C459  1  0.845150  0.430300  0.387600  1.0
  C  C460  1  0.767250  0.069700  0.387600  1.0
  C  C461  1  0.275450  0.569700  0.887600  1.0
  C  C462  1  0.836950  0.930300  0.887600  1.0
  C  C463  1  0.154850  0.569700  0.612400  1.0
  C  C464  1  0.232750  0.930300  0.612400  1.0
  C  C465  1  0.711400  0.463000  0.140400  1.0
  C  C466  1  0.148200  0.037000  0.140400  1.0
  C  C467  1  0.825600  0.463000  0.359600  1.0
  C  C468  1  0.814800  0.037000  0.359600  1.0
  C  C469  1  0.288600  0.537000  0.859600  1.0
  C  C470  1  0.851800  0.963000  0.859600  1.0
  C  C471  1  0.174400  0.537000  0.640400  1.0
  C  C472  1  0.185200  0.963000  0.640400  1.0
  C  C473  1  0.716700  0.451000  0.180600  1.0
  C  C474  1  0.102700  0.049000  0.180600  1.0
  C  C475  1  0.832300  0.451000  0.319400  1.0
  C  C476  1  0.848300  0.049000  0.319400  1.0
  C  C477  1  0.283300  0.549000  0.819400  1.0
  C  C478  1  0.897300  0.951000  0.819400  1.0
  C  C479  1  0.167700  0.549000  0.680600  1.0
  C  C480  1  0.151700  0.951000  0.680600  1.0
  C  C481  1  0.744000  0.374400  0.164400  1.0
  C  C482  1  0.091600  0.125600  0.164400  1.0
  C  C483  1  0.881600  0.374400  0.335600  1.0
  C  C484  1  0.782800  0.125600  0.335600  1.0
  C  C485  1  0.256000  0.625600  0.835600  1.0
  C  C486  1  0.908400  0.874400  0.835600  1.0
  C  C487  1  0.118400  0.625600  0.664400  1.0
  C  C488  1  0.217200  0.874400  0.664400  1.0
  C  C489  1  0.738710  0.388000  0.126380  1.0
  C  C490  1  0.134910  0.112000  0.126380  1.0
  C  C491  1  0.873290  0.388000  0.373620  1.0
  C  C492  1  0.753090  0.112000  0.373620  1.0
  C  C493  1  0.261290  0.612000  0.873620  1.0
  C  C494  1  0.865090  0.888000  0.873620  1.0
  C  C495  1  0.126710  0.612000  0.626380  1.0
  C  C496  1  0.246910  0.888000  0.626380  1.0
  C  C497  1  0.614330  0.444660  0.137080  1.0
  C  C498  1  0.248590  0.055340  0.137080  1.0
  C  C499  1  0.941010  0.444660  0.362920  1.0
  C  C500  1  0.696070  0.055340  0.362920  1.0
  C  C501  1  0.385670  0.555340  0.862920  1.0
  C  C502  1  0.751410  0.944660  0.862920  1.0
  C  C503  1  0.058990  0.555340  0.637080  1.0
  C  C504  1  0.303930  0.944660  0.637080  1.0
  C  C505  1  0.617700  0.416800  0.170600  1.0
  C  C506  1  0.211700  0.083200  0.170600  1.0
  C  C507  1  0.965500  0.416800  0.329400  1.0
  C  C508  1  0.705100  0.083200  0.329400  1.0
  C  C509  1  0.382300  0.583200  0.829400  1.0
  C  C510  1  0.788300  0.916800  0.829400  1.0
  C  C511  1  0.034500  0.583200  0.670600  1.0
  C  C512  1  0.294900  0.916800  0.670600  1.0
  C  C513  1  0.598300  0.403000  0.241800  1.0
  C  C514  1  0.159900  0.097000  0.241800  1.0
  C  C515  1  0.998700  0.403000  0.258200  1.0
  C  C516  1  0.743100  0.097000  0.258200  1.0
  C  C517  1  0.401700  0.597000  0.758200  1.0
  C  C518  1  0.840100  0.903000  0.758200  1.0
  C  C519  1  0.001300  0.597000  0.741800  1.0
  C  C520  1  0.256900  0.903000  0.741800  1.0
  C  C521  1  0.623300  0.356200  0.234200  1.0
  C  C522  1  0.142500  0.143800  0.234200  1.0
  C  C523  1  0.020500  0.356200  0.265800  1.0
  C  C524  1  0.713700  0.143800  0.265800  1.0
  C  C525  1  0.376700  0.643800  0.765800  1.0
  C  C526  1  0.857500  0.856200  0.765800  1.0
  C  C527  1  0.979500  0.643800  0.734200  1.0
  C  C528  1  0.286300  0.856200  0.734200  1.0
  C  C529  1  0.645220  0.343000  0.192960  1.0
  C  C530  1  0.161820  0.157000  0.192960  1.0
  C  C531  1  0.011780  0.343000  0.307040  1.0
  C  C532  1  0.681180  0.157000  0.307040  1.0
  C  C533  1  0.354780  0.657000  0.807040  1.0
  C  C534  1  0.838180  0.843000  0.807040  1.0
  C  C535  1  0.988220  0.657000  0.692960  1.0
  C  C536  1  0.318820  0.843000  0.692960  1.0
  C  C537  1  0.578370  0.351160  0.121100  1.0
  C  C538  1  0.300530  0.148840  0.121100  1.0
  C  C539  1  0.070470  0.351160  0.378900  1.0
  C  C540  1  0.550630  0.148840  0.378900  1.0
  C  C541  1  0.421630  0.648840  0.878900  1.0
  C  C542  1  0.699470  0.851160  0.878900  1.0
  C  C543  1  0.929530  0.648840  0.621100  1.0
  C  C544  1  0.449370  0.851160  0.621100  1.0
  C  C545  1  0.531880  0.308300  0.184540  1.0
  C  C546  1  0.283580  0.191700  0.184540  1.0
  C  C547  1  0.159820  0.308300  0.315460  1.0
  C  C548  1  0.524720  0.191700  0.315460  1.0
  C  C549  1  0.468120  0.691700  0.815460  1.0
  C  C550  1  0.716420  0.808300  0.815460  1.0
  C  C551  1  0.840180  0.691700  0.684540  1.0
  C  C552  1  0.475280  0.808300  0.684540  1.0
  C  C553  1  0.684260  0.206740  0.179540  1.0
  C  C554  1  0.136200  0.293260  0.179540  1.0
  C  C555  1  0.109000  0.206740  0.320460  1.0
  C  C556  1  0.570540  0.293260  0.320460  1.0
  C  C557  1  0.315740  0.793260  0.820460  1.0
  C  C558  1  0.863800  0.706740  0.820460  1.0
  C  C559  1  0.891000  0.793260  0.679540  1.0
  C  C560  1  0.429460  0.706740  0.679540  1.0
  C  C561  1  0.847600  0.155800  0.188400  1.0
  C  C562  1  0.964000  0.344200  0.188400  1.0
  C  C563  1  0.996600  0.155800  0.311600  1.0
  C  C564  1  0.691800  0.344200  0.311600  1.0
  C  C565  1  0.152400  0.844200  0.811600  1.0
  C  C566  1  0.036000  0.655800  0.811600  1.0
  C  C567  1  0.003400  0.844200  0.688400  1.0
  C  C568  1  0.308200  0.655800  0.688400  1.0
  C  C569  1  0.815300  0.194000  0.209800  1.0
  C  C570  1  0.974900  0.306000  0.209800  1.0
  C  C571  1  0.990700  0.194000  0.290200  1.0
  C  C572  1  0.719100  0.306000  0.290200  1.0
  C  C573  1  0.184700  0.806000  0.790200  1.0
  C  C574  1  0.025100  0.694000  0.790200  1.0
  C  C575  1  0.009300  0.806000  0.709800  1.0
  C  C576  1  0.280900  0.694000  0.709800  1.0
  C  C577  1  0.900100  0.136400  0.050200  1.0
  C  C578  1  0.049700  0.363600  0.050200  1.0
  C  C579  1  0.963500  0.136400  0.449800  1.0
  C  C580  1  0.586700  0.363600  0.449800  1.0
  C  C581  1  0.099900  0.863600  0.949800  1.0
  C  C582  1  0.950300  0.636400  0.949800  1.0
  C  C583  1  0.036500  0.863600  0.550200  1.0
  C  C584  1  0.413300  0.636400  0.550200  1.0
  C  C585  1  0.879200  0.167000  0.024400  1.0
  C  C586  1  0.096400  0.333000  0.024400  1.0
  C  C587  1  0.953800  0.167000  0.475600  1.0
  C  C588  1  0.570600  0.333000  0.475600  1.0
  C  C589  1  0.120800  0.833000  0.975600  1.0
  C  C590  1  0.903600  0.667000  0.975600  1.0
  C  C591  1  0.046200  0.833000  0.524400  1.0
  C  C592  1  0.429400  0.667000  0.524400  1.0
  C  C593  1  0.702210  0.194300  0.103080  1.0
  C  C594  1  0.194710  0.305700  0.103080  1.0
  C  C595  1  0.103490  0.194300  0.396920  1.0
  C  C596  1  0.499590  0.305700  0.396920  1.0
  C  C597  1  0.297790  0.805700  0.896920  1.0
  C  C598  1  0.805290  0.694300  0.896920  1.0
  C  C599  1  0.896510  0.805700  0.603080  1.0
  C  C600  1  0.500410  0.694300  0.603080  1.0
  C  C601  1  0.624920  0.123960  0.137000  1.0
  C  C602  1  0.238080  0.376040  0.137000  1.0
  C  C603  1  0.251120  0.123960  0.363000  1.0
  C  C604  1  0.385880  0.376040  0.363000  1.0
  C  C605  1  0.375080  0.876040  0.863000  1.0
  C  C606  1  0.761920  0.623960  0.863000  1.0
  C  C607  1  0.748880  0.876040  0.637000  1.0
  C  C608  1  0.614120  0.623960  0.637000  1.0
  C  C609  1  0.731900  0.405400  0.189600  1.0
  C  C610  1  0.078500  0.094600  0.189600  1.0
  C  C611  1  0.862700  0.405400  0.310400  1.0
  C  C612  1  0.826900  0.094600  0.310400  1.0
  C  C613  1  0.268100  0.594600  0.810400  1.0
  C  C614  1  0.921500  0.905400  0.810400  1.0
  C  C615  1  0.137300  0.594600  0.689600  1.0
  C  C616  1  0.173100  0.905400  0.689600  1.0
  C  C617  1  0.706800  0.481800  0.204200  1.0
  C  C618  1  0.089000  0.018200  0.204200  1.0
  C  C619  1  0.811400  0.481800  0.295800  1.0
  C  C620  1  0.892800  0.018200  0.295800  1.0
  C  C621  1  0.293200  0.518200  0.795800  1.0
  C  C622  1  0.911000  0.981800  0.795800  1.0
  C  C623  1  0.188600  0.518200  0.704200  1.0
  C  C624  1  0.107200  0.981800  0.704200  1.0
  C  C625  1  0.685700  0.526000  0.196800  1.0
  C  C626  1  0.117500  0.974000  0.196800  1.0
  C  C627  1  0.788300  0.526000  0.303200  1.0
  C  C628  1  0.908500  0.974000  0.303200  1.0
  C  C629  1  0.314300  0.474000  0.803200  1.0
  C  C630  1  0.882500  0.026000  0.803200  1.0
  C  C631  1  0.211700  0.474000  0.696800  1.0
  C  C632  1  0.091500  0.026000  0.696800  1.0
  C  C633  1  0.680800  0.539400  0.158200  1.0
  C  C634  1  0.161000  0.960600  0.158200  1.0
  C  C635  1  0.779800  0.539400  0.341800  1.0
  C  C636  1  0.878400  0.960600  0.341800  1.0
  C  C637  1  0.319200  0.460600  0.841800  1.0
  C  C638  1  0.839000  0.039400  0.841800  1.0
  C  C639  1  0.220200  0.460600  0.658200  1.0
  C  C640  1  0.121600  0.039400  0.658200  1.0
  C  C641  1  0.694000  0.509600  0.129800  1.0
  C  C642  1  0.176200  0.990400  0.129800  1.0
  C  C643  1  0.796400  0.509600  0.370200  1.0
  C  C644  1  0.833400  0.990400  0.370200  1.0
  C  C645  1  0.306000  0.490400  0.870200  1.0
  C  C646  1  0.823800  0.009600  0.870200  1.0
  C  C647  1  0.203600  0.490400  0.629800  1.0
  C  C648  1  0.166600  0.009600  0.629800  1.0
  C  C649  1  0.733610  0.102520  0.159860  1.0
  C  C650  1  0.106530  0.397480  0.159860  1.0
  C  C651  1  0.163870  0.102520  0.340140  1.0
  C  C652  1  0.495990  0.397480  0.340140  1.0
  C  C653  1  0.266390  0.897480  0.840140  1.0
  C  C654  1  0.893470  0.602520  0.840140  1.0
  C  C655  1  0.836130  0.897480  0.659860  1.0
  C  C656  1  0.504010  0.602520  0.659860  1.0
  C  C657  1  0.774800  0.211400  0.195800  1.0
  C  C658  1  0.029400  0.288600  0.195800  1.0
  C  C659  1  0.013800  0.211400  0.304200  1.0
  C  C660  1  0.682000  0.288600  0.304200  1.0
  C  C661  1  0.225200  0.788600  0.804200  1.0
  C  C662  1  0.970600  0.711400  0.804200  1.0
  C  C663  1  0.986200  0.788600  0.695800  1.0
  C  C664  1  0.318000  0.711400  0.695800  1.0
  C  C665  1  0.824300  0.189400  0.047200  1.0
  C  C666  1  0.128500  0.310600  0.047200  1.0
  C  C667  1  0.986300  0.189400  0.452800  1.0
  C  C668  1  0.560900  0.310600  0.452800  1.0
  C  C669  1  0.175700  0.810600  0.952800  1.0
  C  C670  1  0.871500  0.689400  0.952800  1.0
  C  C671  1  0.013700  0.810600  0.547200  1.0
  C  C672  1  0.439100  0.689400  0.547200  1.0
  C  C673  1  0.597800  0.429200  0.208600  1.0
  C  C674  1  0.193600  0.070800  0.208600  1.0
  C  C675  1  0.973000  0.429200  0.291400  1.0
  C  C676  1  0.735600  0.070800  0.291400  1.0
  C  C677  1  0.402200  0.570800  0.791400  1.0
  C  C678  1  0.806400  0.929200  0.791400  1.0
  C  C679  1  0.027000  0.570800  0.708600  1.0
  C  C680  1  0.264400  0.929200  0.708600  1.0
  C  C681  1  0.806740  0.086600  0.945120  1.0
  C  C682  1  0.248140  0.413400  0.945120  1.0
  C  C683  1  0.106660  0.086600  0.554880  1.0
  C  C684  1  0.338460  0.413400  0.554880  1.0
  C  C685  1  0.193260  0.913400  0.054880  1.0
  C  C686  1  0.751860  0.586600  0.054880  1.0
  C  C687  1  0.893340  0.913400  0.445120  1.0
  C  C688  1  0.661540  0.586600  0.445120  1.0
  C  C689  1  0.547600  0.290200  0.113000  1.0
  C  C690  1  0.339400  0.209800  0.113000  1.0
  C  C691  1  0.162200  0.290200  0.387000  1.0
  C  C692  1  0.450800  0.209800  0.387000  1.0
  C  C693  1  0.452400  0.709800  0.887000  1.0
  C  C694  1  0.660600  0.790200  0.887000  1.0
  C  C695  1  0.837800  0.709800  0.613000  1.0
  C  C696  1  0.549200  0.790200  0.613000  1.0
  C  C697  1  0.814200  0.054400  0.148400  1.0
  C  C698  1  0.037400  0.445600  0.148400  1.0
  C  C699  1  0.131400  0.054400  0.351600  1.0
  C  C700  1  0.517000  0.445600  0.351600  1.0
  C  C701  1  0.185800  0.945600  0.851600  1.0
  C  C702  1  0.962600  0.554400  0.851600  1.0
  C  C703  1  0.868600  0.945600  0.648400  1.0
  C  C704  1  0.483000  0.554400  0.648400  1.0
  C  C705  1  0.765000  0.057000  0.161400  1.0
  C  C706  1  0.073600  0.443000  0.161400  1.0
  C  C707  1  0.178000  0.057000  0.338600  1.0
  C  C708  1  0.483400  0.443000  0.338600  1.0
  C  C709  1  0.235000  0.943000  0.838600  1.0
  C  C710  1  0.926400  0.557000  0.838600  1.0
  C  C711  1  0.822000  0.943000  0.661400  1.0
  C  C712  1  0.516600  0.557000  0.661400  1.0
  C  C713  1  0.495270  0.170860  0.079600  1.0
  C  C714  1  0.425130  0.329140  0.079600  1.0
  C  C715  1  0.333870  0.170860  0.420400  1.0
  C  C716  1  0.245730  0.329140  0.420400  1.0
  C  C717  1  0.504730  0.829140  0.920400  1.0
  C  C718  1  0.574870  0.670860  0.920400  1.0
  C  C719  1  0.666130  0.829140  0.579600  1.0
  C  C720  1  0.754270  0.670860  0.579600  1.0
  C  C721  1  0.500910  0.181580  0.038000  1.0
  C  C722  1  0.461090  0.318420  0.038000  1.0
  C  C723  1  0.317510  0.181580  0.462000  1.0
  C  C724  1  0.220490  0.318420  0.462000  1.0
  C  C725  1  0.499090  0.818420  0.962000  1.0
  C  C726  1  0.538910  0.681580  0.962000  1.0
  C  C727  1  0.682490  0.818420  0.538000  1.0
  C  C728  1  0.779510  0.681580  0.538000  1.0
  C  C729  1  0.723210  0.253200  0.121380  1.0
  C  C730  1  0.155410  0.246800  0.121380  1.0
  C  C731  1  0.023590  0.253200  0.378620  1.0
  C  C732  1  0.597790  0.246800  0.378620  1.0
  C  C733  1  0.276790  0.746800  0.878620  1.0
  C  C734  1  0.844590  0.753200  0.878620  1.0
  C  C735  1  0.976410  0.746800  0.621380  1.0
  C  C736  1  0.402210  0.753200  0.621380  1.0
  Co  Co737  1  0.573540  0.250000  0.250000  1
  Co  Co738  1  0.176460  0.250000  0.250000  1
  Co  Co739  1  0.426460  0.750000  0.750000  1
  Co  Co740  1  0.823540  0.750000  0.750000  1
  Co  Co741  1  0.678490  0.355420  0.105140  1.0
  Co  Co742  1  0.216370  0.144580  0.105140  1.0
  Co  Co743  1  0.966090  0.355420  0.394860  1.0
  Co  Co744  1  0.639050  0.144580  0.394860  1.0
  Co  Co745  1  0.321510  0.644580  0.894860  1.0
  Co  Co746  1  0.783630  0.855420  0.894860  1.0
  Co  Co747  1  0.033910  0.644580  0.605140  1.0
  Co  Co748  1  0.360950  0.855420  0.605140  1.0
  Co  Co749  1  0.619920  0.192460  0.079940  1.0
  Co  Co750  1  0.300140  0.307540  0.079940  1.0
  Co  Co751  1  0.187620  0.192460  0.420060  1.0
  Co  Co752  1  0.392320  0.307540  0.420060  1.0
  Co  Co753  1  0.380080  0.807540  0.920060  1.0
  Co  Co754  1  0.699860  0.692460  0.920060  1.0
  Co  Co755  1  0.812380  0.807540  0.579940  1.0
  Co  Co756  1  0.607680  0.692460  0.579940  1.0
  F  F757  1  0.434970  0.672980  0.032480  1
  F  F758  1  0.532550  0.827020  0.032480  1
  F  F759  1  0.892050  0.672980  0.467520  1
  F  F760  1  0.640430  0.827020  0.467520  1
  F  F761  1  0.565030  0.327020  0.967520  1
  F  F762  1  0.467450  0.172980  0.967520  1
  F  F763  1  0.107950  0.327020  0.532480  1
  F  F764  1  0.359570  0.172980  0.532480  1
  F  F765  1  0.378560  0.642540  0.054740  1
  F  F766  1  0.566700  0.857460  0.054740  1
  F  F767  1  0.978900  0.642540  0.445260  1
  F  F768  1  0.575840  0.857460  0.445260  1
  F  F769  1  0.621440  0.357460  0.945260  1
  F  F770  1  0.433300  0.142540  0.945260  1
  F  F771  1  0.021100  0.357460  0.554740  1
  F  F772  1  0.424160  0.142540  0.554740  1
  F  F773  1  0.352630  0.711740  0.063800  1
  F  F774  1  0.583570  0.788260  0.063800  1
  F  F775  1  0.935630  0.711740  0.436200  1
  F  F776  1  0.628170  0.788260  0.436200  1
  F  F777  1  0.647370  0.288260  0.936200  1
  F  F778  1  0.416430  0.211740  0.936200  1
  F  F779  1  0.064370  0.288260  0.563800  1
  F  F780  1  0.371830  0.211740  0.563800  1
  F  F781  1  0.378460  0.691320  0.000760  1
  F  F782  1  0.620780  0.808680  0.000760  1
  F  F783  1  0.930220  0.691320  0.499240  1
  F  F784  1  0.570540  0.808680  0.499240  1
  F  F785  1  0.621540  0.308680  0.999240  1
  F  F786  1  0.379220  0.191320  0.999240  1
  F  F787  1  0.069780  0.308680  0.500760  1
  F  F788  1  0.429460  0.191320  0.500760  1
  F  F789  1  0.219060  0.494900  0.124580  1
  F  F790  1  0.656360  0.005100  0.124580  1
  F  F791  1  0.286040  0.494900  0.375420  1
  F  F792  1  0.338540  0.005100  0.375420  1
  F  F793  1  0.780940  0.505100  0.875420  1
  F  F794  1  0.343640  0.994900  0.875420  1
  F  F795  1  0.713960  0.505100  0.624580  1
  F  F796  1  0.661460  0.994900  0.624580  1
  F  F797  1  0.293170  0.442620  0.134040  1
  F  F798  1  0.572790  0.057380  0.134040  1
  F  F799  1  0.264210  0.442620  0.365960  1
  F  F800  1  0.369830  0.057380  0.365960  1
  F  F801  1  0.706830  0.557380  0.865960  1
  F  F802  1  0.427210  0.942620  0.865960  1
  F  F803  1  0.735790  0.557380  0.634040  1
  F  F804  1  0.630170  0.942620  0.634040  1
  F  F805  1  0.292680  0.504140  0.101300  1
  F  F806  1  0.606020  0.995860  0.101300  1
  F  F807  1  0.203180  0.504140  0.398700  1
  F  F808  1  0.398120  0.995860  0.398700  1
  F  F809  1  0.707320  0.495860  0.898700  1
  F  F810  1  0.393980  0.004140  0.898700  1
  F  F811  1  0.796820  0.495860  0.601300  1
  F  F812  1  0.601880  0.004140  0.601300  1
  F  F813  1  0.246520  0.512400  0.165360  1
  F  F814  1  0.588120  0.987600  0.165360  1
  F  F815  1  0.241080  0.512400  0.334640  1
  F  F816  1  0.424280  0.987600  0.334640  1
  F  F817  1  0.753480  0.487600  0.834640  1
  F  F818  1  0.411880  0.012400  0.834640  1
  F  F819  1  0.758920  0.487600  0.665360  1
  F  F820  1  0.575720  0.012400  0.665360  1
  Fe  Fe821  1  0.511930  0.344060  0.143200  1.0
  Fe  Fe822  1  0.344870  0.155940  0.143200  1.0
  Fe  Fe823  1  0.144010  0.344060  0.356800  1.0
  Fe  Fe824  1  0.499190  0.155940  0.356800  1.0
  Fe  Fe825  1  0.488070  0.655940  0.856800  1.0
  Fe  Fe826  1  0.655130  0.844060  0.856800  1.0
  Fe  Fe827  1  0.855990  0.655940  0.643200  1.0
  Fe  Fe828  1  0.500810  0.844060  0.643200  1.0
  Fe  Fe829  1  0.742900  0.191620  0.132300  1.0
  Fe  Fe830  1  0.124800  0.308380  0.132300  1.0
  Fe  Fe831  1  0.065480  0.191620  0.367700  1.0
  Fe  Fe832  1  0.566820  0.308380  0.367700  1.0
  Fe  Fe833  1  0.257100  0.808380  0.867700  1.0
  Fe  Fe834  1  0.875200  0.691620  0.867700  1.0
  Fe  Fe835  1  0.934520  0.808380  0.632300  1.0
  Fe  Fe836  1  0.433180  0.691620  0.632300  1.0
  H  H837  1  0.366000  0.448200  0.162600  1.0
  H  H838  1  0.471400  0.051800  0.162600  1.0
  H  H839  1  0.185800  0.448200  0.337400  1.0
  H  H840  1  0.476800  0.051800  0.337400  1.0
  H  H841  1  0.634000  0.551800  0.837400  1.0
  H  H842  1  0.528600  0.948200  0.837400  1.0
  H  H843  1  0.814200  0.551800  0.662600  1.0
  H  H844  1  0.523200  0.948200  0.662600  1.0
  H  H845  1  0.887300  0.092200  0.128200  1.0
  H  H846  1  0.984500  0.407800  0.128200  1.0
  H  H847  1  0.020500  0.092200  0.371800  1.0
  H  H848  1  0.607700  0.407800  0.371800  1.0
  H  H849  1  0.112700  0.907800  0.871800  1.0
  H  H850  1  0.015500  0.592200  0.871800  1.0
  H  H851  1  0.979500  0.907800  0.628200  1.0
  H  H852  1  0.392300  0.592200  0.628200  1.0
  H  H853  1  0.548200  0.221000  0.165400  1.0
  H  H854  1  0.286400  0.279000  0.165400  1.0
  H  H855  1  0.230800  0.221000  0.334600  1.0
  H  H856  1  0.434600  0.279000  0.334600  1.0
  H  H857  1  0.451800  0.779000  0.834600  1.0
  H  H858  1  0.713600  0.721000  0.834600  1.0
  H  H859  1  0.769200  0.779000  0.665400  1.0
  H  H860  1  0.565400  0.721000  0.665400  1.0
  H  H861  1  0.520400  0.191400  0.227800  1.0
  H  H862  1  0.251800  0.308600  0.227800  1.0
  H  H863  1  0.288200  0.191400  0.272200  1.0
  H  H864  1  0.439600  0.308600  0.272200  1.0
  H  H865  1  0.479600  0.808600  0.772200  1.0
  H  H866  1  0.748200  0.691400  0.772200  1.0
  H  H867  1  0.711800  0.808600  0.727800  1.0
  H  H868  1  0.560400  0.691400  0.727800  1.0
  H  H869  1  0.564200  0.109600  0.235600  1.0
  H  H870  1  0.200200  0.390400  0.235600  1.0
  H  H871  1  0.326200  0.109600  0.264400  1.0
  H  H872  1  0.409400  0.390400  0.264400  1.0
  H  H873  1  0.435800  0.890400  0.764400  1.0
  H  H874  1  0.799800  0.609600  0.764400  1.0
  H  H875  1  0.673800  0.890400  0.735600  1.0
  H  H876  1  0.590600  0.609600  0.735600  1.0
  H  H877  1  0.629300  0.067200  0.175800  1.0
  H  H878  1  0.194900  0.432800  0.175800  1.0
  H  H879  1  0.303500  0.067200  0.324200  1.0
  H  H880  1  0.372300  0.432800  0.324200  1.0
  H  H881  1  0.370700  0.932800  0.824200  1.0
  H  H882  1  0.805100  0.567200  0.824200  1.0
  H  H883  1  0.696500  0.932800  0.675800  1.0
  H  H884  1  0.627700  0.567200  0.675800  1.0
  H  H885  1  0.704600  0.087200  0.103000  1.0
  H  H886  1  0.192400  0.412800  0.103000  1.0
  H  H887  1  0.208200  0.087200  0.397000  1.0
  H  H888  1  0.394800  0.412800  0.397000  1.0
  H  H889  1  0.295400  0.912800  0.897000  1.0
  H  H890  1  0.807600  0.587200  0.897000  1.0
  H  H891  1  0.791800  0.912800  0.603000  1.0
  H  H892  1  0.605200  0.587200  0.603000  1.0
  H  H893  1  0.667200  0.071000  0.095800  1.0
  H  H894  1  0.237000  0.429000  0.095800  1.0
  H  H895  1  0.261800  0.071000  0.404200  1.0
  H  H896  1  0.334000  0.429000  0.404200  1.0
  H  H897  1  0.332800  0.929000  0.904200  1.0
  H  H898  1  0.763000  0.571000  0.904200  1.0
  H  H899  1  0.738200  0.929000  0.595800  1.0
  H  H900  1  0.666000  0.571000  0.595800  1.0
  H  H901  1  0.618300  0.081800  0.068200  1.0
  H  H902  1  0.313500  0.418200  0.068200  1.0
  H  H903  1  0.299900  0.081800  0.431800  1.0
  H  H904  1  0.268300  0.418200  0.431800  1.0
  H  H905  1  0.381700  0.918200  0.931800  1.0
  H  H906  1  0.686500  0.581800  0.931800  1.0
  H  H907  1  0.700100  0.918200  0.568200  1.0
  H  H908  1  0.731700  0.581800  0.568200  1.0
  H  H909  1  0.611200  0.059200  0.016000  1.0
  H  H910  1  0.372800  0.440800  0.016000  1.0
  H  H911  1  0.329600  0.059200  0.484000  1.0
  H  H912  1  0.186400  0.440800  0.484000  1.0
  H  H913  1  0.388800  0.940800  0.984000  1.0
  H  H914  1  0.627200  0.559200  0.984000  1.0
  H  H915  1  0.670400  0.940800  0.516000  1.0
  H  H916  1  0.813600  0.559200  0.516000  1.0
  H  H917  1  0.800000  0.218400  0.963200  1.0
  H  H918  1  0.236800  0.281600  0.963200  1.0
  H  H919  1  0.981600  0.218400  0.536800  1.0
  H  H920  1  0.481600  0.281600  0.536800  1.0
  H  H921  1  0.200000  0.781600  0.036800  1.0
  H  H922  1  0.763200  0.718400  0.036800  1.0
  H  H923  1  0.018400  0.781600  0.463200  1.0
  H  H924  1  0.518400  0.718400  0.463200  1.0
  H  H925  1  0.630500  0.204400  0.976200  1.0
  H  H926  1  0.393300  0.295600  0.976200  1.0
  H  H927  1  0.165100  0.204400  0.523800  1.0
  H  H928  1  0.311100  0.295600  0.523800  1.0
  H  H929  1  0.369500  0.795600  0.023800  1.0
  H  H930  1  0.606700  0.704400  0.023800  1.0
  H  H931  1  0.834900  0.795600  0.476200  1.0
  H  H932  1  0.688900  0.704400  0.476200  1.0
  H  H933  1  0.588900  0.252200  0.999000  1.0
  H  H934  1  0.412100  0.247800  0.999000  1.0
  H  H935  1  0.158900  0.252200  0.501000  1.0
  H  H936  1  0.340100  0.247800  0.501000  1.0
  H  H937  1  0.411100  0.747800  0.001000  1.0
  H  H938  1  0.587900  0.752200  0.001000  1.0
  H  H939  1  0.841100  0.747800  0.499000  1.0
  H  H940  1  0.659900  0.752200  0.499000  1.0
  H  H941  1  0.651400  0.445600  0.023200  1.0
  H  H942  1  0.325400  0.054400  0.023200  1.0
  H  H943  1  0.903000  0.445600  0.476800  1.0
  H  H944  1  0.620200  0.054400  0.476800  1.0
  H  H945  1  0.348600  0.554400  0.976800  1.0
  H  H946  1  0.674600  0.945600  0.976800  1.0
  H  H947  1  0.097000  0.554400  0.523200  1.0
  H  H948  1  0.379800  0.945600  0.523200  1.0
  H  H949  1  0.801500  0.452200  0.071000  1.0
  H  H950  1  0.127500  0.047800  0.071000  1.0
  H  H951  1  0.746300  0.452200  0.429000  1.0
  H  H952  1  0.824700  0.047800  0.429000  1.0
  H  H953  1  0.198500  0.547800  0.929000  1.0
  H  H954  1  0.872500  0.952200  0.929000  1.0
  H  H955  1  0.253700  0.547800  0.571000  1.0
  H  H956  1  0.175300  0.952200  0.571000  1.0
  H  H957  1  0.861000  0.478000  0.016400  1.0
  H  H958  1  0.122600  0.022000  0.016400  1.0
  H  H959  1  0.661000  0.478000  0.483600  1.0
  H  H960  1  0.855400  0.022000  0.483600  1.0
  H  H961  1  0.139000  0.522000  0.983600  1.0
  H  H962  1  0.877400  0.978000  0.983600  1.0
  H  H963  1  0.339000  0.522000  0.516400  1.0
  H  H964  1  0.144600  0.978000  0.516400  1.0
  H  H965  1  0.712100  0.246200  0.002400  1.0
  H  H966  1  0.285500  0.253800  0.002400  1.0
  H  H967  1  0.041700  0.246200  0.497600  1.0
  H  H968  1  0.460700  0.253800  0.497600  1.0
  H  H969  1  0.287900  0.753800  0.997600  1.0
  H  H970  1  0.714500  0.746200  0.997600  1.0
  H  H971  1  0.958300  0.753800  0.502400  1.0
  H  H972  1  0.539300  0.746200  0.502400  1.0
  H  H973  1  0.884000  0.151200  0.924200  1.0
  H  H974  1  0.191800  0.348800  0.924200  1.0
  H  H975  1  0.964800  0.151200  0.575800  1.0
  H  H976  1  0.459400  0.348800  0.575800  1.0
  H  H977  1  0.116000  0.848800  0.075800  1.0
  H  H978  1  0.808200  0.651200  0.075800  1.0
  H  H979  1  0.035200  0.848800  0.424200  1.0
  H  H980  1  0.540600  0.651200  0.424200  1.0
  H  H981  1  0.927400  0.080400  0.896200  1.0
  H  H982  1  0.176400  0.419600  0.896200  1.0
  H  H983  1  0.992200  0.080400  0.603800  1.0
  H  H984  1  0.404000  0.419600  0.603800  1.0
  H  H985  1  0.072600  0.919600  0.103800  1.0
  H  H986  1  0.823600  0.580400  0.103800  1.0
  H  H987  1  0.007800  0.919600  0.396200  1.0
  H  H988  1  0.596000  0.580400  0.396200  1.0
  H  H989  1  0.877600  0.037200  0.913800  1.0
  H  H990  1  0.208600  0.462800  0.913800  1.0
  H  H991  1  0.085200  0.037200  0.586200  1.0
  H  H992  1  0.328600  0.462800  0.586200  1.0
  H  H993  1  0.122400  0.962800  0.086200  1.0
  H  H994  1  0.791400  0.537200  0.086200  1.0
  H  H995  1  0.914800  0.962800  0.413800  1.0
  H  H996  1  0.671400  0.537200  0.413800  1.0
  H  H997  1  0.726800  0.138200  0.910000  1.0
  H  H998  1  0.363200  0.361800  0.910000  1.0
  H  H999  1  0.135000  0.138200  0.590000  1.0
  H  H1000  1  0.275000  0.361800  0.590000  1.0
  H  H1001  1  0.273200  0.861800  0.090000  1.0
  H  H1002  1  0.636800  0.638200  0.090000  1.0
  H  H1003  1  0.865000  0.861800  0.410000  1.0
  H  H1004  1  0.725000  0.638200  0.410000  1.0
  H  H1005  1  0.713900  0.117400  0.860800  1.0
  H  H1006  1  0.425300  0.382600  0.860800  1.0
  H  H1007  1  0.168700  0.117400  0.639200  1.0
  H  H1008  1  0.192100  0.382600  0.639200  1.0
  H  H1009  1  0.286100  0.882600  0.139200  1.0
  H  H1010  1  0.574700  0.617400  0.139200  1.0
  H  H1011  1  0.831300  0.882600  0.360800  1.0
  H  H1012  1  0.807900  0.617400  0.360800  1.0
  H  H1013  1  0.672600  0.068000  0.875000  1.0
  H  H1014  1  0.452400  0.432000  0.875000  1.0
  H  H1015  1  0.259400  0.068000  0.625000  1.0
  H  H1016  1  0.115600  0.432000  0.625000  1.0
  H  H1017  1  0.327400  0.932000  0.125000  1.0
  H  H1018  1  0.547600  0.568000  0.125000  1.0
  H  H1019  1  0.740600  0.932000  0.375000  1.0
  H  H1020  1  0.884400  0.568000  0.375000  1.0
  H  H1021  1  0.629100  0.056800  0.944000  1.0
  H  H1022  1  0.426900  0.443200  0.944000  1.0
  H  H1023  1  0.314100  0.056800  0.556000  1.0
  H  H1024  1  0.129900  0.443200  0.556000  1.0
  H  H1025  1  0.370900  0.943200  0.056000  1.0
  H  H1026  1  0.573100  0.556800  0.056000  1.0
  H  H1027  1  0.685900  0.943200  0.444000  1.0
  H  H1028  1  0.870100  0.556800  0.444000  1.0
  H  H1029  1  0.539800  0.201200  0.985800  1.0
  H  H1030  1  0.474400  0.298800  0.985800  1.0
  H  H1031  1  0.259000  0.201200  0.514200  1.0
  H  H1032  1  0.226800  0.298800  0.514200  1.0
  H  H1033  1  0.460200  0.798800  0.014200  1.0
  H  H1034  1  0.525600  0.701200  0.014200  1.0
  H  H1035  1  0.741000  0.798800  0.485800  1.0
  H  H1036  1  0.773200  0.701200  0.485800  1.0
  H  H1037  1  0.525400  0.168200  0.121400  1.0
  H  H1038  1  0.353200  0.331800  0.121400  1.0
  H  H1039  1  0.306400  0.168200  0.378600  1.0
  H  H1040  1  0.315000  0.331800  0.378600  1.0
  H  H1041  1  0.474600  0.831800  0.878600  1.0
  H  H1042  1  0.646800  0.668200  0.878600  1.0
  H  H1043  1  0.693600  0.831800  0.621400  1.0
  H  H1044  1  0.685000  0.668200  0.621400  1.0
  H  H1045  1  0.541800  0.366400  0.045000  1.0
  H  H1046  1  0.413200  0.133600  0.045000  1.0
  H  H1047  1  0.091800  0.366400  0.455000  1.0
  H  H1048  1  0.453200  0.133600  0.455000  1.0
  H  H1049  1  0.458200  0.633600  0.955000  1.0
  H  H1050  1  0.586800  0.866400  0.955000  1.0
  H  H1051  1  0.908200  0.633600  0.545000  1.0
  H  H1052  1  0.546800  0.866400  0.545000  1.0
  H  H1053  1  0.478200  0.430000  0.016400  1.0
  H  H1054  1  0.505400  0.070000  0.016400  1.0
  H  H1055  1  0.091800  0.430000  0.483600  1.0
  H  H1056  1  0.424600  0.070000  0.483600  1.0
  H  H1057  1  0.521800  0.570000  0.983600  1.0
  H  H1058  1  0.494600  0.930000  0.983600  1.0
  H  H1059  1  0.908200  0.570000  0.516400  1.0
  H  H1060  1  0.575400  0.930000  0.516400  1.0
  H  H1061  1  0.396400  0.461200  0.078400  1.0
  H  H1062  1  0.525200  0.038800  0.078400  1.0
  H  H1063  1  0.142400  0.461200  0.421600  1.0
  H  H1064  1  0.436000  0.038800  0.421600  1.0
  H  H1065  1  0.603600  0.538800  0.921600  1.0
  H  H1066  1  0.474800  0.961200  0.921600  1.0
  H  H1067  1  0.857600  0.538800  0.578400  1.0
  H  H1068  1  0.564000  0.961200  0.578400  1.0
  H  H1069  1  0.379700  0.490000  0.213400  1.0
  H  H1070  1  0.406900  0.010000  0.213400  1.0
  H  H1071  1  0.130300  0.490000  0.286600  1.0
  H  H1072  1  0.583100  0.010000  0.286600  1.0
  H  H1073  1  0.620300  0.510000  0.786600  1.0
  H  H1074  1  0.593100  0.990000  0.786600  1.0
  H  H1075  1  0.869700  0.510000  0.713400  1.0
  H  H1076  1  0.416900  0.990000  0.713400  1.0
  H  H1077  1  0.454200  0.474400  0.231800  1.0
  H  H1078  1  0.314000  0.025600  0.231800  1.0
  H  H1079  1  0.071400  0.474400  0.268200  1.0
  H  H1080  1  0.660400  0.025600  0.268200  1.0
  H  H1081  1  0.545800  0.525600  0.768200  1.0
  H  H1082  1  0.686000  0.974400  0.768200  1.0
  H  H1083  1  0.928600  0.525600  0.731800  1.0
  H  H1084  1  0.339600  0.974400  0.731800  1.0
  H  H1085  1  0.523200  0.398200  0.203400  1.0
  H  H1086  1  0.273400  0.101800  0.203400  1.0
  H  H1087  1  0.078600  0.398200  0.296600  1.0
  H  H1088  1  0.624800  0.101800  0.296600  1.0
  H  H1089  1  0.476800  0.601800  0.796600  1.0
  H  H1090  1  0.726600  0.898200  0.796600  1.0
  H  H1091  1  0.921400  0.601800  0.703400  1.0
  H  H1092  1  0.375200  0.898200  0.703400  1.0
  H  H1093  1  0.453600  0.275000  0.181800  1.0
  H  H1094  1  0.364600  0.225000  0.181800  1.0
  H  H1095  1  0.271400  0.275000  0.318200  1.0
  H  H1096  1  0.410400  0.225000  0.318200  1.0
  H  H1097  1  0.546400  0.725000  0.818200  1.0
  H  H1098  1  0.635400  0.775000  0.818200  1.0
  H  H1099  1  0.728600  0.725000  0.681800  1.0
  H  H1100  1  0.589600  0.775000  0.681800  1.0
  H  H1101  1  0.352400  0.304400  0.212400  1.0
  H  H1102  1  0.435200  0.195600  0.212400  1.0
  H  H1103  1  0.343200  0.304400  0.287600  1.0
  H  H1104  1  0.369200  0.195600  0.287600  1.0
  H  H1105  1  0.647600  0.695600  0.787600  1.0
  H  H1106  1  0.564800  0.804400  0.787600  1.0
  H  H1107  1  0.656800  0.695600  0.712400  1.0
  H  H1108  1  0.630800  0.804400  0.712400  1.0
  H  H1109  1  0.318900  0.388400  0.198000  1.0
  H  H1110  1  0.483100  0.111600  0.198000  1.0
  H  H1111  1  0.292700  0.388400  0.302000  1.0
  H  H1112  1  0.405300  0.111600  0.302000  1.0
  H  H1113  1  0.681100  0.611600  0.802000  1.0
  H  H1114  1  0.516900  0.888400  0.802000  1.0
  H  H1115  1  0.707300  0.611600  0.698000  1.0
  H  H1116  1  0.594700  0.888400  0.698000  1.0
  H  H1117  1  0.710200  0.471600  0.967800  1.0
  H  H1118  1  0.322000  0.028400  0.967800  1.0
  H  H1119  1  0.818200  0.471600  0.532200  1.0
  H  H1120  1  0.649600  0.028400  0.532200  1.0
  H  H1121  1  0.289800  0.528400  0.032200  1.0
  H  H1122  1  0.678000  0.971600  0.032200  1.0
  H  H1123  1  0.181800  0.528400  0.467800  1.0
  H  H1124  1  0.350400  0.971600  0.467800  1.0
  H  H1125  1  0.786800  0.488400  0.940600  1.0
  H  H1126  1  0.272600  0.011600  0.940600  1.0
  H  H1127  1  0.724800  0.488400  0.559400  1.0
  H  H1128  1  0.715800  0.011600  0.559400  1.0
  H  H1129  1  0.213200  0.511600  0.059400  1.0
  H  H1130  1  0.727400  0.988400  0.059400  1.0
  H  H1131  1  0.275200  0.511600  0.440600  1.0
  H  H1132  1  0.284200  0.988400  0.440600  1.0
  H  H1133  1  0.853000  0.494000  0.950600  1.0
  H  H1134  1  0.196400  0.006000  0.950600  1.0
  H  H1135  1  0.653000  0.494000  0.549400  1.0
  H  H1136  1  0.797600  0.006000  0.549400  1.0
  H  H1137  1  0.147000  0.506000  0.049400  1.0
  H  H1138  1  0.803600  0.994000  0.049400  1.0
  H  H1139  1  0.347000  0.506000  0.450600  1.0
  H  H1140  1  0.202400  0.994000  0.450600  1.0
  H  H1141  1  0.830000  0.328800  0.983800  1.0
  H  H1142  1  0.186200  0.171200  0.983800  1.0
  H  H1143  1  0.841200  0.328800  0.516200  1.0
  H  H1144  1  0.642600  0.171200  0.516200  1.0
  H  H1145  1  0.170000  0.671200  0.016200  1.0
  H  H1146  1  0.813800  0.828800  0.016200  1.0
  H  H1147  1  0.158800  0.671200  0.483800  1.0
  H  H1148  1  0.357400  0.828800  0.483800  1.0
  H  H1149  1  0.795700  0.323800  0.933800  1.0
  H  H1150  1  0.270500  0.176200  0.933800  1.0
  H  H1151  1  0.880500  0.323800  0.566200  1.0
  H  H1152  1  0.553300  0.176200  0.566200  1.0
  H  H1153  1  0.204300  0.676200  0.066200  1.0
  H  H1154  1  0.729500  0.823800  0.066200  1.0
  H  H1155  1  0.119500  0.676200  0.433800  1.0
  H  H1156  1  0.446700  0.823800  0.433800  1.0
  H  H1157  1  0.706500  0.333400  0.964800  1.0
  H  H1158  1  0.328700  0.166600  0.964800  1.0
  H  H1159  1  0.960100  0.333400  0.535200  1.0
  H  H1160  1  0.504700  0.166600  0.535200  1.0
  H  H1161  1  0.293500  0.666600  0.035200  1.0
  H  H1162  1  0.671300  0.833400  0.035200  1.0
  H  H1163  1  0.039900  0.666600  0.464800  1.0
  H  H1164  1  0.495300  0.833400  0.464800  1.0
  H  H1165  1  0.661100  0.340000  0.035400  1.0
  H  H1166  1  0.303500  0.160000  0.035400  1.0
  H  H1167  1  0.998900  0.340000  0.464600  1.0
  H  H1168  1  0.536500  0.160000  0.464600  1.0
  H  H1169  1  0.338900  0.660000  0.964600  1.0
  H  H1170  1  0.696500  0.840000  0.964600  1.0
  H  H1171  1  0.001100  0.660000  0.535400  1.0
  H  H1172  1  0.463500  0.840000  0.535400  1.0
  H  H1173  1  0.817900  0.317400  0.058000  1.0
  H  H1174  1  0.124100  0.182600  0.058000  1.0
  H  H1175  1  0.864700  0.317400  0.442000  1.0
  H  H1176  1  0.693300  0.182600  0.442000  1.0
  H  H1177  1  0.182100  0.682600  0.942000  1.0
  H  H1178  1  0.875900  0.817400  0.942000  1.0
  H  H1179  1  0.135300  0.682600  0.558000  1.0
  H  H1180  1  0.306700  0.817400  0.558000  1.0
  H  H1181  1  0.795200  0.371200  0.050400  1.0
  H  H1182  1  0.154400  0.128800  0.050400  1.0
  H  H1183  1  0.833600  0.371200  0.449600  1.0
  H  H1184  1  0.716800  0.128800  0.449600  1.0
  H  H1185  1  0.204800  0.628800  0.949600  1.0
  H  H1186  1  0.845600  0.871200  0.949600  1.0
  H  H1187  1  0.166400  0.628800  0.550400  1.0
  H  H1188  1  0.283200  0.871200  0.550400  1.0
  H  H1189  1  0.756300  0.343200  0.171800  1.0
  H  H1190  1  0.071900  0.156800  0.171800  1.0
  H  H1191  1  0.900500  0.343200  0.328200  1.0
  H  H1192  1  0.771300  0.156800  0.328200  1.0
  H  H1193  1  0.243700  0.656800  0.828200  1.0
  H  H1194  1  0.928100  0.843200  0.828200  1.0
  H  H1195  1  0.099500  0.656800  0.671800  1.0
  H  H1196  1  0.228700  0.843200  0.671800  1.0
  H  H1197  1  0.625700  0.468000  0.137200  1.0
  H  H1198  1  0.237100  0.032000  0.137200  1.0
  H  H1199  1  0.906300  0.468000  0.362800  1.0
  H  H1200  1  0.730900  0.032000  0.362800  1.0
  H  H1201  1  0.374300  0.532000  0.862800  1.0
  H  H1202  1  0.762900  0.968000  0.862800  1.0
  H  H1203  1  0.093700  0.532000  0.637200  1.0
  H  H1204  1  0.269100  0.968000  0.637200  1.0
  H  H1205  1  0.576600  0.460600  0.140600  1.0
  H  H1206  1  0.282800  0.039400  0.140600  1.0
  H  H1207  1  0.962800  0.460600  0.359400  1.0
  H  H1208  1  0.677800  0.039400  0.359400  1.0
  H  H1209  1  0.423400  0.539400  0.859400  1.0
  H  H1210  1  0.717200  0.960600  0.859400  1.0
  H  H1211  1  0.037200  0.539400  0.640600  1.0
  H  H1212  1  0.322200  0.960600  0.640600  1.0
  H  H1213  1  0.582900  0.415000  0.268600  1.0
  H  H1214  1  0.148500  0.085000  0.268600  1.0
  H  H1215  1  0.002100  0.415000  0.231400  1.0
  H  H1216  1  0.766500  0.085000  0.231400  1.0
  H  H1217  1  0.417100  0.585000  0.731400  1.0
  H  H1218  1  0.851500  0.915000  0.731400  1.0
  H  H1219  1  0.997900  0.585000  0.768600  1.0
  H  H1220  1  0.233500  0.915000  0.768600  1.0
  H  H1221  1  0.625300  0.334600  0.255800  1.0
  H  H1222  1  0.118900  0.165400  0.255800  1.0
  H  H1223  1  0.040100  0.334600  0.244200  1.0
  H  H1224  1  0.715700  0.165400  0.244200  1.0
  H  H1225  1  0.374700  0.665400  0.744200  1.0
  H  H1226  1  0.881100  0.834600  0.744200  1.0
  H  H1227  1  0.959900  0.665400  0.755800  1.0
  H  H1228  1  0.284300  0.834600  0.755800  1.0
  H  H1229  1  0.661200  0.311400  0.187800  1.0
  H  H1230  1  0.151000  0.188600  0.187800  1.0
  H  H1231  1  0.027400  0.311400  0.312200  1.0
  H  H1232  1  0.660400  0.188600  0.312200  1.0
  H  H1233  1  0.338800  0.688600  0.812200  1.0
  H  H1234  1  0.849000  0.811400  0.812200  1.0
  H  H1235  1  0.972600  0.688600  0.687800  1.0
  H  H1236  1  0.339600  0.811400  0.687800  1.0
  H  H1237  1  0.878100  0.133200  0.192800  1.0
  H  H1238  1  0.929100  0.366800  0.192800  1.0
  H  H1239  1  0.988700  0.133200  0.307200  1.0
  H  H1240  1  0.704100  0.366800  0.307200  1.0
  H  H1241  1  0.121900  0.866800  0.807200  1.0
  H  H1242  1  0.070900  0.633200  0.807200  1.0
  H  H1243  1  0.011300  0.866800  0.692800  1.0
  H  H1244  1  0.295900  0.633200  0.692800  1.0
  H  H1245  1  0.819100  0.206200  0.229400  1.0
  H  H1246  1  0.951500  0.293800  0.229400  1.0
  H  H1247  1  0.974700  0.206200  0.270600  1.0
  H  H1248  1  0.754700  0.293800  0.270600  1.0
  H  H1249  1  0.180900  0.793800  0.770600  1.0
  H  H1250  1  0.048500  0.706200  0.770600  1.0
  H  H1251  1  0.025300  0.793800  0.729400  1.0
  H  H1252  1  0.245300  0.706200  0.729400  1.0
  H  H1253  1  0.936500  0.117200  0.044600  1.0
  H  H1254  1  0.018900  0.382800  0.044600  1.0
  H  H1255  1  0.946300  0.117200  0.455400  1.0
  H  H1256  1  0.598300  0.382800  0.455400  1.0
  H  H1257  1  0.063500  0.882800  0.955400  1.0
  H  H1258  1  0.981100  0.617200  0.955400  1.0
  H  H1259  1  0.053700  0.882800  0.544600  1.0
  H  H1260  1  0.401700  0.617200  0.544600  1.0
  H  H1261  1  0.897900  0.172200  0.996400  1.0
  H  H1262  1  0.105700  0.327800  0.996400  1.0
  H  H1263  1  0.929900  0.172200  0.503600  1.0
  H  H1264  1  0.566500  0.327800  0.503600  1.0
  H  H1265  1  0.102100  0.827800  0.003600  1.0
  H  H1266  1  0.894300  0.672200  0.003600  1.0
  H  H1267  1  0.070100  0.827800  0.496400  1.0
  H  H1268  1  0.433500  0.672200  0.496400  1.0
  H  H1269  1  0.733800  0.395400  0.215600  1.0
  H  H1270  1  0.050600  0.104600  0.215600  1.0
  H  H1271  1  0.870800  0.395400  0.284400  1.0
  H  H1272  1  0.844800  0.104600  0.284400  1.0
  H  H1273  1  0.266200  0.604600  0.784400  1.0
  H  H1274  1  0.949400  0.895400  0.784400  1.0
  H  H1275  1  0.129200  0.604600  0.715600  1.0
  H  H1276  1  0.155200  0.895400  0.715600  1.0
  H  H1277  1  0.715000  0.472200  0.228000  1.0
  H  H1278  1  0.057000  0.027800  0.228000  1.0
  H  H1279  1  0.812800  0.472200  0.272000  1.0
  H  H1280  1  0.915200  0.027800  0.272000  1.0
  H  H1281  1  0.285000  0.527800  0.772000  1.0
  H  H1282  1  0.943000  0.972200  0.772000  1.0
  H  H1283  1  0.187200  0.527800  0.728000  1.0
  H  H1284  1  0.084800  0.972200  0.728000  1.0
  H  H1285  1  0.674500  0.547800  0.216400  1.0
  H  H1286  1  0.109100  0.952200  0.216400  1.0
  H  H1287  1  0.777700  0.547800  0.283600  1.0
  H  H1288  1  0.938700  0.952200  0.283600  1.0
  H  H1289  1  0.325500  0.452200  0.783600  1.0
  H  H1290  1  0.890900  0.047800  0.783600  1.0
  H  H1291  1  0.222300  0.452200  0.716400  1.0
  H  H1292  1  0.061300  0.047800  0.716400  1.0
  H  H1293  1  0.667400  0.571000  0.151800  1.0
  H  H1294  1  0.180800  0.929000  0.151800  1.0
  H  H1295  1  0.761600  0.571000  0.348200  1.0
  H  H1296  1  0.890200  0.929000  0.348200  1.0
  H  H1297  1  0.332600  0.429000  0.848200  1.0
  H  H1298  1  0.819200  0.071000  0.848200  1.0
  H  H1299  1  0.238400  0.429000  0.651800  1.0
  H  H1300  1  0.109800  0.071000  0.651800  1.0
  H  H1301  1  0.691700  0.519800  0.103800  1.0
  H  H1302  1  0.204500  0.980200  0.103800  1.0
  H  H1303  1  0.788500  0.519800  0.396200  1.0
  H  H1304  1  0.815300  0.980200  0.396200  1.0
  H  H1305  1  0.308300  0.480200  0.896200  1.0
  H  H1306  1  0.795500  0.019800  0.896200  1.0
  H  H1307  1  0.211500  0.480200  0.603800  1.0
  H  H1308  1  0.184700  0.019800  0.603800  1.0
  H  H1309  1  0.696300  0.115000  0.167800  1.0
  H  H1310  1  0.135900  0.385000  0.167800  1.0
  H  H1311  1  0.188700  0.115000  0.332200  1.0
  H  H1312  1  0.479100  0.385000  0.332200  1.0
  H  H1313  1  0.303700  0.885000  0.832200  1.0
  H  H1314  1  0.864100  0.615000  0.832200  1.0
  H  H1315  1  0.811300  0.885000  0.667800  1.0
  H  H1316  1  0.520900  0.615000  0.667800  1.0
  H  H1317  1  0.742400  0.237200  0.207800  1.0
  H  H1318  1  0.049800  0.262800  0.207800  1.0
  H  H1319  1  0.020400  0.237200  0.292200  1.0
  H  H1320  1  0.687400  0.262800  0.292200  1.0
  H  H1321  1  0.257600  0.762800  0.792200  1.0
  H  H1322  1  0.950200  0.737200  0.792200  1.0
  H  H1323  1  0.979600  0.762800  0.707800  1.0
  H  H1324  1  0.312600  0.737200  0.707800  1.0
  H  H1325  1  0.800400  0.213600  0.036800  1.0
  H  H1326  1  0.162800  0.286400  0.036800  1.0
  H  H1327  1  0.986000  0.213600  0.463200  1.0
  H  H1328  1  0.550800  0.286400  0.463200  1.0
  H  H1329  1  0.199600  0.786400  0.963200  1.0
  H  H1330  1  0.837200  0.713600  0.963200  1.0
  H  H1331  1  0.014000  0.786400  0.536800  1.0
  H  H1332  1  0.449200  0.713600  0.536800  1.0
  H  H1333  1  0.580700  0.460800  0.213400  1.0
  H  H1334  1  0.205900  0.039200  0.213400  1.0
  H  H1335  1  0.958500  0.460800  0.286600  1.0
  H  H1336  1  0.754900  0.039200  0.286600  1.0
  H  H1337  1  0.419300  0.539200  0.786600  1.0
  H  H1338  1  0.794100  0.960800  0.786600  1.0
  H  H1339  1  0.041500  0.539200  0.713400  1.0
  H  H1340  1  0.245100  0.960800  0.713400  1.0
  H  H1341  1  0.788300  0.068200  0.952200  1.0
  H  H1342  1  0.259500  0.431800  0.952200  1.0
  H  H1343  1  0.143500  0.068200  0.547800  1.0
  H  H1344  1  0.308700  0.431800  0.547800  1.0
  H  H1345  1  0.211700  0.931800  0.047800  1.0
  H  H1346  1  0.740500  0.568200  0.047800  1.0
  H  H1347  1  0.856500  0.931800  0.452200  1.0
  H  H1348  1  0.691300  0.568200  0.452200  1.0
  H  H1349  1  0.845600  0.027000  0.145400  1.0
  H  H1350  1  0.009000  0.473000  0.145400  1.0
  H  H1351  1  0.127400  0.027000  0.354600  1.0
  H  H1352  1  0.518000  0.473000  0.354600  1.0
  H  H1353  1  0.154400  0.973000  0.854600  1.0
  H  H1354  1  0.991000  0.527000  0.854600  1.0
  H  H1355  1  0.872600  0.973000  0.645400  1.0
  H  H1356  1  0.482000  0.527000  0.645400  1.0
  H  H1357  1  0.754500  0.032800  0.169600  1.0
  H  H1358  1  0.075900  0.467200  0.169600  1.0
  H  H1359  1  0.212700  0.032800  0.330400  1.0
  H  H1360  1  0.456900  0.467200  0.330400  1.0
  H  H1361  1  0.245500  0.967200  0.830400  1.0
  H  H1362  1  0.924100  0.532800  0.830400  1.0
  H  H1363  1  0.787300  0.967200  0.669600  1.0
  H  H1364  1  0.543100  0.532800  0.669600  1.0
  H  H1365  1  0.468900  0.161000  0.097800  1.0
  H  H1366  1  0.433300  0.339000  0.097800  1.0
  H  H1367  1  0.370100  0.161000  0.402200  1.0
  H  H1368  1  0.227700  0.339000  0.402200  1.0
  H  H1369  1  0.531100  0.839000  0.902200  1.0
  H  H1370  1  0.566700  0.661000  0.902200  1.0
  H  H1371  1  0.629900  0.839000  0.597800  1.0
  H  H1372  1  0.772300  0.661000  0.597800  1.0
  H  H1373  1  0.478200  0.178800  0.028400  1.0
  H  H1374  1  0.493400  0.321200  0.028400  1.0
  H  H1375  1  0.343000  0.178800  0.471600  1.0
  H  H1376  1  0.185400  0.321200  0.471600  1.0
  H  H1377  1  0.521800  0.821200  0.971600  1.0
  H  H1378  1  0.506600  0.678800  0.971600  1.0
  H  H1379  1  0.657000  0.821200  0.528400  1.0
  H  H1380  1  0.814600  0.678800  0.528400  1.0
  H  H1381  1  0.636400  0.242800  0.027200  1.0
  H  H1382  1  0.336400  0.257200  0.027200  1.0
  H  H1383  1  0.120800  0.242800  0.472800  1.0
  H  H1384  1  0.406400  0.257200  0.472800  1.0
  H  H1385  1  0.363600  0.757200  0.972800  1.0
  H  H1386  1  0.663600  0.742800  0.972800  1.0
  H  H1387  1  0.879200  0.757200  0.527200  1.0
  H  H1388  1  0.593600  0.742800  0.527200  1.0
  H  H1389  1  0.705300  0.126400  0.051400  1.0
  H  H1390  1  0.243300  0.373600  0.051400  1.0
  H  H1391  1  0.168300  0.126400  0.448600  1.0
  H  H1392  1  0.383100  0.373600  0.448600  1.0
  H  H1393  1  0.294700  0.873600  0.948600  1.0
  H  H1394  1  0.756700  0.626400  0.948600  1.0
  H  H1395  1  0.831700  0.873600  0.551400  1.0
  H  H1396  1  0.616900  0.626400  0.551400  1.0
  H  H1397  1  0.621700  0.426600  0.084600  1.0
  H  H1398  1  0.293700  0.073400  0.084600  1.0
  H  H1399  1  0.951700  0.426600  0.415400  1.0
  H  H1400  1  0.632900  0.073400  0.415400  1.0
  H  H1401  1  0.378300  0.573400  0.915400  1.0
  H  H1402  1  0.706300  0.926600  0.915400  1.0
  H  H1403  1  0.048300  0.573400  0.584600  1.0
  H  H1404  1  0.367100  0.926600  0.584600  1.0
  H  H1405  1  0.760100  0.325600  0.114400  1.0
  H  H1406  1  0.125500  0.174400  0.114400  1.0
  H  H1407  1  0.914300  0.325600  0.385600  1.0
  H  H1408  1  0.700100  0.174400  0.385600  1.0
  H  H1409  1  0.239900  0.674400  0.885600  1.0
  H  H1410  1  0.874500  0.825600  0.885600  1.0
  H  H1411  1  0.085700  0.674400  0.614400  1.0
  H  H1412  1  0.299900  0.825600  0.614400  1.0
  N  N1413  1  0.486260  0.384520  0.101960  1.0
  N  N1414  1  0.411780  0.115480  0.101960  1.0
  N  N1415  1  0.129220  0.384520  0.398040  1.0
  N  N1416  1  0.472740  0.115480  0.398040  1.0
  N  N1417  1  0.513740  0.615480  0.898040  1.0
  N  N1418  1  0.588220  0.884520  0.898040  1.0
  N  N1419  1  0.870780  0.615480  0.601960  1.0
  N  N1420  1  0.527260  0.884520  0.601960  1.0
  N  N1421  1  0.434110  0.418180  0.114000  1.0
  N  N1422  1  0.451890  0.081820  0.114000  1.0
  N  N1423  1  0.147710  0.418180  0.386000  1.0
  N  N1424  1  0.466290  0.081820  0.386000  1.0
  N  N1425  1  0.565890  0.581820  0.886000  1.0
  N  N1426  1  0.548110  0.918180  0.886000  1.0
  N  N1427  1  0.852290  0.581820  0.614000  1.0
  N  N1428  1  0.533710  0.918180  0.614000  1.0
  N  N1429  1  0.427380  0.432220  0.181020  1.0
  N  N1430  1  0.391600  0.067780  0.181020  1.0
  N  N1431  1  0.140400  0.432220  0.318980  1.0
  N  N1432  1  0.540620  0.067780  0.318980  1.0
  N  N1433  1  0.572620  0.567780  0.818980  1.0
  N  N1434  1  0.608400  0.932220  0.818980  1.0
  N  N1435  1  0.859600  0.567780  0.681020  1.0
  N  N1436  1  0.459380  0.932220  0.681020  1.0
  N  N1437  1  0.476340  0.399800  0.177520  1.0
  N  N1438  1  0.346140  0.100200  0.177520  1.0
  N  N1439  1  0.123860  0.399800  0.322480  1.0
  N  N1440  1  0.553660  0.100200  0.322480  1.0
  N  N1441  1  0.523660  0.600200  0.822480  1.0
  N  N1442  1  0.653860  0.899800  0.822480  1.0
  N  N1443  1  0.876140  0.600200  0.677520  1.0
  N  N1444  1  0.446340  0.899800  0.677520  1.0
  N  N1445  1  0.396450  0.377840  0.173460  1.0
  N  N1446  1  0.430090  0.122160  0.173460  1.0
  N  N1447  1  0.225710  0.377840  0.326540  1.0
  N  N1448  1  0.447750  0.122160  0.326540  1.0
  N  N1449  1  0.603550  0.622160  0.826540  1.0
  N  N1450  1  0.569910  0.877840  0.826540  1.0
  N  N1451  1  0.774290  0.622160  0.673460  1.0
  N  N1452  1  0.552250  0.877840  0.673460  1.0
  N  N1453  1  0.442300  0.339740  0.167060  1.0
  N  N1454  1  0.390640  0.160260  0.167060  1.0
  N  N1455  1  0.217960  0.339740  0.332940  1.0
  N  N1456  1  0.449100  0.160260  0.332940  1.0
  N  N1457  1  0.557700  0.660260  0.832940  1.0
  N  N1458  1  0.609360  0.839740  0.832940  1.0
  N  N1459  1  0.782040  0.660260  0.667060  1.0
  N  N1460  1  0.550900  0.839740  0.667060  1.0
  N  N1461  1  0.642540  0.213360  0.024160  1.0
  N  N1462  1  0.333300  0.286640  0.024160  1.0
  N  N1463  1  0.144100  0.213360  0.475840  1.0
  N  N1464  1  0.380060  0.286640  0.475840  1.0
  N  N1465  1  0.357460  0.786640  0.975840  1.0
  N  N1466  1  0.666700  0.713360  0.975840  1.0
  N  N1467  1  0.855900  0.786640  0.524160  1.0
  N  N1468  1  0.619940  0.713360  0.524160  1.0
  N  N1469  1  0.600260  0.169000  0.132480  1.0
  N  N1470  1  0.267260  0.331000  0.132480  1.0
  N  N1471  1  0.230740  0.169000  0.367520  1.0
  N  N1472  1  0.401740  0.331000  0.367520  1.0
  N  N1473  1  0.399740  0.831000  0.867520  1.0
  N  N1474  1  0.732740  0.669000  0.867520  1.0
  N  N1475  1  0.769260  0.831000  0.632480  1.0
  N  N1476  1  0.598260  0.669000  0.632480  1.0
  N  N1477  1  0.565860  0.189120  0.067560  1.0
  N  N1478  1  0.366580  0.310880  0.067560  1.0
  N  N1479  1  0.245020  0.189120  0.432440  1.0
  N  N1480  1  0.322540  0.310880  0.432440  1.0
  N  N1481  1  0.434140  0.810880  0.932440  1.0
  N  N1482  1  0.633420  0.689120  0.932440  1.0
  N  N1483  1  0.754980  0.810880  0.567560  1.0
  N  N1484  1  0.677460  0.689120  0.567560  1.0
  N  N1485  1  0.671800  0.126740  0.063060  1.0
  N  N1486  1  0.265140  0.373260  0.063060  1.0
  N  N1487  1  0.201460  0.126740  0.436940  1.0
  N  N1488  1  0.361600  0.373260  0.436940  1.0
  N  N1489  1  0.328200  0.873260  0.936940  1.0
  N  N1490  1  0.734860  0.626740  0.936940  1.0
  N  N1491  1  0.798540  0.873260  0.563060  1.0
  N  N1492  1  0.638400  0.626740  0.563060  1.0
  N  N1493  1  0.645570  0.370060  0.161000  1.0
  N  N1494  1  0.193430  0.129940  0.161000  1.0
  N  N1495  1  0.984370  0.370060  0.339000  1.0
  N  N1496  1  0.676630  0.129940  0.339000  1.0
  N  N1497  1  0.354430  0.629940  0.839000  1.0
  N  N1498  1  0.806570  0.870060  0.839000  1.0
  N  N1499  1  0.015630  0.629940  0.661000  1.0
  N  N1500  1  0.323370  0.870060  0.661000  1.0
  N  N1501  1  0.646590  0.421760  0.095060  1.0
  N  N1502  1  0.258350  0.078240  0.095060  1.0
  N  N1503  1  0.931650  0.421760  0.404940  1.0
  N  N1504  1  0.663410  0.078240  0.404940  1.0
  N  N1505  1  0.353410  0.578240  0.904940  1.0
  N  N1506  1  0.741650  0.921760  0.904940  1.0
  N  N1507  1  0.068350  0.578240  0.595060  1.0
  N  N1508  1  0.336590  0.921760  0.595060  1.0
  N  N1509  1  0.713050  0.345800  0.050900  1.0
  N  N1510  1  0.236050  0.154200  0.050900  1.0
  N  N1511  1  0.941150  0.345800  0.449100  1.0
  N  N1512  1  0.609750  0.154200  0.449100  1.0
  N  N1513  1  0.286950  0.654200  0.949100  1.0
  N  N1514  1  0.763950  0.845800  0.949100  1.0
  N  N1515  1  0.058850  0.654200  0.550900  1.0
  N  N1516  1  0.390250  0.845800  0.550900  1.0
  N  N1517  1  0.746210  0.352520  0.101260  1.0
  N  N1518  1  0.152530  0.147480  0.101260  1.0
  N  N1519  1  0.901270  0.352520  0.398740  1.0
  N  N1520  1  0.699990  0.147480  0.398740  1.0
  N  N1521  1  0.253790  0.647480  0.898740  1.0
  N  N1522  1  0.847470  0.852520  0.898740  1.0
  N  N1523  1  0.098730  0.647480  0.601260  1.0
  N  N1524  1  0.300010  0.852520  0.601260  1.0
  N  N1525  1  0.615690  0.354860  0.110160  1.0
  N  N1526  1  0.274150  0.145140  0.110160  1.0
  N  N1527  1  0.029450  0.354860  0.389840  1.0
  N  N1528  1  0.580710  0.145140  0.389840  1.0
  N  N1529  1  0.384310  0.645140  0.889840  1.0
  N  N1530  1  0.725850  0.854860  0.889840  1.0
  N  N1531  1  0.970550  0.645140  0.610160  1.0
  N  N1532  1  0.419290  0.854860  0.610160  1.0
  N  N1533  1  0.538050  0.288160  0.214340  1.0
  N  N1534  1  0.247610  0.211840  0.214340  1.0
  N  N1535  1  0.173790  0.288160  0.285660  1.0
  N  N1536  1  0.540550  0.211840  0.285660  1.0
  N  N1537  1  0.461950  0.711840  0.785660  1.0
  N  N1538  1  0.752390  0.788160  0.785660  1.0
  N  N1539  1  0.826210  0.711840  0.714340  1.0
  N  N1540  1  0.459450  0.788160  0.714340  1.0
  N  N1541  1  0.645760  0.216680  0.211400  1.0
  N  N1542  1  0.142840  0.283320  0.211400  1.0
  N  N1543  1  0.137560  0.216680  0.288600  1.0
  N  N1544  1  0.573840  0.283320  0.288600  1.0
  N  N1545  1  0.354240  0.783320  0.788600  1.0
  N  N1546  1  0.857160  0.716680  0.788600  1.0
  N  N1547  1  0.862440  0.783320  0.711400  1.0
  N  N1548  1  0.426160  0.716680  0.711400  1.0
  N  N1549  1  0.785180  0.188240  0.163600  1.0
  N  N1550  1  0.051220  0.311760  0.163600  1.0
  N  N1551  1  0.026580  0.188240  0.336400  1.0
  N  N1552  1  0.637020  0.311760  0.336400  1.0
  N  N1553  1  0.214820  0.811760  0.836400  1.0
  N  N1554  1  0.948780  0.688240  0.836400  1.0
  N  N1555  1  0.973420  0.811760  0.663600  1.0
  N  N1556  1  0.362980  0.688240  0.663600  1.0
  N  N1557  1  0.831620  0.152500  0.158660  1.0
  N  N1558  1  0.009720  0.347500  0.158660  1.0
  N  N1559  1  0.015880  0.152500  0.341340  1.0
  N  N1560  1  0.642780  0.347500  0.341340  1.0
  N  N1561  1  0.168380  0.847500  0.841340  1.0
  N  N1562  1  0.990280  0.652500  0.841340  1.0
  N  N1563  1  0.984120  0.847500  0.658660  1.0
  N  N1564  1  0.357220  0.652500  0.658660  1.0
  N  N1565  1  0.858130  0.138940  0.085800  1.0
  N  N1566  1  0.056070  0.361060  0.085800  1.0
  N  N1567  1  0.002930  0.138940  0.414200  1.0
  N  N1568  1  0.582870  0.361060  0.414200  1.0
  N  N1569  1  0.141870  0.861060  0.914200  1.0
  N  N1570  1  0.943930  0.638940  0.914200  1.0
  N  N1571  1  0.997070  0.861060  0.585800  1.0
  N  N1572  1  0.417130  0.638940  0.585800  1.0
  N  N1573  1  0.809660  0.173680  0.084000  1.0
  N  N1574  1  0.106340  0.326320  0.084000  1.0
  N  N1575  1  0.016660  0.173680  0.416000  1.0
  N  N1576  1  0.567340  0.326320  0.416000  1.0
  N  N1577  1  0.190340  0.826320  0.916000  1.0
  N  N1578  1  0.893660  0.673680  0.916000  1.0
  N  N1579  1  0.983340  0.826320  0.584000  1.0
  N  N1580  1  0.432660  0.673680  0.584000  1.0
  N  N1581  1  0.674720  0.195940  0.089620  1.0
  N  N1582  1  0.235660  0.304060  0.089620  1.0
  N  N1583  1  0.129340  0.195940  0.410380  1.0
  N  N1584  1  0.460280  0.304060  0.410380  1.0
  N  N1585  1  0.325280  0.804060  0.910380  1.0
  N  N1586  1  0.764340  0.695940  0.910380  1.0
  N  N1587  1  0.870660  0.804060  0.589620  1.0
  N  N1588  1  0.539720  0.695940  0.589620  1.0
  N  N1589  1  0.572950  0.254600  0.095900  1.0
  N  N1590  1  0.331150  0.245400  0.095900  1.0
  N  N1591  1  0.172450  0.254600  0.404100  1.0
  N  N1592  1  0.423450  0.245400  0.404100  1.0
  N  N1593  1  0.427050  0.745400  0.904100  1.0
  N  N1594  1  0.668850  0.754600  0.904100  1.0
  N  N1595  1  0.827550  0.745400  0.595900  1.0
  N  N1596  1  0.576550  0.754600  0.595900  1.0
  N  N1597  1  0.761040  0.127000  0.146320  1.0
  N  N1598  1  0.092640  0.373000  0.146320  1.0
  N  N1599  1  0.111960  0.127000  0.353680  1.0
  N  N1600  1  0.534360  0.373000  0.353680  1.0
  N  N1601  1  0.238960  0.873000  0.853680  1.0
  N  N1602  1  0.907360  0.627000  0.853680  1.0
  N  N1603  1  0.888040  0.873000  0.646320  1.0
  N  N1604  1  0.465640  0.627000  0.646320  1.0
  N  N1605  1  0.812600  0.095620  0.140180  1.0
  N  N1606  1  0.047220  0.404380  0.140180  1.0
  N  N1607  1  0.091780  0.095620  0.359820  1.0
  N  N1608  1  0.548400  0.404380  0.359820  1.0
  N  N1609  1  0.187400  0.904380  0.859820  1.0
  N  N1610  1  0.952780  0.595620  0.859820  1.0
  N  N1611  1  0.908220  0.904380  0.640180  1.0
  N  N1612  1  0.451600  0.595620  0.640180  1.0
  N  N1613  1  0.705820  0.292780  0.116180  1.0
  N  N1614  1  0.178000  0.207220  0.116180  1.0
  N  N1615  1  0.001400  0.292780  0.383820  1.0
  N  N1616  1  0.614780  0.207220  0.383820  1.0
  N  N1617  1  0.294180  0.707220  0.883820  1.0
  N  N1618  1  0.822000  0.792780  0.883820  1.0
  N  N1619  1  0.998600  0.707220  0.616180  1.0
  N  N1620  1  0.385220  0.792780  0.616180  1.0
