
#######################################################################
#
#                 Cambridge Crystallographic Data Centre
#                                CCDC 
#
#######################################################################
#
# If this CIF has been generated from an entry in the Cambridge 
# Structural Database, then it will include bibliographic, chemical, 
# crystal, experimental, refinement or atomic coordinate data resulting 
# from the CCDC's data processing and validation procedures.
#
#######################################################################

data_FEQQEX
_chemical_formula_moiety         'C52 H36 Cu2 N4 O6,2(C1 H1 Cl3)'
_chemical_name_systematic        
"bis(\m~2~-N,N'-bis(Salicylidene)-4,4'-diaminodiphenyl ether-N,O)-di-copper(ii) chloroform solvate"
_symmetry_cell_setting           monoclinic
_symmetry_space_group_name_H-M   'C 2'
_symmetry_Int_Tables_number      5
_space_group_name_Hall           'C 2y'
loop_
_symmetry_equiv_pos_site_id
_symmetry_equiv_pos_as_xyz
1 x,y,z
2 -x,y,-z
3 1/2+x,1/2+y,z
4 1/2-x,1/2+y,-z
_cell_length_a                   17.198(3)
_cell_length_b                   14.079(2)
_cell_length_c                   13.644(3)
_cell_angle_alpha                90
_cell_angle_beta                 112.801(11)
_cell_angle_gamma                90
_cell_volume                     3045.47
_cell_formula_units_Z            2
loop_
_atom_site_label
_atom_site_type_symbol
_atom_site_fract_x
_atom_site_fract_y
_atom_site_fract_z
Cu1 Cu 0.61058(4) -0.06574(7) 0.47379(4)
O1 O 0.6659(3) -0.1382(3) 0.5991(3)
O2 O 0.6069(3) 0.0390(3) 0.5599(3)
O3 O 0.3151(3) -0.1515(5) -0.0282(4)
N1 N 0.5526(3) -0.1764(4) 0.3887(4)
N2 N 0.6250(3) 0.0131(4) 0.3637(4)
C1 C 0.6607(4) -0.2285(4) 0.6135(5)
C2 C 0.7041(5) -0.2663(6) 0.7179(5)
H1 H 0.7348(5) -0.2262(6) 0.7736(5)
C3 C 0.7003(5) -0.3617(6) 0.7362(6)
H2 H 0.7299(5) -0.3849(6) 0.8044(6)
C4 C 0.6544(5) -0.4242(5) 0.6575(7)
H3 H 0.6527(5) -0.4884(5) 0.6727(7)
C5 C 0.6108(5) -0.3905(5) 0.5551(6)
H4 H 0.5799(5) -0.4319(5) 0.5008(6)
C6 C 0.6138(4) -0.2906(5) 0.5337(6)
C7 C 0.5622(4) -0.2625(4) 0.4275(5)
H5 H 0.5325(4) -0.3105(4) 0.3813(5)
C8 C 0.4956(4) -0.1677(4) 0.2802(4)
C9 C 0.4988(4) -0.2293(5) 0.2030(5)
H6 H 0.5402(4) -0.2759(5) 0.2195(5)
C10 C 0.4392(4) -0.2203(6) 0.1007(5)
H7 H 0.4408(4) -0.2618(6) 0.0486(5)
C11 C 0.3793(4) -0.1539(6) 0.0745(5)
C12 C 0.3767(4) -0.0901(5) 0.1498(5)
H8 H 0.3358(4) -0.0428(5) 0.1304(5)
C13 C 0.4337(4) -0.0955(5) 0.2529(5)
H9 H 0.4318(4) -0.0527(5) 0.3038(5)
C14 C 0.6079(4) 0.1285(5) 0.5388(5)
C15 C 0.5964(4) 0.1961(5) 0.6105(5)
H10 H 0.5873(4) 0.1748(5) 0.6697(5)
C16 C 0.5986(4) 0.2917(5) 0.5929(6)
H11 H 0.5905(4) 0.3341(5) 0.6403(6)
C17 C 0.6130(5) 0.3276(5) 0.5043(7)
H12 H 0.6159(5) 0.3926(5) 0.4941(7)
C18 C 0.6223(4) 0.2642(5) 0.4350(6)
H13 H 0.6309(4) 0.2872(5) 0.3761(6)
C19 C 0.6196(4) 0.1652(5) 0.4480(5)
C20 C 0.6294(4) 0.1061(4) 0.3696(5)
H14 H 0.6403(4) 0.1369(4) 0.3159(5)
C21 C 0.6383(4) -0.0296(4) 0.2761(4)
C22 C 0.5940(4) 0.0036(5) 0.1720(4)
H15 H 0.5556(4) 0.0532(5) 0.1595(4)
C23 C 0.6079(4) -0.0380(5) 0.0883(5)
H16 H 0.5788(4) -0.0163(5) 0.0193(5)
C24 C 0.3353(4) -0.1114(5) -0.1070(5)
C25 C 0.2936(4) -0.1475(5) -0.2107(5)
H17 H 0.2573(4) -0.1991(5) -0.2235(5)
C26 C 0.6920(4) -0.1045(5) 0.2917(5)
H18 H 0.7199(4) -0.1273(5) 0.3605(5)
C24A C 0.6647(4) -0.1114(5) 0.1070(5)
O3A O 0.6849(3) -0.1515(5) 0.0282(4)
C11A C 0.6207(4) -0.1539(6) -0.0745(5)
C10A C 0.5608(4) -0.2203(6) -0.1007(5)
C9A C 0.5012(4) -0.2293(5) -0.2030(5)
C8A C 0.5044(4) -0.1677(4) -0.2802(4)
N1A N 0.4474(3) -0.1764(4) -0.3887(4)
Cu1A Cu 0.38942(4) -0.06574(7) -0.47379(4)
O1A O 0.3341(3) -0.1382(3) -0.5991(3)
C1A C 0.3393(4) -0.2285(4) -0.6135(5)
C2A C 0.2959(5) -0.2663(6) -0.7179(5)
H1A H 0.2652(5) -0.2262(6) -0.7736(5)
C3A C 0.2997(5) -0.3617(6) -0.7362(6)
H2A H 0.2701(5) -0.3849(6) -0.8044(6)
C4A C 0.3456(5) -0.4242(5) -0.6575(7)
H3A H 0.3473(5) -0.4884(5) -0.6727(7)
C5A C 0.3892(5) -0.3905(5) -0.5551(6)
H4A H 0.4201(5) -0.4319(5) -0.5008(6)
C6A C 0.3862(4) -0.2906(5) -0.5337(6)
C7A C 0.4378(4) -0.2625(4) -0.4275(5)
H5A H 0.4675(4) -0.3105(4) -0.3813(5)
O2A O 0.3931(3) 0.0390(3) -0.5599(3)
C14A C 0.3921(4) 0.1285(5) -0.5388(5)
C15A C 0.4036(4) 0.1961(5) -0.6105(5)
H10A H 0.4127(4) 0.1748(5) -0.6697(5)
C16A C 0.4014(4) 0.2917(5) -0.5929(6)
H11A H 0.4095(4) 0.3341(5) -0.6403(6)
C17A C 0.3870(5) 0.3276(5) -0.5043(7)
H12A H 0.3841(5) 0.3926(5) -0.4941(7)
C18A C 0.3777(4) 0.2642(5) -0.4350(6)
H13A H 0.3691(4) 0.2872(5) -0.3761(6)
C19A C 0.3804(4) 0.1652(5) -0.4480(5)
C20A C 0.3706(4) 0.1061(4) -0.3696(5)
N2A N 0.3750(3) 0.0131(4) -0.3637(4)
C21A C 0.3617(4) -0.0296(4) -0.2761(4)
C22A C 0.4060(4) 0.0036(5) -0.1720(4)
H15A H 0.4444(4) 0.0532(5) -0.1595(4)
C23A C 0.3921(4) -0.0380(5) -0.0883(5)
H16A H 0.4212(4) -0.0163(5) -0.0193(5)
C26A C 0.3080(4) -0.1045(5) -0.2917(5)
H18A H 0.2801(4) -0.1273(5) -0.3605(5)
H14A H 0.3597(4) 0.1369(4) -0.3159(5)
C13A C 0.5663(4) -0.0955(5) -0.2529(5)
C12A C 0.6233(4) -0.0901(5) -0.1498(5)
H8A H 0.6642(4) -0.0428(5) -0.1304(5)
H9A H 0.5682(4) -0.0527(5) -0.3038(5)
H6A H 0.4598(4) -0.2759(5) -0.2195(5)
H7A H 0.5592(4) -0.2618(6) -0.0486(5)
C25A C 0.7064(4) -0.1475(5) 0.2107(5)
H17A H 0.7427(4) -0.1991(5) 0.2235(5)
Cl1 Cl 0.7908(3) 0.0954(2) 0.8311(3)
Cl2 Cl 0.8205(2) 0.0653(4) 0.6419(3)
Cl3 Cl 0.8725(3) -0.0740(4) 0.8099(3)
C27 C 0.7968(6) 0.0087(8) 0.7418(7)
loop_
_geom_bond_atom_site_label_1
_geom_bond_atom_site_label_2
_geom_bond_site_symmetry_1
_geom_bond_site_symmetry_2
Cu1 O1 1_555 1_555
Cl1 C27 1_555 1_555
Cl2 C27 1_555 1_555
Cl3 C27 1_555 1_555
O1 C1 1_555 1_555
O2 Cu1 1_555 1_555
O3 C11 1_555 1_555
N1 Cu1 1_555 1_555
N2 Cu1 1_555 1_555
C1 C2 1_555 1_555
C2 H1 1_555 1_555
C3 C2 1_555 1_555
H2 C3 1_555 1_555
C4 C3 1_555 1_555
H3 C4 1_555 1_555
C5 C4 1_555 1_555
H4 C5 1_555 1_555
C6 C1 1_555 1_555
C7 N1 1_555 1_555
H5 C7 1_555 1_555
C8 N1 1_555 1_555
C9 C8 1_555 1_555
H6 C9 1_555 1_555
C10 C9 1_555 1_555
H7 C10 1_555 1_555
C11 C10 1_555 1_555
C12 C11 1_555 1_555
H8 C12 1_555 1_555
C13 C8 1_555 1_555
H9 C13 1_555 1_555
C14 O2 1_555 1_555
C15 C14 1_555 1_555
H10 C15 1_555 1_555
C16 C15 1_555 1_555
H11 C16 1_555 1_555
C17 C16 1_555 1_555
H12 C17 1_555 1_555
C18 C17 1_555 1_555
H13 C18 1_555 1_555
C19 C14 1_555 1_555
C20 N2 1_555 1_555
H14 C20 1_555 1_555
C21 N2 1_555 1_555
C22 C21 1_555 1_555
H15 C22 1_555 1_555
C23 C22 1_555 1_555
H16 C23 1_555 1_555
C24 O3 1_555 1_555
C25 C24 1_555 1_555
H17 C25 1_555 1_555
C26 C21 1_555 1_555
H18 C26 1_555 1_555
C24A C23 1_555 1_555
O3A C24A 1_555 1_555
C11A O3A 1_555 1_555
C10A C11A 1_555 1_555
C9A C10A 1_555 1_555
C8A C9A 1_555 1_555
N1A C8A 1_555 1_555
Cu1A N1A 1_555 1_555
O1A Cu1A 1_555 1_555
C1A O1A 1_555 1_555
C2A C1A 1_555 1_555
H1A C2A 1_555 1_555
C3A C2A 1_555 1_555
H2A C3A 1_555 1_555
C4A C3A 1_555 1_555
H3A C4A 1_555 1_555
C5A C4A 1_555 1_555
H4A C5A 1_555 1_555
C6A C1A 1_555 1_555
C7A N1A 1_555 1_555
H5A C7A 1_555 1_555
O2A Cu1A 1_555 1_555
C14A O2A 1_555 1_555
C15A C14A 1_555 1_555
H10A C15A 1_555 1_555
C16A C15A 1_555 1_555
H11A C16A 1_555 1_555
C17A C16A 1_555 1_555
H12A C17A 1_555 1_555
C18A C17A 1_555 1_555
H13A C18A 1_555 1_555
C19A C14A 1_555 1_555
C20A C19A 1_555 1_555
N2A Cu1A 1_555 1_555
C21A N2A 1_555 1_555
C22A C21A 1_555 1_555
H15A C22A 1_555 1_555
C23A C24 1_555 1_555
H16A C23A 1_555 1_555
C26A C25 1_555 1_555
H18A C26A 1_555 1_555
H14A C20A 1_555 1_555
C13A C8A 1_555 1_555
C12A C11A 1_555 1_555
H8A C12A 1_555 1_555
H9A C13A 1_555 1_555
H6A C9A 1_555 1_555
H7A C10A 1_555 1_555
C25A C26 1_555 1_555
H17A C25A 1_555 1_555
C5 C6 1_555 1_555
C6 C7 1_555 1_555
C12 C13 1_555 1_555
C18 C19 1_555 1_555
C19 C20 1_555 1_555
C24A C25A 1_555 1_555
C5A C6A 1_555 1_555
C6A C7A 1_555 1_555
C18A C19A 1_555 1_555
C20A N2A 1_555 1_555
C21A C26A 1_555 1_555
C22A C23A 1_555 1_555
C13A C12A 1_555 1_555

#END
