
#######################################################################
#
#                 Cambridge Crystallographic Data Centre
#                                CCDC 
#
#######################################################################
#
# If this CIF has been generated from an entry in the Cambridge 
# Structural Database, then it will include bibliographic, chemical, 
# crystal, experimental, refinement or atomic coordinate data resulting 
# from the CCDC's data processing and validation procedures.
#
#######################################################################

data_FESJES
_chemical_formula_moiety         
'C108 H78 Br6 O12 P6 Pd3 Sn2 4-,4(Cs1 1+),5(C3 H7 N1 O1),C4 H8 O1,2(H2 O1)'
_chemical_name_systematic        
'Tetra-cesium hexakis(\m~2~-4-diphenylphosphanyl-catecholato)-hexabromo-tri-palladium-di-tin dimethylformamide tetrahydrofuran solvate dihydrate'
_symmetry_cell_setting           triclinic
_symmetry_space_group_name_H-M   'P -1'
_symmetry_Int_Tables_number      2
_space_group_name_Hall           '-P 1'
loop_
_symmetry_equiv_pos_site_id
_symmetry_equiv_pos_as_xyz
1 x,y,z
2 -x,-y,-z
_cell_length_a                   18.0134(3)
_cell_length_b                   18.5299(3)
_cell_length_c                   28.63880(10)
_cell_angle_alpha                99.494(1)
_cell_angle_beta                 98.315(1)
_cell_angle_gamma                119.077(1)
_cell_volume                     7954.96
_exptl_crystal_colour            red-orange
_exptl_crystal_description       block
_cell_formula_units_Z            2
loop_
_atom_site_label
_atom_site_type_symbol
_atom_site_fract_x
_atom_site_fract_y
_atom_site_fract_z
Cs1 Cs 0.1757(1) 0.2833(1) 0.25751(6)
Cs2 Cs 0.0300(1) 0.14986(9) -0.01037(6)
Cs3 Cs 0.2860(1) 0.10724(10) 0.24969(6)
Cs4 Cs -0.0122(2) 0.0000(2) 0.2183(1)
Cs5 Cs 0.1741(8) 0.1542(9) 0.4998(4)
Sn1 Sn 0.1683(1) 0.1497(1) 0.36499(6)
Sn2 Sn 0.13834(10) 0.11281(9) 0.11899(6)
Pd1 Pd -0.2399(1) 0.1090(1) 0.20914(6)
Pd2 Pd 0.5249(1) 0.5327(1) 0.29431(8)
Pd3 Pd 0.1237(1) -0.25027(10) 0.21231(6)
Br1 Br -0.2323(2) -0.0208(1) 0.20148(9)
Br2 Br -0.2674(2) 0.2255(2) 0.21682(10)
Br3 Br 0.3744(2) 0.5027(2) 0.2797(1)
Br4 Br 0.6827(2) 0.6053(2) 0.3128(1)
Br5 Br 0.2677(1) -0.1175(1) 0.23560(8)
Br6 Br -0.0109(2) -0.3886(2) 0.18796(10)
P1 P -0.2335(4) 0.1119(4) 0.2913(2)
P2 P -0.2554(4) 0.0872(3) 0.1244(2)
P3 P 0.5334(4) 0.5400(4) 0.3773(3)
P4 P 0.5173(4) 0.5113(4) 0.2108(3)
P5 P 0.1380(4) -0.2386(4) 0.2958(2)
P6 P 0.1304(4) -0.2584(3) 0.1316(2)
O1 O 0.231(1) 0.107(1) 0.4081(5)
O2 O 0.1452(10) 0.0450(8) 0.3117(5)
O3 O 0.063(1) 0.092(1) 0.3942(6)
O4 O 0.0782(9) 0.1602(9) 0.3173(5)
O5 O 0.221(1) 0.262(1) 0.4197(6)
O6 O 0.267(1) 0.2280(10) 0.3377(6)
O7 O 0.1954(9) 0.0623(8) 0.0778(5)
O8 O 0.1253(9) 0.0199(8) 0.1540(5)
O9 O 0.1753(9) 0.2100(8) 0.0866(5)
O10 O 0.2451(9) 0.2061(8) 0.1741(5)
O11 O 0.0220(9) 0.0381(8) 0.0640(5)
O12 O 0.0573(8) 0.1375(8) 0.1549(5)
C1 C -0.0048(8) 0.0958(10) 0.3713(5)
C2 C 0.0016(7) 0.1292(9) 0.3308(5)
C3 C -0.0688(9) 0.1325(9) 0.3061(4)
C4 C -0.1457(8) 0.1024(10) 0.3218(5)
C5 C -0.1522(8) 0.069(1) 0.3623(6)
C6 C -0.082(1) 0.066(1) 0.3870(5)
C7 C -0.3413(9) 0.0231(10) 0.2869(7)
C8 C -0.412(1) 0.030(1) 0.2677(7)
C9 C -0.498(1) -0.036(1) 0.2627(8)
C10 C -0.5127(10) -0.109(1) 0.2770(8)
C11 C -0.442(1) -0.116(1) 0.2962(8)
C12 C -0.356(1) -0.050(1) 0.3012(7)
C13 C -0.216(1) 0.207(1) 0.3342(7)
C14 C -0.147(1) 0.287(1) 0.3358(7)
C15 C -0.123(1) 0.3587(10) 0.3735(8)
C16 C -0.168(2) 0.350(1) 0.4095(7)
C17 C -0.238(2) 0.269(2) 0.4078(7)
C18 C -0.262(1) 0.198(1) 0.3702(8)
C19 C 0.2904(9) 0.3266(9) 0.4105(6)
C20 C 0.3139(10) 0.3111(7) 0.3673(5)
C21 C 0.385(1) 0.3774(10) 0.3568(5)
C22 C 0.4327(9) 0.4592(8) 0.3895(6)
C23 C 0.409(1) 0.4747(8) 0.4327(5)
C24 C 0.338(1) 0.408(1) 0.4432(5)
C25 C 0.6161(10) 0.522(1) 0.4091(6)
C26 C 0.704(1) 0.5887(8) 0.4270(7)
C27 C 0.7669(8) 0.574(1) 0.4504(7)
C28 C 0.742(1) 0.493(1) 0.4560(7)
C29 C 0.655(1) 0.4260(9) 0.4381(7)
C30 C 0.5917(8) 0.4403(9) 0.4147(6)
C31 C 0.561(1) 0.6442(9) 0.4138(6)
C32 C 0.587(1) 0.668(1) 0.4649(6)
C33 C 0.612(1) 0.750(1) 0.4914(5)
C34 C 0.611(1) 0.8081(10) 0.4667(8)
C35 C 0.585(1) 0.785(1) 0.4155(8)
C36 C 0.560(1) 0.703(1) 0.3891(5)
C37 C 0.2104(10) 0.0280(7) 0.3848(5)
C38 C 0.1688(9) -0.0031(8) 0.3347(5)
C39 C 0.1481(9) -0.0841(8) 0.3089(4)
C40 C 0.1689(10) -0.1339(7) 0.3331(5)
C41 C 0.210(1) -0.1027(8) 0.3832(5)
C42 C 0.2312(10) -0.0218(9) 0.4090(4)
C43 C 0.0512(10) -0.309(1) 0.3189(6)
C44 C -0.033(1) -0.326(1) 0.3003(6)
C45 C -0.1010(9) -0.373(1) 0.3209(8)
C46 C -0.084(1) -0.404(1) 0.3601(8)
C47 C 0.000(1) -0.387(1) 0.3786(6)
C48 C 0.068(1) -0.339(1) 0.3580(7)
C49 C 0.2235(9) -0.2635(10) 0.3120(6)
C50 C 0.2010(8) -0.3472(9) 0.2907(6)
C51 C 0.263(1) -0.3708(8) 0.2986(6)
C52 C 0.348(1) -0.311(1) 0.3277(7)
C53 C 0.3709(8) -0.2270(9) 0.3490(6)
C54 C 0.3085(10) -0.2034(7) 0.3411(6)
C55 C -0.0435(7) 0.0449(8) 0.0767(5)
C56 C -0.0246(6) 0.0993(8) 0.1224(4)
C57 C -0.0907(8) 0.1083(8) 0.1374(4)
C58 C -0.1758(7) 0.0629(8) 0.1066(5)
C59 C -0.1948(6) 0.0084(8) 0.0609(4)
C60 C -0.1287(9) -0.0006(8) 0.0460(4)
C61 C -0.2444(9) 0.1725(8) 0.0969(5)
C62 C -0.3069(8) 0.1963(8) 0.0962(5)
C63 C -0.2974(9) 0.2638(9) 0.0769(6)
C64 C -0.225(1) 0.3074(8) 0.0583(6)
C65 C -0.1628(8) 0.2836(9) 0.0589(6)
C66 C -0.1723(8) 0.2161(9) 0.0783(6)
C67 C -0.3663(8) -0.0012(8) 0.0912(5)
C68 C -0.3978(9) -0.0145(9) 0.0412(5)
C69 C -0.484(1) -0.081(1) 0.0165(4)
C70 C -0.5379(8) -0.1332(10) 0.0418(6)
C71 C -0.5065(10) -0.120(1) 0.0918(6)
C72 C -0.421(1) -0.054(1) 0.1165(4)
C73 C 0.2513(7) 0.2815(7) 0.1147(4)
C74 C 0.2891(8) 0.2790(7) 0.1601(5)
C75 C 0.3683(8) 0.3503(8) 0.1895(4)
C76 C 0.4098(7) 0.4241(7) 0.1736(5)
C77 C 0.3721(9) 0.4266(7) 0.1283(5)
C78 C 0.2928(9) 0.3553(9) 0.0988(4)
C79 C 0.597(1) 0.484(1) 0.1941(7)
C80 C 0.683(1) 0.5485(8) 0.1994(7)
C81 C 0.7458(9) 0.527(1) 0.1924(8)
C82 C 0.722(1) 0.441(1) 0.1801(8)
C83 C 0.635(1) 0.3766(10) 0.1749(8)
C84 C 0.5725(9) 0.3981(10) 0.1819(7)
C85 C 0.545(1) 0.604(1) 0.1868(8)
C86 C 0.564(1) 0.607(1) 0.1415(8)
C87 C 0.582(1) 0.678(2) 0.1242(7)
C88 C 0.561(2) 0.743(1) 0.1976(9)
C89 C 0.581(2) 0.746(1) 0.1523(10)
C90 C 0.543(1) 0.672(1) 0.2148(6)
C91 C 0.1844(8) -0.0107(6) 0.0894(4)
C92 C 0.1478(8) -0.0319(7) 0.1284(4)
C93 C 0.1336(8) -0.1064(8) 0.1409(4)
C94 C 0.1560(9) -0.1597(7) 0.1143(5)
C95 C 0.1925(9) -0.1385(7) 0.0752(5)
C96 C 0.2067(8) -0.0640(8) 0.0628(4)
C97 C 0.0290(8) -0.3361(9) 0.0838(5)
C98 C -0.033(1) -0.3131(8) 0.0733(6)
C99 C -0.1169(10) -0.374(1) 0.0426(7)
C100 C -0.1380(9) -0.457(1) 0.0224(6)
C101 C -0.076(1) -0.4802(8) 0.0329(6)
C102 C 0.0079(10) -0.4196(10) 0.0636(6)
C103 C 0.2112(8) -0.2886(9) 0.1213(5)
C104 C 0.2590(10) -0.2957(10) 0.1612(4)
C105 C 0.3217(9) -0.317(1) 0.1551(5)
C106 C 0.3366(9) -0.332(1) 0.1090(6)
C107 C 0.2888(10) -0.3250(10) 0.0690(4)
C108 C 0.2261(9) -0.3032(10) 0.0751(4)
H1 H -0.403(1) 0.078(1) 0.2578(5)
H2 H -0.547(1) -0.0332(10) 0.2495(8)
H3 H 0.7871(7) 0.4845(8) 0.4717(4)
H4 H 0.6401(8) 0.3712(8) 0.4418(4)
H5 H 0.533(1) 0.394(1) 0.4026(6)
H6 H 0.589(1) 0.629(1) 0.4816(8)
H7 H -0.2528(10) -0.0225(7) 0.0400(5)
H8 H -0.1417(8) -0.0378(9) 0.0150(5)
H9 H -0.5966(7) -0.1766(7) 0.0248(4)
H10 H -0.3986(6) -0.0457(8) 0.1501(4)
H11 H 0.3943(6) 0.3482(8) 0.2204(4)
H12 H 0.400(1) 0.4768(9) 0.1177(6)
H13 H 0.266(1) 0.357(1) 0.0683(5)
H14 H 0.5647(7) 0.5621(9) 0.1226(5)
H15 H 0.3538(10) -0.3225(7) 0.1828(5)
H16 H 0.3791(8) -0.3471(9) 0.1053(5)
H17 H 0.2991(9) -0.3351(9) 0.0380(6)
O13 O 0.026(1) 0.285(1) 0.0658(8)
N1 N 0.119(1) 0.404(1) 0.1285(9)
C109 C 0.080(2) 0.321(2) 0.108(1)
C110 C 0.183(2) 0.442(2) 0.175(1)
C111 C 0.102(2) 0.466(2) 0.109(1)
H18 H 0.1581(10) 0.4206(7) 0.1995(5)
H19 H 0.2315(8) 0.4365(7) 0.1728(5)
H20 H 0.0826(9) 0.4921(8) 0.1304(5)
H21 H 0.0926(8) 0.2881(7) 0.1270(4)
O14 O 0.459(1) 0.282(1) 0.2790(7)
N2 N 0.599(1) 0.324(1) 0.2951(8)
C112 C 0.535(2) 0.335(2) 0.2868(9)
C113 C 0.694(2) 0.395(2) 0.309(1)
C114 C 0.587(2) 0.239(2) 0.300(1)
H22 H 0.732(1) 0.374(1) 0.3152(5)
O15 O 0.026(2) 0.310(2) 0.235(1)
N3 N -0.030(2) 0.399(1) 0.238(1)
C115 C 0.024(4) 0.381(4) 0.263(2)
C116 C -0.060(2) 0.448(2) 0.264(1)
C117 C -0.060(3) 0.381(2) 0.188(1)
H23 H -0.0399(9) 0.4599(9) 0.2978(6)
O16 O 0.407(2) 0.092(2) 0.188(1)
C118 C 0.436(3) 0.159(2) 0.160(2)
C119 C 0.446(3) 0.129(3) 0.117(2)
C120 C 0.449(3) 0.052(2) 0.118(1)
C121 C 0.417(2) 0.027(2) 0.163(2)
H24 H 0.3933(10) 0.1722(7) 0.1520(5)
H25 H 0.4909(8) 0.2059(7) 0.1765(5)
H26 H 0.5045(9) 0.0621(8) 0.1185(5)
H27 H 0.4580(8) 0.0213(7) 0.1810(4)
H28 H 0.3609(10) -0.0248(9) 0.1508(4)
O17 O 0.178(4) 0.424(3) 0.344(2)
N4 N 0.249(3) 0.555(3) 0.408(2)
C122 C 0.240(5) 0.483(4) 0.370(3)
C123 C 0.178(5) 0.558(5) 0.420(3)
C124 C 0.320(4) 0.625(4) 0.437(2)
H29 H 0.1771(7) 0.5570(9) 0.4517(5)
H30 H 0.1771(6) 0.6053(8) 0.4124(4)
O18 O 0.112(3) 0.181(3) -0.100(2)
loop_
_geom_bond_atom_site_label_1
_geom_bond_atom_site_label_2
_geom_bond_site_symmetry_1
_geom_bond_site_symmetry_2
Sn1 O1 1_555 1_555
Sn2 O7 1_555 1_555
Pd1 Br1 1_555 1_555
Pd2 Br3 1_555 1_555
Pd3 Br5 1_555 1_555
Br2 Pd1 1_555 1_555
Br4 Pd2 1_555 1_555
Br6 Pd3 1_555 1_555
P1 Pd1 1_555 1_555
P2 Pd1 1_555 1_555
P3 Pd2 1_555 1_555
P4 Pd2 1_555 1_555
P5 Pd3 1_555 1_555
P6 Pd3 1_555 1_555
O1 C37 1_555 1_555
O2 Sn1 1_555 1_555
O3 Sn1 1_555 1_555
O4 Sn1 1_555 1_555
O5 Sn1 1_555 1_555
O6 Sn1 1_555 1_555
O7 C91 1_555 1_555
O8 Sn2 1_555 1_555
O9 Sn2 1_555 1_555
O10 Sn2 1_555 1_555
O11 Sn2 1_555 1_555
O12 Sn2 1_555 1_555
C1 O3 1_555 1_555
C2 O4 1_555 1_555
C3 C2 1_555 1_555
C4 P1 1_555 1_555
C5 C4 1_555 1_555
C6 C1 1_555 1_555
C7 P1 1_555 1_555
C8 C7 1_555 1_555
C9 C8 1_555 1_555
C10 C9 1_555 1_555
C11 C10 1_555 1_555
C12 C7 1_555 1_555
C13 P1 1_555 1_555
C14 C13 1_555 1_555
C15 C14 1_555 1_555
C16 C15 1_555 1_555
C17 C16 1_555 1_555
C18 C13 1_555 1_555
C19 O5 1_555 1_555
C20 O6 1_555 1_555
C21 C20 1_555 1_555
C22 P3 1_555 1_555
C23 C22 1_555 1_555
C24 C19 1_555 1_555
C25 P3 1_555 1_555
C26 C25 1_555 1_555
C27 C26 1_555 1_555
C28 C27 1_555 1_555
C29 C28 1_555 1_555
C30 C25 1_555 1_555
C31 P3 1_555 1_555
C32 C31 1_555 1_555
C33 C32 1_555 1_555
C34 C33 1_555 1_555
C35 C34 1_555 1_555
C36 C31 1_555 1_555
C37 C38 1_555 1_555
C38 O2 1_555 1_555
C39 C38 1_555 1_555
C40 P5 1_555 1_555
C41 C40 1_555 1_555
C42 C37 1_555 1_555
C43 P5 1_555 1_555
C44 C43 1_555 1_555
C45 C44 1_555 1_555
C46 C45 1_555 1_555
C47 C46 1_555 1_555
C48 C43 1_555 1_555
C49 P5 1_555 1_555
C50 C49 1_555 1_555
C51 C50 1_555 1_555
C52 C51 1_555 1_555
C53 C52 1_555 1_555
C54 C49 1_555 1_555
C55 O11 1_555 1_555
C56 O12 1_555 1_555
C57 C56 1_555 1_555
C58 P2 1_555 1_555
C59 C58 1_555 1_555
C60 C55 1_555 1_555
C61 P2 1_555 1_555
C62 C61 1_555 1_555
C63 C62 1_555 1_555
C64 C63 1_555 1_555
C65 C64 1_555 1_555
C66 C61 1_555 1_555
C67 P2 1_555 1_555
C68 C67 1_555 1_555
C69 C68 1_555 1_555
C70 C69 1_555 1_555
C71 C70 1_555 1_555
C72 C67 1_555 1_555
C73 O9 1_555 1_555
C74 O10 1_555 1_555
C75 C74 1_555 1_555
C76 P4 1_555 1_555
C77 C76 1_555 1_555
C78 C73 1_555 1_555
C79 P4 1_555 1_555
C80 C79 1_555 1_555
C81 C80 1_555 1_555
C82 C81 1_555 1_555
C83 C82 1_555 1_555
C84 C79 1_555 1_555
C85 P4 1_555 1_555
C86 C85 1_555 1_555
C87 C86 1_555 1_555
C88 C89 1_555 1_555
C89 C87 1_555 1_555
C90 C85 1_555 1_555
C91 C92 1_555 1_555
C92 O8 1_555 1_555
C93 C92 1_555 1_555
C94 P6 1_555 1_555
C95 C94 1_555 1_555
C96 C91 1_555 1_555
C97 P6 1_555 1_555
C98 C97 1_555 1_555
C99 C98 1_555 1_555
C100 C99 1_555 1_555
C101 C100 1_555 1_555
C102 C97 1_555 1_555
C103 P6 1_555 1_555
C104 C103 1_555 1_555
C105 C104 1_555 1_555
C106 C105 1_555 1_555
C107 C106 1_555 1_555
C108 C103 1_555 1_555
H1 C8 1_555 1_555
H2 C9 1_555 1_555
H3 C28 1_555 1_555
H4 C29 1_555 1_555
H5 C30 1_555 1_555
H6 C32 1_555 1_555
H7 C59 1_555 1_555
H8 C60 1_555 1_555
H9 C70 1_555 1_555
H10 C72 1_555 1_555
H11 C75 1_555 1_555
H12 C77 1_555 1_555
H13 C78 1_555 1_555
H14 C86 1_555 1_555
H15 C105 1_555 1_555
H16 C106 1_555 1_555
H17 C107 1_555 1_555
O13 C109 1_555 1_555
N1 C109 1_555 1_555
C109 H21 1_555 1_555
C110 N1 1_555 1_555
C111 N1 1_555 1_555
H18 C110 1_555 1_555
H19 C110 1_555 1_555
H20 C111 1_555 1_555
O14 C112 1_555 1_555
N2 C112 1_555 1_555
C113 N2 1_555 1_555
C114 N2 1_555 1_555
H22 C113 1_555 1_555
O15 C115 1_555 1_555
N3 C115 1_555 1_555
C116 N3 1_555 1_555
C117 N3 1_555 1_555
H23 C116 1_555 1_555
O16 C118 1_555 1_555
C118 C119 1_555 1_555
C119 C120 1_555 1_555
C120 C121 1_555 1_555
C121 O16 1_555 1_555
H24 C118 1_555 1_555
H25 C118 1_555 1_555
H26 C120 1_555 1_555
H27 C121 1_555 1_555
H28 C121 1_555 1_555
O17 C122 1_555 1_555
N4 C122 1_555 1_555
C123 N4 1_555 1_555
C124 N4 1_555 1_555
H29 C123 1_555 1_555
H30 C123 1_555 1_555
C1 C2 1_555 1_555
C3 C4 1_555 1_555
C5 C6 1_555 1_555
C11 C12 1_555 1_555
C17 C18 1_555 1_555
C19 C20 1_555 1_555
C21 C22 1_555 1_555
C23 C24 1_555 1_555
C29 C30 1_555 1_555
C35 C36 1_555 1_555
C39 C40 1_555 1_555
C41 C42 1_555 1_555
C47 C48 1_555 1_555
C53 C54 1_555 1_555
C55 C56 1_555 1_555
C57 C58 1_555 1_555
C59 C60 1_555 1_555
C65 C66 1_555 1_555
C71 C72 1_555 1_555
C73 C74 1_555 1_555
C75 C76 1_555 1_555
C77 C78 1_555 1_555
C83 C84 1_555 1_555
C88 C90 1_555 1_555
C93 C94 1_555 1_555
C95 C96 1_555 1_555
C101 C102 1_555 1_555
C107 C108 1_555 1_555

#END
