
#######################################################################
#
#                 Cambridge Crystallographic Data Centre
#                                CCDC 
#
#######################################################################
#
# If this CIF has been generated from an entry in the Cambridge 
# Structural Database, then it will include bibliographic, chemical, 
# crystal, experimental, refinement or atomic coordinate data resulting 
# from the CCDC's data processing and validation procedures.
#
#######################################################################

data_FESLEU
_chemical_formula_moiety         
'C108 H78 Br6 O12 P6 Pd3 Ti2 4-,4(Cs1 1+),9(C4 H8 O1),1.5(C4 H10 O1),1.5(C3 H7 N1 O1),H2 O1'
_chemical_name_systematic        
'Tetra-cesium hexakis(\m~2~-4-diphenylphosphanyl-catecholato)-hexabromo-tri-palladium-di-titanium dimethylformamide tetrahydrofuran diethyl ether solvate monohydrate'
_symmetry_cell_setting           hexagonal
_symmetry_space_group_name_H-M   'P 63/m'
_symmetry_Int_Tables_number      176
_space_group_name_Hall           '-P 6c'
loop_
_symmetry_equiv_pos_site_id
_symmetry_equiv_pos_as_xyz
1 x,y,z
2 -y,x-y,z
3 -x+y,-x,z
4 y,-x+y,1/2+z
5 x-y,x,1/2+z
6 -x,-y,1/2+z
7 -x,-y,-z
8 y,-x+y,-z
9 x-y,x,-z
10 -y,x-y,1/2-z
11 -x+y,-x,1/2-z
12 x,y,1/2-z
_cell_length_a                   20.4769(1)
_cell_length_b                   20.4769(1)
_cell_length_c                   21.9982(1)
_cell_angle_alpha                90
_cell_angle_beta                 90
_cell_angle_gamma                120
_cell_volume                     7988.15
_exptl_crystal_colour            red-orange
_exptl_crystal_description       prismatic
_cell_formula_units_Z            2
loop_
_atom_site_label
_atom_site_type_symbol
_atom_site_fract_x
_atom_site_fract_y
_atom_site_fract_z
Pd1 Pd 0.02281(4) 0.70158(4) -0.2500
Br1 Br 0.13551(6) 0.82551(6) -0.2500
Br2 Br -0.0591(3) 0.56704(11) -0.2500
Ti1 Ti 0.3333 0.6667 -0.09621(12)
P1 P 0.02140(10) 0.70222(11) -0.14428(9)
O1 O 0.2453(2) 0.6295(3) -0.0436(2)
O2 O 0.2659(3) 0.6855(3) -0.1490(2)
C1 C 0.1919(4) 0.6444(4) -0.0625(3)
C2 C 0.2025(4) 0.6740(4) -0.1213(3)
C3 C 0.1503(4) 0.6899(4) -0.1463(3)
H1 H 0.1566(4) 0.7087(4) -0.1866(3)
C4 C 0.0874(4) 0.6778(4) -0.1113(3)
C5 C 0.0789(4) 0.6493(4) -0.0532(3)
H2 H 0.0365(4) 0.6412(4) -0.0297(3)
C6 C 0.1303(4) 0.6324(4) -0.0284(3)
H3 H 0.1235(4) 0.6127(4) 0.0117(3)
C7 C 0.0432(4) 0.7931(4) -0.1133(3)
C8 C 0.0153(5) 0.8348(5) -0.1424(4)
H4 H -0.0137(5) 0.8157(5) -0.1785(4)
C9 C 0.0293(5) 0.9033(5) -0.1195(4)
H5 H 0.0088(5) 0.9303(5) -0.1393(4)
C10 C 0.0725(5) 0.9326(5) -0.0683(4)
H6 H 0.0820(5) 0.9799(5) -0.0528(4)
C11 C 0.1018(5) 0.8941(5) -0.0398(4)
H7 H 0.1323(5) 0.9148(5) -0.0047(4)
C12 C 0.0871(5) 0.8241(5) -0.0621(4)
H8 H 0.1075(5) 0.7975(5) -0.0417(4)
C13 C -0.0692(4) 0.6367(5) -0.1096(3)
C14 C -0.1200(4) 0.6599(5) -0.0935(4)
H9 H -0.1072(4) 0.7109(5) -0.0991(4)
C15 C -0.1889(5) 0.6087(7) -0.0693(4)
H10 H -0.2247(5) 0.6239(7) -0.0606(4)
C16 C -0.2062(6) 0.5367(7) -0.0578(5)
H11 H -0.2525(6) 0.5030(7) -0.0385(5)
C17 C -0.1574(5) 0.5123(6) -0.0737(5)
H12 H -0.1706(5) 0.4614(6) -0.0670(5)
C18 C -0.0889(5) 0.5622(5) -0.0997(4)
H13 H -0.0550(5) 0.5453(5) -0.1109(4)
O1A O 0.3705(3) 0.6158(4) -0.0436(2)
C1A C 0.3556(4) 0.5475(6) -0.0625(3)
C2A C 0.3260(4) 0.5285(6) -0.1213(3)
O2A O 0.3145(3) 0.5804(4) -0.1490(2)
O1B O 0.3842(4) 0.7547(2) -0.0436(2)
C1B C 0.4525(6) 0.8081(4) -0.0625(3)
C2B C 0.4715(6) 0.7975(4) -0.1213(3)
O2B O 0.4196(4) 0.7341(3) -0.1490(2)
C3B C 0.5396(6) 0.8497(4) -0.1463(3)
H1B H 0.5521(6) 0.8434(4) -0.1866(3)
C4B C 0.5904(6) 0.9126(4) -0.1113(3)
P1B P 0.68082(15) 0.97860(10) -0.14428(9)
Pd1B Pd 0.67877(6) 0.97719(4) -0.2500
Br1B Br 0.69000(8) 0.86449(6) -0.2500
Br2B Br 0.62614(32) 1.0591(3) -0.2500
P1J P 0.68082(15) 0.97860(10) -0.35572(9)
C4J C 0.5904(6) 0.9126(4) -0.3887(3)
C3J C 0.5396(6) 0.8497(4) -0.3537(3)
C2J C 0.4715(6) 0.7975(4) -0.3787(3)
O2J O 0.4196(4) 0.7341(3) -0.3510(2)
Ti1J Ti 0.3334 0.6667 -0.40379(12)
O1J O 0.3842(4) 0.7547(2) -0.4564(2)
C1J C 0.4525(6) 0.8081(4) -0.4375(3)
C6J C 0.5021(6) 0.8697(4) -0.4716(3)
C5J C 0.5704(6) 0.9211(4) -0.4468(3)
H2J H 0.6047(6) 0.9635(4) -0.4703(3)
H3J H 0.4892(6) 0.8765(4) -0.5117(3)
O1K O 0.2453(2) 0.6295(3) -0.4564(2)
C1K C 0.1919(4) 0.6444(4) -0.4375(3)
C2K C 0.2025(4) 0.6740(4) -0.3787(3)
O2K O 0.2659(3) 0.6855(3) -0.3510(2)
O1I O 0.3705(3) 0.6158(4) -0.4564(2)
C1I C 0.3556(4) 0.5475(6) -0.4375(3)
C2I C 0.3260(4) 0.5285(6) -0.3787(3)
O2I O 0.3145(3) 0.5804(4) -0.3510(2)
C3I C 0.3101(4) 0.4604(6) -0.3537(3)
H1I H 0.2913(4) 0.4479(6) -0.3134(3)
C4I C 0.3222(4) 0.4096(6) -0.3887(3)
P1I P 0.29778(11) 0.31918(15) -0.35572(9)
Pd1I Pd 0.29842(4) 0.32123(6) -0.2500
Br1I Br 0.17449(6) 0.31000(8) -0.2500
Br2I Br 0.43296(11) 0.37386(32) -0.2500
P1A P 0.29778(11) 0.31918(15) -0.14428(9)
C4A C 0.3222(4) 0.4096(6) -0.1113(3)
C3A C 0.3101(4) 0.4604(6) -0.1463(3)
H1A H 0.2913(4) 0.4479(6) -0.1866(3)
C5A C 0.3507(4) 0.4296(6) -0.0532(3)
H2A H 0.3588(4) 0.3953(6) -0.0297(3)
C6A C 0.3676(4) 0.4979(6) -0.0284(3)
H3A H 0.3873(4) 0.5108(6) 0.0117(3)
C7A C 0.2069(4) 0.2501(6) -0.1133(3)
C8A C 0.1652(5) 0.1805(7) -0.1424(4)
H4A H 0.1843(5) 0.1706(7) -0.1785(4)
C9A C 0.0967(5) 0.1260(7) -0.1195(4)
H5A H 0.0697(5) 0.0785(7) -0.1393(4)
C10A C 0.0674(5) 0.1399(7) -0.0683(4)
H6A H 0.0201(5) 0.1021(7) -0.0528(4)
C11A C 0.1059(5) 0.2077(7) -0.0398(4)
H7A H 0.0852(5) 0.2175(7) -0.0047(4)
C12A C 0.1759(5) 0.2630(7) -0.0621(4)
H8A H 0.2025(5) 0.3100(7) -0.0417(4)
C13A C 0.3633(5) 0.2941(6) -0.1096(3)
C14A C 0.3401(5) 0.2201(6) -0.0935(4)
H9A H 0.2891(5) 0.1819(6) -0.0991(4)
C15A C 0.3913(7) 0.2024(9) -0.0693(4)
H10A H 0.3761(7) 0.1514(9) -0.0606(4)
C16A C 0.4633(7) 0.2571(9) -0.0578(5)
H11A H 0.4970(7) 0.2445(9) -0.0385(5)
C17A C 0.4877(6) 0.3303(8) -0.0737(5)
H12A H 0.5386(6) 0.3680(8) -0.0670(5)
C18A C 0.4378(5) 0.3489(7) -0.0997(4)
H13A H 0.4547(5) 0.3997(7) -0.1109(4)
C7I C 0.2069(4) 0.2501(6) -0.3867(3)
C8I C 0.1652(5) 0.1805(7) -0.3576(4)
H4I H 0.1843(5) 0.1706(7) -0.3215(4)
C9I C 0.0967(5) 0.1260(7) -0.3805(4)
H5I H 0.0697(5) 0.0785(7) -0.3607(4)
C10I C 0.0674(5) 0.1399(7) -0.4317(4)
H6I H 0.0201(5) 0.1021(7) -0.4472(4)
C11I C 0.1059(5) 0.2077(7) -0.4602(4)
H7I H 0.0852(5) 0.2175(7) -0.4953(4)
C12I C 0.1759(5) 0.2630(7) -0.4379(4)
H8I H 0.2025(5) 0.3100(7) -0.4583(4)
C13I C 0.3633(5) 0.2941(6) -0.3904(3)
C14I C 0.3401(5) 0.2201(6) -0.4065(4)
H9I H 0.2891(5) 0.1819(6) -0.4009(4)
C15I C 0.3913(7) 0.2024(9) -0.4307(4)
H10I H 0.3761(7) 0.1514(9) -0.4394(4)
C16I C 0.4633(7) 0.2571(9) -0.4422(5)
H11I H 0.4970(7) 0.2445(9) -0.4615(5)
C17I C 0.4877(6) 0.3303(8) -0.4263(5)
H12I H 0.5386(6) 0.3680(8) -0.4330(5)
C18I C 0.4378(5) 0.3489(7) -0.4003(4)
H13I H 0.4547(5) 0.3997(7) -0.3891(4)
C5I C 0.3507(4) 0.4296(6) -0.4468(3)
H2I H 0.3588(4) 0.3953(6) -0.4703(3)
C6I C 0.3676(4) 0.4979(6) -0.4716(3)
H3I H 0.3873(4) 0.5108(6) -0.5117(3)
C3K C 0.1503(4) 0.6899(4) -0.3537(3)
H1K H 0.1566(4) 0.7087(4) -0.3134(3)
C4K C 0.0874(4) 0.6778(4) -0.3887(3)
P1K P 0.02140(10) 0.70222(11) -0.35572(9)
C7K C 0.0432(4) 0.7931(4) -0.3867(3)
C8K C 0.0153(5) 0.8348(5) -0.3576(4)
H4K H -0.0137(5) 0.8157(5) -0.3215(4)
C9K C 0.0293(5) 0.9033(5) -0.3805(4)
H5K H 0.0088(5) 0.9303(5) -0.3607(4)
C10K C 0.0725(5) 0.9326(5) -0.4317(4)
H6K H 0.0820(5) 0.9799(5) -0.4472(4)
C11K C 0.1018(5) 0.8941(5) -0.4602(4)
H7K H 0.1323(5) 0.9148(5) -0.4953(4)
C12K C 0.0871(5) 0.8241(5) -0.4379(4)
H8K H 0.1075(5) 0.7975(5) -0.4583(4)
C13K C -0.0692(4) 0.6367(5) -0.3904(3)
C14K C -0.1200(4) 0.6599(5) -0.4065(4)
H9K H -0.1072(4) 0.7109(5) -0.4009(4)
C15K C -0.1889(5) 0.6087(7) -0.4307(4)
H10K H -0.2247(5) 0.6239(7) -0.4394(4)
C16K C -0.2062(6) 0.5367(7) -0.4422(5)
H11K H -0.2525(6) 0.5030(7) -0.4615(5)
C17K C -0.1574(5) 0.5123(6) -0.4263(5)
H12K H -0.1706(5) 0.4614(6) -0.4330(5)
C18K C -0.0889(5) 0.5622(5) -0.4003(4)
H13K H -0.0550(5) 0.5453(5) -0.3891(4)
C5K C 0.0789(4) 0.6493(4) -0.4468(3)
H2K H 0.0365(4) 0.6412(4) -0.4703(3)
C6K C 0.1303(4) 0.6324(4) -0.4716(3)
H3K H 0.1235(4) 0.6127(4) -0.5117(3)
H1J H 0.5521(6) 0.8434(4) -0.3134(3)
C7J C 0.7499(6) 0.9568(4) -0.3867(3)
C8J C 0.8195(7) 0.9847(5) -0.3576(4)
H4J H 0.8294(7) 1.0137(5) -0.3215(4)
C9J C 0.8740(7) 0.9707(5) -0.3805(4)
H5J H 0.9215(7) 0.9912(5) -0.3607(4)
C10J C 0.8601(7) 0.9275(5) -0.4317(4)
H6J H 0.8979(7) 0.9180(5) -0.4472(4)
C11J C 0.7923(7) 0.8982(5) -0.4602(4)
H7J H 0.7825(7) 0.8677(5) -0.4953(4)
C12J C 0.7370(7) 0.9129(5) -0.4379(4)
H8J H 0.6900(7) 0.8925(5) -0.4583(4)
C13J C 0.7059(6) 1.0692(4) -0.3904(3)
C14J C 0.7799(6) 1.1200(4) -0.4065(4)
H9J H 0.8181(6) 1.1072(4) -0.4009(4)
C15J C 0.7976(9) 1.1889(5) -0.4307(4)
H10J H 0.8486(9) 1.2247(5) -0.4394(4)
C16J C 0.7429(9) 1.2062(6) -0.4422(5)
H11J H 0.7555(9) 1.2525(6) -0.4615(5)
C17J C 0.6697(8) 1.1574(5) -0.4263(5)
H12J H 0.6320(8) 1.1706(5) -0.4330(5)
C18J C 0.6511(7) 1.0889(5) -0.4003(4)
H13J H 0.6003(7) 1.0550(5) -0.3891(4)
C7B C 0.7499(6) 0.9568(4) -0.1133(3)
C8B C 0.8195(7) 0.9847(5) -0.1424(4)
H4B H 0.8294(7) 1.0137(5) -0.1785(4)
C9B C 0.8740(7) 0.9707(5) -0.1195(4)
H5B H 0.9215(7) 0.9912(5) -0.1393(4)
C10B C 0.8601(7) 0.9275(5) -0.0683(4)
H6B H 0.8979(7) 0.9180(5) -0.0528(4)
C11B C 0.7923(7) 0.8982(5) -0.0398(4)
H7B H 0.7825(7) 0.8677(5) -0.0047(4)
C12B C 0.7370(7) 0.9129(5) -0.0621(4)
H8B H 0.6900(7) 0.8925(5) -0.0417(4)
C13B C 0.7059(6) 1.0692(4) -0.1096(3)
C14B C 0.7799(6) 1.1200(4) -0.0935(4)
H9B H 0.8181(6) 1.1072(4) -0.0991(4)
C15B C 0.7976(9) 1.1889(5) -0.0693(4)
H10B H 0.8486(9) 1.2247(5) -0.0606(4)
C16B C 0.7429(9) 1.2062(6) -0.0578(5)
H11B H 0.7555(9) 1.2525(6) -0.0385(5)
C17B C 0.6697(8) 1.1574(5) -0.0737(5)
H12B H 0.6320(8) 1.1706(5) -0.0670(5)
C18B C 0.6511(7) 1.0889(5) -0.0997(4)
H13B H 0.6003(7) 1.0550(5) -0.1109(4)
C5B C 0.5704(6) 0.9211(4) -0.0532(3)
H2B H 0.6047(6) 0.9635(4) -0.0297(3)
C6B C 0.5021(6) 0.8697(4) -0.0284(3)
H3B H 0.4892(6) 0.8765(4) 0.0117(3)
O3 O 0.0961(7) 0.4465(7) -0.1613(5)
C19 C 0.1195(9) 0.4172(12) -0.1098(9)
C20 C 0.0554(9) 0.3694(11) -0.0805(8)
C21 C 0.0105(10) 0.4188(10) -0.0881(8)
C22 C 0.0410(8) 0.4558(9) -0.1465(8)
O4 O 0.0000 1.0000 -0.2500
Cs2 Cs 0.3333 0.6667 0.07698(9)
Cs1 Cs 0.19657(5) 0.55724(5) -0.2500
loop_
_geom_bond_atom_site_label_1
_geom_bond_atom_site_label_2
_geom_bond_site_symmetry_1
_geom_bond_site_symmetry_2
Pd1 Br1 1_555 1_555
Br2 Pd1 1_555 1_555
Ti1 O1 1_555 1_555
P1 Pd1 1_555 1_555
O1 C1 1_555 1_555
O2 Ti1 1_555 1_555
C1 C2 1_555 1_555
C2 O2 1_555 1_555
C3 C2 1_555 1_555
H1 C3 1_555 1_555
C4 P1 1_555 1_555
C5 C4 1_555 1_555
H2 C5 1_555 1_555
C6 C1 1_555 1_555
H3 C6 1_555 1_555
C7 P1 1_555 1_555
C8 C7 1_555 1_555
H4 C8 1_555 1_555
C9 C8 1_555 1_555
H5 C9 1_555 1_555
C10 C9 1_555 1_555
H6 C10 1_555 1_555
C11 C10 1_555 1_555
H7 C11 1_555 1_555
C12 C7 1_555 1_555
H8 C12 1_555 1_555
C13 P1 1_555 1_555
C14 C13 1_555 1_555
H9 C14 1_555 1_555
C15 C14 1_555 1_555
H10 C15 1_555 1_555
C16 C15 1_555 1_555
H11 C16 1_555 1_555
C17 C16 1_555 1_555
H12 C17 1_555 1_555
C18 C13 1_555 1_555
H13 C18 1_555 1_555
O3 C19 1_555 1_555
C19 C20 1_555 1_555
C20 C21 1_555 1_555
C21 C22 1_555 1_555
C22 O3 1_555 1_555
O1A Ti1 1_555 1_555
C1A O1A 1_555 1_555
C2A C1A 1_555 1_555
O2A Ti1 1_555 1_555
O1B Ti1 1_555 1_555
C1B O1B 1_555 1_555
C2B C1B 1_555 1_555
O2B Ti1 1_555 1_555
C3B C2B 1_555 1_555
H1B C3B 1_555 1_555
C4B C3B 1_555 1_555
P1B C4B 1_555 1_555
Pd1B P1B 1_555 1_555
Br1B Pd1B 1_555 1_555
Br2B Pd1B 1_555 1_555
P1J Pd1B 1_555 1_555
C4J P1J 1_555 1_555
C3J C4J 1_555 1_555
C2J C3J 1_555 1_555
O2J C2J 1_555 1_555
Ti1J O2J 1_555 1_555
O1J Ti1J 1_555 1_555
C1J C2J 1_555 1_555
C6J C1J 1_555 1_555
C5J C4J 1_555 1_555
H2J C5J 1_555 1_555
H3J C6J 1_555 1_555
O1K Ti1J 1_555 1_555
C1K O1K 1_555 1_555
C2K C1K 1_555 1_555
O2K Ti1J 1_555 1_555
O1I Ti1J 1_555 1_555
C1I O1I 1_555 1_555
C2I C1I 1_555 1_555
O2I Ti1J 1_555 1_555
C3I C2I 1_555 1_555
H1I C3I 1_555 1_555
C4I C3I 1_555 1_555
P1I C4I 1_555 1_555
Pd1I P1I 1_555 1_555
Br1I Pd1I 1_555 1_555
Br2I Pd1I 1_555 1_555
P1A Pd1I 1_555 1_555
C4A P1A 1_555 1_555
C3A C2A 1_555 1_555
H1A C3A 1_555 1_555
C5A C4A 1_555 1_555
H2A C5A 1_555 1_555
C6A C1A 1_555 1_555
H3A C6A 1_555 1_555
C7A P1A 1_555 1_555
C8A C7A 1_555 1_555
H4A C8A 1_555 1_555
C9A C8A 1_555 1_555
H5A C9A 1_555 1_555
C10A C9A 1_555 1_555
H6A C10A 1_555 1_555
C11A C10A 1_555 1_555
H7A C11A 1_555 1_555
C12A C7A 1_555 1_555
H8A C12A 1_555 1_555
C13A P1A 1_555 1_555
C14A C13A 1_555 1_555
H9A C14A 1_555 1_555
C15A C14A 1_555 1_555
H10A C15A 1_555 1_555
C16A C15A 1_555 1_555
H11A C16A 1_555 1_555
C17A C16A 1_555 1_555
H12A C17A 1_555 1_555
C18A C13A 1_555 1_555
H13A C18A 1_555 1_555
C7I P1I 1_555 1_555
C8I C7I 1_555 1_555
H4I C8I 1_555 1_555
C9I C8I 1_555 1_555
H5I C9I 1_555 1_555
C10I C9I 1_555 1_555
H6I C10I 1_555 1_555
C11I C10I 1_555 1_555
H7I C11I 1_555 1_555
C12I C7I 1_555 1_555
H8I C12I 1_555 1_555
C13I P1I 1_555 1_555
C14I C13I 1_555 1_555
H9I C14I 1_555 1_555
C15I C14I 1_555 1_555
H10I C15I 1_555 1_555
C16I C15I 1_555 1_555
H11I C16I 1_555 1_555
C17I C16I 1_555 1_555
H12I C17I 1_555 1_555
C18I C13I 1_555 1_555
H13I C18I 1_555 1_555
C5I C4I 1_555 1_555
H2I C5I 1_555 1_555
C6I C1I 1_555 1_555
H3I C6I 1_555 1_555
C3K C2K 1_555 1_555
H1K C3K 1_555 1_555
C4K C3K 1_555 1_555
P1K Pd1 1_555 1_555
C7K P1K 1_555 1_555
C8K C7K 1_555 1_555
H4K C8K 1_555 1_555
C9K C8K 1_555 1_555
H5K C9K 1_555 1_555
C10K C9K 1_555 1_555
H6K C10K 1_555 1_555
C11K C10K 1_555 1_555
H7K C11K 1_555 1_555
C12K C7K 1_555 1_555
H8K C12K 1_555 1_555
C13K P1K 1_555 1_555
C14K C13K 1_555 1_555
H9K C14K 1_555 1_555
C15K C14K 1_555 1_555
H10K C15K 1_555 1_555
C16K C15K 1_555 1_555
H11K C16K 1_555 1_555
C17K C16K 1_555 1_555
H12K C17K 1_555 1_555
C18K C13K 1_555 1_555
H13K C18K 1_555 1_555
C5K C4K 1_555 1_555
H2K C5K 1_555 1_555
C6K C1K 1_555 1_555
H3K C6K 1_555 1_555
H1J C3J 1_555 1_555
C7J P1J 1_555 1_555
C8J C7J 1_555 1_555
H4J C8J 1_555 1_555
C9J C8J 1_555 1_555
H5J C9J 1_555 1_555
C10J C9J 1_555 1_555
H6J C10J 1_555 1_555
C11J C10J 1_555 1_555
H7J C11J 1_555 1_555
C12J C7J 1_555 1_555
H8J C12J 1_555 1_555
C13J P1J 1_555 1_555
C14J C13J 1_555 1_555
H9J C14J 1_555 1_555
C15J C14J 1_555 1_555
H10J C15J 1_555 1_555
C16J C15J 1_555 1_555
H11J C16J 1_555 1_555
C17J C16J 1_555 1_555
H12J C17J 1_555 1_555
C18J C13J 1_555 1_555
H13J C18J 1_555 1_555
C7B P1B 1_555 1_555
C8B C7B 1_555 1_555
H4B C8B 1_555 1_555
C9B C8B 1_555 1_555
H5B C9B 1_555 1_555
C10B C9B 1_555 1_555
H6B C10B 1_555 1_555
C11B C10B 1_555 1_555
H7B C11B 1_555 1_555
C12B C7B 1_555 1_555
H8B C12B 1_555 1_555
C13B P1B 1_555 1_555
C14B C13B 1_555 1_555
H9B C14B 1_555 1_555
C15B C14B 1_555 1_555
H10B C15B 1_555 1_555
C16B C15B 1_555 1_555
H11B C16B 1_555 1_555
C17B C16B 1_555 1_555
H12B C17B 1_555 1_555
C18B C13B 1_555 1_555
H13B C18B 1_555 1_555
C5B C4B 1_555 1_555
H2B C5B 1_555 1_555
C6B C1B 1_555 1_555
H3B C6B 1_555 1_555
C3 C4 1_555 1_555
C5 C6 1_555 1_555
C11 C12 1_555 1_555
C17 C18 1_555 1_555
C2A O2A 1_555 1_555
C2B O2B 1_555 1_555
O1J C1J 1_555 1_555
C6J C5J 1_555 1_555
C2K O2K 1_555 1_555
C2I O2I 1_555 1_555
C4A C3A 1_555 1_555
C5A C6A 1_555 1_555
C11A C12A 1_555 1_555
C17A C18A 1_555 1_555
C11I C12I 1_555 1_555
C17I C18I 1_555 1_555
C5I C6I 1_555 1_555
C4K P1K 1_555 1_555
C11K C12K 1_555 1_555
C17K C18K 1_555 1_555
C5K C6K 1_555 1_555
C11J C12J 1_555 1_555
C17J C18J 1_555 1_555
C11B C12B 1_555 1_555
C17B C18B 1_555 1_555
C5B C6B 1_555 1_555

#END
