# generated using pymatgen
data_H369Pd4C505N18O89
_symmetry_space_group_name_H-M   'P 1'
_cell_length_a   21.97470000
_cell_length_b   28.16300000
_cell_length_c   34.95000000
_cell_angle_alpha   72.84200000
_cell_angle_beta   79.69600000
_cell_angle_gamma   84.39800000
_symmetry_Int_Tables_number   1
_chemical_formula_structural   H369Pd4C505N18O89
_chemical_formula_sum   'H738 Pd8 C1010 N36 O178'
_cell_volume   20310.53945410
_cell_formula_units_Z   2
loop_
 _symmetry_equiv_pos_site_id
 _symmetry_equiv_pos_as_xyz
  1  'x, y, z'
loop_
 _atom_site_type_symbol
 _atom_site_label
 _atom_site_symmetry_multiplicity
 _atom_site_fract_x
 _atom_site_fract_y
 _atom_site_fract_z
 _atom_site_occupancy
  H  H1  1  0.346500  0.993400  0.877500  1
  H  H2  1  0.653500  0.006600  0.122500  1
  H  H3  1  0.347900  0.885500  0.979300  1
  H  H4  1  0.652100  0.114500  0.020700  1
  H  H5  1  0.360500  0.941400  0.013000  1
  H  H6  1  0.639500  0.058600  0.987000  1
  H  H7  1  0.358900  0.026900  0.979500  1
  H  H8  1  0.641100  0.973100  0.020500  1
  H  H9  1  0.470200  0.036200  0.919300  1
  H  H10  1  0.529800  0.963800  0.080700  1
  H  H11  1  0.561200  0.078800  0.903700  1
  H  H12  1  0.438800  0.921200  0.096300  1
  H  H13  1  0.564500  0.162800  0.864600  1
  H  H14  1  0.435500  0.837200  0.135400  1
  H  H15  1  0.477800  0.206500  0.845000  1
  H  H16  1  0.522200  0.793500  0.155000  1
  H  H17  1  0.252500  0.208900  0.834000  1
  H  H18  1  0.747500  0.791100  0.166000  1
  H  H19  1  0.160600  0.170900  0.853300  1
  H  H20  1  0.839400  0.829100  0.146700  1
  H  H21  1  0.155500  0.087200  0.890900  1
  H  H22  1  0.844500  0.912800  0.109100  1
  H  H23  1  0.240300  0.044800  0.914700  1
  H  H24  1  0.759700  0.955200  0.085300  1
  H  H25  1  0.337800  0.319600  0.906000  1
  H  H26  1  0.662200  0.680400  0.094000  1
  H  H27  1  0.406600  0.310000  0.884000  1
  H  H28  1  0.593400  0.690000  0.116000  1
  H  H29  1  0.394700  0.285400  0.955800  1
  H  H30  1  0.605300  0.714600  0.044200  1
  H  H31  1  0.350100  0.243700  0.956200  1
  H  H32  1  0.649900  0.756300  0.043800  1
  H  H33  1  0.465100  0.161400  0.957800  1
  H  H34  1  0.534900  0.838600  0.042200  1
  H  H35  1  0.391300  0.169500  0.963100  1
  H  H36  1  0.608700  0.830500  0.036900  1
  H  H37  1  0.429000  0.185300  0.992200  1
  H  H38  1  0.571000  0.814700  0.007800  1
  H  H39  1  0.563800  0.186400  0.633700  1
  H  H40  1  0.436200  0.813600  0.366300  1
  H  H41  1  0.600500  0.206700  0.516300  1
  H  H42  1  0.399500  0.793300  0.483700  1
  H  H43  1  0.532000  0.276600  0.505500  1
  H  H44  1  0.468000  0.723400  0.494500  1
  H  H45  1  0.484100  0.303300  0.558400  1
  H  H46  1  0.515900  0.696700  0.441600  1
  H  H47  1  0.398400  0.249400  0.604000  1
  H  H48  1  0.601600  0.750600  0.396000  1
  H  H49  1  0.293000  0.255400  0.621200  1
  H  H50  1  0.707000  0.744600  0.378800  1
  H  H51  1  0.252100  0.272600  0.683000  1
  H  H52  1  0.747900  0.727400  0.317000  1
  H  H53  1  0.312200  0.279600  0.725600  1
  H  H54  1  0.687800  0.720400  0.274400  1
  H  H55  1  0.526100  0.282900  0.758600  1
  H  H56  1  0.473900  0.717100  0.241400  1
  H  H57  1  0.629900  0.294200  0.735600  1
  H  H58  1  0.370100  0.705800  0.264400  1
  H  H59  1  0.672700  0.288200  0.670800  1
  H  H60  1  0.327300  0.711800  0.329200  1
  H  H61  1  0.612400  0.282200  0.627500  1
  H  H62  1  0.387600  0.717800  0.372500  1
  H  H63  1  0.418500  0.402600  0.786500  1
  H  H64  1  0.581500  0.597400  0.213500  1
  H  H65  1  0.438100  0.434700  0.740200  1
  H  H66  1  0.561900  0.565300  0.259800  1
  H  H67  1  0.537200  0.385600  0.741500  1
  H  H68  1  0.462800  0.614400  0.258500  1
  H  H69  1  0.528300  0.424800  0.767500  1
  H  H70  1  0.471700  0.575200  0.232500  1
  H  H71  1  0.520300  0.344700  0.858500  1
  H  H72  1  0.479700  0.655300  0.141500  1
  H  H73  1  0.472600  0.388600  0.840100  1
  H  H74  1  0.527400  0.611400  0.159900  1
  H  H75  1  0.545300  0.397500  0.831200  1
  H  H76  1  0.454700  0.602500  0.168800  1
  H  H77  1  0.466200  0.890600  0.889200  1
  H  H78  1  0.533800  0.109400  0.110800  1
  H  H79  1  0.359700  0.780200  0.942600  1
  H  H80  1  0.640300  0.219800  0.057400  1
  H  H81  1  0.441400  0.728600  0.966800  1
  H  H82  1  0.558600  0.271400  0.033200  1
  H  H83  1  0.538200  0.761900  0.954100  1
  H  H84  1  0.461800  0.238100  0.045900  1
  H  H85  1  0.589600  0.781900  0.878400  1
  H  H86  1  0.410400  0.218100  0.121600  1
  H  H87  1  0.672900  0.757500  0.841900  1
  H  H88  1  0.327100  0.242500  0.158100  1
  H  H89  1  0.766000  0.799700  0.827200  1
  H  H90  1  0.234000  0.200300  0.172800  1
  H  H91  1  0.768200  0.868500  0.848600  1
  H  H92  1  0.231800  0.131500  0.151400  1
  H  H93  1  0.665900  0.989300  0.921100  1
  H  H94  1  0.334100  0.010700  0.078900  1
  H  H95  1  0.581800  0.014100  0.960400  1
  H  H96  1  0.418200  0.985900  0.039600  1
  H  H97  1  0.497000  0.963300  0.987200  1
  H  H98  1  0.503000  0.036700  0.012800  1
  H  H99  1  0.493700  0.893000  0.969500  1
  H  H100  1  0.506300  0.107000  0.030500  1
  H  H101  1  0.800000  0.954200  0.968600  1
  H  H102  1  0.200000  0.045800  0.031400  1
  H  H103  1  0.847400  0.908100  0.964800  1
  H  H104  1  0.152600  0.091900  0.035200  1
  H  H105  1  0.791200  0.897100  0.031100  1
  H  H106  1  0.208800  0.102900  0.968900  1
  H  H107  1  0.728900  0.897400  0.013300  1
  H  H108  1  0.271100  0.102600  0.986700  1
  H  H109  1  0.760800  0.774100  0.053900  1
  H  H110  1  0.239200  0.225900  0.946100  1
  H  H111  1  0.705900  0.816100  0.051500  1
  H  H112  1  0.294100  0.183900  0.948500  1
  H  H113  1  0.762500  0.818000  0.074100  1
  H  H114  1  0.237500  0.182000  0.925900  1
  H  H115  1  0.697000  0.106200  0.662400  1
  H  H116  1  0.303000  0.893800  0.337600  1
  H  H117  1  0.709700  0.229000  0.573600  1
  H  H118  1  0.290300  0.771000  0.426400  1
  H  H119  1  0.772900  0.261000  0.605100  1
  H  H120  1  0.227100  0.739000  0.394900  1
  H  H121  1  0.805800  0.212700  0.664500  1
  H  H122  1  0.194200  0.787300  0.335500  1
  H  H123  1  0.824800  0.077700  0.649600  1
  H  H124  1  0.175200  0.922300  0.350400  1
  H  H125  1  0.870200  0.002300  0.653700  1
  H  H126  1  0.129800  0.997700  0.346300  1
  H  H127  1  0.881400  0.947800  0.715200  1
  H  H128  1  0.118600  0.052200  0.284800  1
  H  H129  1  0.850500  0.966000  0.773300  1
  H  H130  1  0.149500  0.034000  0.226700  1
  H  H131  1  0.740600  0.088500  0.846300  1
  H  H132  1  0.259400  0.911500  0.153700  1
  H  H133  1  0.690400  0.164800  0.844200  1
  H  H134  1  0.309600  0.835200  0.155800  1
  H  H135  1  0.672500  0.219700  0.782200  1
  H  H136  1  0.327500  0.780300  0.217800  1
  H  H137  1  0.705300  0.200700  0.723900  1
  H  H138  1  0.294700  0.799300  0.276100  1
  H  H139  1  0.915600  0.034700  0.888800  1
  H  H140  1  0.084400  0.965300  0.111200  1
  H  H141  1  0.859200  0.076100  0.886300  1
  H  H142  1  0.140800  0.923900  0.113700  1
  H  H143  1  0.932000  0.118100  0.819500  1
  H  H144  1  0.068000  0.881900  0.180500  1
  H  H145  1  0.935300  0.129900  0.861300  1
  H  H146  1  0.064700  0.870100  0.138700  1
  H  H147  1  0.086500  0.105000  0.826400  1
  H  H148  1  0.913500  0.895000  0.173600  1
  H  H149  1  0.041000  0.144700  0.843300  1
  H  H150  1  0.959000  0.855300  0.156700  1
  H  H151  1  0.036500  0.137700  0.800100  1
  H  H152  1  0.963500  0.862300  0.199900  1
  H  H153  1  0.378700  0.835500  0.835700  1
  H  H154  1  0.621300  0.164500  0.164300  1
  H  H155  1  0.219900  0.823400  0.909200  1
  H  H156  1  0.780100  0.176600  0.090800  1
  H  H157  1  0.193500  0.759500  0.883700  1
  H  H158  1  0.806500  0.240500  0.116300  1
  H  H159  1  0.261300  0.733300  0.836900  1
  H  H160  1  0.738700  0.266700  0.163100  1
  H  H161  1  0.270800  0.797000  0.766900  1
  H  H162  1  0.729200  0.203000  0.233100  1
  H  H163  1  0.257100  0.813600  0.703800  1
  H  H164  1  0.742900  0.186400  0.296200  1
  H  H165  1  0.333400  0.800300  0.653700  1
  H  H166  1  0.666600  0.199700  0.346300  1
  H  H167  1  0.432000  0.769200  0.667900  1
  H  H168  1  0.568000  0.230800  0.332100  1
  H  H169  1  0.580000  0.718700  0.767100  1
  H  H170  1  0.420000  0.281300  0.232900  1
  H  H171  1  0.596400  0.697300  0.832600  1
  H  H172  1  0.403600  0.302700  0.167400  1
  H  H173  1  0.517500  0.707700  0.884300  1
  H  H174  1  0.482500  0.292300  0.115700  1
  H  H175  1  0.420100  0.730900  0.871200  1
  H  H176  1  0.579900  0.269100  0.128800  1
  H  H177  1  0.527100  0.652200  0.645200  1
  H  H178  1  0.472900  0.347800  0.354800  1
  H  H179  1  0.453800  0.663600  0.654300  1
  H  H180  1  0.546200  0.336400  0.345700  1
  H  H181  1  0.519800  0.583800  0.703100  1
  H  H182  1  0.480200  0.416200  0.296900  1
  H  H183  1  0.446600  0.595300  0.712300  1
  H  H184  1  0.553400  0.404700  0.287700  1
  H  H185  1  0.448800  0.501700  0.670700  1
  H  H186  1  0.551200  0.498300  0.329300  1
  H  H187  1  0.421100  0.520600  0.709500  1
  H  H188  1  0.578900  0.479400  0.290500  1
  H  H189  1  0.492600  0.502700  0.702400  1
  H  H190  1  0.507400  0.497300  0.297600  1
  H  H191  1  0.650700  0.021400  0.616100  1
  H  H192  1  0.349300  0.978600  0.383900  1
  H  H193  1  0.790600  0.113100  0.567500  1
  H  H194  1  0.209400  0.886900  0.432500  1
  H  H195  1  0.857600  0.044900  0.568800  1
  H  H196  1  0.142400  0.955100  0.431200  1
  H  H197  1  0.825000  0.967200  0.587300  1
  H  H198  1  0.175000  0.032800  0.412700  1
  H  H199  1  0.688200  0.983500  0.542200  1
  H  H200  1  0.311800  0.016500  0.457800  1
  H  H201  1  0.628600  0.962400  0.503100  1
  H  H202  1  0.371400  0.037600  0.496900  1
  H  H203  1  0.574700  0.891500  0.527500  1
  H  H204  1  0.425300  0.108500  0.472500  1
  H  H205  1  0.577200  0.841800  0.588400  1
  H  H206  1  0.422800  0.158200  0.411600  1
  H  H207  1  0.675400  0.791500  0.715900  1
  H  H208  1  0.324600  0.208500  0.284100  1
  H  H209  1  0.730700  0.813400  0.757600  1
  H  H210  1  0.269300  0.186600  0.242400  1
  H  H211  1  0.777300  0.889900  0.736000  1
  H  H212  1  0.222700  0.110100  0.264000  1
  H  H213  1  0.771200  0.942300  0.674500  1
  H  H214  1  0.228800  0.057700  0.325500  1
  H  H215  1  0.621800  0.747300  0.572500  1
  H  H216  1  0.378200  0.252700  0.427500  1
  H  H217  1  0.685800  0.714700  0.578900  1
  H  H218  1  0.314200  0.285300  0.421100  1
  H  H219  1  0.688000  0.786200  0.512500  1
  H  H220  1  0.312000  0.213800  0.487500  1
  H  H221  1  0.692500  0.821200  0.540900  1
  H  H222  1  0.307500  0.178800  0.459100  1
  H  H223  1  0.808500  0.723100  0.509500  1
  H  H224  1  0.191500  0.276900  0.490500  1
  H  H225  1  0.735100  0.718100  0.518500  1
  H  H226  1  0.264900  0.281900  0.481500  1
  H  H227  1  0.775100  0.696500  0.554400  1
  H  H228  1  0.224900  0.303500  0.445600  1
  H  H229  1  0.266500  0.934800  0.827800  1
  H  H230  1  0.733500  0.065200  0.172200  1
  H  H231  1  0.216800  0.920100  0.946400  1
  H  H232  1  0.783200  0.079900  0.053600  1
  H  H233  1  0.124700  0.970700  0.930600  1
  H  H234  1  0.875300  0.029300  0.069400  1
  H  H235  1  0.102700  0.996100  0.865000  1
  H  H236  1  0.897300  0.003900  0.135000  1
  H  H237  1  0.154800  0.884500  0.827300  1
  H  H238  1  0.845200  0.115500  0.172700  1
  H  H239  1  0.145400  0.828400  0.795600  1
  H  H240  1  0.854600  0.171600  0.204400  1
  H  H241  1  0.143100  0.852000  0.727000  1
  H  H242  1  0.856900  0.148000  0.273000  1
  H  H243  1  0.152300  0.931600  0.689700  1
  H  H244  1  0.847700  0.068400  0.310300  1
  H  H245  1  0.185500  0.109900  0.680900  1
  H  H246  1  0.814500  0.890100  0.319100  1
  H  H247  1  0.203100  0.166800  0.711700  1
  H  H248  1  0.796900  0.833200  0.288300  1
  H  H249  1  0.207000  0.143500  0.781300  1
  H  H250  1  0.793000  0.856500  0.218700  1
  H  H251  1  0.193300  0.064000  0.819100  1
  H  H252  1  0.806700  0.936000  0.180900  1
  H  H253  1  0.021600  0.046500  0.622100  1
  H  H254  1  0.978400  0.953500  0.377900  1
  H  H255  1  0.978900  0.032500  0.665800  1
  H  H256  1  0.021100  0.967500  0.334200  1
  H  H257  1  0.984500  0.968800  0.634600  1
  H  H258  1  0.015500  0.031200  0.365400  1
  H  H259  1  0.058000  0.963700  0.633200  1
  H  H260  1  0.942000  0.036300  0.366800  1
  H  H261  1  0.010300  0.867000  0.714400  1
  H  H262  1  0.989700  0.133000  0.285600  1
  H  H263  1  0.056600  0.881300  0.672300  1
  H  H264  1  0.943400  0.118700  0.327700  1
  H  H265  1  0.983500  0.882500  0.672500  1
  H  H266  1  0.016500  0.117500  0.327500  1
  H  H267  1  0.524700  0.101100  0.589200  1
  H  H268  1  0.475300  0.898900  0.410800  1
  H  H269  1  0.674500  0.101100  0.510200  1
  H  H270  1  0.325500  0.898900  0.489800  1
  H  H271  1  0.627000  0.064800  0.475100  1
  H  H272  1  0.373000  0.935200  0.524900  1
  H  H273  1  0.520700  0.052100  0.493300  1
  H  H274  1  0.479300  0.947900  0.506700  1
  H  H275  1  0.506800  0.977700  0.570300  1
  H  H276  1  0.493200  0.022300  0.429700  1
  H  H277  1  0.469300  0.899700  0.598100  1
  H  H278  1  0.530700  0.100300  0.401900  1
  H  H279  1  0.365600  0.889400  0.619400  1
  H  H280  1  0.634400  0.110600  0.380600  1
  H  H281  1  0.294700  0.955300  0.611800  1
  H  H282  1  0.705300  0.044700  0.388200  1
  H  H283  1  0.254500  0.141100  0.579000  1
  H  H284  1  0.745500  0.858900  0.421000  1
  H  H285  1  0.292500  0.219600  0.558500  1
  H  H286  1  0.707500  0.780400  0.441500  1
  H  H287  1  0.396400  0.230900  0.530100  1
  H  H288  1  0.603600  0.769100  0.469900  1
  H  H289  1  0.462300  0.166100  0.526300  1
  H  H290  1  0.537700  0.833900  0.473700  1
  H  H291  1  0.152900  0.121300  0.529400  1
  H  H292  1  0.847100  0.878700  0.470600  1
  H  H293  1  0.136800  0.072100  0.519400  1
  H  H294  1  0.863200  0.927900  0.480600  1
  H  H295  1  0.249200  0.118900  0.476800  1
  H  H296  1  0.750800  0.881100  0.523200  1
  H  H297  1  0.208300  0.086300  0.461200  1
  H  H298  1  0.791700  0.913700  0.538800  1
  H  H299  1  0.171600  0.193100  0.397600  1
  H  H300  1  0.828400  0.806900  0.602400  1
  H  H301  1  0.198500  0.137000  0.402700  1
  H  H302  1  0.801500  0.863000  0.597300  1
  H  H303  1  0.241000  0.178100  0.406200  1
  H  H304  1  0.759000  0.821900  0.593800  1
  H  H305  1  0.388700  0.205700  0.775800  1
  H  H306  1  0.611300  0.794300  0.224200  1
  H  H307  1  0.379900  0.339100  0.826700  1
  H  H308  1  0.620100  0.660900  0.173300  1
  H  H309  1  0.714700  0.979800  0.822700  1
  H  H310  1  0.285300  0.020200  0.177300  1
  H  H311  1  0.855900  0.976100  0.905800  1
  H  H312  1  0.144100  0.023900  0.094200  1
  H  H313  1  0.553800  0.813500  0.705900  1
  H  H314  1  0.446200  0.186500  0.294100  1
  H  H315  1  0.600200  0.697900  0.634700  1
  H  H316  1  0.399800  0.302100  0.365300  1
  H  H317  1  0.269500  0.027800  0.660600  1
  H  H318  1  0.730500  0.972200  0.339400  1
  H  H319  1  0.109900  0.052200  0.586900  1
  H  H320  1  0.890100  0.947800  0.413100  1
  H  H321  1  0.400400  0.173900  0.723100  1
  H  H322  1  0.599600  0.826100  0.276900  1
  H  H323  1  0.359700  0.137800  0.683400  1
  H  H324  1  0.640300  0.862200  0.316600  1
  H  H325  1  0.374200  0.057300  0.653000  1
  H  H326  1  0.625800  0.942700  0.347000  1
  H  H327  1  0.429100  0.981900  0.662100  1
  H  H328  1  0.570900  0.018100  0.337900  1
  H  H329  1  0.546400  0.934800  0.668700  1
  H  H330  1  0.453600  0.065200  0.331300  1
  H  H331  1  0.623900  0.930900  0.705200  1
  H  H332  1  0.376100  0.069100  0.294800  1
  H  H333  1  0.682000  0.983600  0.744200  1
  H  H334  1  0.318000  0.016400  0.255800  1
  H  H335  1  0.667400  0.049300  0.771200  1
  H  H336  1  0.332600  0.950700  0.228800  1
  H  H337  1  0.592100  0.133900  0.776100  1
  H  H338  1  0.407900  0.866100  0.223900  1
  H  H339  1  0.503100  0.177300  0.758300  1
  H  H340  1  0.496900  0.822700  0.241700  1
  H  H341  1  0.036300  0.597600  0.094600  1
  H  H342  1  0.963700  0.402400  0.905400  1
  H  H343  1  0.180400  0.608000  0.008100  1
  H  H344  1  0.819600  0.392000  0.991900  1
  H  H345  1  0.124800  0.578400  0.972600  1
  H  H346  1  0.875200  0.421600  0.027400  1
  H  H347  1  0.021400  0.561400  0.994100  1
  H  H348  1  0.978600  0.438600  0.005900  1
  H  H349  1  0.961600  0.666100  0.040200  1
  H  H350  1  0.038400  0.333900  0.959800  1
  H  H351  1  0.897800  0.727300  0.057500  1
  H  H352  1  0.102200  0.272700  0.942500  1
  H  H353  1  0.798000  0.708200  0.093100  1
  H  H354  1  0.202000  0.291800  0.906900  1
  H  H355  1  0.766300  0.628400  0.112300  1
  H  H356  1  0.233700  0.371600  0.887700  1
  H  H357  1  0.813000  0.449700  0.122900  1
  H  H358  1  0.187000  0.550300  0.877100  1
  H  H359  1  0.882900  0.386600  0.115400  1
  H  H360  1  0.117100  0.613400  0.884600  1
  H  H361  1  0.987800  0.402000  0.091500  1
  H  H362  1  0.012200  0.598000  0.908500  1
  H  H363  1  0.017500  0.481200  0.063800  1
  H  H364  1  0.982500  0.518800  0.936200  1
  H  H365  1  0.646000  0.609300  0.057900  1
  H  H366  1  0.354000  0.390700  0.942100  1
  H  H367  1  0.643200  0.557800  0.047500  1
  H  H368  1  0.356800  0.442200  0.952500  1
  H  H369  1  0.726700  0.631600  0.000800  1
  H  H370  1  0.273300  0.368400  0.999200  1
  H  H371  1  0.712800  0.583300  0.989200  1
  H  H372  1  0.287200  0.416700  0.010800  1
  H  H373  1  0.632300  0.671700  0.926500  1
  H  H374  1  0.367700  0.328300  0.073500  1
  H  H375  1  0.681100  0.625300  0.928200  1
  H  H376  1  0.318900  0.374700  0.071800  1
  H  H377  1  0.701300  0.675700  0.933600  1
  H  H378  1  0.298700  0.324300  0.066400  1
  H  H379  1  0.814700  0.402100  0.346600  1
  H  H380  1  0.185300  0.597900  0.653400  1
  H  H381  1  0.777100  0.383700  0.464400  1
  H  H382  1  0.222900  0.616300  0.535600  1
  H  H383  1  0.685000  0.430400  0.457100  1
  H  H384  1  0.315000  0.569600  0.542900  1
  H  H385  1  0.653200  0.458600  0.394000  1
  H  H386  1  0.346800  0.541400  0.606000  1
  H  H387  1  0.716400  0.534700  0.349700  1
  H  H388  1  0.283600  0.465300  0.650300  1
  H  H389  1  0.741700  0.615000  0.311000  1
  H  H390  1  0.258300  0.385000  0.689000  1
  H  H391  1  0.722500  0.641200  0.245100  1
  H  H392  1  0.277500  0.358800  0.754900  1
  H  H393  1  0.706500  0.587100  0.211600  1
  H  H394  1  0.293500  0.412900  0.788400  1
  H  H395  1  0.683400  0.413200  0.210200  1
  H  H396  1  0.316600  0.586800  0.789800  1
  H  H397  1  0.683500  0.329500  0.243600  1
  H  H398  1  0.316500  0.670500  0.756400  1
  H  H399  1  0.690000  0.301800  0.312400  1
  H  H400  1  0.310000  0.698200  0.687600  1
  H  H401  1  0.702600  0.354600  0.347100  1
  H  H402  1  0.297400  0.645400  0.652900  1
  H  H403  1  0.540100  0.538200  0.155600  1
  H  H404  1  0.459900  0.461800  0.844400  1
  H  H405  1  0.501400  0.510800  0.199000  1
  H  H406  1  0.498600  0.489200  0.801000  1
  H  H407  1  0.510600  0.459400  0.153300  1
  H  H408  1  0.489400  0.540600  0.846700  1
  H  H409  1  0.584600  0.458400  0.149400  1
  H  H410  1  0.415400  0.541600  0.850600  1
  H  H411  1  0.556900  0.347100  0.217700  1
  H  H412  1  0.443100  0.652900  0.782300  1
  H  H413  1  0.598900  0.375100  0.176300  1
  H  H414  1  0.401100  0.624900  0.823700  1
  H  H415  1  0.526900  0.369200  0.177200  1
  H  H416  1  0.473100  0.630800  0.822800  1
  H  H417  1  0.087500  0.676200  0.145500  1
  H  H418  1  0.912500  0.323800  0.854500  1
  H  H419  1  0.099500  0.709900  0.027300  1
  H  H420  1  0.900500  0.290100  0.972700  1
  H  H421  1  0.025900  0.773000  0.028400  1
  H  H422  1  0.974100  0.227000  0.971600  1
  H  H423  1  0.987400  0.795100  0.086100  1
  H  H424  1  0.012600  0.204900  0.913900  1
  H  H425  1  0.126800  0.774000  0.140100  1
  H  H426  1  0.873200  0.226000  0.859900  1
  H  H427  1  0.193400  0.793900  0.173600  1
  H  H428  1  0.806600  0.206100  0.826400  1
  H  H429  1  0.161700  0.794700  0.240600  1
  H  H430  1  0.838300  0.205300  0.759400  1
  H  H431  1  0.066700  0.773100  0.273700  1
  H  H432  1  0.933300  0.226900  0.726300  1
  H  H433  1  0.847900  0.739500  0.265400  1
  H  H434  1  0.152100  0.260500  0.734600  1
  H  H435  1  0.781800  0.716700  0.231400  1
  H  H436  1  0.218200  0.283300  0.768600  1
  H  H437  1  0.816500  0.705200  0.167400  1
  H  H438  1  0.183500  0.294800  0.832600  1
  H  H439  1  0.912000  0.728000  0.134100  1
  H  H440  1  0.088000  0.272000  0.865900  1
  H  H441  1  0.954300  0.867400  0.321600  1
  H  H442  1  0.045700  0.132600  0.678400  1
  H  H443  1  0.956200  0.905100  0.276900  1
  H  H444  1  0.043800  0.094900  0.723100  1
  H  H445  1  0.063900  0.899200  0.268800  1
  H  H446  1  0.936100  0.100800  0.731200  1
  H  H447  1  0.081900  0.814000  0.372600  1
  H  H448  1  0.918100  0.186000  0.627400  1
  H  H449  1  0.019000  0.847100  0.366700  1
  H  H450  1  0.981000  0.152900  0.633300  1
  H  H451  1  0.084200  0.872900  0.352600  1
  H  H452  1  0.915800  0.127100  0.647400  1
  H  H453  1  0.901000  0.459600  0.397500  1
  H  H454  1  0.099000  0.540400  0.602500  1
  H  H455  1  0.921900  0.342500  0.490600  1
  H  H456  1  0.078100  0.657500  0.509400  1
  H  H457  1  0.939600  0.393100  0.529000  1
  H  H458  1  0.060400  0.606900  0.471000  1
  H  H459  1  0.942400  0.478400  0.500700  1
  H  H460  1  0.057600  0.521600  0.499300  1
  H  H461  1  0.034800  0.497000  0.433300  1
  H  H462  1  0.965200  0.503000  0.566700  1
  H  H463  1  0.125800  0.536100  0.411000  1
  H  H464  1  0.874200  0.463900  0.589000  1
  H  H465  1  0.126700  0.620500  0.381600  1
  H  H466  1  0.873300  0.379500  0.618400  1
  H  H467  1  0.037800  0.666667  0.365700  1
  H  H468  1  0.962200  0.333333  0.634300  1
  H  H469  1  0.811300  0.670100  0.365900  1
  H  H470  1  0.188700  0.329900  0.634100  1
  H  H471  1  0.718300  0.632300  0.389300  1
  H  H472  1  0.281700  0.367700  0.610700  1
  H  H473  1  0.715900  0.548300  0.426100  1
  H  H474  1  0.284100  0.451700  0.573900  1
  H  H475  1  0.802600  0.504600  0.443500  1
  H  H476  1  0.197400  0.495400  0.556500  1
  H  H477  1  0.824400  0.718400  0.449700  1
  H  H478  1  0.175600  0.281600  0.550300  1
  H  H479  1  0.830500  0.764000  0.408700  1
  H  H480  1  0.169500  0.236000  0.591300  1
  H  H481  1  0.840600  0.788700  0.469000  1
  H  H482  1  0.159400  0.211300  0.531000  1
  H  H483  1  0.903900  0.755100  0.471400  1
  H  H484  1  0.096100  0.244900  0.528600  1
  H  H485  1  0.975800  0.857600  0.423700  1
  H  H486  1  0.024200  0.142400  0.576300  1
  H  H487  1  0.983600  0.802200  0.452500  1
  H  H488  1  0.016400  0.197800  0.547500  1
  H  H489  1  0.933600  0.840900  0.467300  1
  H  H490  1  0.066400  0.159100  0.532700  1
  H  H491  1  0.218200  0.601900  0.162100  1
  H  H492  1  0.781800  0.398100  0.837900  1
  H  H493  1  0.219300  0.726800  0.075800  1
  H  H494  1  0.780700  0.273200  0.924200  1
  H  H495  1  0.279300  0.761600  0.109400  1
  H  H496  1  0.720700  0.238400  0.890600  1
  H  H497  1  0.321000  0.715000  0.162500  1
  H  H498  1  0.679000  0.285000  0.837500  1
  H  H499  1  0.345900  0.578500  0.146300  1
  H  H500  1  0.654100  0.421500  0.853700  1
  H  H501  1  0.387800  0.506100  0.147400  1
  H  H502  1  0.612200  0.493900  0.852600  1
  H  H503  1  0.403700  0.447100  0.209400  1
  H  H504  1  0.596300  0.552900  0.790600  1
  H  H505  1  0.378700  0.466000  0.268300  1
  H  H506  1  0.621300  0.534000  0.731700  1
  H  H507  1  0.279200  0.586100  0.345700  1
  H  H508  1  0.720800  0.413900  0.654300  1
  H  H509  1  0.227900  0.660300  0.346300  1
  H  H510  1  0.772100  0.339700  0.653700  1
  H  H511  1  0.204200  0.716700  0.286200  1
  H  H512  1  0.795800  0.283300  0.713800  1
  H  H513  1  0.232000  0.699000  0.226500  1
  H  H514  1  0.768000  0.301000  0.773500  1
  H  H515  1  0.406800  0.551800  0.389200  1
  H  H516  1  0.593200  0.448200  0.610800  1
  H  H517  1  0.379400  0.600400  0.358800  1
  H  H518  1  0.620600  0.399600  0.641200  1
  H  H519  1  0.481600  0.615000  0.323300  1
  H  H520  1  0.518400  0.385000  0.676700  1
  H  H521  1  0.471100  0.621200  0.368200  1
  H  H522  1  0.528900  0.378800  0.631800  1
  H  H523  1  0.610300  0.559300  0.365000  1
  H  H524  1  0.389700  0.440700  0.635000  1
  H  H525  1  0.573200  0.607400  0.374400  1
  H  H526  1  0.426800  0.392600  0.625600  1
  H  H527  1  0.589200  0.604000  0.328700  1
  H  H528  1  0.410800  0.396000  0.671300  1
  H  H529  1  0.021000  0.368200  0.399800  1
  H  H530  1  0.979000  0.631800  0.600200  1
  H  H531  1  0.929300  0.246300  0.446900  1
  H  H532  1  0.070700  0.753700  0.553100  1
  H  H533  1  0.016700  0.198000  0.457000  1
  H  H534  1  0.983300  0.802000  0.543000  1
  H  H535  1  0.113900  0.237800  0.446100  1
  H  H536  1  0.886100  0.762200  0.553900  1
  H  H537  1  0.066400  0.351000  0.477800  1
  H  H538  1  0.933600  0.649000  0.522200  1
  H  H539  1  0.078300  0.406500  0.512400  1
  H  H540  1  0.921700  0.593500  0.487600  1
  H  H541  1  0.157600  0.460200  0.488300  1
  H  H542  1  0.842400  0.539800  0.511700  1
  H  H543  1  0.229300  0.457100  0.434500  1
  H  H544  1  0.770700  0.542900  0.565500  1
  H  H545  1  0.314800  0.373700  0.326700  1
  H  H546  1  0.685200  0.626300  0.673300  1
  H  H547  1  0.303500  0.318200  0.291700  1
  H  H548  1  0.696500  0.681800  0.708300  1
  H  H549  1  0.222100  0.264200  0.314700  1
  H  H550  1  0.777900  0.735800  0.685300  1
  H  H551  1  0.147200  0.271700  0.365500  1
  H  H552  1  0.852800  0.728300  0.634500  1
  H  H553  1  0.386200  0.413900  0.461300  1
  H  H554  1  0.613800  0.586100  0.538700  1
  H  H555  1  0.431500  0.390600  0.429200  1
  H  H556  1  0.568500  0.609400  0.570800  1
  H  H557  1  0.363700  0.314300  0.469200  1
  H  H558  1  0.636300  0.685700  0.530800  1
  H  H559  1  0.429400  0.320600  0.480600  1
  H  H560  1  0.570600  0.679400  0.519400  1
  H  H561  1  0.276600  0.362300  0.541600  1
  H  H562  1  0.723400  0.637700  0.458400  1
  H  H563  1  0.271600  0.340900  0.504700  1
  H  H564  1  0.728400  0.659100  0.495300  1
  H  H565  1  0.296300  0.395300  0.495800  1
  H  H566  1  0.703700  0.604700  0.504200  1
  H  H567  1  0.170700  0.517900  0.109600  1
  H  H568  1  0.829300  0.482100  0.890400  1
  H  H569  1  0.300700  0.616800  0.065200  1
  H  H570  1  0.699300  0.383200  0.934800  1
  H  H571  1  0.368700  0.556900  0.052400  1
  H  H572  1  0.631300  0.443100  0.947600  1
  H  H573  1  0.343900  0.472900  0.070500  1
  H  H574  1  0.656100  0.527100  0.929500  1
  H  H575  1  0.304000  0.439700  0.151900  1
  H  H576  1  0.696000  0.560300  0.848100  1
  H  H577  1  0.327500  0.380700  0.207100  1
  H  H578  1  0.672500  0.619300  0.792900  1
  H  H579  1  0.288000  0.301200  0.225900  1
  H  H580  1  0.712000  0.698800  0.774100  1
  H  H581  1  0.219700  0.283800  0.191500  1
  H  H582  1  0.780300  0.716200  0.808500  1
  H  H583  1  0.097700  0.339800  0.075700  1
  H  H584  1  0.902300  0.660200  0.924300  1
  H  H585  1  0.080400  0.396800  0.016700  1
  H  H586  1  0.919600  0.603200  0.983300  1
  H  H587  1  0.128500  0.472700  0.994300  1
  H  H588  1  0.871500  0.527300  0.005700  1
  H  H589  1  0.190500  0.492100  0.032000  1
  H  H590  1  0.809500  0.507900  0.968000  1
  H  H591  1  0.209000  0.203600  0.068300  1
  H  H592  1  0.791000  0.796400  0.931700  1
  H  H593  1  0.140500  0.227500  0.063000  1
  H  H594  1  0.859500  0.772500  0.937000  1
  H  H595  1  0.202800  0.242300  0.000700  1
  H  H596  1  0.797200  0.757700  0.999300  1
  H  H597  1  0.180100  0.293400  0.011000  1
  H  H598  1  0.819900  0.706600  0.989000  1
  H  H599  1  0.348900  0.254900  0.026800  1
  H  H600  1  0.651100  0.745100  0.973200  1
  H  H601  1  0.310900  0.210400  0.024700  1
  H  H602  1  0.689100  0.789600  0.975300  1
  H  H603  1  0.292800  0.233500  0.062100  1
  H  H604  1  0.707200  0.766500  0.937900  1
  H  H605  1  0.929600  0.314300  0.339500  1
  H  H606  1  0.070400  0.685700  0.660500  1
  H  H607  1  0.781100  0.286200  0.422300  1
  H  H608  1  0.218900  0.713800  0.577700  1
  H  H609  1  0.752800  0.229700  0.391300  1
  H  H610  1  0.247200  0.770300  0.608700  1
  H  H611  1  0.820600  0.206600  0.341100  1
  H  H612  1  0.179400  0.793400  0.658900  1
  H  H613  1  0.817200  0.279700  0.274000  1
  H  H614  1  0.182800  0.720300  0.726000  1
  H  H615  1  0.791600  0.298200  0.213500  1
  H  H616  1  0.208400  0.701800  0.786500  1
  H  H617  1  0.867300  0.285400  0.157700  1
  H  H618  1  0.132700  0.714600  0.842300  1
  H  H619  1  0.965500  0.264600  0.165200  1
  H  H620  1  0.034500  0.735400  0.834800  1
  H  H621  1  0.127300  0.208600  0.253500  1
  H  H622  1  0.872700  0.791400  0.746500  1
  H  H623  1  0.155800  0.187400  0.316700  1
  H  H624  1  0.844200  0.812600  0.683300  1
  H  H625  1  0.083600  0.194600  0.372800  1
  H  H626  1  0.916400  0.805400  0.627200  1
  H  H627  1  0.983600  0.213700  0.367200  1
  H  H628  1  0.016400  0.786300  0.632800  1
  H  H629  1  0.097800  0.117400  0.168200  1
  H  H630  1  0.902200  0.882600  0.831800  1
  H  H631  1  0.036800  0.136700  0.147300  1
  H  H632  1  0.963200  0.863300  0.852700  1
  H  H633  1  0.032600  0.074800  0.230200  1
  H  H634  1  0.967400  0.925200  0.769800  1
  H  H635  1  0.972800  0.092700  0.208200  1
  H  H636  1  0.027200  0.907300  0.791800  1
  H  H637  1  0.010000  0.970800  0.206000  1
  H  H638  1  0.990000  0.029200  0.794000  1
  H  H639  1  0.958100  0.003700  0.226400  1
  H  H640  1  0.041900  0.996300  0.773600  1
  H  H641  1  0.023700  0.990600  0.241900  1
  H  H642  1  0.976300  0.009400  0.758100  1
  H  H643  1  0.793600  0.512700  0.181100  1
  H  H644  1  0.206400  0.487300  0.818900  1
  H  H645  1  0.623800  0.543600  0.116200  1
  H  H646  1  0.376200  0.456400  0.883800  1
  H  H647  1  0.947500  0.670700  0.303200  1
  H  H648  1  0.052500  0.329300  0.696800  1
  H  H649  1  0.922000  0.800000  0.360400  1
  H  H650  1  0.078000  0.200000  0.639600  1
  H  H651  1  0.253700  0.472600  0.321900  1
  H  H652  1  0.746300  0.527400  0.678100  1
  H  H653  1  0.412900  0.467100  0.392400  1
  H  H654  1  0.587100  0.532900  0.607600  1
  H  H655  1  0.090200  0.312000  0.191100  1
  H  H656  1  0.909800  0.688000  0.808900  1
  H  H657  1  0.122300  0.190400  0.125200  1
  H  H658  1  0.877700  0.809600  0.874800  1
  H  H659  1  0.074700  0.427800  0.165000  1
  H  H660  1  0.925300  0.572200  0.835000  1
  H  H661  1  0.158400  0.421100  0.197200  1
  H  H662  1  0.841600  0.578900  0.802800  1
  H  H663  1  0.212400  0.461900  0.242700  1
  H  H664  1  0.787600  0.538100  0.757300  1
  H  H665  1  0.217800  0.532500  0.262700  1
  H  H666  1  0.782200  0.467500  0.737300  1
  H  H667  1  0.137300  0.606000  0.285300  1
  H  H668  1  0.862700  0.394000  0.714700  1
  H  H669  1  0.049600  0.655300  0.270600  1
  H  H670  1  0.950400  0.344700  0.729400  1
  H  H671  1  0.930600  0.635000  0.254200  1
  H  H672  1  0.069400  0.365000  0.745800  1
  H  H673  1  0.893300  0.626200  0.198700  1
  H  H674  1  0.106700  0.373800  0.801300  1
  H  H675  1  0.907300  0.552300  0.154300  1
  H  H676  1  0.092700  0.447700  0.845700  1
  H  H677  1  0.956200  0.473000  0.167500  1
  H  H678  1  0.043800  0.527000  0.832500  1
  H  H679  1  0.036300  0.547800  0.326400  1
  H  H680  1  0.963700  0.452200  0.673600  1
  H  H681  1  0.933300  0.573700  0.327500  1
  H  H682  1  0.066700  0.426300  0.672500  1
  H  H683  1  0.841000  0.564000  0.285100  1
  H  H684  1  0.159000  0.436000  0.714900  1
  H  H685  1  0.840500  0.531200  0.231800  1
  H  H686  1  0.159500  0.468800  0.768200  1
  H  H687  1  0.840000  0.434600  0.220500  1
  H  H688  1  0.160000  0.565400  0.779500  1
  H  H689  1  0.914700  0.371900  0.217300  1
  H  H690  1  0.085300  0.628100  0.782700  1
  H  H691  1  0.022600  0.326800  0.246400  1
  H  H692  1  0.977400  0.673200  0.753600  1
  H  H693  1  0.096400  0.331800  0.283500  1
  H  H694  1  0.903600  0.668200  0.716500  1
  H  H695  1  0.140700  0.402600  0.309700  1
  H  H696  1  0.859300  0.597400  0.690300  1
  H  H697  1  0.107100  0.454400  0.351700  1
  H  H698  1  0.892900  0.545600  0.648300  1
  H  H699  1  0.447100  0.086700  0.814700  1
  H  H700  1  0.552900  0.913300  0.185300  1
  H  H701  1  0.354900  0.088600  0.792400  1
  H  H702  1  0.645100  0.911400  0.207600  1
  H  H703  1  0.307500  0.046200  0.740500  1
  H  H704  1  0.692500  0.953800  0.259500  1
  H  H705  1  0.297800  0.972300  0.726000  1
  H  H706  1  0.702200  0.027700  0.274000  1
  H  H707  1  0.372600  0.894800  0.712300  1
  H  H708  1  0.627400  0.105200  0.287700  1
  H  H709  1  0.461800  0.848900  0.726000  1
  H  H710  1  0.538200  0.151100  0.274000  1
  H  H711  1  0.565400  0.838800  0.765600  1
  H  H712  1  0.434600  0.161200  0.234400  1
  H  H713  1  0.613500  0.873200  0.803000  1
  H  H714  1  0.386500  0.126800  0.197000  1
  H  H715  1  0.605700  0.954900  0.834900  1
  H  H716  1  0.394300  0.045100  0.165100  1
  H  H717  1  0.548200  0.024700  0.841600  1
  H  H718  1  0.451800  0.975300  0.158400  1
  H  H719  1  0.835900  0.521400  0.256500  1
  H  H720  1  0.164100  0.478600  0.743500  1
  H  H721  1  0.834100  0.452700  0.234800  1
  H  H722  1  0.165900  0.547300  0.765200  1
  H  H723  1  0.911600  0.381700  0.214600  1
  H  H724  1  0.088400  0.618300  0.785400  1
  H  H725  1  0.003600  0.338000  0.222900  1
  H  H726  1  0.996400  0.662000  0.777100  1
  H  H727  1  0.114000  0.328800  0.261700  1
  H  H728  1  0.886000  0.671200  0.738300  1
  H  H729  1  0.167800  0.379200  0.284000  1
  H  H730  1  0.832200  0.620800  0.716000  1
  H  H731  1  0.151900  0.444000  0.331600  1
  H  H732  1  0.848100  0.556000  0.668400  1
  H  H733  1  0.085400  0.505700  0.348800  1
  H  H734  1  0.914600  0.494300  0.651200  1
  H  H735  1  0.976600  0.564200  0.329100  1
  H  H736  1  0.023400  0.435800  0.670900  1
  H  H737  1  0.878700  0.556800  0.317300  1
  H  H738  1  0.121300  0.443200  0.682700  1
  Pd  Pd739  1  0.328350  0.883330  0.899620  1
  Pd  Pd740  1  0.671650  0.116670  0.100380  1
  Pd  Pd741  1  0.650760  0.133040  0.585150  1
  Pd  Pd742  1  0.349240  0.866960  0.414850  1
  Pd  Pd743  1  0.164030  0.631590  0.087690  1
  Pd  Pd744  1  0.835970  0.368410  0.912310  1
  Pd  Pd745  1  0.885760  0.350920  0.412010  1
  Pd  Pd746  1  0.114240  0.649080  0.587990  1
  C  C747  1  0.349100  0.983300  0.905600  1
  C  C748  1  0.650900  0.016700  0.094400  1
  C  C749  1  0.350200  0.919700  0.964700  1
  C  C750  1  0.649800  0.080300  0.035300  1
  C  C751  1  0.356500  0.952800  0.985100  1
  C  C752  1  0.643500  0.047200  0.014900  1
  C  C753  1  0.356900  0.003800  0.964800  1
  C  C754  1  0.643100  0.996200  0.035200  1
  C  C755  1  0.354400  0.020900  0.924000  1
  C  C756  1  0.645600  0.979100  0.076000  1
  C  C757  1  0.357000  0.073200  0.901400  1
  C  C758  1  0.643000  0.926800  0.098600  1
  C  C759  1  0.413000  0.096700  0.892900  1
  C  C760  1  0.587000  0.903300  0.107100  1
  C  C761  1  0.470100  0.070500  0.904800  1
  C  C762  1  0.529900  0.929500  0.095200  1
  C  C763  1  0.524500  0.095800  0.894900  1
  C  C764  1  0.475500  0.904200  0.105100  1
  C  C765  1  0.526300  0.146800  0.871800  1
  C  C766  1  0.473700  0.853200  0.128200  1
  C  C767  1  0.475100  0.172400  0.860100  1
  C  C768  1  0.524900  0.827600  0.139900  1
  C  C769  1  0.415200  0.149900  0.869600  1
  C  C770  1  0.584800  0.850100  0.130400  1
  C  C771  1  0.363000  0.174600  0.855000  1
  C  C772  1  0.637000  0.825400  0.145000  1
  C  C773  1  0.306800  0.151000  0.864800  1
  C  C774  1  0.693200  0.849000  0.135200  1
  C  C775  1  0.251200  0.175600  0.851000  1
  C  C776  1  0.748800  0.824400  0.149000  1
  C  C777  1  0.197000  0.152900  0.861600  1
  C  C778  1  0.803000  0.847100  0.138400  1
  C  C779  1  0.193600  0.103100  0.884700  1
  C  C780  1  0.806400  0.896900  0.115300  1
  C  C781  1  0.244000  0.078100  0.897900  1
  C  C782  1  0.756000  0.921900  0.102100  1
  C  C783  1  0.303900  0.099500  0.887800  1
  C  C784  1  0.696100  0.900500  0.112200  1
  C  C785  1  0.368700  0.226300  0.828200  1
  C  C786  1  0.631300  0.773700  0.171800  1
  C  C787  1  0.366300  0.268600  0.841400  1
  C  C788  1  0.633700  0.731400  0.158600  1
  C  C789  1  0.369600  0.293500  0.901600  1
  C  C790  1  0.630400  0.706500  0.098400  1
  C  C791  1  0.386000  0.263200  0.940400  1
  C  C792  1  0.614000  0.736800  0.059600  1
  C  C793  1  0.429800  0.183100  0.964600  1
  C  C794  1  0.570200  0.816900  0.035400  1
  C  C795  1  0.559100  0.206200  0.607100  1
  C  C796  1  0.440900  0.793800  0.392900  1
  C  C797  1  0.579400  0.217200  0.538800  1
  C  C798  1  0.420600  0.782800  0.461200  1
  C  C799  1  0.539200  0.259200  0.532200  1
  C  C800  1  0.460800  0.740800  0.467800  1
  C  C801  1  0.511200  0.274500  0.563500  1
  C  C802  1  0.488800  0.725500  0.436500  1
  C  C803  1  0.518900  0.250800  0.604000  1
  C  C804  1  0.481100  0.749200  0.396000  1
  C  C805  1  0.488700  0.264100  0.641200  1
  C  C806  1  0.511300  0.735900  0.358800  1
  C  C807  1  0.424700  0.266200  0.651400  1
  C  C808  1  0.575300  0.733800  0.348600  1
  C  C809  1  0.381800  0.257600  0.628400  1
  C  C810  1  0.618200  0.742400  0.371600  1
  C  C811  1  0.319400  0.260000  0.638400  1
  C  C812  1  0.680600  0.740000  0.361600  1
  C  C813  1  0.295700  0.269700  0.675500  1
  C  C814  1  0.704300  0.730300  0.324500  1
  C  C815  1  0.331100  0.275000  0.700200  1
  C  C816  1  0.668900  0.725000  0.299800  1
  C  C817  1  0.398900  0.274000  0.690300  1
  C  C818  1  0.601100  0.726000  0.309700  1
  C  C819  1  0.436500  0.278400  0.717700  1
  C  C820  1  0.563500  0.721600  0.282300  1
  C  C821  1  0.501400  0.278500  0.705700  1
  C  C822  1  0.498600  0.721500  0.294300  1
  C  C823  1  0.542400  0.283400  0.731400  1
  C  C824  1  0.457600  0.716600  0.268600  1
  C  C825  1  0.604100  0.288700  0.718300  1
  C  C826  1  0.395900  0.711300  0.281700  1
  C  C827  1  0.629200  0.286100  0.679400  1
  C  C828  1  0.370800  0.713900  0.320600  1
  C  C829  1  0.594000  0.280900  0.654500  1
  C  C830  1  0.406000  0.719100  0.345500  1
  C  C831  1  0.527700  0.273100  0.666400  1
  C  C832  1  0.472300  0.726900  0.333600  1
  C  C833  1  0.409200  0.278000  0.759700  1
  C  C834  1  0.590800  0.722000  0.240300  1
  C  C835  1  0.407900  0.319100  0.775500  1
  C  C836  1  0.592100  0.680900  0.224500  1
  C  C837  1  0.444900  0.402400  0.760400  1
  C  C838  1  0.555100  0.597600  0.239600  1
  C  C839  1  0.512700  0.393900  0.765500  1
  C  C840  1  0.487300  0.606100  0.234500  1
  C  C841  1  0.514100  0.373100  0.835200  1
  C  C842  1  0.485900  0.626900  0.164800  1
  C  C843  1  0.460700  0.858200  0.907400  1
  C  C844  1  0.539300  0.141800  0.092600  1
  C  C845  1  0.399200  0.793900  0.937000  1
  C  C846  1  0.600800  0.206100  0.063000  1
  C  C847  1  0.447500  0.762400  0.952000  1
  C  C848  1  0.552500  0.237600  0.048000  1
  C  C849  1  0.503900  0.782300  0.944500  1
  C  C850  1  0.496100  0.217700  0.055500  1
  C  C851  1  0.512600  0.833700  0.922400  1
  C  C852  1  0.487400  0.166300  0.077600  1
  C  C853  1  0.572700  0.858200  0.913400  1
  C  C854  1  0.427300  0.141800  0.086600  1
  C  C855  1  0.624500  0.842100  0.890600  1
  C  C856  1  0.375500  0.157900  0.109400  1
  C  C857  1  0.626200  0.799600  0.873300  1
  C  C858  1  0.373800  0.200400  0.126700  1
  C  C859  1  0.674700  0.785300  0.851600  1
  C  C860  1  0.325300  0.214700  0.148400  1
  C  C861  1  0.730000  0.810800  0.842400  1
  C  C862  1  0.270000  0.189200  0.157600  1
  C  C863  1  0.730900  0.851200  0.855500  1
  C  C864  1  0.269100  0.148800  0.144500  1
  C  C865  1  0.679600  0.869500  0.878800  1
  C  C866  1  0.320400  0.130500  0.121200  1
  C  C867  1  0.681600  0.910900  0.891800  1
  C  C868  1  0.318400  0.089100  0.108200  1
  C  C869  1  0.630200  0.926600  0.915900  1
  C  C870  1  0.369800  0.073400  0.084100  1
  C  C871  1  0.630400  0.969900  0.929400  1
  C  C872  1  0.369600  0.030100  0.070600  1
  C  C873  1  0.581500  0.983800  0.953600  1
  C  C874  1  0.418500  0.016200  0.046400  1
  C  C875  1  0.530200  0.954200  0.968800  1
  C  C876  1  0.469800  0.045800  0.031200  1
  C  C877  1  0.527800  0.913500  0.957600  1
  C  C878  1  0.472200  0.086500  0.042400  1
  C  C879  1  0.575000  0.898900  0.928100  1
  C  C880  1  0.425000  0.101100  0.071900  1
  C  C881  1  0.736700  0.942300  0.876800  1
  C  C882  1  0.263300  0.057700  0.123200  1
  C  C883  1  0.779700  0.944000  0.901500  1
  C  C884  1  0.220300  0.056000  0.098500  1
  C  C885  1  0.803100  0.918500  0.969800  1
  C  C886  1  0.196900  0.081500  0.030200  1
  C  C887  1  0.773900  0.888800  0.009700  1
  C  C888  1  0.226100  0.111200  0.990300  1
  C  C889  1  0.750500  0.809500  0.051300  1
  C  C890  1  0.249500  0.190500  0.948700  1
  C  C891  1  0.714600  0.137700  0.650000  1
  C  C892  1  0.285400  0.862300  0.350000  1
  C  C893  1  0.721100  0.209300  0.598600  1
  C  C894  1  0.278900  0.790700  0.401400  1
  C  C895  1  0.759300  0.228100  0.617100  1
  C  C896  1  0.240700  0.771900  0.382900  1
  C  C897  1  0.777800  0.200300  0.652400  1
  C  C898  1  0.222200  0.799700  0.347600  1
  C  C899  1  0.754100  0.152100  0.670800  1
  C  C900  1  0.245900  0.847900  0.329200  1
  C  C901  1  0.770300  0.119400  0.710900  1
  C  C902  1  0.229700  0.880600  0.289100  1
  C  C903  1  0.800800  0.073100  0.711800  1
  C  C904  1  0.199200  0.926900  0.288200  1
  C  C905  1  0.827700  0.055600  0.675700  1
  C  C906  1  0.172300  0.944400  0.324300  1
  C  C907  1  0.855100  0.011700  0.677800  1
  C  C908  1  0.144900  0.988300  0.322200  1
  C  C909  1  0.861800  0.979600  0.714500  1
  C  C910  1  0.138200  0.020400  0.285500  1
  C  C911  1  0.843100  0.989700  0.748600  1
  C  C912  1  0.156900  0.010300  0.251400  1
  C  C913  1  0.809700  0.039000  0.749600  1
  C  C914  1  0.190300  0.961000  0.250400  1
  C  C915  1  0.789200  0.050500  0.785600  1
  C  C916  1  0.210800  0.949500  0.214400  1
  C  C917  1  0.759800  0.097900  0.784700  1
  C  C918  1  0.240200  0.902100  0.215300  1
  C  C919  1  0.735500  0.111300  0.820800  1
  C  C920  1  0.264500  0.888700  0.179200  1
  C  C921  1  0.704700  0.156100  0.819800  1
  C  C922  1  0.295300  0.843900  0.180200  1
  C  C923  1  0.694600  0.188800  0.782700  1
  C  C924  1  0.305400  0.811200  0.217300  1
  C  C925  1  0.714800  0.177900  0.748400  1
  C  C926  1  0.285200  0.822100  0.251600  1
  C  C927  1  0.751300  0.132400  0.746500  1
  C  C928  1  0.248700  0.867600  0.253500  1
  C  C929  1  0.790600  0.012200  0.824800  1
  C  C930  1  0.209400  0.987800  0.175200  1
  C  C931  1  0.830800  0.010600  0.852200  1
  C  C932  1  0.169200  0.989400  0.147800  1
  C  C933  1  0.895000  0.062800  0.870300  1
  C  C934  1  0.105000  0.937200  0.129700  1
  C  C935  1  0.940300  0.103300  0.847700  1
  C  C936  1  0.059700  0.896700  0.152300  1
  C  C937  1  0.044600  0.120600  0.827600  1
  C  C938  1  0.955400  0.879400  0.172400  1
  C  C939  1  0.342000  0.817800  0.847100  1
  C  C940  1  0.658000  0.182200  0.152900  1
  C  C941  1  0.248300  0.812200  0.889400  1
  C  C942  1  0.751700  0.187800  0.110600  1
  C  C943  1  0.232700  0.773900  0.874200  1
  C  C944  1  0.767300  0.226100  0.125800  1
  C  C945  1  0.272700  0.758400  0.847100  1
  C  C946  1  0.727300  0.241600  0.152900  1
  C  C947  1  0.333900  0.778600  0.832000  1
  C  C948  1  0.666100  0.221400  0.168000  1
  C  C949  1  0.378700  0.764900  0.799500  1
  C  C950  1  0.621300  0.235100  0.200500  1
  C  C951  1  0.365600  0.773000  0.760900  1
  C  C952  1  0.634400  0.227000  0.239100  1
  C  C953  1  0.304800  0.791700  0.747400  1
  C  C954  1  0.695200  0.208300  0.252600  1
  C  C955  1  0.296600  0.800800  0.710600  1
  C  C956  1  0.703400  0.199200  0.289400  1
  C  C957  1  0.342000  0.793000  0.680600  1
  C  C958  1  0.658000  0.207000  0.319400  1
  C  C959  1  0.400700  0.774600  0.688900  1
  C  C960  1  0.599300  0.225400  0.311100  1
  C  C961  1  0.413100  0.764300  0.727900  1
  C  C962  1  0.586900  0.235700  0.272100  1
  C  C963  1  0.475600  0.750000  0.736900  1
  C  C964  1  0.524400  0.250000  0.263100  1
  C  C965  1  0.487200  0.740600  0.776600  1
  C  C966  1  0.512800  0.259400  0.223400  1
  C  C967  1  0.546700  0.722300  0.787700  1
  C  C968  1  0.453300  0.277700  0.212300  1
  C  C969  1  0.556600  0.709800  0.826300  1
  C  C970  1  0.443400  0.290200  0.173700  1
  C  C971  1  0.509200  0.715100  0.857400  1
  C  C972  1  0.490800  0.284900  0.142600  1
  C  C973  1  0.452500  0.730400  0.849300  1
  C  C974  1  0.547500  0.269600  0.150700  1
  C  C975  1  0.438200  0.746300  0.808500  1
  C  C976  1  0.561800  0.253700  0.191500  1
  C  C977  1  0.527600  0.750800  0.703100  1
  C  C978  1  0.472400  0.249200  0.296900  1
  C  C979  1  0.538000  0.716600  0.680400  1
  C  C980  1  0.462000  0.283400  0.319600  1
  C  C981  1  0.490900  0.649700  0.667000  1
  C  C982  1  0.509100  0.350300  0.333000  1
  C  C983  1  0.482600  0.597300  0.690400  1
  C  C984  1  0.517400  0.402700  0.309600  1
  C  C985  1  0.457700  0.519700  0.689000  1
  C  C986  1  0.542300  0.480300  0.311000  1
  C  C987  1  0.693000  0.027200  0.605300  1
  C  C988  1  0.307000  0.972800  0.394700  1
  C  C989  1  0.775200  0.080600  0.577200  1
  C  C990  1  0.224800  0.919400  0.422800  1
  C  C991  1  0.814600  0.039900  0.577500  1
  C  C992  1  0.185400  0.960100  0.422500  1
  C  C993  1  0.796200  0.994100  0.589300  1
  C  C994  1  0.203800  0.005900  0.410700  1
  C  C995  1  0.734100  0.985400  0.604700  1
  C  C996  1  0.265900  0.014600  0.395300  1
  C  C997  1  0.707200  0.934400  0.618400  1
  C  C998  1  0.292800  0.065600  0.381600  1
  C  C999  1  0.671600  0.923800  0.592300  1
  C  C1000  1  0.328400  0.076200  0.407700  1
  C  C1001  1  0.666300  0.953800  0.552800  1
  C  C1002  1  0.333700  0.046200  0.447200  1
  C  C1003  1  0.631200  0.941500  0.529700  1
  C  C1004  1  0.368800  0.058500  0.470300  1
  C  C1005  1  0.599500  0.899400  0.544200  1
  C  C1006  1  0.400500  0.100600  0.455800  1
  C  C1007  1  0.601800  0.870200  0.579400  1
  C  C1008  1  0.398200  0.129800  0.420600  1
  C  C1009  1  0.640500  0.878000  0.606900  1
  C  C1010  1  0.359500  0.122000  0.393100  1
  C  C1011  1  0.646300  0.844700  0.644300  1
  C  C1012  1  0.353700  0.155300  0.355700  1
  C  C1013  1  0.684800  0.855500  0.668600  1
  C  C1014  1  0.315200  0.144500  0.331400  1
  C  C1015  1  0.693400  0.823000  0.707100  1
  C  C1016  1  0.306600  0.177000  0.292900  1
  C  C1017  1  0.726700  0.835500  0.731700  1
  C  C1018  1  0.273300  0.164500  0.268300  1
  C  C1019  1  0.754700  0.881100  0.718600  1
  C  C1020  1  0.245300  0.118900  0.281400  1
  C  C1021  1  0.750400  0.912000  0.682600  1
  C  C1022  1  0.249600  0.088000  0.317400  1
  C  C1023  1  0.715300  0.901900  0.654600  1
  C  C1024  1  0.284700  0.098100  0.345400  1
  C  C1025  1  0.611100  0.798900  0.658900  1
  C  C1026  1  0.388900  0.201100  0.341100  1
  C  C1027  1  0.622700  0.759300  0.641000  1
  C  C1028  1  0.377300  0.240700  0.359000  1
  C  C1029  1  0.665700  0.748400  0.575200  1
  C  C1030  1  0.334300  0.251600  0.424800  1
  C  C1031  1  0.700600  0.787100  0.538100  1
  C  C1032  1  0.299400  0.212900  0.461900  1
  C  C1033  1  0.771100  0.723300  0.529500  1
  C  C1034  1  0.228900  0.276700  0.470500  1
  C  C1035  1  0.236400  0.940600  0.849300  1
  C  C1036  1  0.763600  0.059400  0.150700  1
  C  C1037  1  0.208600  0.932500  0.919400  1
  C  C1038  1  0.791400  0.067500  0.080600  1
  C  C1039  1  0.153100  0.961900  0.909600  1
  C  C1040  1  0.846900  0.038100  0.090400  1
  C  C1041  1  0.140200  0.977700  0.870600  1
  C  C1042  1  0.859800  0.022300  0.129400  1
  C  C1043  1  0.181800  0.966600  0.839700  1
  C  C1044  1  0.818200  0.033400  0.160300  1
  C  C1045  1  0.173200  0.983900  0.796100  1
  C  C1046  1  0.826800  0.016100  0.203900  1
  C  C1047  1  0.163300  0.947900  0.777600  1
  C  C1048  1  0.836700  0.052100  0.222400  1
  C  C1049  1  0.155400  0.895200  0.798800  1
  C  C1050  1  0.844600  0.104800  0.201200  1
  C  C1051  1  0.149100  0.862400  0.780600  1
  C  C1052  1  0.850900  0.137600  0.219400  1
  C  C1053  1  0.147900  0.876500  0.739900  1
  C  C1054  1  0.852100  0.123500  0.260100  1
  C  C1055  1  0.153200  0.923200  0.718000  1
  C  C1056  1  0.846800  0.076800  0.282000  1
  C  C1057  1  0.160200  0.961800  0.735800  1
  C  C1058  1  0.839800  0.038200  0.264200  1
  C  C1059  1  0.168700  0.013000  0.712000  1
  C  C1060  1  0.831300  0.987000  0.288000  1
  C  C1061  1  0.176700  0.048500  0.731400  1
  C  C1062  1  0.823300  0.951500  0.268600  1
  C  C1063  1  0.186500  0.099600  0.709200  1
  C  C1064  1  0.813500  0.900400  0.290800  1
  C  C1065  1  0.197100  0.133200  0.727300  1
  C  C1066  1  0.802900  0.866800  0.272700  1
  C  C1067  1  0.199500  0.119400  0.768800  1
  C  C1068  1  0.800500  0.880600  0.231200  1
  C  C1069  1  0.191100  0.072600  0.791000  1
  C  C1070  1  0.808900  0.927400  0.209000  1
  C  C1071  1  0.178800  0.034100  0.774000  1
  C  C1072  1  0.821200  0.965900  0.226000  1
  C  C1073  1  0.177100  0.026800  0.666900  1
  C  C1074  1  0.822900  0.973200  0.333100  1
  C  C1075  1  0.127900  0.034200  0.644900  1
  C  C1076  1  0.872100  0.965800  0.355100  1
  C  C1077  1  0.018200  0.023800  0.650000  1
  C  C1078  1  0.981800  0.976200  0.350000  1
  C  C1079  1  0.018300  0.972100  0.648800  1
  C  C1080  1  0.981700  0.027900  0.351200  1
  C  C1081  1  0.015700  0.888600  0.686500  1
  C  C1082  1  0.984300  0.111400  0.313500  1
  C  C1083  1  0.545600  0.093400  0.565400  1
  C  C1084  1  0.454400  0.906600  0.434600  1
  C  C1085  1  0.632600  0.092800  0.520000  1
  C  C1086  1  0.367400  0.907200  0.480000  1
  C  C1087  1  0.604400  0.073100  0.498300  1
  C  C1088  1  0.395600  0.926900  0.501700  1
  C  C1089  1  0.542300  0.064600  0.509300  1
  C  C1090  1  0.457700  0.935400  0.490700  1
  C  C1091  1  0.512600  0.074700  0.544200  1
  C  C1092  1  0.487400  0.925300  0.455800  1
  C  C1093  1  0.444300  0.067200  0.558000  1
  C  C1094  1  0.555700  0.932800  0.442000  1
  C  C1095  1  0.421600  0.018100  0.572200  1
  C  C1096  1  0.578400  0.981900  0.427800  1
  C  C1097  1  0.463500  0.974100  0.578300  1
  C  C1098  1  0.536500  0.025900  0.421700  1
  C  C1099  1  0.441400  0.928100  0.595000  1
  C  C1100  1  0.558600  0.071900  0.405000  1
  C  C1101  1  0.379800  0.922200  0.607500  1
  C  C1102  1  0.620200  0.077800  0.392500  1
  C  C1103  1  0.337500  0.961300  0.603600  1
  C  C1104  1  0.662500  0.038700  0.396400  1
  C  C1105  1  0.357000  0.012400  0.586900  1
  C  C1106  1  0.643000  0.987600  0.413100  1
  C  C1107  1  0.315600  0.053500  0.585200  1
  C  C1108  1  0.684400  0.946500  0.414800  1
  C  C1109  1  0.337700  0.102100  0.570800  1
  C  C1110  1  0.662300  0.897900  0.429200  1
  C  C1111  1  0.297600  0.145000  0.570000  1
  C  C1112  1  0.702400  0.855000  0.430000  1
  C  C1113  1  0.319600  0.191600  0.556700  1
  C  C1114  1  0.680400  0.808400  0.443300  1
  C  C1115  1  0.381700  0.198200  0.540300  1
  C  C1116  1  0.618300  0.801800  0.459700  1
  C  C1117  1  0.420600  0.160000  0.538800  1
  C  C1118  1  0.579400  0.840000  0.461200  1
  C  C1119  1  0.402300  0.108700  0.555500  1
  C  C1120  1  0.597700  0.891300  0.444500  1
  C  C1121  1  0.250500  0.046000  0.605300  1
  C  C1122  1  0.749500  0.954000  0.394700  1
  C  C1123  1  0.200200  0.050400  0.584300  1
  C  C1124  1  0.799800  0.949600  0.415700  1
  C  C1125  1  0.170700  0.093100  0.518800  1
  C  C1126  1  0.829300  0.906900  0.481200  1
  C  C1127  1  0.206400  0.112000  0.475700  1
  C  C1128  1  0.793600  0.888000  0.524300  1
  C  C1129  1  0.198800  0.166700  0.411900  1
  C  C1130  1  0.801200  0.833300  0.588100  1
  C  C1131  1  0.389000  0.233200  0.786300  1
  C  C1132  1  0.611000  0.766800  0.213700  1
  C  C1133  1  0.383900  0.311200  0.816200  1
  C  C1134  1  0.616100  0.688800  0.183800  1
  C  C1135  1  0.744400  0.978200  0.839800  1
  C  C1136  1  0.255600  0.021800  0.160200  1
  C  C1137  1  0.826500  0.977100  0.888600  1
  C  C1138  1  0.173500  0.022900  0.111400  1
  C  C1139  1  0.562700  0.789600  0.691100  1
  C  C1140  1  0.437300  0.210400  0.308900  1
  C  C1141  1  0.590000  0.722100  0.649200  1
  C  C1142  1  0.410000  0.277900  0.350800  1
  C  C1143  1  0.236300  0.033100  0.645500  1
  C  C1144  1  0.763700  0.966900  0.354500  1
  C  C1145  1  0.142300  0.046500  0.602600  1
  C  C1146  1  0.857700  0.953500  0.397400  1
  C  C1147  1  0.495800  0.088500  0.674500  1
  C  C1148  1  0.504200  0.911500  0.325500  1
  C  C1149  1  0.531500  0.045300  0.673800  1
  C  C1150  1  0.468500  0.954700  0.326200  1
  C  C1151  1  0.581900  0.044900  0.692800  1
  C  C1152  1  0.418100  0.955100  0.307200  1
  C  C1153  1  0.575400  0.086400  0.707100  1
  C  C1154  1  0.424600  0.913600  0.292900  1
  C  C1155  1  0.520600  0.111800  0.697400  1
  C  C1156  1  0.479400  0.888200  0.302600  1
  C  C1157  1  0.487500  0.143900  0.717600  1
  C  C1158  1  0.512500  0.856100  0.282400  1
  C  C1159  1  0.426400  0.151500  0.711100  1
  C  C1160  1  0.573600  0.848500  0.288900  1
  C  C1161  1  0.401000  0.128500  0.688300  1
  C  C1162  1  0.599000  0.871500  0.311700  1
  C  C1163  1  0.433600  0.092200  0.672400  1
  C  C1164  1  0.566400  0.907800  0.327600  1
  C  C1165  1  0.413500  0.053700  0.661700  1
  C  C1166  1  0.586500  0.946300  0.338300  1
  C  C1167  1  0.448900  0.009900  0.663100  1
  C  C1168  1  0.551100  0.990100  0.336900  1
  C  C1169  1  0.511500  0.004200  0.666100  1
  C  C1170  1  0.488500  0.995800  0.333900  1
  C  C1171  1  0.551900  0.963300  0.676700  1
  C  C1172  1  0.448100  0.036700  0.323300  1
  C  C1173  1  0.599600  0.961100  0.698200  1
  C  C1174  1  0.400400  0.038900  0.301800  1
  C  C1175  1  0.613700  0.001200  0.710000  1
  C  C1176  1  0.386300  0.998800  0.290000  1
  C  C1177  1  0.650200  0.008100  0.736300  1
  C  C1178  1  0.349800  0.991900  0.263700  1
  C  C1179  1  0.642700  0.048700  0.751700  1
  C  C1180  1  0.357300  0.951300  0.248300  1
  C  C1181  1  0.601000  0.088500  0.740000  1
  C  C1182  1  0.399000  0.911500  0.260000  1
  C  C1183  1  0.573300  0.125900  0.756500  1
  C  C1184  1  0.426700  0.874100  0.243500  1
  C  C1185  1  0.519300  0.152100  0.745600  1
  C  C1186  1  0.480700  0.847900  0.254400  1
  C  C1187  1  0.746300  0.431800  0.527200  1
  C  C1188  1  0.253700  0.568200  0.472800  1
  C  C1189  1  0.475000  0.799500  0.562600  1
  C  C1190  1  0.525000  0.200500  0.437400  1
  C  C1191  1  0.487400  0.401500  0.921600  1
  C  C1192  1  0.512600  0.598500  0.078400  1
  C  C1193  1  0.059800  0.046200  0.436800  1
  C  C1194  1  0.940200  0.953800  0.563200  1
  C  C1195  1  0.011500  0.689300  0.934700  1
  C  C1196  1  0.988500  0.310700  0.065300  1
  C  C1197  1  0.054800  0.593700  0.068900  1
  C  C1198  1  0.945200  0.406300  0.931100  1
  C  C1199  1  0.138900  0.599500  0.019200  1
  C  C1200  1  0.861100  0.400500  0.980800  1
  C  C1201  1  0.105200  0.582900  0.997900  1
  C  C1202  1  0.894800  0.417100  0.002100  1
  C  C1203  1  0.044500  0.572200  0.010300  1
  C  C1204  1  0.955500  0.427800  0.989700  1
  C  C1205  1  0.018300  0.577900  0.048200  1
  C  C1206  1  0.981700  0.422100  0.951800  1
  C  C1207  1  0.952200  0.566100  0.065500  1
  C  C1208  1  0.047800  0.433900  0.934500  1
  C  C1209  1  0.909600  0.605600  0.070500  1
  C  C1210  1  0.090400  0.394400  0.929500  1
  C  C1211  1  0.922900  0.657300  0.056800  1
  C  C1212  1  0.077100  0.342700  0.943200  1
  C  C1213  1  0.884800  0.694100  0.065600  1
  C  C1214  1  0.115200  0.305900  0.934400  1
  C  C1215  1  0.825700  0.682600  0.086800  1
  C  C1216  1  0.174300  0.317400  0.913200  1
  C  C1217  1  0.807200  0.635300  0.098500  1
  C  C1218  1  0.192800  0.364700  0.901500  1
  C  C1219  1  0.847600  0.595900  0.090500  1
  C  C1220  1  0.152400  0.404100  0.909500  1
  C  C1221  1  0.829800  0.546900  0.103900  1
  C  C1222  1  0.170200  0.453100  0.896100  1
  C  C1223  1  0.871100  0.508100  0.096700  1
  C  C1224  1  0.128900  0.491900  0.903300  1
  C  C1225  1  0.854500  0.457200  0.110700  1
  C  C1226  1  0.145500  0.542800  0.889300  1
  C  C1227  1  0.896000  0.419700  0.107100  1
  C  C1228  1  0.104000  0.580300  0.892900  1
  C  C1229  1  0.958200  0.428900  0.091400  1
  C  C1230  1  0.041800  0.571100  0.908600  1
  C  C1231  1  0.975700  0.475600  0.076300  1
  C  C1232  1  0.024300  0.524400  0.923700  1
  C  C1233  1  0.934100  0.518000  0.078200  1
  C  C1234  1  0.065900  0.482000  0.921800  1
  C  C1235  1  0.765900  0.536500  0.125900  1
  C  C1236  1  0.234100  0.463500  0.874100  1
  C  C1237  1  0.712800  0.546200  0.107500  1
  C  C1238  1  0.287200  0.453800  0.892500  1
  C  C1239  1  0.670400  0.584800  0.045400  1
  C  C1240  1  0.329600  0.415200  0.954600  1
  C  C1241  1  0.694000  0.609000  0.002400  1
  C  C1242  1  0.306000  0.391000  0.997600  1
  C  C1243  1  0.667200  0.653400  0.939300  1
  C  C1244  1  0.332800  0.346600  0.060700  1
  C  C1245  1  0.787300  0.408000  0.369200  1
  C  C1246  1  0.212700  0.592000  0.630800  1
  C  C1247  1  0.766000  0.397500  0.438100  1
  C  C1248  1  0.234000  0.602500  0.561900  1
  C  C1249  1  0.710700  0.424100  0.434100  1
  C  C1250  1  0.289300  0.575900  0.565900  1
  C  C1251  1  0.692400  0.441600  0.396300  1
  C  C1252  1  0.307600  0.558400  0.603700  1
  C  C1253  1  0.730600  0.434700  0.361300  1
  C  C1254  1  0.269400  0.565300  0.638700  1
  C  C1255  1  0.714900  0.454000  0.322000  1
  C  C1256  1  0.285100  0.546000  0.678000  1
  C  C1257  1  0.712700  0.504600  0.301800  1
  C  C1258  1  0.287300  0.495400  0.698200  1
  C  C1259  1  0.719200  0.543500  0.321000  1
  C  C1260  1  0.280800  0.456500  0.679000  1
  C  C1261  1  0.729300  0.592200  0.298900  1
  C  C1262  1  0.270700  0.407800  0.701100  1
  C  C1263  1  0.720900  0.606800  0.259300  1
  C  C1264  1  0.279100  0.393200  0.740700  1
  C  C1265  1  0.710600  0.575000  0.239500  1
  C  C1266  1  0.289400  0.425000  0.760500  1
  C  C1267  1  0.705400  0.522200  0.260100  1
  C  C1268  1  0.294600  0.477800  0.739900  1
  C  C1269  1  0.700300  0.489200  0.237300  1
  C  C1270  1  0.299700  0.510800  0.762700  1
  C  C1271  1  0.696300  0.437900  0.258100  1
  C  C1272  1  0.303700  0.562100  0.741900  1
  C  C1273  1  0.688300  0.402300  0.237900  1
  C  C1274  1  0.311700  0.597700  0.762100  1
  C  C1275  1  0.687500  0.352800  0.257800  1
  C  C1276  1  0.312500  0.647200  0.742200  1
  C  C1277  1  0.692400  0.336300  0.298700  1
  C  C1278  1  0.307600  0.663700  0.701300  1
  C  C1279  1  0.700400  0.367300  0.318900  1
  C  C1280  1  0.299600  0.632700  0.681100  1
  C  C1281  1  0.705900  0.420500  0.299600  1
  C  C1282  1  0.294100  0.579500  0.700400  1
  C  C1283  1  0.702500  0.506300  0.192900  1
  C  C1284  1  0.297500  0.493700  0.807100  1
  C  C1285  1  0.650300  0.517800  0.173000  1
  C  C1286  1  0.349700  0.482200  0.827000  1
  C  C1287  1  0.540000  0.508900  0.179800  1
  C  C1288  1  0.460000  0.491100  0.820200  1
  C  C1289  1  0.545200  0.460500  0.167700  1
  C  C1290  1  0.454800  0.539500  0.832300  1
  C  C1291  1  0.557600  0.374400  0.192600  1
  C  C1292  1  0.442400  0.625600  0.807400  1
  C  C1293  1  0.076000  0.697800  0.121100  1
  C  C1294  1  0.924000  0.302200  0.878900  1
  C  C1295  1  0.082500  0.716600  0.052300  1
  C  C1296  1  0.917500  0.283400  0.947700  1
  C  C1297  1  0.039600  0.754500  0.053100  1
  C  C1298  1  0.960400  0.245500  0.946900  1
  C  C1299  1  0.015500  0.767100  0.087100  1
  C  C1300  1  0.984500  0.232900  0.912900  1
  C  C1301  1  0.032600  0.738100  0.124400  1
  C  C1302  1  0.967400  0.261900  0.875600  1
  C  C1303  1  0.008800  0.747600  0.163900  1
  C  C1304  1  0.991200  0.252400  0.836100  1
  C  C1305  1  0.049200  0.759100  0.185700  1
  C  C1306  1  0.950800  0.240900  0.814300  1
  C  C1307  1  0.113300  0.773500  0.167600  1
  C  C1308  1  0.886700  0.226500  0.832400  1
  C  C1309  1  0.152500  0.785500  0.186800  1
  C  C1310  1  0.847500  0.214500  0.813200  1
  C  C1311  1  0.133400  0.785700  0.226600  1
  C  C1312  1  0.866600  0.214300  0.773400  1
  C  C1313  1  0.077300  0.773900  0.246000  1
  C  C1314  1  0.922700  0.226100  0.754000  1
  C  C1315  1  0.030800  0.761800  0.225200  1
  C  C1316  1  0.969200  0.238200  0.774800  1
  C  C1317  1  0.969100  0.752100  0.244800  1
  C  C1318  1  0.030900  0.247900  0.755200  1
  C  C1319  1  0.926600  0.743900  0.222200  1
  C  C1320  1  0.073400  0.256100  0.777800  1
  C  C1321  1  0.862800  0.735600  0.239200  1
  C  C1322  1  0.137200  0.264400  0.760800  1
  C  C1323  1  0.823600  0.722500  0.219100  1
  C  C1324  1  0.176400  0.277500  0.780900  1
  C  C1325  1  0.843700  0.717100  0.180400  1
  C  C1326  1  0.156300  0.282900  0.819600  1
  C  C1327  1  0.900700  0.728600  0.161500  1
  C  C1328  1  0.099300  0.271400  0.838500  1
  C  C1329  1  0.946300  0.742000  0.181200  1
  C  C1330  1  0.053700  0.258000  0.818800  1
  C  C1331  1  0.949900  0.747800  0.288700  1
  C  C1332  1  0.050100  0.252200  0.711300  1
  C  C1333  1  0.944300  0.787700  0.305500  1
  C  C1334  1  0.055700  0.212300  0.694500  1
  C  C1335  1  0.973000  0.872800  0.292800  1
  C  C1336  1  0.027000  0.127200  0.707200  1
  C  C1337  1  0.040300  0.874100  0.288700  1
  C  C1338  1  0.959700  0.125900  0.711300  1
  C  C1339  1  0.062500  0.843100  0.355000  1
  C  C1340  1  0.937500  0.156900  0.645000  1
  C  C1341  1  0.908600  0.446100  0.424600  1
  C  C1342  1  0.091400  0.553900  0.575400  1
  C  C1343  1  0.920700  0.377600  0.479000  1
  C  C1344  1  0.079300  0.622400  0.521000  1
  C  C1345  1  0.932300  0.407700  0.501900  1
  C  C1346  1  0.067700  0.592300  0.498100  1
  C  C1347  1  0.933200  0.457700  0.485600  1
  C  C1348  1  0.066800  0.542300  0.514400  1
  C  C1349  1  0.920200  0.478700  0.445400  1
  C  C1350  1  0.079800  0.521300  0.554600  1
  C  C1351  1  0.920800  0.533800  0.424500  1
  C  C1352  1  0.079200  0.466200  0.575500  1
  C  C1353  1  0.978100  0.557400  0.412800  1
  C  C1354  1  0.021900  0.442600  0.587200  1
  C  C1355  1  0.034300  0.531600  0.419500  1
  C  C1356  1  0.965700  0.468400  0.580500  1
  C  C1357  1  0.087900  0.554700  0.407000  1
  C  C1358  1  0.912100  0.445300  0.593000  1
  C  C1359  1  0.088500  0.604600  0.388500  1
  C  C1360  1  0.911500  0.395400  0.611500  1
  C  C1361  1  0.035600  0.632300  0.379800  1
  C  C1362  1  0.964400  0.367700  0.620200  1
  C  C1363  1  0.977700  0.610400  0.391400  1
  C  C1364  1  0.022300  0.389600  0.608600  1
  C  C1365  1  0.923800  0.635500  0.382500  1
  C  C1366  1  0.076200  0.364500  0.617500  1
  C  C1367  1  0.866900  0.611700  0.393600  1
  C  C1368  1  0.133100  0.388300  0.606400  1
  C  C1369  1  0.810600  0.636700  0.382600  1
  C  C1370  1  0.189400  0.363300  0.617400  1
  C  C1371  1  0.755700  0.614100  0.395500  1
  C  C1372  1  0.244300  0.385900  0.604500  1
  C  C1373  1  0.754300  0.564100  0.417900  1
  C  C1374  1  0.245700  0.435900  0.582100  1
  C  C1375  1  0.805400  0.538500  0.427900  1
  C  C1376  1  0.194600  0.461500  0.572100  1
  C  C1377  1  0.865800  0.559900  0.416200  1
  C  C1378  1  0.134200  0.440100  0.583800  1
  C  C1379  1  0.926700  0.687800  0.357300  1
  C  C1380  1  0.073300  0.312200  0.642700  1
  C  C1381  1  0.920600  0.729400  0.371900  1
  C  C1382  1  0.079400  0.270600  0.628100  1
  C  C1383  1  0.852700  0.743200  0.430600  1
  C  C1384  1  0.147300  0.256800  0.569400  1
  C  C1385  1  0.876100  0.775500  0.452700  1
  C  C1386  1  0.123900  0.224500  0.547300  1
  C  C1387  1  0.954000  0.829900  0.443800  1
  C  C1388  1  0.046000  0.170100  0.556200  1
  C  C1389  1  0.232700  0.634600  0.150800  1
  C  C1390  1  0.767300  0.365400  0.849200  1
  C  C1391  1  0.232200  0.707200  0.100500  1
  C  C1392  1  0.767800  0.292800  0.899500  1
  C  C1393  1  0.269900  0.727500  0.120200  1
  C  C1394  1  0.730100  0.272500  0.879800  1
  C  C1395  1  0.291900  0.701300  0.152200  1
  C  C1396  1  0.708100  0.298700  0.847800  1
  C  C1397  1  0.272300  0.650600  0.172800  1
  C  C1398  1  0.727700  0.349400  0.827200  1
  C  C1399  1  0.293000  0.618700  0.208900  1
  C  C1400  1  0.707000  0.381300  0.791100  1
  C  C1401  1  0.324300  0.573500  0.208800  1
  C  C1402  1  0.675700  0.426500  0.791200  1
  C  C1403  1  0.349700  0.555800  0.172000  1
  C  C1404  1  0.650300  0.444200  0.828000  1
  C  C1405  1  0.375100  0.514300  0.172200  1
  C  C1406  1  0.624900  0.485700  0.827800  1
  C  C1407  1  0.385100  0.479000  0.209600  1
  C  C1408  1  0.614900  0.521000  0.790400  1
  C  C1409  1  0.369200  0.489800  0.244200  1
  C  C1410  1  0.630800  0.510200  0.755800  1
  C  C1411  1  0.336800  0.537600  0.247300  1
  C  C1412  1  0.663200  0.462400  0.752700  1
  C  C1413  1  0.318300  0.548400  0.283700  1
  C  C1414  1  0.681700  0.451600  0.716300  1
  C  C1415  1  0.290600  0.595300  0.284000  1
  C  C1416  1  0.709400  0.404700  0.716000  1
  C  C1417  1  0.270600  0.608700  0.320800  1
  C  C1418  1  0.729400  0.391300  0.679200  1
  C  C1419  1  0.240000  0.652400  0.321300  1
  C  C1420  1  0.760000  0.347600  0.678700  1
  C  C1421  1  0.226000  0.686100  0.285400  1
  C  C1422  1  0.774000  0.313900  0.714600  1
  C  C1423  1  0.242800  0.675600  0.250300  1
  C  C1424  1  0.757200  0.324400  0.749700  1
  C  C1425  1  0.276900  0.630100  0.246800  1
  C  C1426  1  0.723100  0.369900  0.753200  1
  C  C1427  1  0.326100  0.510200  0.322400  1
  C  C1428  1  0.673900  0.489800  0.677600  1
  C  C1429  1  0.372800  0.507000  0.345100  1
  C  C1430  1  0.627200  0.493000  0.654900  1
  C  C1431  1  0.413100  0.574200  0.361200  1
  C  C1432  1  0.586900  0.425800  0.638800  1
  C  C1433  1  0.473000  0.596800  0.352500  1
  C  C1434  1  0.527000  0.403200  0.647500  1
  C  C1435  1  0.577800  0.585000  0.357200  1
  C  C1436  1  0.422200  0.415000  0.642800  1
  C  C1437  1  0.020700  0.333333  0.412400  1
  C  C1438  1  0.979300  0.666667  0.587600  1
  C  C1439  1  0.967800  0.261900  0.438800  1
  C  C1440  1  0.032200  0.738100  0.561200  1
  C  C1441  1  0.018800  0.233100  0.446700  1
  C  C1442  1  0.981200  0.766900  0.553300  1
  C  C1443  1  0.076900  0.256200  0.439300  1
  C  C1444  1  0.923100  0.743800  0.560700  1
  C  C1445  1  0.074900  0.308600  0.421200  1
  C  C1446  1  0.925100  0.691400  0.578800  1
  C  C1447  1  0.132700  0.337600  0.409400  1
  C  C1448  1  0.867300  0.662400  0.590600  1
  C  C1449  1  0.139400  0.372000  0.431300  1
  C  C1450  1  0.860600  0.628000  0.568700  1
  C  C1451  1  0.099100  0.373300  0.467800  1
  C  C1452  1  0.900900  0.626700  0.532200  1
  C  C1453  1  0.106200  0.405500  0.488500  1
  C  C1454  1  0.893800  0.594500  0.511500  1
  C  C1455  1  0.154100  0.436400  0.474500  1
  C  C1456  1  0.845900  0.563600  0.525500  1
  C  C1457  1  0.196400  0.434900  0.442400  1
  C  C1458  1  0.803600  0.565100  0.557600  1
  C  C1459  1  0.193400  0.400200  0.419300  1
  C  C1460  1  0.806600  0.599800  0.580700  1
  C  C1461  1  0.237300  0.397500  0.386700  1
  C  C1462  1  0.762700  0.602500  0.613300  1
  C  C1463  1  0.233900  0.360600  0.367200  1
  C  C1464  1  0.766100  0.639400  0.632800  1
  C  C1465  1  0.279400  0.354100  0.334700  1
  C  C1466  1  0.720600  0.645900  0.665300  1
  C  C1467  1  0.273800  0.320300  0.314500  1
  C  C1468  1  0.726200  0.679700  0.685500  1
  C  C1469  1  0.224300  0.289100  0.327600  1
  C  C1470  1  0.775700  0.710900  0.672400  1
  C  C1471  1  0.180500  0.293500  0.357600  1
  C  C1472  1  0.819500  0.706500  0.642400  1
  C  C1473  1  0.180900  0.330400  0.379300  1
  C  C1474  1  0.819100  0.669600  0.620700  1
  C  C1475  1  0.287500  0.433100  0.371300  1
  C  C1476  1  0.712500  0.566900  0.628700  1
  C  C1477  1  0.337800  0.432000  0.391600  1
  C  C1478  1  0.662200  0.568000  0.608400  1
  C  C1479  1  0.391200  0.387400  0.447500  1
  C  C1480  1  0.608800  0.612600  0.552500  1
  C  C1481  1  0.387200  0.336000  0.478300  1
  C  C1482  1  0.612800  0.664000  0.521700  1
  C  C1483  1  0.295700  0.361400  0.514200  1
  C  C1484  1  0.704300  0.638600  0.485800  1
  C  C1485  1  0.211800  0.525800  0.096700  1
  C  C1486  1  0.788200  0.474200  0.903300  1
  C  C1487  1  0.286600  0.584200  0.071300  1
  C  C1488  1  0.713400  0.415800  0.928700  1
  C  C1489  1  0.327600  0.548000  0.064500  1
  C  C1490  1  0.672400  0.452000  0.935500  1
  C  C1491  1  0.313700  0.498400  0.074200  1
  C  C1492  1  0.686300  0.501600  0.925800  1
  C  C1493  1  0.249700  0.488600  0.090300  1
  C  C1494  1  0.750300  0.511400  0.909700  1
  C  C1495  1  0.228500  0.435900  0.102100  1
  C  C1496  1  0.771500  0.564100  0.897900  1
  C  C1497  1  0.245000  0.399200  0.135200  1
  C  C1498  1  0.755000  0.600800  0.864800  1
  C  C1499  1  0.286300  0.408100  0.159300  1
  C  C1500  1  0.713700  0.591900  0.840700  1
  C  C1501  1  0.300300  0.373500  0.191400  1
  C  C1502  1  0.699700  0.626500  0.808600  1
  C  C1503  1  0.275900  0.325900  0.203200  1
  C  C1504  1  0.724100  0.674100  0.796800  1
  C  C1505  1  0.236600  0.315700  0.183000  1
  C  C1506  1  0.763400  0.684300  0.817000  1
  C  C1507  1  0.218700  0.352900  0.147500  1
  C  C1508  1  0.781300  0.647100  0.852500  1
  C  C1509  1  0.174500  0.342400  0.126100  1
  C  C1510  1  0.825500  0.657600  0.873900  1
  C  C1511  1  0.161100  0.378200  0.090800  1
  C  C1512  1  0.838900  0.621800  0.909200  1
  C  C1513  1  0.118700  0.370100  0.066900  1
  C  C1514  1  0.881300  0.629900  0.933100  1
  C  C1515  1  0.107700  0.403900  0.032300  1
  C  C1516  1  0.892300  0.596100  0.967700  1
  C  C1517  1  0.135900  0.449400  0.019100  1
  C  C1518  1  0.864100  0.550600  0.980900  1
  C  C1519  1  0.173100  0.460400  0.041100  1
  C  C1520  1  0.826900  0.539600  0.958900  1
  C  C1521  1  0.188200  0.425900  0.078300  1
  C  C1522  1  0.811800  0.574100  0.921700  1
  C  C1523  1  0.141100  0.295200  0.141600  1
  C  C1524  1  0.858900  0.704800  0.858400  1
  C  C1525  1  0.149700  0.256900  0.123100  1
  C  C1526  1  0.850300  0.743100  0.876900  1
  C  C1527  1  0.184300  0.235300  0.060400  1
  C  C1528  1  0.815700  0.764700  0.939600  1
  C  C1529  1  0.207000  0.262900  0.018600  1
  C  C1530  1  0.793000  0.737100  0.981400  1
  C  C1531  1  0.307900  0.241000  0.032900  1
  C  C1532  1  0.692100  0.759000  0.967100  1
  C  C1533  1  0.895200  0.294200  0.351800  1
  C  C1534  1  0.104800  0.705800  0.648200  1
  C  C1535  1  0.807400  0.279600  0.399600  1
  C  C1536  1  0.192600  0.720400  0.600400  1
  C  C1537  1  0.791600  0.244700  0.381700  1
  C  C1538  1  0.208400  0.755300  0.618300  1
  C  C1539  1  0.830300  0.232300  0.351300  1
  C  C1540  1  0.169700  0.767700  0.648700  1
  C  C1541  1  0.886400  0.258300  0.334400  1
  C  C1542  1  0.113600  0.741700  0.665600  1
  C  C1543  1  0.929200  0.249100  0.299700  1
  C  C1544  1  0.070800  0.750900  0.700300  1
  C  C1545  1  0.910300  0.259300  0.261600  1
  C  C1546  1  0.089700  0.740700  0.738400  1
  C  C1547  1  0.848300  0.276200  0.252200  1
  C  C1548  1  0.151700  0.723800  0.747800  1
  C  C1549  1  0.832600  0.286500  0.217500  1
  C  C1550  1  0.167400  0.713500  0.782500  1
  C  C1551  1  0.879100  0.279800  0.183600  1
  C  C1552  1  0.120900  0.720200  0.816400  1
  C  C1553  1  0.936100  0.266400  0.188300  1
  C  C1554  1  0.063900  0.733600  0.811700  1
  C  C1555  1  0.955800  0.254700  0.225600  1
  C  C1556  1  0.044200  0.745300  0.774400  1
  C  C1557  1  0.018100  0.241900  0.231000  1
  C  C1558  1  0.981900  0.758100  0.769000  1
  C  C1559  1  0.036200  0.229200  0.269700  1
  C  C1560  1  0.963800  0.770800  0.730300  1
  C  C1561  1  0.097400  0.211500  0.276000  1
  C  C1562  1  0.902600  0.788500  0.724000  1
  C  C1563  1  0.114400  0.198600  0.313400  1
  C  C1564  1  0.885600  0.801400  0.686600  1
  C  C1565  1  0.070900  0.201900  0.347000  1
  C  C1566  1  0.929100  0.798100  0.653000  1
  C  C1567  1  0.012700  0.215000  0.343400  1
  C  C1568  1  0.987300  0.785000  0.656600  1
  C  C1569  1  0.990900  0.231500  0.304300  1
  C  C1570  1  0.009100  0.768500  0.695700  1
  C  C1571  1  0.065500  0.245200  0.194500  1
  C  C1572  1  0.934500  0.754800  0.805500  1
  C  C1573  1  0.075700  0.209200  0.173200  1
  C  C1574  1  0.924300  0.790800  0.826800  1
  C  C1575  1  0.053100  0.126700  0.173300  1
  C  C1576  1  0.946900  0.873300  0.826700  1
  C  C1577  1  0.017500  0.083200  0.203800  1
  C  C1578  1  0.982500  0.916800  0.796200  1
  C  C1579  1  0.002700  0.998500  0.218100  1
  C  C1580  1  0.997300  0.001500  0.781900  1
  C  C1581  1  0.757700  0.517800  0.168400  1
  C  C1582  1  0.242300  0.482200  0.831600  1
  C  C1583  1  0.659200  0.537200  0.129400  1
  C  C1584  1  0.340800  0.462800  0.870600  1
  C  C1585  1  0.942100  0.697600  0.314900  1
  C  C1586  1  0.057900  0.302400  0.685100  1
  C  C1587  1  0.928100  0.773800  0.348000  1
  C  C1588  1  0.071900  0.226200  0.652000  1
  C  C1589  1  0.285700  0.471800  0.337100  1
  C  C1590  1  0.714300  0.528200  0.662900  1
  C  C1591  1  0.379200  0.468600  0.378200  1
  C  C1592  1  0.620800  0.531400  0.621800  1
  C  C1593  1  0.097400  0.286600  0.177700  1
  C  C1594  1  0.902600  0.713400  0.822300  1
  C  C1595  1  0.116500  0.215500  0.138900  1
  C  C1596  1  0.883500  0.784500  0.861100  1
  C  C1597  1  0.116300  0.534000  0.191700  1
  C  C1598  1  0.883700  0.466000  0.808300  1
  C  C1599  1  0.111000  0.571400  0.210800  1
  C  C1600  1  0.889000  0.428600  0.789200  1
  C  C1601  1  0.053700  0.595700  0.207700  1
  C  C1602  1  0.946300  0.404300  0.792300  1
  C  C1603  1  0.024700  0.575500  0.184100  1
  C  C1604  1  0.975300  0.424500  0.815900  1
  C  C1605  1  0.062200  0.535300  0.176900  1
  C  C1606  1  0.937800  0.464700  0.823100  1
  C  C1607  1  0.040700  0.496400  0.167100  1
  C  C1608  1  0.959300  0.503600  0.832900  1
  C  C1609  1  0.082500  0.455300  0.173700  1
  C  C1610  1  0.917500  0.544700  0.826300  1
  C  C1611  1  0.134500  0.451700  0.191900  1
  C  C1612  1  0.865500  0.548300  0.808100  1
  C  C1613  1  0.153000  0.491000  0.202700  1
  C  C1614  1  0.847000  0.509000  0.797300  1
  C  C1615  1  0.187100  0.490700  0.232600  1
  C  C1616  1  0.812900  0.509300  0.767400  1
  C  C1617  1  0.185700  0.530600  0.248300  1
  C  C1618  1  0.814300  0.469400  0.751700  1
  C  C1619  1  0.139200  0.567900  0.243900  1
  C  C1620  1  0.860800  0.432100  0.756100  1
  C  C1621  1  0.115700  0.601700  0.265300  1
  C  C1622  1  0.884300  0.398300  0.734700  1
  C  C1623  1  0.060900  0.629500  0.257900  1
  C  C1624  1  0.939100  0.370500  0.742100  1
  C  C1625  1  0.021500  0.622500  0.233300  1
  C  C1626  1  0.978500  0.377500  0.766700  1
  C  C1627  1  0.957800  0.624600  0.233500  1
  C  C1628  1  0.042200  0.375400  0.766500  1
  C  C1629  1  0.932900  0.611900  0.204200  1
  C  C1630  1  0.067100  0.388100  0.795800  1
  C  C1631  1  0.961700  0.580000  0.182600  1
  C  C1632  1  0.038300  0.420000  0.817400  1
  C  C1633  1  0.943800  0.545400  0.166400  1
  C  C1634  1  0.056200  0.454600  0.833600  1
  C  C1635  1  0.977300  0.501100  0.167100  1
  C  C1636  1  0.022700  0.498900  0.832900  1
  C  C1637  1  0.925500  0.469000  0.313400  1
  C  C1638  1  0.074500  0.531000  0.686600  1
  C  C1639  1  0.906500  0.440400  0.291300  1
  C  C1640  1  0.093500  0.559600  0.708700  1
  C  C1641  1  0.948800  0.400800  0.292000  1
  C  C1642  1  0.051200  0.599200  0.708000  1
  C  C1643  1  0.992500  0.403000  0.315700  1
  C  C1644  1  0.007500  0.597000  0.684300  1
  C  C1645  1  0.981000  0.447800  0.325400  1
  C  C1646  1  0.019000  0.552200  0.674600  1
  C  C1647  1  0.023600  0.474900  0.334000  1
  C  C1648  1  0.976400  0.525100  0.666000  1
  C  C1649  1  0.006400  0.525100  0.327700  1
  C  C1650  1  0.993600  0.474900  0.672300  1
  C  C1651  1  0.946400  0.542200  0.323200  1
  C  C1652  1  0.053600  0.457800  0.676800  1
  C  C1653  1  0.904100  0.516900  0.312800  1
  C  C1654  1  0.095900  0.483100  0.687200  1
  C  C1655  1  0.864800  0.534100  0.284500  1
  C  C1656  1  0.135200  0.465900  0.715500  1
  C  C1657  1  0.856500  0.511900  0.255400  1
  C  C1658  1  0.143500  0.488100  0.744600  1
  C  C1659  1  0.872000  0.461400  0.260500  1
  C  C1660  1  0.128000  0.538600  0.739500  1
  C  C1661  1  0.871800  0.429700  0.236700  1
  C  C1662  1  0.128200  0.570300  0.763300  1
  C  C1663  1  0.915900  0.391300  0.235300  1
  C  C1664  1  0.084100  0.608700  0.764700  1
  C  C1665  1  0.961700  0.380500  0.259700  1
  C  C1666  1  0.038300  0.619500  0.740300  1
  C  C1667  1  0.015700  0.350300  0.261600  1
  C  C1668  1  0.984300  0.649700  0.738400  1
  C  C1669  1  0.059900  0.352800  0.284500  1
  C  C1670  1  0.940100  0.647200  0.715500  1
  C  C1671  1  0.053100  0.384700  0.308900  1
  C  C1672  1  0.946900  0.615300  0.691100  1
  C  C1673  1  0.098000  0.410400  0.317100  1
  C  C1674  1  0.902000  0.589600  0.682900  1
  C  C1675  1  0.079600  0.447400  0.336100  1
  C  C1676  1  0.920400  0.552600  0.663900  1
  C  C1677  1  0.397600  0.977400  0.796300  1
  C  C1678  1  0.602400  0.022600  0.203700  1
  C  C1679  1  0.397500  0.934500  0.784600  1
  C  C1680  1  0.602500  0.065500  0.215400  1
  C  C1681  1  0.454300  0.909300  0.789300  1
  C  C1682  1  0.545700  0.090700  0.210700  1
  C  C1683  1  0.482100  0.929900  0.813000  1
  C  C1684  1  0.517900  0.070100  0.187000  1
  C  C1685  1  0.447000  0.972800  0.816500  1
  C  C1686  1  0.553000  0.027200  0.183500  1
  C  C1687  1  0.470800  0.013600  0.822500  1
  C  C1688  1  0.529200  0.986400  0.177500  1
  C  C1689  1  0.434400  0.057000  0.811400  1
  C  C1690  1  0.565600  0.943000  0.188600  1
  C  C1691  1  0.380400  0.058900  0.795600  1
  C  C1692  1  0.619600  0.941100  0.204400  1
  C  C1693  1  0.360700  0.020400  0.784100  1
  C  C1694  1  0.639300  0.979600  0.215900  1
  C  C1695  1  0.329800  0.017200  0.753700  1
  C  C1696  1  0.670200  0.982800  0.246300  1
  C  C1697  1  0.328700  0.975000  0.741000  1
  C  C1698  1  0.671300  0.025000  0.259000  1
  C  C1699  1  0.373100  0.937100  0.750400  1
  C  C1700  1  0.626900  0.062900  0.249600  1
  C  C1701  1  0.394400  0.900400  0.731600  1
  C  C1702  1  0.605600  0.099600  0.268400  1
  C  C1703  1  0.447300  0.872000  0.741000  1
  C  C1704  1  0.552700  0.128000  0.259000  1
  C  C1705  1  0.481600  0.874000  0.770400  1
  C  C1706  1  0.518400  0.126000  0.229600  1
  C  C1707  1  0.542600  0.863300  0.776800  1
  C  C1708  1  0.457400  0.136700  0.223200  1
  C  C1709  1  0.572800  0.885300  0.798200  1
  C  C1710  1  0.427200  0.114700  0.201800  1
  C  C1711  1  0.545800  0.924300  0.813000  1
  C  C1712  1  0.454200  0.075700  0.187000  1
  C  C1713  1  0.565600  0.959800  0.827500  1
  C  C1714  1  0.434400  0.040200  0.172500  1
  C  C1715  1  0.530400  0.002200  0.831700  1
  C  C1716  1  0.469600  0.997800  0.168300  1
  C  C1717  1  0.940800  0.415000  0.288700  1
  C  C1718  1  0.059200  0.585000  0.711300  1
  C  C1719  1  0.001800  0.395900  0.287100  1
  C  C1720  1  0.998200  0.604100  0.712900  1
  C  C1721  1  0.028000  0.413400  0.313500  1
  C  C1722  1  0.972000  0.586600  0.686500  1
  C  C1723  1  0.990600  0.453700  0.320400  1
  C  C1724  1  0.009400  0.546300  0.679600  1
  C  C1725  1  0.938100  0.456500  0.303200  1
  C  C1726  1  0.061900  0.543500  0.696800  1
  C  C1727  1  0.894000  0.495700  0.297400  1
  C  C1728  1  0.106000  0.504300  0.702600  1
  C  C1729  1  0.861300  0.493100  0.267400  1
  C  C1730  1  0.138700  0.506900  0.732600  1
  C  C1731  1  0.862800  0.452600  0.252200  1
  C  C1732  1  0.137200  0.547400  0.747800  1
  C  C1733  1  0.904200  0.412000  0.261200  1
  C  C1734  1  0.095800  0.588000  0.738800  1
  C  C1735  1  0.932400  0.384000  0.235500  1
  C  C1736  1  0.067600  0.616000  0.764500  1
  C  C1737  1  0.990100  0.359900  0.239200  1
  C  C1738  1  0.009900  0.640100  0.760800  1
  C  C1739  1  0.030200  0.364500  0.264500  1
  C  C1740  1  0.969800  0.635500  0.735500  1
  C  C1741  1  0.091800  0.355600  0.270100  1
  C  C1742  1  0.908200  0.644400  0.729900  1
  C  C1743  1  0.124000  0.382700  0.286900  1
  C  C1744  1  0.876000  0.617300  0.713100  1
  C  C1745  1  0.092000  0.414700  0.307800  1
  C  C1746  1  0.908000  0.585300  0.692200  1
  C  C1747  1  0.110900  0.447700  0.325500  1
  C  C1748  1  0.889100  0.552300  0.674500  1
  C  C1749  1  0.071500  0.485900  0.334600  1
  C  C1750  1  0.928500  0.514100  0.665400  1
  C  C1751  1  0.012600  0.496700  0.323700  1
  C  C1752  1  0.987400  0.503300  0.676300  1
  C  C1753  1  0.967700  0.535200  0.322900  1
  C  C1754  1  0.032300  0.464800  0.677100  1
  C  C1755  1  0.909800  0.532100  0.313000  1
  C  C1756  1  0.090200  0.467900  0.687000  1
  N  N1757  1  0.347300  0.933000  0.925600  1
  N  N1758  1  0.652700  0.067000  0.074400  1
  N  N1759  1  0.589400  0.190600  0.577000  1
  N  N1760  1  0.410600  0.809400  0.423000  1
  N  N1761  1  0.403100  0.841600  0.915400  1
  N  N1762  1  0.596900  0.158400  0.084600  1
  N  N1763  1  0.699300  0.162500  0.615600  1
  N  N1764  1  0.300700  0.837500  0.384400  1
  N  N1765  1  0.305200  0.832800  0.875000  1
  N  N1766  1  0.694800  0.167200  0.125000  1
  N  N1767  1  0.709900  0.074000  0.591600  1
  N  N1768  1  0.290100  0.926000  0.408400  1
  N  N1769  1  0.249300  0.923400  0.886800  1
  N  N1770  1  0.750700  0.076600  0.113200  1
  N  N1771  1  0.606400  0.101600  0.554300  1
  N  N1772  1  0.393600  0.898400  0.445700  1
  N  N1773  1  0.723700  0.098700  0.922800  1
  N  N1774  1  0.276300  0.901300  0.077200  1
  N  N1775  1  0.519700  0.571800  0.939500  1
  N  N1776  1  0.480300  0.428200  0.060500  1
  N  N1777  1  0.114700  0.604500  0.056500  1
  N  N1778  1  0.885300  0.395500  0.943500  1
  N  N1779  1  0.805800  0.390600  0.404700  1
  N  N1780  1  0.194200  0.609400  0.595300  1
  N  N1781  1  0.101000  0.688300  0.087400  1
  N  N1782  1  0.899000  0.311700  0.912600  1
  N  N1783  1  0.907700  0.396400  0.440900  1
  N  N1784  1  0.092300  0.603600  0.559100  1
  N  N1785  1  0.215000  0.660400  0.117100  1
  N  N1786  1  0.785000  0.339600  0.882900  1
  N  N1787  1  0.966600  0.310900  0.420600  1
  N  N1788  1  0.033400  0.689100  0.579400  1
  N  N1789  1  0.226500  0.576700  0.086200  1
  N  N1790  1  0.773500  0.423300  0.913800  1
  N  N1791  1  0.861000  0.303700  0.383800  1
  N  N1792  1  0.139000  0.696300  0.616200  1
  O  O1793  1  0.345700  0.261600  0.882000  1
  O  O1794  1  0.654300  0.738400  0.118000  1
  O  O1795  1  0.435700  0.231500  0.936800  1
  O  O1796  1  0.564300  0.768500  0.063200  1
  O  O1797  1  0.429800  0.361400  0.746600  1
  O  O1798  1  0.570200  0.638600  0.253400  1
  O  O1799  1  0.520000  0.356400  0.799300  1
  O  O1800  1  0.480000  0.643600  0.200700  1
  O  O1801  1  0.770700  0.910400  0.939200  1
  O  O1802  1  0.229300  0.089600  0.060800  1
  O  O1803  1  0.783300  0.839000  0.013900  1
  O  O1804  1  0.216700  0.161000  0.986100  1
  O  O1805  1  0.874800  0.046400  0.838000  1
  O  O1806  1  0.125200  0.953600  0.162000  1
  O  O1807  1  0.999300  0.082300  0.847300  1
  O  O1808  1  0.000700  0.917700  0.152700  1
  O  O1809  1  0.500500  0.677400  0.694300  1
  O  O1810  1  0.499500  0.322600  0.305700  1
  O  O1811  1  0.473100  0.569400  0.666300  1
  O  O1812  1  0.526900  0.430600  0.333700  1
  O  O1813  1  0.671400  0.768600  0.608700  1
  O  O1814  1  0.328600  0.231400  0.391300  1
  O  O1815  1  0.762600  0.772200  0.538800  1
  O  O1816  1  0.237400  0.227800  0.461200  1
  O  O1817  1  0.070500  0.029200  0.668600  1
  O  O1818  1  0.929500  0.970800  0.331400  1
  O  O1819  1  0.010800  0.939400  0.686700  1
  O  O1820  1  0.989200  0.060600  0.313300  1
  O  O1821  1  0.217300  0.064000  0.542700  1
  O  O1822  1  0.782700  0.936000  0.457300  1
  O  O1823  1  0.176600  0.154400  0.455600  1
  O  O1824  1  0.823400  0.845600  0.544400  1
  O  O1825  1  0.271500  0.551300  0.944700  1
  O  O1826  1  0.728500  0.448700  0.055300  1
  O  O1827  1  0.828600  0.287200  0.496800  1
  O  O1828  1  0.171400  0.712800  0.503200  1
  O  O1829  1  0.704500  0.285900  0.489700  1
  O  O1830  1  0.295500  0.714100  0.510300  1
  O  O1831  1  0.724100  0.185600  0.501100  1
  O  O1832  1  0.275900  0.814400  0.498900  1
  O  O1833  1  0.218700  0.964500  0.530100  1
  O  O1834  1  0.781300  0.035500  0.469900  1
  O  O1835  1  0.564600  0.388600  0.538200  1
  O  O1836  1  0.435400  0.611400  0.461800  1
  O  O1837  1  0.918300  0.155900  0.424700  1
  O  O1838  1  0.081700  0.844100  0.575300  1
  O  O1839  1  0.665600  0.180000  0.433000  1
  O  O1840  1  0.334400  0.820000  0.567000  1
  O  O1841  1  0.819900  0.102900  0.387100  1
  O  O1842  1  0.180100  0.897100  0.612900  1
  O  O1843  1  0.420400  0.389800  0.553400  1
  O  O1844  1  0.579600  0.610200  0.446600  1
  O  O1845  1  0.396100  0.482100  0.548000  1
  O  O1846  1  0.603900  0.517900  0.452000  1
  O  O1847  1  0.998400  0.091800  0.098600  1
  O  O1848  1  0.001600  0.908200  0.901400  1
  O  O1849  1  0.938600  0.190900  0.118100  1
  O  O1850  1  0.061400  0.809100  0.881900  1
  O  O1851  1  0.157000  0.959400  0.013200  1
  O  O1852  1  0.843000  0.040600  0.986800  1
  O  O1853  1  0.895700  0.166000  0.051800  1
  O  O1854  1  0.104300  0.834000  0.948200  1
  O  O1855  1  0.036700  0.041900  0.927500  1
  O  O1856  1  0.963300  0.958100  0.072500  1
  O  O1857  1  0.092300  0.178500  0.982500  1
  O  O1858  1  0.907700  0.821500  0.017500  1
  O  O1859  1  0.504000  0.484100  0.433000  1
  O  O1860  1  0.496000  0.515900  0.567000  1
  O  O1861  1  0.831200  0.181500  0.940400  1
  O  O1862  1  0.168800  0.818500  0.059600  1
  O  O1863  1  0.658800  0.325000  0.552000  1
  O  O1864  1  0.341200  0.675000  0.448000  1
  O  O1865  1  0.603600  0.337900  0.929000  1
  O  O1866  1  0.396400  0.662100  0.071000  1
  O  O1867  1  0.350600  0.693300  0.576100  1
  O  O1868  1  0.649400  0.306700  0.423900  1
  O  O1869  1  0.581900  0.262100  0.827200  1
  O  O1870  1  0.418100  0.737900  0.172800  1
  O  O1871  1  0.849400  0.189700  0.504400  1
  O  O1872  1  0.150600  0.810300  0.495600  1
  O  O1873  1  0.564100  0.260600  0.910500  1
  O  O1874  1  0.435900  0.739400  0.089500  1
  O  O1875  1  0.620600  0.181300  0.957700  1
  O  O1876  1  0.379400  0.818700  0.042300  1
  O  O1877  1  0.903600  0.120600  0.989900  1
  O  O1878  1  0.096400  0.879400  0.010100  1
  O  O1879  1  0.035000  0.106100  0.975500  1
  O  O1880  1  0.965000  0.893900  0.024500  1
  O  O1881  1  0.226000  0.642900  0.915200  1
  O  O1882  1  0.774000  0.357100  0.084800  1
  O  O1883  1  0.285900  0.619200  0.862500  1
  O  O1884  1  0.714100  0.380800  0.137500  1
  O  O1885  1  0.002200  0.938800  0.451400  1
  O  O1886  1  0.997800  0.061200  0.548600  1
  O  O1887  1  0.826600  0.327200  0.563800  1
  O  O1888  1  0.173400  0.672800  0.436200  1
  O  O1889  1  0.605300  0.480600  0.528400  1
  O  O1890  1  0.394700  0.519400  0.471600  1
  O  O1891  1  0.051800  0.185700  0.046000  1
  O  O1892  1  0.948200  0.814300  0.954000  1
  O  O1893  1  0.045200  0.028600  0.045200  1
  O  O1894  1  0.954800  0.971400  0.954800  1
  O  O1895  1  0.986700  0.291800  0.545900  1
  O  O1896  1  0.013300  0.708200  0.454100  1
  O  O1897  1  0.081700  0.868200  0.442000  1
  O  O1898  1  0.918300  0.131800  0.558000  1
  O  O1899  1  0.461800  0.324200  0.993200  1
  O  O1900  1  0.538200  0.675800  0.006800  1
  O  O1901  1  0.733200  0.187100  0.002000  1
  O  O1902  1  0.266800  0.812900  0.998000  1
  O  O1903  1  0.550900  0.387800  0.455500  1
  O  O1904  1  0.449100  0.612200  0.544500  1
  O  O1905  1  0.892700  0.263900  0.653400  1
  O  O1906  1  0.107300  0.736100  0.346600  1
  O  O1907  1  0.784200  0.297200  0.004300  1
  O  O1908  1  0.215800  0.702800  0.995700  1
  O  O1909  1  0.827200  0.118400  0.456200  1
  O  O1910  1  0.172800  0.881600  0.543800  1
  O  O1911  1  0.139200  0.689700  0.929400  1
  O  O1912  1  0.860800  0.310300  0.070600  1
  O  O1913  1  0.326300  0.646300  0.923400  1
  O  O1914  1  0.673700  0.353700  0.076600  1
  O  O1915  1  0.684200  0.294000  0.995900  1
  O  O1916  1  0.315800  0.706000  0.004100  1
  O  O1917  1  0.771700  0.431600  0.562100  1
  O  O1918  1  0.228300  0.568400  0.437900  1
  O  O1919  1  0.506700  0.756500  0.555700  1
  O  O1920  1  0.493300  0.243500  0.444300  1
  O  O1921  1  0.492300  0.452200  0.921600  1
  O  O1922  1  0.507700  0.547800  0.078400  1
  O  O1923  1  0.049300  0.095100  0.442800  1
  O  O1924  1  0.950700  0.904900  0.557200  1
  O  O1925  1  0.029800  0.709600  0.965700  1
  O  O1926  1  0.970200  0.290400  0.034300  1
  O  O1927  1  0.659800  0.103100  0.919400  1
  O  O1928  1  0.340200  0.896900  0.080600  1
  O  O1929  1  0.759600  0.142100  0.911000  1
  O  O1930  1  0.240400  0.857900  0.089000  1
  O  O1931  1  0.752800  0.050800  0.938600  1
  O  O1932  1  0.247200  0.949200  0.061400  1
  O  O1933  1  0.455500  0.588500  0.942600  1
  O  O1934  1  0.544500  0.411500  0.057400  1
  O  O1935  1  0.547100  0.551700  0.975900  1
  O  O1936  1  0.452900  0.448300  0.024100  1
  O  O1937  1  0.558300  0.582200  0.900400  1
  O  O1938  1  0.441700  0.417800  0.099600  1
  O  O1939  1  0.723200  0.564500  0.066200  1
  O  O1940  1  0.276800  0.435500  0.933800  1
  O  O1941  1  0.648200  0.635400  0.982100  1
  O  O1942  1  0.351800  0.364600  0.017900  1
  O  O1943  1  0.595000  0.507000  0.199100  1
  O  O1944  1  0.405000  0.493000  0.800900  1
  O  O1945  1  0.542900  0.421600  0.202400  1
  O  O1946  1  0.457100  0.578400  0.797600  1
  O  O1947  1  0.957300  0.832900  0.278200  1
  O  O1948  1  0.042700  0.167100  0.721800  1
  O  O1949  1  0.066000  0.836300  0.316000  1
  O  O1950  1  0.934000  0.163700  0.684000  1
  O  O1951  1  0.908700  0.718400  0.413800  1
  O  O1952  1  0.091300  0.281600  0.586200  1
  O  O1953  1  0.907100  0.813700  0.425800  1
  O  O1954  1  0.092900  0.186300  0.574200  1
  O  O1955  1  0.411800  0.545900  0.332300  1
  O  O1956  1  0.588200  0.454100  0.667700  1
  O  O1957  1  0.520300  0.561900  0.362200  1
  O  O1958  1  0.479700  0.438100  0.637800  1
  O  O1959  1  0.339800  0.390700  0.424800  1
  O  O1960  1  0.660200  0.609300  0.575200  1
  O  O1961  1  0.358800  0.340200  0.514900  1
  O  O1962  1  0.641200  0.659800  0.485100  1
  O  O1963  1  0.189600  0.266100  0.087000  1
  O  O1964  1  0.810400  0.733900  0.913000  1
  O  O1965  1  0.265900  0.276100  0.011300  1
  O  O1966  1  0.734100  0.723900  0.988700  1
  O  O1967  1  0.042700  0.166900  0.192700  1
  O  O1968  1  0.957300  0.833100  0.807300  1
  O  O1969  1  0.027000  0.043500  0.188600  1
  O  O1970  1  0.973000  0.956500  0.811400  1
