
#######################################################################
#
#                 Cambridge Crystallographic Data Centre
#                                CCDC 
#
#######################################################################
#
# If this CIF has been generated from an entry in the Cambridge 
# Structural Database, then it will include bibliographic, chemical, 
# crystal, experimental, refinement or atomic coordinate data resulting 
# from the CCDC's data processing and validation procedures.
#
#######################################################################

data_FEXCIW
_chemical_formula_moiety         
'2(C200 H160 N8 O16 Pd2 1+),4(C20 H10),5(C1 H4 O1),2(N1 O3 1-),46(H2 O1)'
_chemical_name_systematic        
"bis(tetrakis(\m~2~-3,3'-((4,6-bis(2-Methoxyethoxy)-1,3-phenylene)dianthracene-10,9-diyl)dipyridine)-di-palladium) dinitrate tetrakis(corannulene) methanol solvate hexatetracontahydrate"
_symmetry_cell_setting           triclinic
_symmetry_space_group_name_H-M   'P -1'
_symmetry_Int_Tables_number      2
_space_group_name_Hall           '-P 1'
loop_
_symmetry_equiv_pos_site_id
_symmetry_equiv_pos_as_xyz
1 x,y,z
2 -x,-y,-z
_cell_length_a                   21.9747(17)
_cell_length_b                   28.163(2)
_cell_length_c                   34.950(3)
_cell_angle_alpha                72.8420(10)
_cell_angle_beta                 79.6960(10)
_cell_angle_gamma                84.3980(10)
_cell_volume                     20310.5
_cell_formula_units_Z            2
loop_
_atom_site_label
_atom_site_type_symbol
_atom_site_fract_x
_atom_site_fract_y
_atom_site_fract_z
Pd1 Pd 0.32835(6) -0.11667(5) 0.89962(4)
Pd2 Pd 0.65076(6) 0.13304(5) 0.58515(4)
C1 C 0.3491(7) -0.0167(6) 0.9056(5)
H1 H 0.3465 -0.0066 0.8775
N1 N 0.3473(6) -0.0670(5) 0.9256(4)
C2 C 0.3502(7) -0.0803(6) 0.9647(5)
H2 H 0.3479 -0.1145 0.9793
C3 C 0.3565(8) -0.0472(6) 0.9851(5)
H3 H 0.3605 -0.0586 1.0130
C4 C 0.3569(7) 0.0038(6) 0.9648(5)
H4 H 0.3589 0.0269 0.9795
C5 C 0.3544(7) 0.0209(6) 0.9240(5)
C6 C 0.3570(7) 0.0732(6) 0.9014(5)
C7 C 0.4130(8) 0.0967(6) 0.8929(4)
C8 C 0.4701(7) 0.0705(7) 0.9048(5)
H5 H 0.4702 0.0362 0.9193
C9 C 0.5245(9) 0.0958(7) 0.8949(6)
H6 H 0.5612 0.0788 0.9037
C10 C 0.5263(9) 0.1468(7) 0.8718(6)
H7 H 0.5645 0.1628 0.8646
C11 C 0.4751(8) 0.1724(7) 0.8601(5)
H8 H 0.4778 0.2065 0.8450
C12 C 0.4152(8) 0.1499(7) 0.8696(5)
C13 C 0.3630(5) 0.1746(4) 0.8550(4)
C14 C 0.3068(4) 0.1510(4) 0.8648(4)
C15 C 0.2512(5) 0.1756(4) 0.8510(5)
H9 H 0.2525 0.2089 0.8340
C16 C 0.1970(5) 0.1529(5) 0.8616(5)
H10 H 0.1606 0.1709 0.8533
C17 C 0.1936(5) 0.1031(5) 0.8847(5)
H11 H 0.1555 0.0872 0.8909
C18 C 0.2440(5) 0.0781(4) 0.8979(5)
H12 H 0.2403 0.0448 0.9147
C19 C 0.3039(5) 0.0995(4) 0.8878(4)
C20 C 0.3687(7) 0.2263(4) 0.8282(3)
C21 C 0.3663(9) 0.2686(4) 0.8414(4)
O1 O 0.3457(6) 0.2616(5) 0.8820(3)
C22 C 0.3696(11) 0.2935(5) 0.9016(4)
H13 H 0.3378 0.3196 0.9060
H14 H 0.4066 0.3100 0.8840
C23 C 0.3860(9) 0.2632(8) 0.9404(4)
H15 H 0.3947 0.2854 0.9558
H16 H 0.3501 0.2437 0.9562
O2 O 0.4357(8) 0.2315(8) 0.9368(6)
C24 C 0.4298(15) 0.1831(7) 0.9646(9)
H17 H 0.4651 0.1614 0.9578
H18 H 0.3913 0.1695 0.9631
H19 H 0.4290 0.1853 0.9922
C25 C 0.5591(7) 0.2062(6) 0.6071(5)
H20 H 0.5638 0.1864 0.6337
N2 N 0.5894(6) 0.1906(5) 0.5770(4)
C26 C 0.5794(8) 0.2172(6) 0.5388(5)
H21 H 0.6005 0.2067 0.5163
C27 C 0.5392(8) 0.2592(7) 0.5322(5)
H22 H 0.5320 0.2766 0.5055
C28 C 0.5112(7) 0.2745(6) 0.5635(5)
H23 H 0.4841 0.3033 0.5584
C29 C 0.5189(8) 0.2508(6) 0.6040(5)
C30 C 0.4887(8) 0.2641(6) 0.6412(5)
C31 C 0.4247(8) 0.2662(5) 0.6514(5)
C32 C 0.3818(7) 0.2576(6) 0.6284(5)
H24 H 0.3984 0.2494 0.6040
C33 C 0.3194(8) 0.2600(7) 0.6384(5)
H25 H 0.2930 0.2554 0.6212
C34 C 0.2957(9) 0.2697(7) 0.6755(5)
H26 H 0.2521 0.2726 0.6830
C35 C 0.3311(8) 0.2750(6) 0.7002(5)
H27 H 0.3122 0.2796 0.7256
C36 C 0.3989(8) 0.2740(6) 0.6903(5)
C37 C 0.4365(4) 0.2784(5) 0.7177(3)
C38 C 0.5014(4) 0.2785(6) 0.7057(3)
C39 C 0.5424(4) 0.2834(6) 0.7314(3)
H28 H 0.5261 0.2829 0.7586
C40 C 0.6041(5) 0.2887(6) 0.7183(3)
H29 H 0.6299 0.2942 0.7356
C41 C 0.6292(4) 0.2861(6) 0.6794(4)
H30 H 0.6727 0.2882 0.6708
C42 C 0.5940(5) 0.2809(5) 0.6545(3)
H31 H 0.6124 0.2822 0.6275
C43 C 0.5277(4) 0.2731(6) 0.6664(3)
C44 C 0.4092(6) 0.2780(4) 0.7597(3)
C45 C 0.4079(6) 0.3191(4) 0.7755(3)
O3 O 0.4298(5) 0.3614(3) 0.7466(3)
C46 C 0.4449(7) 0.4024(4) 0.7604(4)
H32 H 0.4185 0.4026 0.7865
H33 H 0.4381 0.4347 0.7402
C47 C 0.5127(6) 0.3939(7) 0.7655(4)
H34 H 0.5372 0.3856 0.7415
H35 H 0.5283 0.4248 0.7675
O4 O 0.5200(7) 0.3564(5) 0.7993(5)
C48 C 0.5141(14) 0.3731(6) 0.8352(5)
H36 H 0.5203 0.3447 0.8585
H37 H 0.4726 0.3886 0.8401
H38 H 0.5453 0.3975 0.8312
C49 C 0.4607(7) -0.1418(5) 0.9074(4)
H39 H 0.4662 -0.1094 0.8892
N3 N 0.4031(6) -0.1584(5) 0.9154(4)
C50 C 0.3992(8) -0.2061(7) 0.9370(5)
H40 H 0.3597 -0.2198 0.9426
C51 C 0.4475(8) -0.2376(7) 0.9520(5)
H41 H 0.4414 -0.2714 0.9668
C52 C 0.5039(7) -0.2177(7) 0.9445(5)
H42 H 0.5382 -0.2381 0.9541
C53 C 0.5126(8) -0.1663(6) 0.9224(5)
C54 C 0.5727(8) -0.1418(6) 0.9134(5)
C55 C 0.6245(8) -0.1579(6) 0.8906(5)
C56 C 0.6262(7) -0.2004(6) 0.8733(4)
H43 H 0.5896 -0.2181 0.8784
C57 C 0.6747(8) -0.2147(7) 0.8516(5)
H44 H 0.6729 -0.2425 0.8419
C58 C 0.7300(7) -0.1892(6) 0.8424(5)
H45 H 0.7660 -0.2003 0.8272
C59 C 0.7309(8) -0.1488(7) 0.8555(5)
H46 H 0.7682 -0.1315 0.8486
C60 C 0.6796(8) -0.1305(6) 0.8788(5)
C61 C 0.6816(4) -0.0891(5) 0.8918(4)
C62 C 0.6302(5) -0.0734(4) 0.9159(4)
C63 C 0.6304(5) -0.0301(4) 0.9294(4)
H47 H 0.6659 -0.0107 0.9211
C64 C 0.5815(6) -0.0162(4) 0.9536(4)
H48 H 0.5818 0.0141 0.9604
C65 C 0.5302(5) -0.0458(5) 0.9688(4)
H49 H 0.4970 -0.0367 0.9872
C66 C 0.5278(5) -0.0865(5) 0.9576(4)
H50 H 0.4937 -0.1070 0.9695
C67 C 0.5750(5) -0.1011(4) 0.9281(4)
C68 C 0.7367(5) -0.0577(5) 0.8768(3)
C69 C 0.7797(6) -0.0560(6) 0.9015(4)
O5 O 0.7707(6) -0.0896(4) 0.9392(3)
C70 C 0.8031(8) -0.0815(6) 0.9698(4)
H51 H 0.8000 -0.0458 0.9686
H52 H 0.8474 -0.0919 0.9648
C71 C 0.7739(9) -0.1112(5) 1.0097(3)
H53 H 0.7912 -0.1029 1.0311
H54 H 0.7289 -0.1026 1.0133
O6 O 0.7833(7) -0.1610(5) 1.0139(4)
C72 C 0.7505(11) -0.1905(6) 1.0513(4)
H55 H 0.7608 -0.2259 1.0539
H56 H 0.7059 -0.1839 1.0515
H57 H 0.7625 -0.1820 1.0741
C73 C 0.7146(7) 0.1377(6) 0.6500(5)
H58 H 0.6970 0.1062 0.6624
N4 N 0.6993(6) 0.1625(5) 0.6156(4)
C74 C 0.7211(8) 0.2093(6) 0.5986(5)
H59 H 0.7097 0.2290 0.5736
C75 C 0.7593(8) 0.2281(7) 0.6171(5)
H60 H 0.7729 0.2610 0.6051
C76 C 0.7778(8) 0.2003(6) 0.6524(4)
H61 H 0.8058 0.2127 0.6645
C77 C 0.7541(8) 0.1521(6) 0.6708(5)
C78 C 0.7703(8) 0.1194(6) 0.7109(5)
C79 C 0.8008(8) 0.0731(6) 0.7118(5)
C80 C 0.8277(7) 0.0556(6) 0.6757(5)
H62 H 0.8248 0.0777 0.6496
C81 C 0.8551(8) 0.0117(7) 0.6778(6)
H63 H 0.8702 0.0023 0.6537
C82 C 0.8618(8) -0.0204(7) 0.7145(5)
H64 H 0.8814 -0.0522 0.7152
C83 C 0.8431(8) -0.0103(7) 0.7486(6)
H65 H 0.8505 -0.0340 0.7733
C84 C 0.8097(8) 0.0390(6) 0.7496(5)
C85 C 0.7892(6) 0.0505(4) 0.7856(3)
C86 C 0.7598(7) 0.0979(4) 0.7847(3)
C87 C 0.7355(7) 0.1113(4) 0.8208(3)
H66 H 0.7406 0.0885 0.8463
C88 C 0.7047(7) 0.1561(4) 0.8198(3)
H67 H 0.6904 0.1648 0.8442
C89 C 0.6946(7) 0.1888(4) 0.7827(3)
H68 H 0.6725 0.2197 0.7822
C90 C 0.7148(6) 0.1779(4) 0.7484(3)
H69 H 0.7053 0.2007 0.7239
C91 C 0.7513(7) 0.1324(4) 0.7465(3)
C92 C 0.7906(6) 0.0122(4) 0.8248(4)
C93 C 0.8308(7) 0.0106(5) 0.8522(4)
O7 O 0.8748(5) 0.0464(4) 0.8380(3)
C94 C 0.8950(6) 0.0628(6) 0.8703(4)
H70 H 0.9156 0.0347 0.8888
H71 H 0.8592 0.0761 0.8863
C95 C 0.9403(5) 0.1033(5) 0.8477(5)
H72 H 0.9320 0.1181 0.8195
H73 H 0.9353 0.1299 0.8613
O8 O 0.9993(5) 0.0823(4) 0.8473(4)
C96 C 1.0446(6) 0.1206(6) 0.8276(6)
H74 H 1.0865 0.1050 0.8264
H75 H 1.0410 0.1447 0.8433
H76 H 1.0365 0.1377 0.8001
C97 C 0.3420(7) -0.1822(5) 0.8471(5)
H77 H 0.3787 -0.1645 0.8357
N5 N 0.3052(6) -0.1672(5) 0.8750(4)
C98 C 0.2483(8) -0.1878(6) 0.8894(5)
H78 H 0.2199 -0.1766 0.9092
C99 C 0.2327(8) -0.2261(6) 0.8742(5)
H79 H 0.1935 -0.2405 0.8837
C100 C 0.2727(8) -0.2416(6) 0.8471(4)
H80 H 0.2613 -0.2667 0.8369
C101 C 0.3339(8) -0.2214(7) 0.8320(5)
C102 C 0.3787(8) -0.2351(6) 0.7995(5)
C103 C 0.3656(8) -0.2270(6) 0.7609(5)
C104 C 0.3048(8) -0.2083(6) 0.7474(4)
H81 H 0.2708 -0.2030 0.7669
C105 C 0.2966(8) -0.1992(6) 0.7106(5)
H82 H 0.2571 -0.1864 0.7038
C106 C 0.3420(8) -0.2070(6) 0.6806(6)
H83 H 0.3334 -0.1997 0.6537
C107 C 0.4007(7) -0.2254(6) 0.6889(5)
H84 H 0.4320 -0.2308 0.6679
C108 C 0.4131(8) -0.2357(6) 0.7279(5)
C109 C 0.4756(6) -0.2500(6) 0.7369(3)
C110 C 0.4872(5) -0.2594(5) 0.7766(3)
C111 C 0.5467(5) -0.2777(7) 0.7877(3)
H85 H 0.5800 -0.2813 0.7671
C112 C 0.5566(5) -0.2902(7) 0.8263(4)
H86 H 0.5964 -0.3027 0.8326
C113 C 0.5092(6) -0.2849(7) 0.8574(3)
H87 H 0.5175 -0.2923 0.8843
C114 C 0.4525(6) -0.2696(6) 0.8493(3)
H88 H 0.4201 -0.2691 0.8712
C115 C 0.4382(5) -0.2537(6) 0.8085(3)
C116 C 0.5276(7) -0.2492(5) 0.7031(3)
C117 C 0.5380(6) -0.2834(5) 0.6804(4)
O9 O 0.5005(7) -0.3226(4) 0.6943(4)
C118 C 0.4909(10) -0.3503(6) 0.6670(5)
H89 H 0.5271 -0.3478 0.6452
H90 H 0.4538 -0.3364 0.6543
C119 C 0.4826(17) -0.4027(5) 0.6904(6)
H91 H 0.5198 -0.4162 0.7031
H92 H 0.4466 -0.4047 0.7123
O10 O 0.4731(11) -0.4306(6) 0.6663(6)
C120 C 0.4577(17) -0.4803(7) 0.6890(8)
H93 H 0.4488 -0.4983 0.6707
H94 H 0.4211 -0.4794 0.7095
H95 H 0.4926 -0.4973 0.7024
C121 C 0.6930(8) 0.0272(6) 0.6053(4)
H96 H 0.6507 0.0214 0.6161
N6 N 0.7099(6) 0.0740(5) 0.5916(4)
C122 C 0.7752(8) 0.0806(7) 0.5772(5)
H97 H 0.7906 0.1131 0.5675
C123 C 0.8146(8) 0.0399(7) 0.5775(5)
H98 H 0.8576 0.0449 0.5688
C124 C 0.7962(8) -0.0059(7) 0.5893(5)
H99 H 0.8250 -0.0328 0.5873
C125 C 0.7341(8) -0.0146(6) 0.6047(5)
C126 C 0.7072(8) -0.0656(6) 0.6184(5)
C127 C 0.6716(8) -0.0762(7) 0.5923(5)
C128 C 0.6663(8) -0.0462(6) 0.5528(5)
H100 H 0.6882 -0.0165 0.5422
C129 C 0.6312(9) -0.0585(7) 0.5297(6)
H101 H 0.6286 -0.0376 0.5031
C130 C 0.5995(9) -0.1006(7) 0.5442(5)
H102 H 0.5747 -0.1085 0.5275
C131 C 0.6018(8) -0.1298(5) 0.5794(5)
H103 H 0.5772 -0.1582 0.5884
C132 C 0.6405(8) -0.1220(7) 0.6069(5)
C133 C 0.6463(6) -0.1553(4) 0.6443(4)
C134 C 0.6848(6) -0.1445(4) 0.6686(3)
C135 C 0.6934(6) -0.1770(4) 0.7071(3)
H104 H 0.6754 -0.2085 0.7159
C136 C 0.7267(7) -0.1645(5) 0.7317(3)
H105 H 0.7307 -0.1866 0.7576
C137 C 0.7547(6) -0.1189(5) 0.7186(3)
H106 H 0.7773 -0.1101 0.7360
C138 C 0.7504(6) -0.0880(4) 0.6826(4)
H107 H 0.7712 -0.0577 0.6745
C139 C 0.7153(5) -0.0981(4) 0.6546(3)
C140 C 0.6111(5) -0.2011(5) 0.6589(4)
C141 C 0.6227(6) -0.2407(4) 0.6410(3)
O11 O 0.6714(5) -0.2314(5) 0.6087(3)
C142 C 0.6657(7) -0.2516(7) 0.5752(4)
H108 H 0.6218 -0.2527 0.5725
H109 H 0.6858 -0.2853 0.5789
C143 C 0.7006(8) -0.2129(5) 0.5381(3)
H110 H 0.6880 -0.2138 0.5125
H111 H 0.6925 -0.1788 0.5409
O12 O 0.7626(7) -0.2278(7) 0.5388(6)
C144 C 0.7711(7) -0.2767(5) 0.5295(4)
H112 H 0.8085 -0.2769 0.5095
H113 H 0.7351 -0.2819 0.5185
H114 H 0.7751 -0.3035 0.5544
C145 C 0.2364(7) -0.0594(6) 0.8493(5)
H115 H 0.2665 -0.0652 0.8278
N7 N 0.2493(6) -0.0766(5) 0.8868(4)
C146 C 0.2086(8) -0.0675(7) 0.9194(5)
H116 H 0.2168 -0.0799 0.9464
C147 C 0.1531(8) -0.0381(7) 0.9096(5)
H117 H 0.1247 -0.0293 0.9306
C148 C 0.1402(8) -0.0223(6) 0.8706(5)
H118 H 0.1027 -0.0039 0.8650
C149 C 0.1818(8) -0.0334(6) 0.8397(5)
C150 C 0.1732(7) -0.0161(6) 0.7961(5)
C151 C 0.1633(7) -0.0521(6) 0.7776(5)
C152 C 0.1554(7) -0.1048(6) 0.7988(5)
H119 H 0.1548 -0.1155 0.8273
C153 C 0.1491(8) -0.1376(7) 0.7806(5)
H120 H 0.1454 -0.1716 0.7956
C154 C 0.1479(8) -0.1235(7) 0.7399(5)
H121 H 0.1431 -0.1480 0.7270
C155 C 0.1532(8) -0.0768(6) 0.7180(5)
H122 H 0.1523 -0.0684 0.6897
C156 C 0.1602(7) -0.0382(6) 0.7358(5)
C157 C 0.1687(7) 0.0130(4) 0.7120(3)
C158 C 0.1767(7) 0.0485(4) 0.7314(3)
C159 C 0.1865(7) 0.0996(3) 0.7092(3)
H123 H 0.1855 0.1099 0.6809
C160 C 0.1971(8) 0.1332(4) 0.7273(3)
H124 H 0.2031 0.1668 0.7117
C161 C 0.1995(8) 0.1194(4) 0.7688(4)
H125 H 0.2070 0.1435 0.7813
C162 C 0.1911(8) 0.0726(4) 0.7910(3)
H126 H 0.1933 0.0640 0.8191
C163 C 0.1788(6) 0.0341(4) 0.7740(3)
C164 C 0.1771(5) 0.0268(6) 0.6669(3)
C165 C 0.1279(5) 0.0342(7) 0.6449(3)
O13 O 0.0705(4) 0.0292(4) 0.6686(3)
C166 C 0.0182(5) 0.0238(4) 0.6500(4)
H127 H 0.0216 0.0465 0.6221
H128 H -0.0211 0.0325 0.6658
C167 C 0.0183(9) -0.0279(5) 0.6488(4)
H129 H -0.0155 -0.0312 0.6346
H130 H 0.0580 -0.0363 0.6332
O14 O 0.0108(7) -0.0606(4) 0.6867(4)
C168 C 0.0157(11) -0.1114(5) 0.6865(6)
H131 H 0.0103 -0.1330 0.7144
H132 H 0.0566 -0.1187 0.6723
H133 H -0.0165 -0.1175 0.6725
C169 C 0.5456(6) 0.0934(5) 0.5654(5)
H134 H 0.5247 0.1011 0.5892
N8 N 0.6064(6) 0.1016(5) 0.5543(4)
C170 C 0.6326(8) 0.0928(6) 0.5200(5)
H135 H 0.6745 0.1011 0.5102
C171 C 0.6044(8) 0.0731(6) 0.4983(5)
H136 H 0.6270 0.0648 0.4751
C172 C 0.5423(8) 0.0646(6) 0.5093(5)
H137 H 0.5207 0.0521 0.4933
C173 C 0.5126(8) 0.0747(6) 0.5442(5)
C174 C 0.4443(8) 0.0672(6) 0.5580(5)
C175 C 0.4216(8) 0.0181(6) 0.5722(4)
C176 C 0.4635(9) -0.0259(7) 0.5783(5)
H138 H 0.5068 -0.0223 0.5703
C177 C 0.4414(8) -0.0719(6) 0.5950(5)
H139 H 0.4693 -0.1003 0.5981
C178 C 0.3798(8) -0.0778(7) 0.6075(5)
H140 H 0.3656 -0.1106 0.6194
C179 C 0.3375(8) -0.0387(6) 0.6036(5)
H141 H 0.2947 -0.0447 0.6118
C180 C 0.3570(8) 0.0124(7) 0.5869(5)
C181 C 0.3156(5) 0.0535(4) 0.5852(4)
C182 C 0.3377(4) 0.1021(3) 0.5708(5)
C183 C 0.2976(4) 0.1450(4) 0.5700(5)
H142 H 0.2545 0.1411 0.5790
C184 C 0.3196(5) 0.1916(4) 0.5567(4)
H143 H 0.2925 0.2196 0.5585
C185 C 0.3817(5) 0.1982(4) 0.5403(5)
H144 H 0.3964 0.2309 0.5301
C186 C 0.4206(4) 0.1600(4) 0.5388(4)
H145 H 0.4623 0.1661 0.5263
C187 C 0.4023(4) 0.1087(4) 0.5555(5)
C188 C 0.2505(5) 0.0460(5) 0.6053(3)
C189 C 0.2002(5) 0.0504(7) 0.5843(4)
O15 O 0.2173(6) 0.0640(6) 0.5427(3)
C190 C 0.1707(8) 0.0931(10) 0.5188(5)
H146 H 0.1529 0.1213 0.5294
H147 H 0.1368 0.0721 0.5194
C191 C 0.2064(9) 0.1120(7) 0.4757(4)
H148 H 0.2492 0.1189 0.4768
H149 H 0.2083 0.0863 0.4612
O16 O 0.1766(12) 0.1544(7) 0.4556(5)
C192 C 0.1988(17) 0.1667(11) 0.4119(5)
H150 H 0.1716 0.1931 0.3976
H151 H 0.1985 0.1370 0.4027
H152 H 0.2410 0.1781 0.4062
C193 C 0.3890(7) 0.2332(5) 0.7863(5)
H153 H 0.3887 0.2057 0.7758
C194 C 0.3839(8) 0.3112(5) 0.8162(4)
H154 H 0.3799 0.3391 0.8267
C195 C 0.7444(7) -0.0218(6) 0.8398(5)
H155 H 0.7147 -0.0202 0.8227
C196 C 0.8265(7) -0.0229(5) 0.8886(5)
H156 H 0.8559 -0.0239 0.9058
C197 C 0.5627(6) -0.2104(6) 0.6911(5)
H157 H 0.5538 -0.1865 0.7059
C198 C 0.5900(7) -0.2779(6) 0.6492(5)
H158 H 0.6002 -0.3021 0.6347
C199 C 0.2363(6) 0.0331(6) 0.6455(4)
H159 H 0.2695 0.0278 0.6606
C200 C 0.1423(6) 0.0465(7) 0.6026(5)
H160 H 0.1099 0.0522 0.5869
O17 O 0.2715(6) 0.5513(5) 0.9447(4)
O18 O 0.8286(6) -0.7128(5) 0.4968(4)
O19 O 0.7045(7) -0.7141(6) 0.4897(5)
O20 O 0.7241(7) 0.1856(6) 0.5011(5)
O21 O 0.2187(12) 0.9645(10) 0.5301(8)
O22 O 0.5646(12) 0.3886(10) 0.5382(8)
O23 O 0.9183(10) 0.1559(9) 0.4247(7)
O24 O 0.6656(12) 0.1800(10) 0.4330(8)
O25 O 0.8199(12) 0.1029(10) 0.3871(8)
O26 O 0.4204(12) 0.3898(10) 0.5534(8)
O27 O 0.3961(12) 0.4821(10) 0.5480(8)
O28 O -0.0016(12) 0.0918(10) 0.0986(8)
O29 O 0.9386(12) 0.1909(10) 0.1181(8)
O30 O 0.1570(12) 0.9594(10) 0.0132(8)
O31 O 0.8957(12) 0.1660(10) 0.0518(8)
O32 O 0.0367(12) 0.0419(10) 0.9275(8)
O33 O 0.0923(12) 0.1785(10) 0.9825(6)
O34 O 0.5040(12) 0.4841(10) 0.4330(8)
O35 O 0.8312(12) 0.1815(10) 0.9404(8)
O36 O 0.6588(12) 0.3250(10) 0.5520(8)
O37 O 0.6036(12) 0.3379(10) 0.9290(8)
O38 O 0.3506(12) 0.6933(10) 0.5761(8)
O39 O 0.5819(12) 0.2621(10) 0.8272(8)
O40 O 0.8494(12) -0.8103(10) 0.5044(8)
O41 O 0.5641(12) 0.2606(10) 0.9105(8)
O42 O 0.6206(12) 0.1813(10) 0.9577(8)
O43 O 0.9036(12) 0.1206(10) 0.9899(8)
O44 O 0.0350(12) 0.1061(10) 0.9755(8)
O45 O 0.2260(8) 0.6429(9) 0.9152(7)
O46 O 0.2859(11) 0.6192(9) 0.8625(7)
O47 O 1.0022(12) 0.9388(10) 0.4514(8)
O48 O 0.8266(12) -0.6728(10) 0.5638(8)
O49 O 0.6053(12) 0.4806(10) 0.5284(8)
O50 O 0.0518(12) 0.1857(10) 0.0460(6)
O51 O 0.0452(12) 0.0286(10) 0.0452(8)
O52 O 0.9867(12) 0.2918(10) 0.5459(8)
O53 O 0.0817(12) 0.8682(10) 0.4420(8)
O54 O 0.4618(12) 0.3242(9) 0.9932(7)
O55 O 0.7332(12) 0.1871(10) 0.0020(8)
O56 O 0.5509(12) 0.3878(10) 0.4555(8)
O57 O 0.8927(12) 0.2639(10) 0.6534(8)
O58 O 0.7842(10) 0.2972(10) 0.0043(8)
O59 O 0.8272(10) 0.1184(9) 0.4562(7)
O60 O 0.1392(9) 0.6897(9) 0.9294(8)
O61 O 0.3263(9) 0.6463(10) 0.9234(8)
O62 O 0.6842(10) 0.2940(10) -0.0041(8)
C201 C 0.4958(6) 0.0885(4) 0.6745(5)
C202 C 0.5315(6) 0.0453(4) 0.6738(5)
C203 C 0.5819(5) 0.0449(5) 0.6928(5)
C204 C 0.5754(5) 0.0864(5) 0.7071(5)
C205 C 0.5206(6) 0.1118(4) 0.6974(5)
C206 C 0.4875(6) 0.1439(7) 0.7176(6)
C207 C 0.4264(6) 0.1515(5) 0.7111(5)
H161 H 0.4004 0.1739 0.7231
C208 C 0.4010(5) 0.1285(6) 0.6883(6)
H162 H 0.3597 0.1378 0.6834
C209 C 0.4336(6) 0.0922(6) 0.6724(6)
C210 C 0.4135(6) 0.0537(6) 0.6617(6)
H163 H 0.3742 0.0573 0.6530
C211 C 0.4489(6) 0.0099(5) 0.6631(5)
H164 H 0.4291 -0.0181 0.6621
C212 C 0.5115(6) 0.0042(5) 0.6661(6)
C213 C 0.5519(7) -0.0367(4) 0.6767(6)
H165 H 0.5464 -0.0652 0.6687
C214 C 0.5996(6) -0.0389(4) 0.6982(5)
H166 H 0.6239 -0.0691 0.7052
C215 C 0.6137(9) 0.0012(5) 0.7100(6)
C216 C 0.6502(8) 0.0081(6) 0.7363(6)
H167 H 0.6820 -0.0164 0.7442
C217 C 0.6427(8) 0.0487(6) 0.7517(6)
H168 H 0.6674 0.0493 0.7712
C218 C 0.6010(9) 0.0885(6) 0.7400(5)
C219 C 0.5733(8) 0.1259(6) 0.7565(5)
H169 H 0.5921 0.1339 0.7761
C220 C 0.5193(7) 0.1521(6) 0.7456(5)
H170 H 0.5031 0.1773 0.7583
C221 C 0.7463(19) 0.4318(15) 0.5272(11)
O63 O 0.7717(13) 0.4316(10) 0.5621(8)
C222 C 0.4750(18) 0.7995(13) 0.5626(12)
O64 O 0.5067(13) 0.7565(10) 0.5557(8)
C223 C 0.4874(19) 0.4015(9) 0.9216(5)
O65 O 0.4923(12) 0.4522(9) 0.9216(8)
C224 C 0.0598(19) 0.0462(12) 0.4368(12)
O66 O 0.0493(13) 0.0951(10) 0.4428(8)
C225 C 0.0115(10) 0.6893(15) 0.9347(11)
O67 O 0.0298(12) 0.7096(10) 0.9657(8)
N9 N 0.7237(7) 0.0987(6) 0.9228(5)
O68 O 0.6598(8) 0.1031(7) 0.9194(6)
O69 O 0.7596(9) 0.1421(7) 0.9110(6)
O70 O 0.7528(9) 0.0508(6) 0.9386(6)
N10 N 0.5197(7) 0.5718(6) 0.9395(4)
O71 O 0.4555(8) 0.5885(8) 0.9426(6)
O72 O 0.5471(9) 0.5517(8) 0.9759(5)
O73 O 0.5583(8) 0.5822(8) 0.9004(5)
C226 C 0.0548(7) 0.5937(6) 0.0689(5)
H171 H 0.0363 0.5976 0.0946
N11 N 0.1147(6) 0.6045(5) 0.0565(4)
C227 C 0.1389(8) 0.5995(6) 0.0192(5)
H172 H 0.1804 0.6080 0.0081
C228 C 0.1052(8) 0.5829(6) -0.0021(5)
H173 H 0.1248 0.5784 -0.0274
C229 C 0.0445(8) 0.5722(5) 0.0103(4)
H174 H 0.0214 0.5614 -0.0059
C230 C 0.0183(8) 0.5779(7) 0.0482(5)
C231 C -0.0478(8) 0.5661(7) 0.0655(5)
C232 C -0.0904(8) 0.6056(7) 0.0705(5)
C233 C -0.0771(8) 0.6573(7) 0.0568(6)
H175 H -0.0384 0.6661 0.0402
C234 C -0.1152(9) 0.6941(8) 0.0656(6)
H176 H -0.1022 0.7273 0.0575
C235 C -0.1743(9) 0.6826(8) 0.0868(6)
H177 H -0.2020 0.7082 0.0931
C236 C -0.1928(9) 0.6353(7) 0.0985(6)
H178 H -0.2337 0.6284 0.1123
C237 C -0.1524(9) 0.5959(7) 0.0905(5)
C238 C -0.1702(5) 0.5469(4) 0.1039(5)
C239 C -0.1289(5) 0.5081(4) 0.0967(4)
C240 C -0.1455(5) 0.4572(4) 0.1107(4)
H179 H -0.1870 0.4497 0.1229
C241 C -0.1040(5) 0.4197(4) 0.1071(5)
H180 H -0.1171 0.3866 0.1154
C242 C -0.0418(5) 0.4289(4) 0.0914(5)
H181 H -0.0122 0.4020 0.0915
C243 C -0.0243(5) 0.4756(4) 0.0763(4)
H182 H 0.0175 0.4812 0.0638
C244 C -0.0659(4) 0.5180(4) 0.0782(4)
C245 C -0.2341(5) 0.5365(6) 0.1259(3)
C246 C -0.2872(5) 0.5462(7) 0.1075(3)
O74 O -0.2768(5) 0.5645(5) 0.0662(3)
C247 C -0.3296(7) 0.5848(8) 0.0454(4)
H183 H -0.3540 0.6093 0.0579
H184 H -0.3568 0.5578 0.0475
C248 C -0.3060(7) 0.6090(9) 0.0024(4)
H185 H -0.2733 0.6316 0.0008
H186 H -0.2872 0.5833 -0.0108
O75 O -0.3518(7) 0.6354(6) -0.0179(4)
C249 C -0.3328(10) 0.6534(9) -0.0607(4)
H187 H -0.3677 0.6717 -0.0735
H188 H -0.3189 0.6253 -0.0718
H189 H -0.2987 0.6757 -0.0664
C250 C -0.2127(7) 0.4080(6) 0.3692(5)
H190 H -0.1853 0.4021 0.3466
N12 N -0.1942(6) 0.3906(5) 0.4047(4)
C251 C -0.2340(8) 0.3975(6) 0.4381(6)
H191 H -0.2229 0.3837 0.4644
C252 C -0.2893(8) 0.4241(7) 0.4341(6)
H192 H -0.3150 0.4304 0.4571
C253 C -0.3076(8) 0.4416(6) 0.3963(5)
H193 H -0.3468 0.4586 0.3940
C254 C -0.2694(8) 0.4347(6) 0.3613(5)
C255 C -0.2851(8) 0.4540(6) 0.3220(5)
C256 C -0.2873(6) 0.5046(7) 0.3018(5)
C257 C -0.2808(6) 0.5435(6) 0.3210(5)
H194 H -0.2836 0.5347 0.3497
C258 C -0.2707(7) 0.5922(7) 0.2989(6)
H195 H -0.2583 0.6150 0.3110
C259 C -0.2791(9) 0.6068(7) 0.2593(6)
H196 H -0.2775 0.6412 0.2451
C260 C -0.2894(8) 0.5750(7) 0.2395(6)
H197 H -0.2935 0.5871 0.2116
C261 C -0.2946(6) 0.5222(7) 0.2601(5)
C262 C -0.2997(7) 0.4892(3) 0.2373(3)
C263 C -0.3037(8) 0.4379(3) 0.2581(3)
C264 C -0.3117(8) 0.4023(4) 0.2379(3)
H198 H -0.3166 0.4132 0.2102
C265 C -0.3125(9) 0.3528(4) 0.2578(4)
H199 H -0.3165 0.3295 0.2436
C266 C -0.3076(8) 0.3363(4) 0.2987(4)
H200 H -0.3100 0.3018 0.3124
C267 C -0.2996(8) 0.3673(4) 0.3189(3)
H201 H -0.2974 0.3546 0.3471
C268 C -0.2941(8) 0.4205(4) 0.2996(3)
C269 C -0.2975(5) 0.5063(5) 0.1929(3)
C270 C -0.3497(5) 0.5178(7) 0.1730(3)
O76 O -0.4050(5) 0.5070(5) 0.1991(3)
C271 C -0.4600(5) 0.5089(4) 0.1798(5)
H202 H -0.4599 0.5382 0.1556
H203 H -0.4986 0.5108 0.1990
C272 C -0.4548(8) 0.4605(5) 0.1677(4)
H204 H -0.4894 0.4594 0.1533
H205 H -0.4154 0.4584 0.1494
O77 O -0.4571(9) 0.4216(5) 0.2024(4)
C273 C -0.4424(13) 0.3744(5) 0.1926(7)
H206 H -0.4431 0.3471 0.2177
H207 H -0.4011 0.3751 0.1763
H208 H -0.4731 0.3692 0.1772
C274 C 0.0760(7) 0.6978(5) 0.1211(5)
H209 H 0.0875 0.6762 0.1455
N13 N 0.1010(6) 0.6883(5) 0.0874(4)
C275 C 0.0825(8) 0.7166(6) 0.0523(5)
H210 H 0.0995 0.7099 0.0273
C276 C 0.0396(8) 0.7545(6) 0.0531(5)
H211 H 0.0259 0.7730 0.0284
C277 C 0.0155(7) 0.7671(6) 0.0871(4)
H212 H -0.0126 0.7951 0.0861
C278 C 0.0326(7) 0.7381(6) 0.1244(5)
C279 C 0.0088(8) 0.7476(6) 0.1639(5)
C280 C 0.0492(8) 0.7591(6) 0.1857(5)
C281 C 0.1133(8) 0.7735(6) 0.1676(5)
H213 H 0.1268 0.7740 0.1401
C282 C 0.1525(8) 0.7855(6) 0.1868(5)
H214 H 0.1934 0.7939 0.1736
C283 C 0.1334(8) 0.7857(6) 0.2266(5)
H215 H 0.1617 0.7947 0.2406
C284 C 0.0773(8) 0.7739(6) 0.2460(5)
H216 H 0.0667 0.7731 0.2737
C285 C 0.0308(8) 0.7618(6) 0.2252(5)
C286 C -0.0309(5) 0.7521(6) 0.2448(3)
C287 C -0.0734(4) 0.7439(4) 0.2222(3)
C288 C -0.1372(4) 0.7356(6) 0.2392(3)
H217 H -0.1521 0.7395 0.2654
C289 C -0.1764(5) 0.7225(6) 0.2191(4)
H218 H -0.2182 0.7167 0.2314
C290 C -0.1563(5) 0.7171(6) 0.1804(4)
H219 H -0.1835 0.7052 0.1674
C291 C -0.0993(5) 0.7286(4) 0.1615(3)
H220 H -0.0880 0.7280 0.1341
C292 C -0.0537(5) 0.7420(4) 0.1812(3)
C293 C -0.0501(7) 0.7478(4) 0.2887(3)
C294 C -0.0557(9) 0.7877(4) 0.3055(3)
O78 O -0.0427(6) 0.8329(4) 0.2782(3)
C295 C -0.0270(6) 0.8728(4) 0.2928(5)
H221 H -0.0457 0.8674 0.3216
H222 H -0.0438 0.9051 0.2769
C296 C 0.0403(7) 0.8741(6) 0.2887(5)
H223 H 0.0639 0.8992 0.2688
O79 O 0.0660(6) 0.8363(5) 0.3160(5)
C297 C 0.0625(13) 0.8431(9) 0.3550(5)
H224 H 0.0819 0.8140 0.3726
H225 H 0.0190 0.8471 0.3667
H226 H 0.0842 0.8729 0.3526
C298 C -0.0914(7) 0.4461(5) 0.4246(5)
H227 H -0.0990 0.4596 0.3975
N14 N -0.0923(6) 0.3964(5) 0.4409(4)
C299 C -0.0793(8) 0.3776(7) 0.4790(5)
H228 H -0.0781 0.3425 0.4906
C300 C -0.0677(8) 0.4077(7) 0.5019(5)
H229 H -0.0604 0.3931 0.5290
C301 C -0.0668(7) 0.4577(6) 0.4856(4)
H230 H -0.0576 0.4784 0.5007
C302 C -0.0798(8) 0.4787(6) 0.4454(5)
C303 C -0.0792(8) 0.5338(6) 0.4245(4)
C304 C -0.0219(8) 0.5574(6) 0.4128(4)
C305 C 0.0343(7) 0.5316(6) 0.4195(4)
H231 H 0.0348 0.4970 0.4333
C306 C 0.0879(8) 0.5547(7) 0.4070(5)
H232 H 0.1258 0.5361 0.4110
C307 C 0.0885(9) 0.6046(7) 0.3885(5)
H233 H 0.1267 0.6205 0.3816
C308 C 0.0356(8) 0.6323(7) 0.3798(5)
H234 H 0.0378 0.6667 0.3657
C309 C -0.0223(8) 0.6104(7) 0.3914(5)
C310 C -0.0762(5) 0.6355(4) 0.3825(4)
C311 C -0.1331(4) 0.6117(4) 0.3936(4)
C312 C -0.1894(5) 0.6367(4) 0.3826(4)
H235 H -0.1887 0.6701 0.3659
C313 C -0.2443(5) 0.6141(4) 0.3955(4)
H236 H -0.2817 0.6323 0.3893
C314 C -0.2457(5) 0.5641(4) 0.4179(5)
H237 H -0.2841 0.5483 0.4261
C315 C -0.1946(5) 0.5385(3) 0.4279(4)
H238 H -0.1974 0.5046 0.4435
C316 C -0.1342(5) 0.5599(4) 0.4162(4)
C317 C -0.0733(7) 0.6878(4) 0.3573(3)
C318 C -0.0794(9) 0.7294(4) 0.3719(4)
O80 O -0.0913(7) 0.7184(5) 0.4138(4)
C319 C -0.1473(7) 0.7432(8) 0.4306(5)
H239 H -0.1756 0.7184 0.4497
H240 H -0.1695 0.7640 0.4087
C320 C -0.1239(9) 0.7755(6) 0.4527(5)
H241 H -0.1594 0.7887 0.4690
H242 H -0.0961 0.7551 0.4714
O81 O -0.0929(11) 0.8137(7) 0.4258(6)
C321 C -0.0460(8) 0.8299(8) 0.4438(9)
H243 H -0.0242 0.8576 0.4237
H244 H -0.0164 0.8022 0.4525
H245 H -0.0664 0.8409 0.4673
C322 C 0.2327(6) 0.6346(6) 0.1508(5)
H246 H 0.2182 0.6019 0.1621
N15 N 0.2150(5) 0.6604(5) 0.1171(4)
C323 C 0.2322(8) 0.7072(6) 0.1005(5)
H247 H 0.2193 0.7268 0.0758
C324 C 0.2699(8) 0.7275(7) 0.1202(5)
H248 H 0.2793 0.7616 0.1094
C325 C 0.2919(8) 0.7013(6) 0.1522(3)
H249 H 0.3210 0.7150 0.1625
C326 C 0.2723(7) 0.6506(6) 0.1728(5)
C327 C 0.2930(7) 0.6187(6) 0.2089(5)
C328 C 0.3243(6) 0.5735(6) 0.2088(5)
C329 C 0.3497(7) 0.5558(6) 0.1720(5)
H250 H 0.3459 0.5785 0.1463
C330 C 0.3751(8) 0.5143(6) 0.1722(5)
H251 H 0.3878 0.5061 0.1474
C331 C 0.3851(8) 0.4790(7) 0.2096(5)
H252 H 0.4037 0.4471 0.2094
C332 C 0.3692(7) 0.4898(6) 0.2442(5)
H253 H 0.3787 0.4660 0.2683
C333 C 0.3368(7) 0.5376(6) 0.2473(5)
C334 C 0.3183(6) 0.5484(4) 0.2837(3)
C335 C 0.2906(7) 0.5953(4) 0.2840(3)
C336 C 0.2706(6) 0.6087(4) 0.3208(3)
H254 H 0.2792 0.5861 0.3457
C337 C 0.2400(7) 0.6524(4) 0.3213(3)
H255 H 0.2279 0.6603 0.3463
C338 C 0.2260(7) 0.6861(4) 0.2854(3)
H256 H 0.2042 0.7167 0.2862
C339 C 0.2428(7) 0.6756(4) 0.2503(3)
H257 H 0.2320 0.6990 0.2265
C340 C 0.2769(6) 0.6301(4) 0.2468(3)
C341 C 0.3261(5) 0.5102(4) 0.3224(4)
C342 C 0.3728(6) 0.5070(4) 0.3451(4)
O82 O 0.4118(4) 0.5459(4) 0.3323(3)
C343 C 0.4131(5) 0.5742(6) 0.3612(5)
H258 H 0.4068 0.5518 0.3892
H259 H 0.3794 0.6004 0.3588
C344 C 0.4730(5) 0.5968(5) 0.3525(5)
H260 H 0.4816 0.6150 0.3233
H261 H 0.4711 0.6212 0.3682
O83 O 0.5203(5) 0.5619(4) 0.3622(4)
C345 C 0.5778(6) 0.5850(7) 0.3572(7)
H262 H 0.6103 0.5593 0.3650
H263 H 0.5732 0.6074 0.3744
H264 H 0.5892 0.6040 0.3287
C346 C 0.0207(7) 0.3333(6) 0.4124(4)
H265 H 0.0210 0.3682 0.3998
N16 N -0.0334(6) 0.3109(5) 0.4206(4)
C347 C -0.0322(8) 0.2619(6) 0.4388(5)
H266 H -0.0707 0.2463 0.4469
C348 C 0.0188(8) 0.2331(7) 0.4467(5)
H267 H 0.0167 0.1980 0.4570
C349 C 0.0769(7) 0.2562(6) 0.4393(4)
H268 H 0.1139 0.2378 0.4461
C350 C 0.0749(7) 0.3086(6) 0.4212(5)
C351 C 0.1327(7) 0.3376(6) 0.4094(4)
C352 C 0.1394(7) 0.3720(5) 0.4313(4)
C353 C 0.0991(7) 0.3733(6) 0.4678(5)
H269 H 0.0664 0.3510 0.4778
C354 C 0.1062(8) 0.4055(7) 0.4885(5)
H270 H 0.0783 0.4065 0.5124
C355 C 0.1541(8) 0.4364(7) 0.4745(5)
H271 H 0.1576 0.4602 0.4883
C356 C 0.1964(6) 0.4349(6) 0.4424(5)
H272 H 0.2293 0.4571 0.4345
C357 C 0.1934(7) 0.4002(6) 0.4193(5)
C358 C 0.2373(5) 0.3975(4) 0.3867(4)
C359 C 0.2339(5) 0.3606(5) 0.3672(4)
C360 C 0.2794(5) 0.3541(5) 0.3347(4)
H273 H 0.3148 0.3737 0.3267
C361 C 0.2738(5) 0.3203(5) 0.3145(3)
H274 H 0.3035 0.3182 0.2917
C362 C 0.2243(6) 0.2891(5) 0.3276(4)
H275 H 0.2221 0.2642 0.3147
C363 C 0.1805(5) 0.2935(4) 0.3576(3)
H276 H 0.1472 0.2717 0.3655
C364 C 0.1809(5) 0.3304(4) 0.3793(3)
C365 C 0.2875(5) 0.4331(4) 0.3713(3)
C366 C 0.3378(5) 0.4320(5) 0.3916(3)
O84 O 0.3398(5) 0.3907(4) 0.4248(3)
C367 C 0.3912(7) 0.3874(6) 0.4475(4)
H277 H 0.3862 0.4139 0.4613
H278 H 0.4315 0.3906 0.4292
C368 C 0.3872(8) 0.3360(5) 0.4783(4)
H279 H 0.3637 0.3143 0.4692
H280 H 0.4294 0.3206 0.4806
O85 O 0.3588(8) 0.3402(6) 0.5149(4)
C369 C 0.2957(8) 0.3614(8) 0.5142(7)
H281 H 0.2766 0.3623 0.5416
H282 H 0.2716 0.3409 0.5047
H283 H 0.2963 0.3953 0.4958
C370 C 0.2118(8) 0.5258(6) 0.0967(5)
H284 H 0.1707 0.5179 0.1096
N17 N 0.2265(6) 0.5767(5) 0.0862(4)
C371 C 0.2866(9) 0.5842(7) 0.0713(5)
H285 H 0.3007 0.6168 0.0652
C372 C 0.3276(9) 0.5480(7) 0.0645(6)
H286 H 0.3687 0.5569 0.0524
C373 C 0.3137(9) 0.4984(6) 0.0742(4)
H287 H 0.3439 0.4729 0.0705
C374 C 0.2497(8) 0.4886(6) 0.0903(5)
C375 C 0.2285(8) 0.4359(6) 0.1021(5)
C376 C 0.2450(7) 0.3992(6) 0.1352(5)
C377 C 0.2863(8) 0.4081(6) 0.1593(4)
H288 H 0.3040 0.4397 0.1519
C378 C 0.3003(8) 0.3735(7) 0.1914(5)
H289 H 0.3275 0.3807 0.2071
C379 C 0.2759(8) 0.3259(7) 0.2032(5)
H290 H 0.2880 0.3012 0.2259
C380 C 0.2366(6) 0.3157(6) 0.1830(5)
H291 H 0.2197 0.2838 0.1915
C381 C 0.2187(7) 0.3529(6) 0.1475(5)
C382 C 0.1745(6) 0.3424(3) 0.1261(3)
C383 C 0.1611(6) 0.3782(4) 0.0908(3)
C384 C 0.1187(6) 0.3701(4) 0.0669(4)
H292 H 0.0977 0.3398 0.0757
C385 C 0.1077(7) 0.4039(5) 0.0323(4)
H293 H 0.0804 0.3968 0.0167
C386 C 0.1359(8) 0.4494(5) 0.0191(4)
H294 H 0.1285 0.4727 -0.0057
C387 C 0.1731(7) 0.4604(4) 0.0411(4)
H295 H 0.1905 0.4921 0.0320
C388 C 0.1882(7) 0.4259(4) 0.0783(4)
C389 C 0.1411(6) 0.2952(4) 0.1416(3)
C390 C 0.1497(6) 0.2569(3) 0.1231(3)
O86 O 0.1896(5) 0.2661(4) 0.0870(3)
C391 C 0.1843(8) 0.2353(6) 0.0604(3)
H296 H 0.2090 0.2036 0.0683
H297 H 0.1405 0.2275 0.0630
C392 C 0.2070(7) 0.2629(7) 0.0186(3)
H298 H 0.2028 0.2423 0.0007
H299 H 0.1801 0.2934 0.0110
O87 O 0.2659(7) 0.2761(5) 0.0113(4)
C393 C 0.3079(7) 0.2410(8) 0.0329(5)
H300 H 0.3489 0.2549 0.0268
H301 H 0.3109 0.2104 0.0247
H302 H 0.2928 0.2335 0.0621
C394 C -0.1048(6) 0.2942(5) 0.3518(5)
H303 H -0.0704 0.3143 0.3395
N18 N -0.1390(6) 0.3037(5) 0.3838(4)
C395 C -0.1926(8) 0.2796(6) 0.3996(5)
H304 H -0.2189 0.2862 0.4223
C396 C -0.2084(8) 0.2447(6) 0.3817(5)
H305 H -0.2472 0.2297 0.3913
C397 C -0.1697(7) 0.2323(6) 0.3513(4)
H306 H -0.1794 0.2066 0.3411
C398 C -0.1136(7) 0.2583(6) 0.3344(5)
C399 C -0.0708(8) 0.2491(6) 0.2997(5)
C400 C -0.0897(8) 0.2593(6) 0.2616(5)
C401 C -0.1517(8) 0.2762(6) 0.2522(4)
H307 H -0.1828 0.2797 0.2740
C402 C -0.1674(9) 0.2865(7) 0.2175(5)
H308 H -0.2084 0.2982 0.2135
C403 C -0.1209(8) 0.2798(7) 0.1836(6)
H309 H -0.1327 0.2854 0.1577
C404 C -0.0639(8) 0.2664(6) 0.1883(6)
H310 H -0.0345 0.2646 0.1652
C405 C -0.0442(8) 0.2547(6) 0.2256(5)
C406 C 0.0181(5) 0.2419(5) 0.2310(3)
C407 C 0.0362(5) 0.2292(6) 0.2697(3)
C408 C 0.0974(4) 0.2115(6) 0.2760(3)
H311 H 0.1273 0.2086 0.2535
C409 C 0.1144(5) 0.1986(6) 0.3134(3)
H312 H 0.1558 0.1874 0.3167
C410 C 0.0709(5) 0.2019(6) 0.3470(3)
H313 H 0.0836 0.1946 0.3728
C411 C 0.0127(5) 0.2150(6) 0.3434(3)
H314 H -0.0164 0.2137 0.3672
C412 C -0.0091(4) 0.2315(5) 0.3043(3)
C413 C 0.0655(6) 0.2452(4) 0.1945(3)
C414 C 0.0757(7) 0.2092(4) 0.1732(4)
O88 O 0.0427(5) 0.1669(3) 0.1927(3)
C415 C 0.0531(9) 0.1267(4) 0.1733(5)
H315 H 0.0978 0.1174 0.1682
H316 H 0.0368 0.1367 0.1473
C416 C 0.0175(9) 0.0832(4) 0.2038(5)
H317 H 0.0326 0.0748 0.2302
H318 H -0.0272 0.0927 0.2082
O89 O 0.0270(7) 0.0435(4) 0.1886(4)
C417 C 0.0027(10) -0.0015(5) 0.2181(6)
H319 H 0.0100 -0.0292 0.2060
H320 H -0.0419 0.0037 0.2264
H321 H 0.0237 -0.0094 0.2419
C418 C -0.2423(7) 0.5178(6) 0.1684(5)
H322 H -0.2064 0.5127 0.1811
C419 C -0.3408(6) 0.5372(6) 0.1294(5)
H323 H -0.3762 0.5436 0.1162
C420 C -0.0579(7) 0.6976(5) 0.3149(4)
H324 H -0.0525 0.6707 0.3032
C421 C -0.0719(9) 0.7738(5) 0.3480(5)
H325 H -0.0780 0.8000 0.3604
C422 C 0.2857(7) 0.4718(6) 0.3371(4)
H326 H 0.2537 0.4726 0.3219
C423 C 0.3792(7) 0.4686(6) 0.3782(5)
H327 H 0.4129 0.4671 0.3924
C424 C 0.0974(6) 0.2866(5) 0.1777(4)
H328 H 0.0902 0.3120 0.1911
C425 C 0.1165(8) 0.2155(5) 0.1389(4)
H329 H 0.1223 0.1904 0.1252
Pd3 Pd 0.16403(6) 0.63159(5) 0.08769(4)
Pd4 Pd -0.11424(6) 0.35092(5) 0.41201(4)
C426 C 0.1163(5) 0.5340(6) 0.1917(5)
C427 C 0.1110(5) 0.5714(5) 0.2108(6)
C428 C 0.0537(6) 0.5957(6) 0.2077(6)
C429 C 0.0247(5) 0.5755(5) 0.1841(5)
C430 C 0.0622(6) 0.5353(6) 0.1769(5)
C431 C 0.0407(7) 0.4964(6) 0.1671(7)
C432 C 0.0825(9) 0.4553(6) 0.1737(7)
H330 H 0.0747 0.4278 0.1650
C433 C 0.1345(8) 0.4517(4) 0.1919(5)
H331 H 0.1584 0.4211 0.1972
C434 C 0.1530(10) 0.4910(6) 0.2027(7)
C435 C 0.1871(8) 0.4907(6) 0.2326(6)
H332 H 0.2124 0.4619 0.2427
C436 C 0.1857(6) 0.5306(6) 0.2483(5)
H333 H 0.2178 0.5325 0.2627
C437 C 0.1392(10) 0.5679(8) 0.2439(6)
C438 C 0.1157(9) 0.6017(8) 0.2653(6)
H334 H 0.1373 0.6060 0.2853
C439 C 0.0609(9) 0.6295(8) 0.2579(6)
H335 H 0.0496 0.6553 0.2706
C440 C 0.0215(6) 0.6225(9) 0.2333(7)
C441 C -0.0422(6) 0.6246(4) 0.2335(4)
H336 H -0.0694 0.6350 0.2542
C442 C -0.0671(5) 0.6119(4) 0.2042(4)
H337 H -0.1067 0.6262 0.1987
C443 C -0.0383(6) 0.5800(8) 0.1826(8)
C444 C -0.0562(5) 0.5454(6) 0.1664(5)
H338 H -0.0927 0.5523 0.1543
C445 C -0.0227(7) 0.5011(6) 0.1671(5)
H339 H -0.0438 0.4730 0.1675
C446 C -0.0745(8) 0.4690(6) 0.3134(6)
C447 C -0.0935(8) 0.4404(7) 0.2913(8)
C448 C -0.0512(7) 0.4008(4) 0.2920(6)
C449 C -0.0075(9) 0.4030(6) 0.3157(7)
C450 C -0.0190(9) 0.4478(6) 0.3254(7)
C451 C 0.0236(12) 0.4749(8) 0.3340(13)
C452 C 0.0064(10) 0.5251(7) 0.3277(7)
H340 H 0.0363 0.5478 0.3264
C453 C -0.0536(11) 0.5422(5) 0.3232(5)
H341 H -0.0667 0.5737 0.3275
C454 C -0.0959(12) 0.5169(7) 0.3128(9)
C455 C -0.1352(6) 0.5341(5) 0.2845(5)
H342 H -0.1590 0.5640 0.2851
C456 C -0.1435(5) 0.5119(5) 0.2554(5)
H343 H -0.1595 0.5312 0.2318
C457 C -0.128(2) 0.4614(8) 0.2605(11)
C458 C -0.1282(14) 0.4297(11) 0.2367(10)
H344 H -0.1600 0.4346 0.2205
C459 C -0.0841(17) 0.3913(15) 0.2353(12)
H345 H -0.0853 0.3719 0.2173
C460 C -0.0383(13) 0.3805(15) 0.2597(9)
C461 C 0.0157(10) 0.3503(5) 0.2616(7)
H346 H 0.0226 0.3268 0.2464
C462 C 0.0599(11) 0.3528(11) 0.2845(11)
H347 H 0.0964 0.3318 0.2835
C463 C 0.0531(9) 0.3847(12) 0.3089(11)
C464 C 0.0980(9) 0.4104(8) 0.3171(8)
H348 H 0.1407 0.4026 0.3097
C465 C 0.0796(10) 0.4474(11) 0.3361(11)
H349 H 0.1071 0.4544 0.3517
C486 C 0.3976(6) -0.0226(5) 0.7963(6)
C487 C 0.3975(5) -0.0655(5) 0.7846(5)
C488 C 0.4543(6) -0.0907(5) 0.7893(5)
C489 C 0.4821(5) -0.0701(4) 0.8130(4)
C490 C 0.4470(6) -0.0272(5) 0.8165(5)
C491 C 0.4708(8) 0.0136(5) 0.8225(8)
C492 C 0.4344(8) 0.0570(5) 0.8114(5)
H360 H 0.4471 0.0867 0.8147
C493 C 0.3804(8) 0.0589(5) 0.7956(7)
H361 H 0.3549 0.0886 0.7924
C494 C 0.3607(9) 0.0204(5) 0.7841(6)
C495 C 0.3298(6) 0.0172(6) 0.7537(5)
H362 H 0.3075 0.0462 0.7405
C496 C 0.3287(8) -0.0250(7) 0.7410(6)
H363 H 0.2978 -0.0277 0.7260
C497 C 0.3731(10) -0.0629(7) 0.7504(6)
C498 C 0.3944(9) -0.0996(7) 0.7316(6)
H364 H 0.3726 -0.1052 0.7123
C499 C 0.4473(7) -0.1280(5) 0.7410(5)
H365 H 0.4618 -0.1511 0.7260
C500 C 0.4816(7) -0.1260(7) 0.7704(6)
C501 C 0.5426(7) -0.1367(7) 0.7768(6)
H366 H 0.5654 -0.1612 0.7656
C502 C 0.5728(6) -0.1147(6) 0.7982(5)
H367 H 0.6135 -0.1268 0.8030
C503 C 0.5458(6) -0.0757(7) 0.8130(7)
C504 C 0.5656(7) -0.0402(7) 0.8275(8)
H368 H 0.6057 -0.0451 0.8349
C505 C 0.5304(8) 0.0022(7) 0.8317(8)
H369 H 0.5482 0.0247 0.8416
C466? C -0.0592(8) 0.4150(9) 0.2887(9)
C467? C 0.0018(9) 0.3959(9) 0.2871(8)
C468? C 0.0280(10) 0.4134(9) 0.3135(9)
C469? C -0.0094(10) 0.4537(10) 0.3204(9)
C470? C -0.0619(9) 0.4565(10) 0.3032(9)
C471? C -0.1060(15) 0.4957(12) 0.2974(13)
C472? C -0.1387(7) 0.4931(11) 0.2674(8)
H350? H -0.1641 0.5214 0.2565
C473? C -0.1372(18) 0.4526(16) 0.2522(16)
H351? H -0.1659 0.4527 0.2348
C474? C -0.0958(15) 0.4120(13) 0.2612(12)
C475? C -0.0676(18) 0.384(2) 0.2355(16)
H352? H -0.0884 0.3817 0.2146
C476? C -0.0099(12) 0.3599(8) 0.2392(8)
H353? H 0.0036 0.3380 0.2229
C477? C 0.0302(13) 0.3645(17) 0.2645(14)
C478? C 0.0918(10) 0.3556(6) 0.2701(7)
H354? H 0.1140 0.3288 0.2617
C479? C 0.1240(9) 0.3827(9) 0.2869(5)
H355? H 0.1678 0.3792 0.2840
C480? C 0.0920(11) 0.4147(17) 0.3078(16)
C481? C 0.1109(9) 0.4477(9) 0.3255(7)
H356? H 0.1519 0.4440 0.3316
C482? C 0.0715(13) 0.4859(13) 0.3346(15)
H357? H 0.0854 0.5057 0.3488
C483? C 0.0126(14) 0.4967(10) 0.3237(18)
C484? C -0.0323(15) 0.5352(12) 0.3229(16)
H358? H -0.0234 0.5642 0.3291
C485? C -0.0902(11) 0.5321(6) 0.3130(7)
H359? H -0.1213 0.5568 0.3173
loop_
_geom_bond_atom_site_label_1
_geom_bond_atom_site_label_2
_geom_bond_site_symmetry_1
_geom_bond_site_symmetry_2
Pd1 N1 1_555 1_555
Pd2 N2 1_555 1_555
C1 H1 1_555 1_555
N1 C1 1_555 1_555
C2 N1 1_555 1_555
H2 C2 1_555 1_555
C3 C2 1_555 1_555
H3 C3 1_555 1_555
C4 C3 1_555 1_555
H4 C4 1_555 1_555
C5 C1 1_555 1_555
C6 C5 1_555 1_555
C7 C6 1_555 1_555
C8 C7 1_555 1_555
H5 C8 1_555 1_555
C9 C8 1_555 1_555
H6 C9 1_555 1_555
C10 C9 1_555 1_555
H7 C10 1_555 1_555
C11 C10 1_555 1_555
H8 C11 1_555 1_555
C12 C7 1_555 1_555
C13 C12 1_555 1_555
C14 C13 1_555 1_555
C15 C14 1_555 1_555
H9 C15 1_555 1_555
C16 C15 1_555 1_555
H10 C16 1_555 1_555
C17 C16 1_555 1_555
H11 C17 1_555 1_555
C18 C17 1_555 1_555
H12 C18 1_555 1_555
C19 C6 1_555 1_555
C20 C13 1_555 1_555
C21 C20 1_555 1_555
O1 C21 1_555 1_555
C22 O1 1_555 1_555
H13 C22 1_555 1_555
H14 C22 1_555 1_555
C23 C22 1_555 1_555
H15 C23 1_555 1_555
H16 C23 1_555 1_555
O2 C23 1_555 1_555
C24 O2 1_555 1_555
H17 C24 1_555 1_555
H18 C24 1_555 1_555
H19 C24 1_555 1_555
C25 H20 1_555 1_555
N2 C25 1_555 1_555
C26 N2 1_555 1_555
H21 C26 1_555 1_555
C27 C26 1_555 1_555
H22 C27 1_555 1_555
C28 C27 1_555 1_555
H23 C28 1_555 1_555
C29 C25 1_555 1_555
C30 C29 1_555 1_555
C31 C30 1_555 1_555
C32 C31 1_555 1_555
H24 C32 1_555 1_555
C33 C32 1_555 1_555
H25 C33 1_555 1_555
C34 C33 1_555 1_555
H26 C34 1_555 1_555
C35 C34 1_555 1_555
H27 C35 1_555 1_555
C36 C31 1_555 1_555
C37 C36 1_555 1_555
C38 C37 1_555 1_555
C39 C38 1_555 1_555
H28 C39 1_555 1_555
C40 C39 1_555 1_555
H29 C40 1_555 1_555
C41 C40 1_555 1_555
H30 C41 1_555 1_555
C42 C41 1_555 1_555
H31 C42 1_555 1_555
C43 C30 1_555 1_555
C44 C37 1_555 1_555
C45 C44 1_555 1_555
O3 C45 1_555 1_555
C46 O3 1_555 1_555
H32 C46 1_555 1_555
H33 C46 1_555 1_555
C47 C46 1_555 1_555
H34 C47 1_555 1_555
H35 C47 1_555 1_555
O4 C47 1_555 1_555
C48 O4 1_555 1_555
H36 C48 1_555 1_555
H37 C48 1_555 1_555
H38 C48 1_555 1_555
C49 H39 1_555 1_555
N3 Pd1 1_555 1_555
C50 N3 1_555 1_555
H40 C50 1_555 1_555
C51 C50 1_555 1_555
H41 C51 1_555 1_555
C52 C51 1_555 1_555
H42 C52 1_555 1_555
C53 C49 1_555 1_555
C54 C53 1_555 1_555
C55 C54 1_555 1_555
C56 C55 1_555 1_555
H43 C56 1_555 1_555
C57 C56 1_555 1_555
H44 C57 1_555 1_555
C58 C57 1_555 1_555
H45 C58 1_555 1_555
C59 C58 1_555 1_555
H46 C59 1_555 1_555
C60 C55 1_555 1_555
C61 C60 1_555 1_555
C62 C61 1_555 1_555
C63 C62 1_555 1_555
H47 C63 1_555 1_555
C64 C63 1_555 1_555
H48 C64 1_555 1_555
C65 C64 1_555 1_555
H49 C65 1_555 1_555
C66 C65 1_555 1_555
H50 C66 1_555 1_555
C67 C54 1_555 1_555
C68 C61 1_555 1_555
C69 C68 1_555 1_555
O5 C69 1_555 1_555
C70 O5 1_555 1_555
H51 C70 1_555 1_555
H52 C70 1_555 1_555
C71 C70 1_555 1_555
H53 C71 1_555 1_555
H54 C71 1_555 1_555
O6 C71 1_555 1_555
C72 O6 1_555 1_555
H55 C72 1_555 1_555
H56 C72 1_555 1_555
H57 C72 1_555 1_555
C73 H58 1_555 1_555
N4 Pd2 1_555 1_555
C74 N4 1_555 1_555
H59 C74 1_555 1_555
C75 C74 1_555 1_555
H60 C75 1_555 1_555
C76 C75 1_555 1_555
H61 C76 1_555 1_555
C77 C73 1_555 1_555
C78 C77 1_555 1_555
C79 C78 1_555 1_555
C80 C79 1_555 1_555
H62 C80 1_555 1_555
C81 C80 1_555 1_555
H63 C81 1_555 1_555
C82 C81 1_555 1_555
H64 C82 1_555 1_555
C83 C82 1_555 1_555
H65 C83 1_555 1_555
C84 C79 1_555 1_555
C85 C84 1_555 1_555
C86 C85 1_555 1_555
C87 C86 1_555 1_555
H66 C87 1_555 1_555
C88 C87 1_555 1_555
H67 C88 1_555 1_555
C89 C88 1_555 1_555
H68 C89 1_555 1_555
C90 C89 1_555 1_555
H69 C90 1_555 1_555
C91 C78 1_555 1_555
C92 C85 1_555 1_555
C93 C92 1_555 1_555
O7 C93 1_555 1_555
C94 O7 1_555 1_555
H70 C94 1_555 1_555
H71 C94 1_555 1_555
C95 C94 1_555 1_555
H72 C95 1_555 1_555
H73 C95 1_555 1_555
O8 C95 1_555 1_555
C96 O8 1_555 1_555
H74 C96 1_555 1_555
H75 C96 1_555 1_555
H76 C96 1_555 1_555
C97 H77 1_555 1_555
N5 Pd1 1_555 1_555
C98 N5 1_555 1_555
H78 C98 1_555 1_555
C99 C98 1_555 1_555
H79 C99 1_555 1_555
C100 C99 1_555 1_555
H80 C100 1_555 1_555
C101 C97 1_555 1_555
C102 C101 1_555 1_555
C103 C102 1_555 1_555
C104 C103 1_555 1_555
H81 C104 1_555 1_555
C105 C104 1_555 1_555
H82 C105 1_555 1_555
C106 C105 1_555 1_555
H83 C106 1_555 1_555
C107 C106 1_555 1_555
H84 C107 1_555 1_555
C108 C103 1_555 1_555
C109 C108 1_555 1_555
C110 C109 1_555 1_555
C111 C110 1_555 1_555
H85 C111 1_555 1_555
C112 C111 1_555 1_555
H86 C112 1_555 1_555
C113 C112 1_555 1_555
H87 C113 1_555 1_555
C114 C113 1_555 1_555
H88 C114 1_555 1_555
C115 C102 1_555 1_555
C116 C109 1_555 1_555
C117 C116 1_555 1_555
O9 C117 1_555 1_555
C118 O9 1_555 1_555
H89 C118 1_555 1_555
H90 C118 1_555 1_555
C119 C118 1_555 1_555
H91 C119 1_555 1_555
H92 C119 1_555 1_555
O10 C119 1_555 1_555
C120 O10 1_555 1_555
H93 C120 1_555 1_555
H94 C120 1_555 1_555
H95 C120 1_555 1_555
C121 H96 1_555 1_555
N6 Pd2 1_555 1_555
C122 N6 1_555 1_555
H97 C122 1_555 1_555
C123 C122 1_555 1_555
H98 C123 1_555 1_555
C124 C123 1_555 1_555
H99 C124 1_555 1_555
C125 C121 1_555 1_555
C126 C125 1_555 1_555
C127 C126 1_555 1_555
C128 C127 1_555 1_555
H100 C128 1_555 1_555
C129 C128 1_555 1_555
H101 C129 1_555 1_555
C130 C129 1_555 1_555
H102 C130 1_555 1_555
C131 C130 1_555 1_555
H103 C131 1_555 1_555
C132 C127 1_555 1_555
C133 C132 1_555 1_555
C134 C133 1_555 1_555
C135 C134 1_555 1_555
H104 C135 1_555 1_555
C136 C135 1_555 1_555
H105 C136 1_555 1_555
C137 C136 1_555 1_555
H106 C137 1_555 1_555
C138 C137 1_555 1_555
H107 C138 1_555 1_555
C139 C126 1_555 1_555
C140 C133 1_555 1_555
C141 C140 1_555 1_555
O11 C141 1_555 1_555
C142 O11 1_555 1_555
H108 C142 1_555 1_555
H109 C142 1_555 1_555
C143 C142 1_555 1_555
H110 C143 1_555 1_555
H111 C143 1_555 1_555
O12 C143 1_555 1_555
C144 O12 1_555 1_555
H112 C144 1_555 1_555
H113 C144 1_555 1_555
H114 C144 1_555 1_555
C145 H115 1_555 1_555
N7 Pd1 1_555 1_555
C146 N7 1_555 1_555
H116 C146 1_555 1_555
C147 C146 1_555 1_555
H117 C147 1_555 1_555
C148 C147 1_555 1_555
H118 C148 1_555 1_555
C149 C145 1_555 1_555
C150 C149 1_555 1_555
C151 C150 1_555 1_555
C152 C151 1_555 1_555
H119 C152 1_555 1_555
C153 C152 1_555 1_555
H120 C153 1_555 1_555
C154 C153 1_555 1_555
H121 C154 1_555 1_555
C155 C154 1_555 1_555
H122 C155 1_555 1_555
C156 C151 1_555 1_555
C157 C156 1_555 1_555
C158 C157 1_555 1_555
C159 C158 1_555 1_555
H123 C159 1_555 1_555
C160 C159 1_555 1_555
H124 C160 1_555 1_555
C161 C160 1_555 1_555
H125 C161 1_555 1_555
C162 C161 1_555 1_555
H126 C162 1_555 1_555
C163 C150 1_555 1_555
C164 C157 1_555 1_555
C165 C164 1_555 1_555
O13 C165 1_555 1_555
C166 O13 1_555 1_555
H127 C166 1_555 1_555
H128 C166 1_555 1_555
C167 C166 1_555 1_555
H129 C167 1_555 1_555
H130 C167 1_555 1_555
O14 C167 1_555 1_555
C168 O14 1_555 1_555
H131 C168 1_555 1_555
H132 C168 1_555 1_555
H133 C168 1_555 1_555
C169 H134 1_555 1_555
N8 Pd2 1_555 1_555
C170 N8 1_555 1_555
H135 C170 1_555 1_555
C171 C170 1_555 1_555
H136 C171 1_555 1_555
C172 C171 1_555 1_555
H137 C172 1_555 1_555
C173 C169 1_555 1_555
C174 C173 1_555 1_555
C175 C174 1_555 1_555
C176 C175 1_555 1_555
H138 C176 1_555 1_555
C177 C176 1_555 1_555
H139 C177 1_555 1_555
C178 C177 1_555 1_555
H140 C178 1_555 1_555
C179 C178 1_555 1_555
H141 C179 1_555 1_555
C180 C175 1_555 1_555
C181 C180 1_555 1_555
C182 C181 1_555 1_555
C183 C182 1_555 1_555
H142 C183 1_555 1_555
C184 C183 1_555 1_555
H143 C184 1_555 1_555
C185 C184 1_555 1_555
H144 C185 1_555 1_555
C186 C185 1_555 1_555
H145 C186 1_555 1_555
C187 C174 1_555 1_555
C188 C181 1_555 1_555
C189 C188 1_555 1_555
O15 C189 1_555 1_555
C190 O15 1_555 1_555
H146 C190 1_555 1_555
H147 C190 1_555 1_555
C191 C190 1_555 1_555
H148 C191 1_555 1_555
H149 C191 1_555 1_555
O16 C191 1_555 1_555
C192 O16 1_555 1_555
H150 C192 1_555 1_555
H151 C192 1_555 1_555
H152 C192 1_555 1_555
C193 C20 1_555 1_555
H153 C193 1_555 1_555
C194 C21 1_555 1_555
H154 C194 1_555 1_555
C195 C68 1_555 1_555
H155 C195 1_555 1_555
C196 C69 1_555 1_555
H156 C196 1_555 1_555
C197 C116 1_555 1_555
H157 C197 1_555 1_555
C198 C117 1_555 1_555
H158 C198 1_555 1_555
C199 C164 1_555 1_555
H159 C199 1_555 1_555
C200 C165 1_555 1_555
H160 C200 1_555 1_555
C201 C202 1_555 1_555
C202 C203 1_555 1_555
C203 C204 1_555 1_555
C204 C205 1_555 1_555
C205 C201 1_555 1_555
C206 C205 1_555 1_555
C207 C206 1_555 1_555
H161 C207 1_555 1_555
C208 C207 1_555 1_555
H162 C208 1_555 1_555
C209 C201 1_555 1_555
C210 C209 1_555 1_555
H163 C210 1_555 1_555
C211 C210 1_555 1_555
H164 C211 1_555 1_555
C212 C202 1_555 1_555
C213 C212 1_555 1_555
H165 C213 1_555 1_555
C214 C213 1_555 1_555
H166 C214 1_555 1_555
C215 C203 1_555 1_555
C216 C215 1_555 1_555
H167 C216 1_555 1_555
C217 C216 1_555 1_555
H168 C217 1_555 1_555
C218 C204 1_555 1_555
C219 C218 1_555 1_555
H169 C219 1_555 1_555
C220 C206 1_555 1_555
H170 C220 1_555 1_555
C221 O63 1_555 1_555
C222 O64 1_555 1_555
C223 O65 1_555 1_555
C224 O66 1_555 1_555
C225 O67 1_555 1_555
N9 O68 1_555 1_555
O69 N9 1_555 1_555
O70 N9 1_555 1_555
N10 O71 1_555 1_555
O72 N10 1_555 1_555
O73 N10 1_555 1_555
C226 H171 1_555 1_555
N11 C226 1_555 1_555
C227 N11 1_555 1_555
H172 C227 1_555 1_555
C228 C227 1_555 1_555
H173 C228 1_555 1_555
C229 C228 1_555 1_555
H174 C229 1_555 1_555
C230 C226 1_555 1_555
C231 C230 1_555 1_555
C232 C231 1_555 1_555
C233 C232 1_555 1_555
H175 C233 1_555 1_555
C234 C233 1_555 1_555
H176 C234 1_555 1_555
C235 C234 1_555 1_555
H177 C235 1_555 1_555
C236 C235 1_555 1_555
H178 C236 1_555 1_555
C237 C232 1_555 1_555
C238 C237 1_555 1_555
C239 C238 1_555 1_555
C240 C239 1_555 1_555
H179 C240 1_555 1_555
C241 C240 1_555 1_555
H180 C241 1_555 1_555
C242 C241 1_555 1_555
H181 C242 1_555 1_555
C243 C242 1_555 1_555
H182 C243 1_555 1_555
C244 C231 1_555 1_555
C245 C238 1_555 1_555
C246 C245 1_555 1_555
O74 C246 1_555 1_555
C247 O74 1_555 1_555
H183 C247 1_555 1_555
H184 C247 1_555 1_555
C248 C247 1_555 1_555
H185 C248 1_555 1_555
H186 C248 1_555 1_555
O75 C248 1_555 1_555
C249 O75 1_555 1_555
H187 C249 1_555 1_555
H188 C249 1_555 1_555
H189 C249 1_555 1_555
C250 H190 1_555 1_555
N12 C250 1_555 1_555
C251 N12 1_555 1_555
H191 C251 1_555 1_555
C252 C251 1_555 1_555
H192 C252 1_555 1_555
C253 C252 1_555 1_555
H193 C253 1_555 1_555
C254 C250 1_555 1_555
C255 C254 1_555 1_555
C256 C255 1_555 1_555
C257 C256 1_555 1_555
H194 C257 1_555 1_555
C258 C257 1_555 1_555
H195 C258 1_555 1_555
C259 C258 1_555 1_555
H196 C259 1_555 1_555
C260 C259 1_555 1_555
H197 C260 1_555 1_555
C261 C256 1_555 1_555
C262 C261 1_555 1_555
C263 C262 1_555 1_555
C264 C263 1_555 1_555
H198 C264 1_555 1_555
C265 C264 1_555 1_555
H199 C265 1_555 1_555
C266 C265 1_555 1_555
H200 C266 1_555 1_555
C267 C266 1_555 1_555
H201 C267 1_555 1_555
C268 C255 1_555 1_555
C269 C262 1_555 1_555
C270 C269 1_555 1_555
O76 C270 1_555 1_555
C271 O76 1_555 1_555
H202 C271 1_555 1_555
H203 C271 1_555 1_555
C272 C271 1_555 1_555
H204 C272 1_555 1_555
H205 C272 1_555 1_555
O77 C272 1_555 1_555
C273 O77 1_555 1_555
H206 C273 1_555 1_555
H207 C273 1_555 1_555
H208 C273 1_555 1_555
C274 H209 1_555 1_555
N13 C274 1_555 1_555
C275 N13 1_555 1_555
H210 C275 1_555 1_555
C276 C275 1_555 1_555
H211 C276 1_555 1_555
C277 C276 1_555 1_555
H212 C277 1_555 1_555
C278 C274 1_555 1_555
C279 C278 1_555 1_555
C280 C279 1_555 1_555
C281 C280 1_555 1_555
H213 C281 1_555 1_555
C282 C281 1_555 1_555
H214 C282 1_555 1_555
C283 C282 1_555 1_555
H215 C283 1_555 1_555
C284 C283 1_555 1_555
H216 C284 1_555 1_555
C285 C280 1_555 1_555
C286 C285 1_555 1_555
C287 C286 1_555 1_555
C288 C287 1_555 1_555
H217 C288 1_555 1_555
C289 C288 1_555 1_555
H218 C289 1_555 1_555
C290 C289 1_555 1_555
H219 C290 1_555 1_555
C291 C290 1_555 1_555
H220 C291 1_555 1_555
C292 C279 1_555 1_555
C293 C286 1_555 1_555
C294 C293 1_555 1_555
O78 C294 1_555 1_555
C295 O78 1_555 1_555
H221 C295 1_555 1_555
H222 C295 1_555 1_555
C296 C295 1_555 1_555
H223 C296 1_555 1_555
O79 C296 1_555 1_555
C297 O79 1_555 1_555
H224 C297 1_555 1_555
H225 C297 1_555 1_555
H226 C297 1_555 1_555
C298 H227 1_555 1_555
N14 C298 1_555 1_555
C299 N14 1_555 1_555
H228 C299 1_555 1_555
C300 C299 1_555 1_555
H229 C300 1_555 1_555
C301 C300 1_555 1_555
H230 C301 1_555 1_555
C302 C298 1_555 1_555
C303 C302 1_555 1_555
C304 C303 1_555 1_555
C305 C304 1_555 1_555
H231 C305 1_555 1_555
C306 C305 1_555 1_555
H232 C306 1_555 1_555
C307 C306 1_555 1_555
H233 C307 1_555 1_555
C308 C307 1_555 1_555
H234 C308 1_555 1_555
C309 C304 1_555 1_555
C310 C309 1_555 1_555
C311 C310 1_555 1_555
C312 C311 1_555 1_555
H235 C312 1_555 1_555
C313 C312 1_555 1_555
H236 C313 1_555 1_555
C314 C313 1_555 1_555
H237 C314 1_555 1_555
C315 C314 1_555 1_555
H238 C315 1_555 1_555
C316 C303 1_555 1_555
C317 C310 1_555 1_555
C318 C317 1_555 1_555
O80 C318 1_555 1_555
C319 O80 1_555 1_555
H239 C319 1_555 1_555
H240 C319 1_555 1_555
C320 C319 1_555 1_555
H241 C320 1_555 1_555
H242 C320 1_555 1_555
O81 C320 1_555 1_555
C321 O81 1_555 1_555
H243 C321 1_555 1_555
H244 C321 1_555 1_555
H245 C321 1_555 1_555
C322 H246 1_555 1_555
N15 C322 1_555 1_555
C323 N15 1_555 1_555
H247 C323 1_555 1_555
C324 C323 1_555 1_555
H248 C324 1_555 1_555
C325 C324 1_555 1_555
H249 C325 1_555 1_555
C326 C322 1_555 1_555
C327 C326 1_555 1_555
C328 C327 1_555 1_555
C329 C328 1_555 1_555
H250 C329 1_555 1_555
C330 C329 1_555 1_555
H251 C330 1_555 1_555
C331 C330 1_555 1_555
H252 C331 1_555 1_555
C332 C331 1_555 1_555
H253 C332 1_555 1_555
C333 C328 1_555 1_555
C334 C333 1_555 1_555
C335 C334 1_555 1_555
C336 C335 1_555 1_555
H254 C336 1_555 1_555
C337 C336 1_555 1_555
H255 C337 1_555 1_555
C338 C337 1_555 1_555
H256 C338 1_555 1_555
C339 C338 1_555 1_555
H257 C339 1_555 1_555
C340 C327 1_555 1_555
C341 C334 1_555 1_555
C342 C341 1_555 1_555
O82 C342 1_555 1_555
C343 O82 1_555 1_555
H258 C343 1_555 1_555
H259 C343 1_555 1_555
C344 C343 1_555 1_555
H260 C344 1_555 1_555
H261 C344 1_555 1_555
O83 C344 1_555 1_555
C345 O83 1_555 1_555
H262 C345 1_555 1_555
H263 C345 1_555 1_555
H264 C345 1_555 1_555
C346 H265 1_555 1_555
N16 C346 1_555 1_555
C347 N16 1_555 1_555
H266 C347 1_555 1_555
C348 C347 1_555 1_555
H267 C348 1_555 1_555
C349 C348 1_555 1_555
H268 C349 1_555 1_555
C350 C346 1_555 1_555
C351 C350 1_555 1_555
C352 C351 1_555 1_555
C353 C352 1_555 1_555
H269 C353 1_555 1_555
C354 C353 1_555 1_555
H270 C354 1_555 1_555
C355 C354 1_555 1_555
H271 C355 1_555 1_555
C356 C355 1_555 1_555
H272 C356 1_555 1_555
C357 C352 1_555 1_555
C358 C357 1_555 1_555
C359 C358 1_555 1_555
C360 C359 1_555 1_555
H273 C360 1_555 1_555
C361 C360 1_555 1_555
H274 C361 1_555 1_555
C362 C361 1_555 1_555
H275 C362 1_555 1_555
C363 C362 1_555 1_555
H276 C363 1_555 1_555
C364 C351 1_555 1_555
C365 C358 1_555 1_555
C366 C365 1_555 1_555
O84 C366 1_555 1_555
C367 O84 1_555 1_555
H277 C367 1_555 1_555
H278 C367 1_555 1_555
C368 C367 1_555 1_555
H279 C368 1_555 1_555
H280 C368 1_555 1_555
O85 C368 1_555 1_555
C369 O85 1_555 1_555
H281 C369 1_555 1_555
H282 C369 1_555 1_555
H283 C369 1_555 1_555
C370 H284 1_555 1_555
N17 C370 1_555 1_555
C371 N17 1_555 1_555
H285 C371 1_555 1_555
C372 C371 1_555 1_555
H286 C372 1_555 1_555
C373 C372 1_555 1_555
H287 C373 1_555 1_555
C374 C370 1_555 1_555
C375 C374 1_555 1_555
C376 C375 1_555 1_555
C377 C376 1_555 1_555
H288 C377 1_555 1_555
C378 C377 1_555 1_555
H289 C378 1_555 1_555
C379 C378 1_555 1_555
H290 C379 1_555 1_555
C380 C379 1_555 1_555
H291 C380 1_555 1_555
C381 C376 1_555 1_555
C382 C381 1_555 1_555
C383 C382 1_555 1_555
C384 C383 1_555 1_555
H292 C384 1_555 1_555
C385 C384 1_555 1_555
H293 C385 1_555 1_555
C386 C385 1_555 1_555
H294 C386 1_555 1_555
C387 C386 1_555 1_555
H295 C387 1_555 1_555
C388 C375 1_555 1_555
C389 C382 1_555 1_555
C390 C389 1_555 1_555
O86 C390 1_555 1_555
C391 O86 1_555 1_555
H296 C391 1_555 1_555
H297 C391 1_555 1_555
C392 C391 1_555 1_555
H298 C392 1_555 1_555
H299 C392 1_555 1_555
O87 C392 1_555 1_555
C393 O87 1_555 1_555
H300 C393 1_555 1_555
H301 C393 1_555 1_555
H302 C393 1_555 1_555
C394 H303 1_555 1_555
N18 C394 1_555 1_555
C395 N18 1_555 1_555
H304 C395 1_555 1_555
C396 C395 1_555 1_555
H305 C396 1_555 1_555
C397 C396 1_555 1_555
H306 C397 1_555 1_555
C398 C394 1_555 1_555
C399 C398 1_555 1_555
C400 C399 1_555 1_555
C401 C400 1_555 1_555
H307 C401 1_555 1_555
C402 C401 1_555 1_555
H308 C402 1_555 1_555
C403 C402 1_555 1_555
H309 C403 1_555 1_555
C404 C403 1_555 1_555
H310 C404 1_555 1_555
C405 C400 1_555 1_555
C406 C405 1_555 1_555
C407 C406 1_555 1_555
C408 C407 1_555 1_555
H311 C408 1_555 1_555
C409 C408 1_555 1_555
H312 C409 1_555 1_555
C410 C409 1_555 1_555
H313 C410 1_555 1_555
C411 C410 1_555 1_555
H314 C411 1_555 1_555
C412 C399 1_555 1_555
C413 C406 1_555 1_555
C414 C413 1_555 1_555
O88 C414 1_555 1_555
C415 O88 1_555 1_555
H315 C415 1_555 1_555
H316 C415 1_555 1_555
C416 C415 1_555 1_555
H317 C416 1_555 1_555
H318 C416 1_555 1_555
O89 C416 1_555 1_555
C417 O89 1_555 1_555
H319 C417 1_555 1_555
H320 C417 1_555 1_555
H321 C417 1_555 1_555
C418 C245 1_555 1_555
H322 C418 1_555 1_555
C419 C246 1_555 1_555
H323 C419 1_555 1_555
C420 C293 1_555 1_555
H324 C420 1_555 1_555
C421 C294 1_555 1_555
H325 C421 1_555 1_555
C422 C341 1_555 1_555
H326 C422 1_555 1_555
C423 C342 1_555 1_555
H327 C423 1_555 1_555
C424 C389 1_555 1_555
H328 C424 1_555 1_555
C425 C390 1_555 1_555
H329 C425 1_555 1_555
Pd3 N11 1_555 1_555
Pd4 N12 1_555 1_555
C426 C427 1_555 1_555
C427 C428 1_555 1_555
C428 C429 1_555 1_555
C429 C430 1_555 1_555
C430 C426 1_555 1_555
C431 C430 1_555 1_555
C432 C431 1_555 1_555
H330 C432 1_555 1_555
C433 C432 1_555 1_555
H331 C433 1_555 1_555
C434 C426 1_555 1_555
C435 C434 1_555 1_555
H332 C435 1_555 1_555
C436 C435 1_555 1_555
H333 C436 1_555 1_555
C437 C427 1_555 1_555
C438 C437 1_555 1_555
H334 C438 1_555 1_555
C439 C438 1_555 1_555
H335 C439 1_555 1_555
C440 C428 1_555 1_555
C441 C440 1_555 1_555
H336 C441 1_555 1_555
C442 C441 1_555 1_555
H337 C442 1_555 1_555
C443 C429 1_555 1_555
C444 C443 1_555 1_555
H338 C444 1_555 1_555
C445 C431 1_555 1_555
H339 C445 1_555 1_555
C446 C447 1_555 1_555
C447 C448 1_555 1_555
C448 C449 1_555 1_555
C449 C450 1_555 1_555
C450 C446 1_555 1_555
C451 C450 1_555 1_555
C452 C451 1_555 1_555
H340 C452 1_555 1_555
C453 C452 1_555 1_555
H341 C453 1_555 1_555
C454 C446 1_555 1_555
C455 C454 1_555 1_555
H342 C455 1_555 1_555
C456 C455 1_555 1_555
H343 C456 1_555 1_555
C457 C447 1_555 1_555
C458 C457 1_555 1_555
H344 C458 1_555 1_555
C459 C458 1_555 1_555
H345 C459 1_555 1_555
C460 C448 1_555 1_555
C461 C460 1_555 1_555
H346 C461 1_555 1_555
C462 C461 1_555 1_555
H347 C462 1_555 1_555
C463 C449 1_555 1_555
C464 C463 1_555 1_555
H348 C464 1_555 1_555
C465 C451 1_555 1_555
H349 C465 1_555 1_555
C486 C487 1_555 1_555
C487 C488 1_555 1_555
C488 C489 1_555 1_555
C489 C490 1_555 1_555
C490 C486 1_555 1_555
C491 C490 1_555 1_555
C492 C491 1_555 1_555
H360 C492 1_555 1_555
C493 C492 1_555 1_555
H361 C493 1_555 1_555
C494 C486 1_555 1_555
C495 C494 1_555 1_555
H362 C495 1_555 1_555
C496 C495 1_555 1_555
H363 C496 1_555 1_555
C497 C487 1_555 1_555
C498 C497 1_555 1_555
H364 C498 1_555 1_555
C499 C498 1_555 1_555
H365 C499 1_555 1_555
C500 C488 1_555 1_555
C501 C500 1_555 1_555
H366 C501 1_555 1_555
C502 C501 1_555 1_555
H367 C502 1_555 1_555
C503 C489 1_555 1_555
C504 C503 1_555 1_555
H368 C504 1_555 1_555
C505 C491 1_555 1_555
H369 C505 1_555 1_555
C4 C5 1_555 1_555
C11 C12 1_555 1_555
C14 C19 1_555 1_555
C18 C19 1_555 1_555
C28 C29 1_555 1_555
C35 C36 1_555 1_555
C38 C43 1_555 1_555
C42 C43 1_555 1_555
C44 C193 1_555 1_555
C45 C194 1_555 1_555
C49 N3 1_555 1_555
C52 C53 1_555 1_555
C59 C60 1_555 1_555
C62 C67 1_555 1_555
C66 C67 1_555 1_555
C73 N4 1_555 1_555
C76 C77 1_555 1_555
C83 C84 1_555 1_555
C86 C91 1_555 1_555
C90 C91 1_555 1_555
C92 C195 1_555 1_555
C93 C196 1_555 1_555
C97 N5 1_555 1_555
C100 C101 1_555 1_555
C107 C108 1_555 1_555
C110 C115 1_555 1_555
C114 C115 1_555 1_555
C121 N6 1_555 1_555
C124 C125 1_555 1_555
C131 C132 1_555 1_555
C134 C139 1_555 1_555
C138 C139 1_555 1_555
C140 C197 1_555 1_555
C141 C198 1_555 1_555
C145 N7 1_555 1_555
C148 C149 1_555 1_555
C155 C156 1_555 1_555
C158 C163 1_555 1_555
C162 C163 1_555 1_555
C169 N8 1_555 1_555
C172 C173 1_555 1_555
C179 C180 1_555 1_555
C182 C187 1_555 1_555
C186 C187 1_555 1_555
C188 C199 1_555 1_555
C189 C200 1_555 1_555
C208 C209 1_555 1_555
C211 C212 1_555 1_555
C214 C215 1_555 1_555
C217 C218 1_555 1_555
C219 C220 1_555 1_555
C229 C230 1_555 1_555
C236 C237 1_555 1_555
C239 C244 1_555 1_555
C243 C244 1_555 1_555
C253 C254 1_555 1_555
C260 C261 1_555 1_555
C263 C268 1_555 1_555
C267 C268 1_555 1_555
C269 C418 1_555 1_555
C270 C419 1_555 1_555
N13 Pd3 1_555 1_555
C277 C278 1_555 1_555
C284 C285 1_555 1_555
C287 C292 1_555 1_555
C291 C292 1_555 1_555
N14 Pd4 1_555 1_555
C301 C302 1_555 1_555
C308 C309 1_555 1_555
C311 C316 1_555 1_555
C315 C316 1_555 1_555
C317 C420 1_555 1_555
C318 C421 1_555 1_555
N15 Pd3 1_555 1_555
C325 C326 1_555 1_555
C332 C333 1_555 1_555
C335 C340 1_555 1_555
C339 C340 1_555 1_555
N16 Pd4 1_555 1_555
C349 C350 1_555 1_555
C356 C357 1_555 1_555
C359 C364 1_555 1_555
C363 C364 1_555 1_555
C365 C422 1_555 1_555
C366 C423 1_555 1_555
N17 Pd3 1_555 1_555
C373 C374 1_555 1_555
C380 C381 1_555 1_555
C383 C388 1_555 1_555
C387 C388 1_555 1_555
N18 Pd4 1_555 1_555
C397 C398 1_555 1_555
C404 C405 1_555 1_555
C407 C412 1_555 1_555
C411 C412 1_555 1_555
C413 C424 1_555 1_555
C414 C425 1_555 1_555
C433 C434 1_555 1_555
C436 C437 1_555 1_555
C439 C440 1_555 1_555
C442 C443 1_555 1_555
C444 C445 1_555 1_555
C453 C454 1_555 1_555
C456 C457 1_555 1_555
C459 C460 1_555 1_555
C462 C463 1_555 1_555
C464 C465 1_555 1_555
C493 C494 1_555 1_555
C496 C497 1_555 1_555
C499 C500 1_555 1_555
C502 C503 1_555 1_555
C504 C505 1_555 1_555

#END
