
#######################################################################
#
#                 Cambridge Crystallographic Data Centre
#                                CCDC 
#
#######################################################################
#
# If this CIF has been generated from an entry in the Cambridge 
# Structural Database, then it will include bibliographic, chemical, 
# crystal, experimental, refinement or atomic coordinate data resulting 
# from the CCDC's data processing and validation procedures.
#
#######################################################################

data_FIBBOJ
_chemical_formula_moiety         
'C116 H64 F24 N8 Pd2 S8 4+,15(C6 H4 Cl2),4(B1 F4 1-)'
_chemical_name_systematic        
'tetrakis(\m~2~-1,2-bis(5-((3-pyridyl)ethyne)-2-methylthiophen-3-yl)-perfluorocyclopentene)-di-palladium(ii) tetrakis(tetrafluoroborate) 1,2-dichlorobenzene solvate'
_symmetry_cell_setting           triclinic
_symmetry_space_group_name_H-M   'P -1'
_symmetry_Int_Tables_number      2
_space_group_name_Hall           '-P 1'
loop_
_symmetry_equiv_pos_site_id
_symmetry_equiv_pos_as_xyz
1 x,y,z
2 -x,-y,-z
_cell_length_a                   17.314(2)
_cell_length_b                   18.193(2)
_cell_length_c                   18.612(3)
_cell_angle_alpha                116.65(2)
_cell_angle_beta                 90.33(2)
_cell_angle_gamma                91.70(2)
_cell_volume                     5236.33
_exptl_crystal_colour            colorless
_exptl_crystal_description       block
_cell_formula_units_Z            1
loop_
_atom_site_label
_atom_site_type_symbol
_atom_site_fract_x
_atom_site_fract_y
_atom_site_fract_z
Pd1 Pd 0.397843(13) 0.408374(15) 0.223231(13)
N1 N 0.3630(5) 0.5074(5) 0.2027(5)
S1 S 0.08078(14) 0.73887(14) 0.44760(17)
C1 C 0.3966(4) 0.5236(4) 0.1457(5)
H1 H 0.4388 0.4920 0.1171
C2 C 0.3711(4) 0.5850(5) 0.1281(4)
H2 H 0.3951 0.5954 0.0877
C3 C 0.3102(4) 0.6308(5) 0.1700(5)
H3 H 0.2920 0.6733 0.1586
C4 C 0.2754(4) 0.6152(4) 0.2290(4)
C5 C 0.3040(5) 0.5520(5) 0.2439(5)
H4 H 0.2809 0.5406 0.2842
C6 C 0.2114(4) 0.6603(4) 0.2740(5)
C7 C 0.1590(4) 0.6989(4) 0.3110(5)
C8 C 0.0975(4) 0.7430(4) 0.3585(5)
C9 C 0.0486(4) 0.7950(4) 0.3495(5)
H5 H 0.0521 0.8094 0.3065
C10 C -0.0079(4) 0.8261(4) 0.4087(4)
C11 C 0.0039(4) 0.8021(4) 0.4686(5)
C12 C -0.0379(5) 0.8236(5) 0.5441(5)
H6 H -0.0747 0.7787 0.5367
H7 H -0.0659 0.8742 0.5583
H8 H -0.0008 0.8321 0.5874
C13 C -0.0687(4) 0.8795(4) 0.4074(4)
C14 C -0.0511(3) 0.9509(4) 0.3890(5)
F1 F -0.0413(3) 0.9267(3) 0.3091(3)
F2 F 0.0128(4) 0.9945(5) 0.4277(4)
C15 C -0.1223(3) 1.0036(4) 0.4178(4)
F3 F -0.1368(6) 1.0465(5) 0.3756(6)
F4 F -0.1117(2) 1.0567(2) 0.4948(2)
C16 C -0.1863(4) 0.9394(4) 0.4082(4)
F5 F -0.22127(19) 0.9110(2) 0.3356(2)
F6 F -0.2417(2) 0.9752(2) 0.4630(2)
C17 C -0.1453(4) 0.8737(4) 0.4194(6)
C18 C -0.1311(2) 0.6740(3) 0.3205(3)
H9 H -0.1618 0.6247 0.2850
H10 H -0.0830 0.6577 0.3365
H11 H -0.1188 0.7068 0.2920
C19 C -0.1756(2) 0.7234(3) 0.3928(3)
C20 C -0.1828(2) 0.8080(2) 0.4339(2)
C21 C -0.2366(2) 0.8305(2) 0.4966(2)
H12 H -0.2510 0.8856 0.5284
C22 C -0.2656(2) 0.7656(2) 0.5068(2)
C23 C -0.3177(2) 0.7662(2) 0.5651(2)
C24 C -0.3603(2) 0.7660(2) 0.6151(2)
C25 C -0.38927(18) 0.6958(2) 0.69565(19)
H13 H -0.3532 0.6562 0.6645
C26 C -0.40318(19) 0.7609(2) 0.6782(2)
C27 C -0.4562(2) 0.8187(2) 0.7248(2)
H14 H -0.4673 0.8639 0.7144
C28 C -0.47564(18) 0.7438(2) 0.8005(2)
H15 H -0.5002 0.7382 0.8434
S2 S -0.23080(5) 0.67407(6) 0.43586(6)
N2 N -0.42501(15) 0.68704(17) 0.75488(16)
N3 N 0.46927(14) 0.48253(16) 0.31496(15)
N4 N -0.32350(15) 0.66638(18) 0.86497(16)
S3 S 0.33853(5) 0.66181(5) 0.72259(5)
S4 S 0.01555(5) 0.70392(6) 0.71063(6)
C29 C 0.54479(18) 0.49118(19) 0.30324(19)
H16 H 0.5640 0.4652 0.2502
C30 C 0.59532(18) 0.5373(2) 0.3670(2)
H17 H 0.6487 0.5419 0.3577
C31 C 0.56738(18) 0.57653(19) 0.4441(2)
H18 H 0.6014 0.6076 0.4884
C32 C 0.48835(17) 0.56976(18) 0.45568(18)
C33 C 0.44141(17) 0.52073(18) 0.38932(18)
H19 H 0.3879 0.5142 0.3970
C34 C 0.45224(18) 0.61338(19) 0.53173(19)
C35 C 0.41378(18) 0.65101(19) 0.58877(19)
C36 C 0.36635(18) 0.69766(19) 0.65465(19)
C37 C 0.33586(17) 0.77248(19) 0.67375(19)
H20 H 0.3459 0.8031 0.6446
C38 C 0.28762(17) 0.79961(19) 0.74175(19)
C39 C 0.28464(18) 0.74615(19) 0.77600(19)
C40 C 0.2425(2) 0.7532(2) 0.8486(2)
H21 H 0.1914 0.7257 0.8322
H22 H 0.2366 0.8114 0.8857
H23 H 0.2719 0.7270 0.8754
C41 C 0.24644(17) 0.87624(19) 0.77303(19)
C42 C 0.28644(18) 0.95451(19) 0.7829(2)
F7 F 0.28981(11) 0.95892(12) 0.71203(12)
F8 F 0.36035(10) 0.96385(11) 0.81087(12)
C43 C 0.23556(19) 1.0227(2) 0.8417(2)
F9 F 0.23415(12) 1.08893(12) 0.82840(13)
F10 F 0.26292(12) 1.04696(12) 0.91728(12)
C44 C 0.15548(18) 0.9791(2) 0.8323(2)
F11 F 0.10840(11) 0.99708(13) 0.78482(13)
F12 F 0.12043(12) 1.00641(12) 0.90405(12)
C45 C 0.17204(18) 0.88920(19) 0.7951(2)
C46 C 0.1382(2) 0.7314(2) 0.6305(2)
H24 H 0.1020 0.7020 0.5851
H25 H 0.1789 0.6946 0.6292
H26 H 0.1614 0.7793 0.6267
C47 C 0.09585(19) 0.7594(2) 0.7076(2)
C48 C 0.10959(18) 0.8276(2) 0.7813(2)
C49 C 0.05412(19) 0.8338(2) 0.8392(2)
H27 H 0.0546 0.8772 0.8924
C50 C -0.0001(2) 0.7706(2) 0.8104(2)
C51 C -0.0663(2) 0.7580(3) 0.8484(2)
C52 C -0.1248(2) 0.7465(2) 0.8762(2)
C53 C -0.25258(19) 0.6810(2) 0.8448(2)
H28 H -0.2389 0.6559 0.7898
C54 C -0.19855(19) 0.7320(2) 0.9025(2)
C55 C -0.4922(2) 0.8094(2) 0.7862(2)
H29 H -0.5284 0.8482 0.8185
C56 C -0.2190(2) 0.7671(2) 0.9832(2)
H30 H -0.1831 0.8017 1.0240
C57 C -0.2922(2) 0.7509(2) 1.0030(2)
H31 H -0.3071 0.7738 1.0576
C58 C -0.34339(5) 0.70088(7) 0.94219(6)
H32 H -0.3941 0.6907 0.9557
Pd1A Pd -0.397843(13) 0.591626(15) 0.776769(13)
N1A N -0.3630(5) 0.4926(5) 0.7973(5)
S1A S -0.08078(14) 0.26113(14) 0.55240(17)
C1A C -0.3966(4) 0.4764(4) 0.8543(5)
H1A H -0.4388 0.5080 0.8829
C2A C -0.3711(4) 0.4150(5) 0.8719(4)
H2A H -0.3951 0.4046 0.9123
C3A C -0.3102(4) 0.3692(5) 0.8300(5)
H3A H -0.2920 0.3267 0.8414
C4A C -0.2754(4) 0.3848(4) 0.7710(4)
C5A C -0.3040(5) 0.4480(5) 0.7561(5)
H4A H -0.2809 0.4594 0.7158
C6A C -0.2114(4) 0.3397(4) 0.7260(5)
C7A C -0.1590(4) 0.3011(4) 0.6890(5)
C8A C -0.0975(4) 0.2570(4) 0.6415(5)
C9A C -0.0486(4) 0.2050(4) 0.6505(5)
H5A H -0.0521 0.1906 0.6935
C10A C 0.0079(4) 0.1739(4) 0.5913(4)
C11A C -0.0039(4) 0.1979(4) 0.5314(5)
C12A C 0.0379(5) 0.1764(5) 0.4559(5)
H6A H 0.0747 0.2213 0.4633
H7A H 0.0659 0.1258 0.4417
H8A H 0.0008 0.1679 0.4126
C13A C 0.0687(4) 0.1205(4) 0.5926(4)
C14A C 0.0511(3) 0.0491(4) 0.6110(5)
F1A F 0.0413(3) 0.0733(3) 0.6909(3)
F2A F -0.0128(4) 0.0055(5) 0.5723(4)
C15A C 0.1223(3) -0.0036(4) 0.5822(4)
F3A F 0.1368(6) -0.0465(5) 0.6244(6)
F4A F 0.1117(2) -0.0567(2) 0.5052(2)
C16A C 0.1863(4) 0.0606(4) 0.5918(4)
F5A F 0.22127(19) 0.0890(2) 0.6644(2)
F6A F 0.2417(2) 0.0248(2) 0.5370(2)
C17A C 0.1453(4) 0.1263(4) 0.5806(6)
C18A C 0.1311(2) 0.3260(3) 0.6795(3)
H9A H 0.1618 0.3753 0.7150
H10A H 0.0830 0.3423 0.6635
H11A H 0.1188 0.2932 0.7080
C19A C 0.1756(2) 0.2766(3) 0.6072(3)
C20A C 0.1828(2) 0.1920(2) 0.5661(2)
C21A C 0.2366(2) 0.1695(2) 0.5034(2)
H12A H 0.2510 0.1144 0.4716
C22A C 0.2656(2) 0.2344(2) 0.4932(2)
C23A C 0.3177(2) 0.2338(2) 0.4349(2)
C24A C 0.3603(2) 0.2340(2) 0.3849(2)
C25A C 0.38927(18) 0.3042(2) 0.30435(19)
H13A H 0.3532 0.3438 0.3355
C26A C 0.40318(19) 0.2391(2) 0.3218(2)
C27A C 0.4562(2) 0.1813(2) 0.2752(2)
H14A H 0.4673 0.1361 0.2856
C28A C 0.47564(18) 0.2562(2) 0.1995(2)
H15A H 0.5002 0.2618 0.1566
S2A S 0.23080(5) 0.32593(6) 0.56414(6)
N2A N 0.42501(15) 0.31296(17) 0.24512(16)
N3A N -0.46927(14) 0.51747(16) 0.68504(15)
N4A N 0.32350(15) 0.33362(18) 0.13503(16)
S3A S -0.33853(5) 0.33819(5) 0.27741(5)
S4A S -0.01555(5) 0.29608(6) 0.28937(6)
C29A C -0.54479(18) 0.50882(19) 0.69676(19)
H16A H -0.5640 0.5348 0.7498
C30A C -0.59532(18) 0.4627(2) 0.6330(2)
H17A H -0.6487 0.4581 0.6423
C31A C -0.56738(18) 0.42347(19) 0.5559(2)
H18A H -0.6014 0.3924 0.5116
C32A C -0.48835(17) 0.43024(18) 0.54432(18)
C33A C -0.44141(17) 0.47927(18) 0.61068(18)
H19A H -0.3879 0.4858 0.6030
C34A C -0.45224(18) 0.38662(19) 0.46827(19)
C35A C -0.41378(18) 0.34899(19) 0.41123(19)
C36A C -0.36635(18) 0.30234(19) 0.34535(19)
C37A C -0.33586(17) 0.22752(19) 0.32625(19)
H20A H -0.3459 0.1969 0.3554
C38A C -0.28762(17) 0.20039(19) 0.25825(19)
C39A C -0.28464(18) 0.25385(19) 0.22400(19)
C40A C -0.2425(2) 0.2468(2) 0.1514(2)
H21A H -0.1914 0.2743 0.1678
H22A H -0.2366 0.1886 0.1143
H23A H -0.2719 0.2730 0.1246
C41A C -0.24644(17) 0.12376(19) 0.22697(19)
C42A C -0.28644(18) 0.04549(19) 0.2171(2)
F7A F -0.28981(11) 0.04108(12) 0.28797(12)
F8A F -0.36035(10) 0.03615(11) 0.18913(12)
C43A C -0.23556(19) -0.0227(2) 0.1583(2)
F9A F -0.23415(12) -0.08893(12) 0.17160(13)
F10A F -0.26292(12) -0.04696(12) 0.08272(12)
C44A C -0.15548(18) 0.0209(2) 0.1677(2)
F11A F -0.10840(11) 0.00292(13) 0.21518(13)
F12A F -0.12043(12) -0.00641(12) 0.09595(12)
C45A C -0.17204(18) 0.11080(19) 0.2049(2)
C46A C -0.1382(2) 0.2686(2) 0.3695(2)
H24A H -0.1020 0.2980 0.4149
H25A H -0.1789 0.3054 0.3708
H26A H -0.1614 0.2207 0.3733
C47A C -0.09585(19) 0.2406(2) 0.2924(2)
C48A C -0.10959(18) 0.1724(2) 0.2187(2)
C49A C -0.05412(19) 0.1662(2) 0.1608(2)
H27A H -0.0546 0.1228 0.1076
C50A C 0.0001(2) 0.2294(2) 0.1896(2)
C51A C 0.0663(2) 0.2420(3) 0.1516(2)
C52A C 0.1248(2) 0.2535(2) 0.1238(2)
C53A C 0.25258(19) 0.3190(2) 0.1552(2)
H28A H 0.2389 0.3441 0.2102
C54A C 0.19855(19) 0.2680(2) 0.0975(2)
C55A C 0.4922(2) 0.1906(2) 0.2138(2)
H29A H 0.5284 0.1518 0.1815
C56A C 0.2190(2) 0.2329(2) 0.0168(2)
H30A H 0.1831 0.1983 -0.0240
C57A C 0.2922(2) 0.2491(2) -0.0030(2)
H31A H 0.3071 0.2262 -0.0576
C58A C 0.34339(5) 0.29912(7) 0.05781(6)
H32A H 0.3941 0.3093 0.0443
B1 B 0.59847(5) 0.36138(7) 0.07940(6)
F13 F 0.52322(5) 0.38826(7) 0.09875(6)
F14 F 0.59802(5) 0.27981(7) 0.06710(6)
F15 F 0.61993(5) 0.36375(7) 0.00951(6)
F16 F 0.64711(5) 0.41189(7) 0.14434(6)
B2 B 0.23109(5) 0.45543(7) 0.41190(6)
F17 F 0.26289(5) 0.44811(7) 0.34018(6)
F18 F 0.28822(5) 0.44358(7) 0.45801(6)
F19 F 0.20223(5) 0.53326(7) 0.45488(6)
F20 F 0.17063(5) 0.39790(7) 0.39264(6)
C59 C 0.16515(9) 0.03283(11) 0.13795(9)
C60 C 0.21326(12) 0.10311(12) 0.17148(12)
C61 C 0.19582(17) 0.16755(16) 0.24522(15)
H33 H 0.2290 0.2161 0.2684
C62 C 0.13031(18) 0.1617(2) 0.28545(14)
H34 H 0.1183 0.2062 0.3364
C63 C 0.08222(17) 0.0915(2) 0.25192(16)
H35 H 0.0370 0.0874 0.2797
C64 C 0.09965(13) 0.02700(18) 0.17816(14)
H36 H 0.0664 -0.0215 0.1550
Cl1 Cl 0.18678(11) -0.04715(10) 0.04641(9)
Cl2 Cl 0.29456(18) 0.11033(17) 0.12157(19)
C65 C 0.41530(10) 0.32053(11) 0.84283(10)
C66 C 0.37873(11) 0.25347(9) 0.77958(11)
C67 C 0.38885(18) 0.17442(10) 0.77092(17)
H37 H 0.3636 0.1281 0.7272
C68 C 0.4355(2) 0.16244(15) 0.8255(2)
H38 H 0.4425 0.1078 0.8195
C69 C 0.4721(2) 0.22950(18) 0.8887(2)
H39 H 0.5043 0.2212 0.9264
C70 C 0.46197(16) 0.30856(16) 0.89742(14)
H40 H 0.4872 0.3549 0.9411
Cl3 Cl 0.40276(12) 0.41863(9) 0.85358(13)
Cl4 Cl 0.32081(12) 0.26833(12) 0.71184(12)
C71 C 0.34973(9) 0.77020(9) 0.40139(10)
C72 C 0.41537(11) 0.75851(12) 0.35537(14)
C73 C 0.43411(15) 0.81241(15) 0.32328(18)
H41 H 0.4794 0.8043 0.2915
C74 C 0.38724(18) 0.87800(16) 0.3372(2)
H42 H 0.4002 0.9152 0.3151
C75 C 0.32161(18) 0.88969(16) 0.3832(2)
H43 H 0.2892 0.9350 0.3929
C76 C 0.30287(14) 0.83578(14) 0.41532(18)
H44 H 0.2575 0.8439 0.4471
Cl5 Cl 0.32648(9) 0.70330(11) 0.44120(11)
Cl6 Cl 0.47355(15) 0.67712(18) 0.3381(2)
N5? N 0.3729(8) 0.4925(8) 0.1954(8)
S5? S 0.09477(18) 0.7201(2) 0.41633(19)
C77? C 0.4112(6) 0.4981(7) 0.1338(7)
H45? H 0.4538 0.4643 0.1102
C78? C 0.3879(6) 0.5528(7) 0.1060(6)
H46? H 0.4137 0.5555 0.0623
C79? C 0.3275(6) 0.6033(6) 0.1413(6)
H47? H 0.3130 0.6425 0.1236
C80? C 0.2877(6) 0.5968(7) 0.2035(6)
C81? C 0.3135(9) 0.5407(8) 0.2295(8)
H48? H 0.2882 0.5365 0.2727
C82? C 0.2231(5) 0.6437(6) 0.2422(6)
C83? C 0.1683(5) 0.6800(6) 0.2769(6)
C84? C 0.1064(5) 0.7220(6) 0.3250(6)
C85? C 0.0513(5) 0.7685(6) 0.3146(6)
H49? H 0.0484 0.7776 0.2683
C86? C -0.0010(5) 0.8021(6) 0.3780(6)
C87? C 0.0157(6) 0.7806(6) 0.4389(6)
C88? C -0.0219(7) 0.8050(8) 0.5178(7)
H50? H -0.0515 0.8544 0.5312
H51? H 0.0179 0.8166 0.5596
H52? H -0.0566 0.7601 0.5145
C89? C -0.0635(5) 0.8563(6) 0.3819(6)
C90? C -0.0493(5) 0.9253(6) 0.3587(7)
F21? F -0.0245(4) 0.8975(4) 0.2826(4)
F22? F 0.0065(7) 0.9804(7) 0.4037(6)
C91? C -0.1291(5) 0.9626(6) 0.3653(6)
F23? F -0.1660(3) 0.9256(4) 0.2921(4)
F24? F -0.1260(9) 1.0438(8) 0.3896(9)
C92? C -0.1743(6) 0.9366(7) 0.4201(6)
F25? F -0.2506(3) 0.9273(4) 0.4039(4)
F26? F -0.1659(3) 0.9957(4) 0.4979(4)
C93? C -0.1360(6) 0.8600(7) 0.4089(9)
B3? B 0.59847(5) 0.36146(7) 0.07944(6)
F27? F 0.52891(5) 0.34180(7) 0.10506(6)
F28? F 0.65069(5) 0.39732(7) 0.14292(6)
F29? F 0.58730(5) 0.41327(7) 0.04343(6)
F30? F 0.63102(5) 0.28918(7) 0.02404(6)
B4? B 0.22876(5) 0.43839(7) 0.40016(6)
F31? F 0.26679(5) 0.45890(7) 0.34558(6)
F32? F 0.28391(5) 0.43159(7) 0.45127(6)
F33? F 0.17403(5) 0.49639(7) 0.43966(6)
F34? F 0.19025(5) 0.36288(7) 0.36008(6)
C94? C 0.16296(13) 0.1107(2) 0.20483(16)
C95? C 0.21201(18) 0.07544(19) 0.14019(17)
C96? C 0.1933(2) -0.0017(2) 0.0777(2)
H53? H 0.2272 -0.0261 0.0330
C97? C 0.1256(3) -0.0436(2) 0.0798(3)
H54? H 0.1127 -0.0969 0.0366
C98? C 0.0766(2) -0.0084(3) 0.1444(3)
H55? H 0.0298 -0.0373 0.1459
C99? C 0.09524(18) 0.0688(3) 0.2070(3)
H56? H 0.0613 0.0931 0.2516
Cl7? Cl 0.18613(15) 0.2064(2) 0.28242(15)
Cl8? Cl 0.2961(2) 0.1274(3) 0.1376(3)
C100? C 0.3877(9) 0.2889(9) 0.7984(7)
C101? C 0.4270(8) 0.2802(7) 0.8594(8)
C102? C 0.4443(14) 0.2023(8) 0.8500(12)
H57? H 0.4714 0.1964 0.8921
C103? C 0.422(2) 0.1331(7) 0.7796(15)
H58? H 0.4343 0.0793 0.7731
C104? C 0.3831(19) 0.1417(9) 0.7186(13)
H59? H 0.3680 0.0939 0.6701
C105? C 0.3658(14) 0.2196(11) 0.7280(9)
H60? H 0.3387 0.2256 0.6859
Cl9? Cl 0.3663(10) 0.3855(10) 0.8101(9)
Cl10? Cl 0.4542(7) 0.3662(9) 0.9467(7)
C106? C 0.4171(6) 0.3228(6) 0.8684(6)
C107? C 0.3746(6) 0.2977(5) 0.7971(5)
C108? C 0.3635(10) 0.2144(5) 0.7456(8)
H61? H 0.3342 0.1971 0.6964
C109? C 0.3948(13) 0.1561(5) 0.7652(11)
H62? H 0.3872 0.0985 0.7296
C110? C 0.4373(13) 0.1811(7) 0.8365(11)
H63? H 0.4589 0.1409 0.8500
C111? C 0.4484(10) 0.2645(7) 0.8880(9)
H64? H 0.4777 0.2818 0.9372
Cl11? Cl 0.4309(6) 0.4262(6) 0.9324(5)
Cl12? Cl 0.3358(6) 0.3700(7) 0.7727(6)
C112? C 0.37198(10) 0.81156(12) 0.37026(12)
C113? C 0.39753(14) 0.74865(18) 0.38636(19)
C114? C 0.35974(19) 0.7302(2) 0.4423(2)
H65? H 0.3774 0.6868 0.4534
C115? C 0.2964(2) 0.7747(3) 0.4821(2)
H66? H 0.2702 0.7620 0.5207
C116? C 0.2708(2) 0.8376(3) 0.4660(3)
H67? H 0.2270 0.8684 0.4935
C117? C 0.30862(17) 0.8560(2) 0.4101(2)
H68? H 0.2910 0.8995 0.3989
Cl13? Cl 0.41891(12) 0.83440(12) 0.30083(13)
Cl14? Cl 0.4762(2) 0.6934(3) 0.3370(3)
C118? C -0.0905(2) 0.6835(2) 0.02843(19)
C119? C -0.1324(2) 0.6984(2) 0.0968(2)
C120? C -0.1922(3) 0.6441(3) 0.0933(3)
H69? H -0.2211 0.6544 0.1405
C121? C -0.2100(4) 0.5748(4) 0.0214(4)
H70? H -0.2513 0.5373 0.0189
C122? C -0.1681(5) 0.5599(4) -0.0470(4)
H71? H -0.1804 0.5121 -0.0966
C123? C -0.1083(4) 0.6143(3) -0.0435(2)
H72? H -0.0794 0.6040 -0.0907
Cl15? Cl -0.0163(2) 0.7509(3) 0.0328(2)
Cl16? Cl -0.1103(2) 0.7843(2) 0.18602(18)
C124? C -0.01295(17) 0.7221(2) 0.0792(2)
C125? C -0.06584(19) 0.68925(18) 0.1139(2)
C126? C -0.0536(3) 0.6133(2) 0.1121(4)
H73? H -0.0901 0.5906 0.1361
C127? C 0.0116(4) 0.5702(3) 0.0757(5)
H74? H 0.0201 0.5177 0.0745
C128? C 0.0645(3) 0.6030(3) 0.0410(5)
H75? H 0.1095 0.5732 0.0158
C129? C 0.0522(2) 0.6789(3) 0.0427(3)
H76? H 0.0887 0.7016 0.0188
Cl17? Cl -0.0282(2) 0.8163(2) 0.0813(3)
Cl18? Cl -0.14670(18) 0.7427(2) 0.15909(19)
C130? C -0.1183(4) 0.4291(3) -0.0559(4)
C131? C -0.1566(2) 0.5005(2) -0.0410(2)
C132? C -0.2160(3) 0.5257(4) 0.0138(4)
H77? H -0.2425 0.5750 0.0241
C133? C -0.2372(4) 0.4797(5) 0.0537(4)
H78? H -0.2783 0.4972 0.0916
C134? C -0.1990(5) 0.4083(5) 0.0388(5)
H79? H -0.2136 0.3765 0.0664
C135? C -0.1395(5) 0.3830(4) -0.0160(5)
H80? H -0.1130 0.3337 -0.0263
Cl19? Cl -0.0445(5) 0.3977(4) -0.1239(6)
Cl20? Cl -0.1303(2) 0.55764(18) -0.0905(2)
C136? C 0.0332(5) 0.7530(6) 0.0559(6)
C137? C 0.0035(6) 0.6966(5) 0.0809(6)
C138? C 0.0439(9) 0.6268(7) 0.0669(10)
H81? H 0.0234 0.5878 0.0842
C139? C 0.1141(10) 0.6132(10) 0.0279(13)
H82? H 0.1421 0.5650 0.0183
C140? C 0.1439(8) 0.6696(11) 0.0029(13)
H83? H 0.1923 0.6603 -0.0240
C141? C 0.1034(6) 0.7395(9) 0.0169(10)
H84? H 0.1239 0.7784 -0.0004
Cl21? Cl -0.0170(6) 0.8397(5) 0.0732(7)
Cl22? Cl -0.0836(6) 0.7134(6) 0.1293(7)
C142? C -0.1206(3) 0.6502(3) 0.0089(3)
C143? C -0.1458(3) 0.6851(3) 0.0877(3)
C144? C -0.1084(4) 0.7557(4) 0.1457(3)
H85? H -0.1257 0.7798 0.2001
C145? C -0.0458(6) 0.7913(5) 0.1250(5)
H86? H -0.0200 0.8401 0.1650
C146? C -0.0207(5) 0.7565(6) 0.0462(5)
H87? H 0.0225 0.7811 0.0318
C147? C -0.0581(4) 0.6859(5) -0.0119(4)
H88? H -0.0407 0.6618 -0.0663
Cl23? Cl -0.1670(4) 0.5627(3) -0.0631(3)
Cl24? Cl -0.2234(3) 0.6408(4) 0.1135(3)
C148? C -0.1539(5) 0.4965(5) -0.0691(6)
C149? C -0.1180(9) 0.4286(8) -0.0704(9)
C150? C -0.1442(12) 0.3936(10) -0.0219(12)
H89? H -0.1193 0.3468 -0.0228
C151? C -0.2064(11) 0.4265(12) 0.0280(11)
H90? H -0.2245 0.4024 0.0616
C152? C -0.2424(9) 0.4944(12) 0.0294(10)
H91? H -0.2853 0.5171 0.0638
C153? C -0.2161(7) 0.5294(9) -0.0192(8)
H92? H -0.2410 0.5763 -0.0183
Cl25? Cl -0.1214(6) 0.5399(5) -0.1294(6)
Cl26? Cl -0.0407(12) 0.3878(11) -0.1324(14)
C154? C 0.0096(6) 0.6353(6) 0.0732(6)
C155? C -0.0298(7) 0.7044(6) 0.0826(6)
C156? C -0.0077(10) 0.7472(9) 0.0398(10)
H93? H -0.0349 0.7950 0.0463
C157? C 0.0538(12) 0.7210(13) -0.0124(13)
H94? H 0.0690 0.7505 -0.0420
C158? C 0.0932(11) 0.6519(13) -0.0218(12)
H95? H 0.1357 0.6337 -0.0579
C159? C 0.0711(8) 0.6090(10) 0.0210(9)
H96? H 0.0983 0.5613 0.0145
Cl27? Cl -0.0178(6) 0.5821(6) 0.1264(6)
Cl28? Cl -0.1061(6) 0.7370(6) 0.1474(7)
C160? C 0.07107(11) 0.54131(18) 0.73567(14)
C161? C 0.00249(12) 0.50945(16) 0.69198(11)
C162? C 0.00158(17) 0.4784(3) 0.60878(11)
H97? H -0.0458 0.4564 0.5786
C163? C 0.0692(2) 0.4792(4) 0.56924(15)
H98? H 0.0686 0.4578 0.5118
C164? C 0.13781(18) 0.5111(4) 0.6129(2)
H99? H 0.1845 0.5116 0.5856
C165? C 0.13872(13) 0.5421(3) 0.69616(19)
H100? H 0.1861 0.5641 0.7263
Cl29? Cl 0.07221(14) 0.5798(3) 0.83894(14)
Cl30? Cl -0.08148(11) 0.50844(14) 0.74102(13)
C166? C 0.1109(4) 0.5071(5) 0.6434(5)
C167? C 0.1066(4) 0.5169(5) 0.7217(5)
C168? C 0.0360(5) 0.5054(9) 0.7512(7)
H101? H 0.0330 0.5121 0.8053
C169? C -0.0301(4) 0.4841(12) 0.7024(9)
H102? H -0.0788 0.4761 0.7227
C170? C -0.0257(5) 0.4743(12) 0.6240(9)
H103? H -0.0713 0.4595 0.5903
C171? C 0.0448(5) 0.4858(9) 0.5945(6)
H104? H 0.0479 0.4790 0.5404
Cl31? Cl 0.1985(5) 0.5214(5) 0.6068(4)
Cl32? Cl 0.1886(5) 0.5434(5) 0.7823(4)
C172? C 0.04977(16) 0.5102(3) 0.7185(2)
C173? C 0.12061(18) 0.5106(2) 0.68390(17)
C174? C 0.1237(3) 0.4930(4) 0.60318(18)
H105? H 0.1726 0.4933 0.5793
C175? C 0.0560(3) 0.4749(6) 0.5571(2)
H106? H 0.0581 0.4628 0.5013
C176? C -0.0149(3) 0.4746(6) 0.5917(3)
H107? H -0.0616 0.4621 0.5598
C177? C -0.01796(18) 0.4922(4) 0.6724(3)
H108? H -0.0669 0.4919 0.6963
Cl33? Cl 0.0459(2) 0.5321(3) 0.8187(2)
Cl34? Cl 0.20467(16) 0.53304(16) 0.74112(17)
C178? C 0.0500(6) 0.5224(9) 0.7333(8)
C179? C 0.0974(6) 0.5093(8) 0.6689(7)
C180? C 0.0661(9) 0.4768(14) 0.5914(7)
H109? H 0.0989 0.4678 0.5470
C181? C -0.0126(10) 0.4573(18) 0.5782(11)
H110? H -0.0342 0.4348 0.5246
C182? C -0.0600(7) 0.4703(18) 0.6425(13)
H111? H -0.1143 0.4568 0.6334
C183? C -0.0287(6) 0.5029(14) 0.7201(12)
H112? H -0.0615 0.5119 0.7645
Cl35? Cl 0.0888(9) 0.5628(11) 0.8295(7)
Cl36? Cl 0.1951(6) 0.5336(7) 0.6853(8)
C184? C 0.4158(2) 0.3021(3) 0.8568(2)
C185? C 0.3624(3) 0.2499(2) 0.7991(3)
C186? C 0.3675(4) 0.1651(2) 0.7688(4)
H113? H 0.3306 0.1290 0.7289
C187? C 0.4258(5) 0.1326(3) 0.7962(6)
H114? H 0.4293 0.0740 0.7752
C188? C 0.4792(4) 0.1849(4) 0.8539(5)
H115? H 0.5195 0.1624 0.8729
C189? C 0.4742(3) 0.2696(4) 0.8842(4)
H116? H 0.5110 0.3057 0.9241
Cl37? Cl 0.4096(2) 0.4073(2) 0.8944(3)
Cl38? Cl 0.2900(3) 0.2902(3) 0.7650(3)
C190? C 0.4049(7) 0.2183(8) 0.7943(6)
C191? C 0.4314(7) 0.2976(7) 0.8463(7)
C192? C 0.4140(12) 0.3630(9) 0.8303(11)
H117? H 0.4323 0.4178 0.8662
C193? C 0.3700(16) 0.3491(12) 0.7624(14)
H118? H 0.3580 0.3943 0.7514
C194? C 0.3435(16) 0.2698(14) 0.7104(12)
H119? H 0.3131 0.2602 0.6635
C195? C 0.3609(12) 0.2044(11) 0.7264(9)
H120? H 0.3426 0.1496 0.6905
Cl39? Cl 0.4266(8) 0.1372(6) 0.8141(8)
Cl40? Cl 0.4860(6) 0.3149(7) 0.9306(6)
C196? C 0.22999(17) 0.86948(19) 0.19599(18)
C197? C 0.2401(2) 0.94404(19) 0.2647(2)
C198? C 0.3054(3) 0.9940(3) 0.2739(3)
H121? H 0.3124 1.0455 0.3213
C199? C 0.3606(3) 0.9695(4) 0.2144(4)
H122? H 0.4057 1.0040 0.2207
C200? C 0.3505(3) 0.8949(4) 0.1457(4)
H123? H 0.3886 0.8779 0.1046
C201? C 0.2852(2) 0.8449(3) 0.1365(3)
H124? H 0.2782 0.7934 0.0891
Cl41? Cl 0.14893(17) 0.80746(17) 0.18460(17)
Cl42? Cl 0.1716(3) 0.9745(2) 0.3385(2)
C202? C 0.2640(5) 0.9372(5) 0.2295(5)
C203? C 0.3239(6) 0.9066(5) 0.1758(5)
C204? C 0.3175(8) 0.8275(6) 0.1129(7)
H125? H 0.3589 0.8064 0.0759
C205? C 0.2511(10) 0.7790(7) 0.1037(9)
H126? H 0.2467 0.7243 0.0602
C206? C 0.1912(9) 0.8095(7) 0.1573(10)
H127? H 0.1454 0.7759 0.1509
C207? C 0.1976(6) 0.8886(7) 0.2202(8)
H128? H 0.1562 0.9097 0.2573
Cl43? Cl 0.2720(5) 1.0354(4) 0.3075(4)
Cl44? Cl 0.4063(6) 0.9669(7) 0.1873(7)
C208? C 0.21857(19) 0.90053(17) 0.22978(19)
C209? C 0.28433(18) 0.94234(19) 0.22271(18)
C210? C 0.3314(3) 0.9050(3) 0.1566(3)
H129? H 0.3768 0.9339 0.1518
C211? C 0.3127(4) 0.8259(3) 0.0977(3)
H130? H 0.3452 0.8001 0.0520
C212? C 0.2469(4) 0.7841(3) 0.1048(4)
H131? H 0.2340 0.7295 0.0640
C213? C 0.1999(3) 0.8214(2) 0.1708(3)
H132? H 0.1545 0.7925 0.1757
Cl45? Cl 0.16017(17) 0.94685(19) 0.31177(19)
Cl46? Cl 0.30753(18) 1.04051(17) 0.2959(2)
C214? C 0.2880(5) 0.9430(5) 0.2408(5)
C215? C 0.3323(6) 0.9146(6) 0.1720(5)
C216? C 0.3078(9) 0.8447(8) 0.1034(6)
H133? H 0.3383 0.8251 0.0559
C217? C 0.2391(11) 0.8032(9) 0.1035(9)
H134? H 0.2222 0.7550 0.0561
C218? C 0.1949(9) 0.8316(10) 0.1722(10)
H135? H 0.1474 0.8030 0.1723
C219? C 0.2193(7) 0.9015(8) 0.2409(8)
H136? H 0.1888 0.9211 0.2884
Cl47? Cl 0.3184(6) 1.0297(6) 0.3259(5)
Cl48? Cl 0.4175(7) 0.9660(8) 0.1719(6)
C220? C 0.2932(4) 0.9537(3) 0.2210(4)
C221? C 0.2644(4) 0.8728(4) 0.1850(4)
C222? C 0.1968(5) 0.8518(6) 0.2125(6)
H137? H 0.1769 0.7960 0.1876
C223? C 0.1581(7) 0.9118(8) 0.2760(8)
H138? H 0.1114 0.8973 0.2950
C224? C 0.1869(8) 0.9927(7) 0.3120(8)
H139? H 0.1601 1.0341 0.3558
C225? C 0.2545(7) 1.0136(5) 0.2845(6)
H140? H 0.2744 1.0695 0.3093
Cl49? Cl 0.3771(5) 0.9797(4) 0.1869(5)
Cl50? Cl 0.3125(4) 0.7984(3) 0.1062(4)
C226? C 0.46801(10) 0.01113(11) 0.53753(12)
C227? C 0.53245(10) -0.02290(13) 0.49181(12)
C228? C 0.56223(16) 0.0091(2) 0.44211(17)
H141? H 0.6067 -0.0144 0.4105
C229? C 0.5276(2) 0.0752(2) 0.4381(2)
H142? H 0.5482 0.0973 0.4038
C230? C 0.4631(2) 0.1092(2) 0.4839(2)
H143? H 0.4392 0.1548 0.4811
C231? C 0.43335(16) 0.07719(15) 0.53356(19)
H144? H 0.3888 0.1007 0.5651
Cl51? Cl 0.43106(11) -0.02863(12) 0.59920(11)
Cl52? Cl 0.57549(11) -0.10489(13) 0.49672(14)
C232? C 0.46104(9) -0.00345(8) -0.01113(12)
C233? C 0.53535(8) -0.01865(8) 0.00618(12)
C234? C 0.59457(11) 0.04027(12) 0.02242(19)
H145? H 0.6459 0.0298 0.0344
C235? C 0.57947(15) 0.11440(13) 0.0214(3)
H146? H 0.6204 0.1551 0.0326
C236? C 0.50515(16) 0.12961(12) 0.0041(3)
H147? H 0.4947 0.1808 0.0034
C237? C 0.44593(13) 0.07068(11) -0.01217(19)
H148? H 0.3946 0.0812 -0.0241
Cl53? Cl 0.38755(7) -0.07658(10) -0.03129(11)
Cl54? Cl 0.55411(8) -0.11065(9) 0.00748(11)
loop_
_geom_bond_atom_site_label_1
_geom_bond_atom_site_label_2
_geom_bond_site_symmetry_1
_geom_bond_site_symmetry_2
Pd1 N1 1_555 1_555
N1 C1 1_555 1_555
S1 C8 1_555 1_555
C1 H1 1_555 1_555
C2 C1 1_555 1_555
H2 C2 1_555 1_555
C3 C2 1_555 1_555
H3 C3 1_555 1_555
C4 C3 1_555 1_555
C5 N1 1_555 1_555
H4 C5 1_555 1_555
C6 C4 1_555 1_555
C7 C6 1_555 1_555
C8 C7 1_555 1_555
C9 C8 1_555 1_555
H5 C9 1_555 1_555
C10 C9 1_555 1_555
C11 S1 1_555 1_555
C12 C11 1_555 1_555
H6 C12 1_555 1_555
H7 C12 1_555 1_555
H8 C12 1_555 1_555
C13 C10 1_555 1_555
C14 C13 1_555 1_555
F1 C14 1_555 1_555
F2 C14 1_555 1_555
C15 C14 1_555 1_555
F3 C15 1_555 1_555
F4 C15 1_555 1_555
C16 C15 1_555 1_555
F5 C16 1_555 1_555
F6 C16 1_555 1_555
C17 C13 1_555 1_555
C18 H9 1_555 1_555
H10 C18 1_555 1_555
H11 C18 1_555 1_555
C19 C18 1_555 1_555
C20 C17 1_555 1_555
C21 C20 1_555 1_555
H12 C21 1_555 1_555
C22 C21 1_555 1_555
C23 C22 1_555 1_555
C24 C23 1_555 1_555
C25 H13 1_555 1_555
C26 C24 1_555 1_555
C27 C26 1_555 1_555
H14 C27 1_555 1_555
C28 H15 1_555 1_555
S2 C19 1_555 1_555
N2 C25 1_555 1_555
N3 Pd1 1_555 1_555
N4 C53 1_555 1_555
S3 C36 1_555 1_555
S4 C47 1_555 1_555
C29 N3 1_555 1_555
H16 C29 1_555 1_555
C30 C29 1_555 1_555
H17 C30 1_555 1_555
C31 C30 1_555 1_555
H18 C31 1_555 1_555
C32 C31 1_555 1_555
C33 N3 1_555 1_555
H19 C33 1_555 1_555
C34 C32 1_555 1_555
C35 C34 1_555 1_555
C36 C35 1_555 1_555
C37 C36 1_555 1_555
H20 C37 1_555 1_555
C38 C37 1_555 1_555
C39 S3 1_555 1_555
C40 C39 1_555 1_555
H21 C40 1_555 1_555
H22 C40 1_555 1_555
H23 C40 1_555 1_555
C41 C38 1_555 1_555
C42 C41 1_555 1_555
F7 C42 1_555 1_555
F8 C42 1_555 1_555
C43 C42 1_555 1_555
F9 C43 1_555 1_555
F10 C43 1_555 1_555
C44 C43 1_555 1_555
F11 C44 1_555 1_555
F12 C44 1_555 1_555
C45 C41 1_555 1_555
C46 H24 1_555 1_555
H25 C46 1_555 1_555
H26 C46 1_555 1_555
C47 C46 1_555 1_555
C48 C45 1_555 1_555
C49 C48 1_555 1_555
H27 C49 1_555 1_555
C50 S4 1_555 1_555
C51 C50 1_555 1_555
C52 C51 1_555 1_555
C53 H28 1_555 1_555
C54 C52 1_555 1_555
C55 C27 1_555 1_555
H29 C55 1_555 1_555
C56 C54 1_555 1_555
H30 C56 1_555 1_555
C57 C56 1_555 1_555
H31 C57 1_555 1_555
C58 N4 1_555 1_555
H32 C58 1_555 1_555
B1 F13 1_555 1_555
F14 B1 1_555 1_555
F15 B1 1_555 1_555
F16 B1 1_555 1_555
B2 F17 1_555 1_555
F18 B2 1_555 1_555
F19 B2 1_555 1_555
F20 B2 1_555 1_555
C59 C60 1_555 1_555
C60 C61 1_555 1_555
C61 H33 1_555 1_555
C62 C61 1_555 1_555
H34 C62 1_555 1_555
C63 C62 1_555 1_555
H35 C63 1_555 1_555
C64 C59 1_555 1_555
H36 C64 1_555 1_555
Cl1 C59 1_555 1_555
Cl2 C60 1_555 1_555
C65 C66 1_555 1_555
C66 C67 1_555 1_555
C67 H37 1_555 1_555
C68 C67 1_555 1_555
H38 C68 1_555 1_555
C69 C68 1_555 1_555
H39 C69 1_555 1_555
C70 C65 1_555 1_555
H40 C70 1_555 1_555
Cl3 C65 1_555 1_555
Cl4 C66 1_555 1_555
C71 C72 1_555 1_555
C72 C73 1_555 1_555
C73 H41 1_555 1_555
C74 C73 1_555 1_555
H42 C74 1_555 1_555
C75 C74 1_555 1_555
H43 C75 1_555 1_555
C76 C71 1_555 1_555
H44 C76 1_555 1_555
Cl5 C71 1_555 1_555
Cl6 C72 1_555 1_555
Pd1A N2 1_555 1_555
N1A Pd1A 1_555 1_555
S1A C8A 1_555 1_555
C1A N1A 1_555 1_555
H1A C1A 1_555 1_555
C2A C1A 1_555 1_555
H2A C2A 1_555 1_555
C3A C2A 1_555 1_555
H3A C3A 1_555 1_555
C4A C3A 1_555 1_555
C5A N1A 1_555 1_555
H4A C5A 1_555 1_555
C6A C4A 1_555 1_555
C7A C6A 1_555 1_555
C8A C7A 1_555 1_555
C9A C8A 1_555 1_555
H5A C9A 1_555 1_555
C10A C9A 1_555 1_555
C11A S1A 1_555 1_555
C12A C11A 1_555 1_555
H6A C12A 1_555 1_555
H7A C12A 1_555 1_555
H8A C12A 1_555 1_555
C13A C10A 1_555 1_555
C14A C13A 1_555 1_555
F1A C14A 1_555 1_555
F2A C14A 1_555 1_555
C15A C14A 1_555 1_555
F3A C15A 1_555 1_555
F4A C15A 1_555 1_555
C16A C15A 1_555 1_555
F5A C16A 1_555 1_555
F6A C16A 1_555 1_555
C17A C13A 1_555 1_555
C18A H9A 1_555 1_555
H10A C18A 1_555 1_555
H11A C18A 1_555 1_555
C19A C18A 1_555 1_555
C20A C17A 1_555 1_555
C21A C20A 1_555 1_555
H12A C21A 1_555 1_555
C22A C21A 1_555 1_555
C23A C22A 1_555 1_555
C24A C23A 1_555 1_555
C25A H13A 1_555 1_555
C26A C24A 1_555 1_555
C27A C26A 1_555 1_555
H14A C27A 1_555 1_555
C28A H15A 1_555 1_555
S2A C19A 1_555 1_555
N2A Pd1 1_555 1_555
N3A Pd1A 1_555 1_555
N4A Pd1 1_555 1_555
S3A C36A 1_555 1_555
S4A C47A 1_555 1_555
C29A N3A 1_555 1_555
H16A C29A 1_555 1_555
C30A C29A 1_555 1_555
H17A C30A 1_555 1_555
C31A C30A 1_555 1_555
H18A C31A 1_555 1_555
C32A C31A 1_555 1_555
C33A N3A 1_555 1_555
H19A C33A 1_555 1_555
C34A C32A 1_555 1_555
C35A C34A 1_555 1_555
C36A C35A 1_555 1_555
C37A C36A 1_555 1_555
H20A C37A 1_555 1_555
C38A C37A 1_555 1_555
C39A S3A 1_555 1_555
C40A C39A 1_555 1_555
H21A C40A 1_555 1_555
H22A C40A 1_555 1_555
H23A C40A 1_555 1_555
C41A C38A 1_555 1_555
C42A C41A 1_555 1_555
F7A C42A 1_555 1_555
F8A C42A 1_555 1_555
C43A C42A 1_555 1_555
F9A C43A 1_555 1_555
F10A C43A 1_555 1_555
C44A C43A 1_555 1_555
F11A C44A 1_555 1_555
F12A C44A 1_555 1_555
C45A C41A 1_555 1_555
C46A H24A 1_555 1_555
H25A C46A 1_555 1_555
H26A C46A 1_555 1_555
C47A C46A 1_555 1_555
C48A C45A 1_555 1_555
C49A C48A 1_555 1_555
H27A C49A 1_555 1_555
C50A S4A 1_555 1_555
C51A C50A 1_555 1_555
C52A C51A 1_555 1_555
C53A N4A 1_555 1_555
H28A C53A 1_555 1_555
C54A C52A 1_555 1_555
C55A C27A 1_555 1_555
H29A C55A 1_555 1_555
C56A C54A 1_555 1_555
H30A C56A 1_555 1_555
C57A C56A 1_555 1_555
H31A C57A 1_555 1_555
C58A N4A 1_555 1_555
H32A C58A 1_555 1_555
C4 C5 1_555 1_555
C10 C11 1_555 1_555
C16 C17 1_555 1_555
C19 C20 1_555 1_555
C22 S2 1_555 1_555
C25 C26 1_555 1_555
C28 N2 1_555 1_555
C28 C55 1_555 1_555
N4 Pd1A 1_555 1_555
C32 C33 1_555 1_555
C38 C39 1_555 1_555
C44 C45 1_555 1_555
C47 C48 1_555 1_555
C49 C50 1_555 1_555
C53 C54 1_555 1_555
C57 C58 1_555 1_555
C63 C64 1_555 1_555
C69 C70 1_555 1_555
C75 C76 1_555 1_555
C4A C5A 1_555 1_555
C10A C11A 1_555 1_555
C16A C17A 1_555 1_555
C19A C20A 1_555 1_555
C22A S2A 1_555 1_555
C25A C26A 1_555 1_555
C25A N2A 1_555 1_555
C28A N2A 1_555 1_555
C28A C55A 1_555 1_555
C32A C33A 1_555 1_555
C38A C39A 1_555 1_555
C44A C45A 1_555 1_555
C47A C48A 1_555 1_555
C49A C50A 1_555 1_555
C53A C54A 1_555 1_555
C57A C58A 1_555 1_555

#END
