
#######################################################################
#
#                 Cambridge Crystallographic Data Centre
#                                CCDC 
#
#######################################################################
#
# If this CIF has been generated from an entry in the Cambridge 
# Structural Database, then it will include bibliographic, chemical, 
# crystal, experimental, refinement or atomic coordinate data resulting 
# from the CCDC's data processing and validation procedures.
#
#######################################################################

data_FIBBOJ
_chemical_formula_moiety         
'C116 H64 F24 N8 Pd2 S8 4+,15(C6 H4 Cl2),4(B1 F4 1-)'
_chemical_name_systematic        
'tetrakis(\m~2~-1,2-bis(5-((3-pyridyl)ethyne)-2-methylthiophen-3-yl)-perfluorocyclopentene)-di-palladium(ii) tetrakis(tetrafluoroborate) 1,2-dichlorobenzene solvate'
_symmetry_cell_setting           triclinic
_symmetry_space_group_name_H-M   'P -1'
_symmetry_Int_Tables_number      2
_space_group_name_Hall           '-P 1'
loop_
_symmetry_equiv_pos_site_id
_symmetry_equiv_pos_as_xyz
1 x,y,z
2 -x,-y,-z
_cell_length_a                   17.314(2)
_cell_length_b                   18.193(2)
_cell_length_c                   18.612(3)
_cell_angle_alpha                116.65(2)
_cell_angle_beta                 90.33(2)
_cell_angle_gamma                91.70(2)
_cell_volume                     5236.33
_exptl_crystal_colour            colorless
_exptl_crystal_description       block
_cell_formula_units_Z            1
loop_
_atom_site_label
_atom_site_type_symbol
_atom_site_fract_x
_atom_site_fract_y
_atom_site_fract_z
Pd1 Pd 0.397843(13) 0.408374(15) 0.223231(13)
N1 N 0.3630(5) 0.5074(5) 0.2027(5)
S1 S 0.08078(14) 0.73887(14) 0.44760(17)
C1 C 0.3966(4) 0.5236(4) 0.1457(5)
H1 H 0.4388 0.4920 0.1171
C2 C 0.3711(4) 0.5850(5) 0.1281(4)
H2 H 0.3951 0.5954 0.0877
C3 C 0.3102(4) 0.6308(5) 0.1700(5)
H3 H 0.2920 0.6733 0.1586
C4 C 0.2754(4) 0.6152(4) 0.2290(4)
C5 C 0.3040(5) 0.5520(5) 0.2439(5)
H4 H 0.2809 0.5406 0.2842
C6 C 0.2114(4) 0.6603(4) 0.2740(5)
C7 C 0.1590(4) 0.6989(4) 0.3110(5)
C8 C 0.0975(4) 0.7430(4) 0.3585(5)
C9 C 0.0486(4) 0.7950(4) 0.3495(5)
H5 H 0.0521 0.8094 0.3065
C10 C -0.0079(4) 0.8261(4) 0.4087(4)
C11 C 0.0039(4) 0.8021(4) 0.4686(5)
C12 C -0.0379(5) 0.8236(5) 0.5441(5)
H6 H -0.0747 0.7787 0.5367
H7 H -0.0659 0.8742 0.5583
H8 H -0.0008 0.8321 0.5874
C13 C -0.0687(4) 0.8795(4) 0.4074(4)
C14 C -0.0511(3) 0.9509(4) 0.3890(5)
F1 F -0.0413(3) 0.9267(3) 0.3091(3)
F2 F 0.0128(4) 0.9945(5) 0.4277(4)
C15 C -0.1223(3) 1.0036(4) 0.4178(4)
F3 F -0.1368(6) 1.0465(5) 0.3756(6)
F4 F -0.1117(2) 1.0567(2) 0.4948(2)
C16 C -0.1863(4) 0.9394(4) 0.4082(4)
F5 F -0.22127(19) 0.9110(2) 0.3356(2)
F6 F -0.2417(2) 0.9752(2) 0.4630(2)
C17 C -0.1453(4) 0.8737(4) 0.4194(6)
C18 C -0.1311(2) 0.6740(3) 0.3205(3)
H9 H -0.1618 0.6247 0.2850
H10 H -0.0830 0.6577 0.3365
H11 H -0.1188 0.7068 0.2920
C19 C -0.1756(2) 0.7234(3) 0.3928(3)
C20 C -0.1828(2) 0.8080(2) 0.4339(2)
C21 C -0.2366(2) 0.8305(2) 0.4966(2)
H12 H -0.2510 0.8856 0.5284
C22 C -0.2656(2) 0.7656(2) 0.5068(2)
C23 C -0.3177(2) 0.7662(2) 0.5651(2)
C24 C -0.3603(2) 0.7660(2) 0.6151(2)
C25 C -0.38927(18) 0.6958(2) 0.69565(19)
H13 H -0.3532 0.6562 0.6645
C26 C -0.40318(19) 0.7609(2) 0.6782(2)
C27 C -0.4562(2) 0.8187(2) 0.7248(2)
H14 H -0.4673 0.8639 0.7144
C28 C -0.47564(18) 0.7438(2) 0.8005(2)
H15 H -0.5002 0.7382 0.8434
S2 S -0.23080(5) 0.67407(6) 0.43586(6)
N2 N -0.42501(15) 0.68704(17) 0.75488(16)
N3 N 0.46927(14) 0.48253(16) 0.31496(15)
N4 N -0.32350(15) 0.66638(18) 0.86497(16)
S3 S 0.33853(5) 0.66181(5) 0.72259(5)
S4 S 0.01555(5) 0.70392(6) 0.71063(6)
C29 C 0.54479(18) 0.49118(19) 0.30324(19)
H16 H 0.5640 0.4652 0.2502
C30 C 0.59532(18) 0.5373(2) 0.3670(2)
H17 H 0.6487 0.5419 0.3577
C31 C 0.56738(18) 0.57653(19) 0.4441(2)
H18 H 0.6014 0.6076 0.4884
C32 C 0.48835(17) 0.56976(18) 0.45568(18)
C33 C 0.44141(17) 0.52073(18) 0.38932(18)
H19 H 0.3879 0.5142 0.3970
C34 C 0.45224(18) 0.61338(19) 0.53173(19)
C35 C 0.41378(18) 0.65101(19) 0.58877(19)
C36 C 0.36635(18) 0.69766(19) 0.65465(19)
C37 C 0.33586(17) 0.77248(19) 0.67375(19)
H20 H 0.3459 0.8031 0.6446
C38 C 0.28762(17) 0.79961(19) 0.74175(19)
C39 C 0.28464(18) 0.74615(19) 0.77600(19)
C40 C 0.2425(2) 0.7532(2) 0.8486(2)
H21 H 0.1914 0.7257 0.8322
H22 H 0.2366 0.8114 0.8857
H23 H 0.2719 0.7270 0.8754
C41 C 0.24644(17) 0.87624(19) 0.77303(19)
C42 C 0.28644(18) 0.95451(19) 0.7829(2)
F7 F 0.28981(11) 0.95892(12) 0.71203(12)
F8 F 0.36035(10) 0.96385(11) 0.81087(12)
C43 C 0.23556(19) 1.0227(2) 0.8417(2)
F9 F 0.23415(12) 1.08893(12) 0.82840(13)
F10 F 0.26292(12) 1.04696(12) 0.91728(12)
C44 C 0.15548(18) 0.9791(2) 0.8323(2)
F11 F 0.10840(11) 0.99708(13) 0.78482(13)
F12 F 0.12043(12) 1.00641(12) 0.90405(12)
C45 C 0.17204(18) 0.88920(19) 0.7951(2)
C46 C 0.1382(2) 0.7314(2) 0.6305(2)
H24 H 0.1020 0.7020 0.5851
H25 H 0.1789 0.6946 0.6292
H26 H 0.1614 0.7793 0.6267
C47 C 0.09585(19) 0.7594(2) 0.7076(2)
C48 C 0.10959(18) 0.8276(2) 0.7813(2)
C49 C 0.05412(19) 0.8338(2) 0.8392(2)
H27 H 0.0546 0.8772 0.8924
C50 C -0.0001(2) 0.7706(2) 0.8104(2)
C51 C -0.0663(2) 0.7580(3) 0.8484(2)
C52 C -0.1248(2) 0.7465(2) 0.8762(2)
C53 C -0.25258(19) 0.6810(2) 0.8448(2)
H28 H -0.2389 0.6559 0.7898
C54 C -0.19855(19) 0.7320(2) 0.9025(2)
C55 C -0.4922(2) 0.8094(2) 0.7862(2)
H29 H -0.5284 0.8482 0.8185
C56 C -0.2190(2) 0.7671(2) 0.9832(2)
H30 H -0.1831 0.8017 1.0240
C57 C -0.2922(2) 0.7509(2) 1.0030(2)
H31 H -0.3071 0.7738 1.0576
C58 C -0.34339(5) 0.70088(7) 0.94219(6)
H32 H -0.3941 0.6907 0.9557
Pd1A Pd -0.397843(13) 0.591626(15) 0.776769(13)
N1A N -0.3630(5) 0.4926(5) 0.7973(5)
S1A S -0.08078(14) 0.26113(14) 0.55240(17)
C1A C -0.3966(4) 0.4764(4) 0.8543(5)
H1A H -0.4388 0.5080 0.8829
C2A C -0.3711(4) 0.4150(5) 0.8719(4)
H2A H -0.3951 0.4046 0.9123
C3A C -0.3102(4) 0.3692(5) 0.8300(5)
H3A H -0.2920 0.3267 0.8414
C4A C -0.2754(4) 0.3848(4) 0.7710(4)
C5A C -0.3040(5) 0.4480(5) 0.7561(5)
H4A H -0.2809 0.4594 0.7158
C6A C -0.2114(4) 0.3397(4) 0.7260(5)
C7A C -0.1590(4) 0.3011(4) 0.6890(5)
C8A C -0.0975(4) 0.2570(4) 0.6415(5)
C9A C -0.0486(4) 0.2050(4) 0.6505(5)
H5A H -0.0521 0.1906 0.6935
C10A C 0.0079(4) 0.1739(4) 0.5913(4)
C11A C -0.0039(4) 0.1979(4) 0.5314(5)
C12A C 0.0379(5) 0.1764(5) 0.4559(5)
H6A H 0.0747 0.2213 0.4633
H7A H 0.0659 0.1258 0.4417
H8A H 0.0008 0.1679 0.4126
C13A C 0.0687(4) 0.1205(4) 0.5926(4)
C14A C 0.0511(3) 0.0491(4) 0.6110(5)
F1A F 0.0413(3) 0.0733(3) 0.6909(3)
F2A F -0.0128(4) 0.0055(5) 0.5723(4)
C15A C 0.1223(3) -0.0036(4) 0.5822(4)
F3A F 0.1368(6) -0.0465(5) 0.6244(6)
F4A F 0.1117(2) -0.0567(2) 0.5052(2)
C16A C 0.1863(4) 0.0606(4) 0.5918(4)
F5A F 0.22127(19) 0.0890(2) 0.6644(2)
F6A F 0.2417(2) 0.0248(2) 0.5370(2)
C17A C 0.1453(4) 0.1263(4) 0.5806(6)
C18A C 0.1311(2) 0.3260(3) 0.6795(3)
H9A H 0.1618 0.3753 0.7150
H10A H 0.0830 0.3423 0.6635
H11A H 0.1188 0.2932 0.7080
C19A C 0.1756(2) 0.2766(3) 0.6072(3)
C20A C 0.1828(2) 0.1920(2) 0.5661(2)
C21A C 0.2366(2) 0.1695(2) 0.5034(2)
H12A H 0.2510 0.1144 0.4716
C22A C 0.2656(2) 0.2344(2) 0.4932(2)
C23A C 0.3177(2) 0.2338(2) 0.4349(2)
C24A C 0.3603(2) 0.2340(2) 0.3849(2)
C25A C 0.38927(18) 0.3042(2) 0.30435(19)
H13A H 0.3532 0.3438 0.3355
C26A C 0.40318(19) 0.2391(2) 0.3218(2)
C27A C 0.4562(2) 0.1813(2) 0.2752(2)
H14A H 0.4673 0.1361 0.2856
C28A C 0.47564(18) 0.2562(2) 0.1995(2)
H15A H 0.5002 0.2618 0.1566
S2A S 0.23080(5) 0.32593(6) 0.56414(6)
N2A N 0.42501(15) 0.31296(17) 0.24512(16)
N3A N -0.46927(14) 0.51747(16) 0.68504(15)
N4A N 0.32350(15) 0.33362(18) 0.13503(16)
S3A S -0.33853(5) 0.33819(5) 0.27741(5)
S4A S -0.01555(5) 0.29608(6) 0.28937(6)
C29A C -0.54479(18) 0.50882(19) 0.69676(19)
H16A H -0.5640 0.5348 0.7498
C30A C -0.59532(18) 0.4627(2) 0.6330(2)
H17A H -0.6487 0.4581 0.6423
C31A C -0.56738(18) 0.42347(19) 0.5559(2)
H18A H -0.6014 0.3924 0.5116
C32A C -0.48835(17) 0.43024(18) 0.54432(18)
C33A C -0.44141(17) 0.47927(18) 0.61068(18)
H19A H -0.3879 0.4858 0.6030
C34A C -0.45224(18) 0.38662(19) 0.46827(19)
C35A C -0.41378(18) 0.34899(19) 0.41123(19)
C36A C -0.36635(18) 0.30234(19) 0.34535(19)
C37A C -0.33586(17) 0.22752(19) 0.32625(19)
H20A H -0.3459 0.1969 0.3554
C38A C -0.28762(17) 0.20039(19) 0.25825(19)
C39A C -0.28464(18) 0.25385(19) 0.22400(19)
C40A C -0.2425(2) 0.2468(2) 0.1514(2)
H21A H -0.1914 0.2743 0.1678
H22A H -0.2366 0.1886 0.1143
H23A H -0.2719 0.2730 0.1246
C41A C -0.24644(17) 0.12376(19) 0.22697(19)
C42A C -0.28644(18) 0.04549(19) 0.2171(2)
F7A F -0.28981(11) 0.04108(12) 0.28797(12)
F8A F -0.36035(10) 0.03615(11) 0.18913(12)
C43A C -0.23556(19) -0.0227(2) 0.1583(2)
F9A F -0.23415(12) -0.08893(12) 0.17160(13)
F10A F -0.26292(12) -0.04696(12) 0.08272(12)
C44A C -0.15548(18) 0.0209(2) 0.1677(2)
F11A F -0.10840(11) 0.00292(13) 0.21518(13)
F12A F -0.12043(12) -0.00641(12) 0.09595(12)
C45A C -0.17204(18) 0.11080(19) 0.2049(2)
C46A C -0.1382(2) 0.2686(2) 0.3695(2)
H24A H -0.1020 0.2980 0.4149
H25A H -0.1789 0.3054 0.3708
H26A H -0.1614 0.2207 0.3733
C47A C -0.09585(19) 0.2406(2) 0.2924(2)
C48A C -0.10959(18) 0.1724(2) 0.2187(2)
C49A C -0.05412(19) 0.1662(2) 0.1608(2)
H27A H -0.0546 0.1228 0.1076
C50A C 0.0001(2) 0.2294(2) 0.1896(2)
C51A C 0.0663(2) 0.2420(3) 0.1516(2)
C52A C 0.1248(2) 0.2535(2) 0.1238(2)
C53A C 0.25258(19) 0.3190(2) 0.1552(2)
H28A H 0.2389 0.3441 0.2102
C54A C 0.19855(19) 0.2680(2) 0.0975(2)
C55A C 0.4922(2) 0.1906(2) 0.2138(2)
H29A H 0.5284 0.1518 0.1815
C56A C 0.2190(2) 0.2329(2) 0.0168(2)
H30A H 0.1831 0.1983 -0.0240
C57A C 0.2922(2) 0.2491(2) -0.0030(2)
H31A H 0.3071 0.2262 -0.0576
C58A C 0.34339(5) 0.29912(7) 0.05781(6)
H32A H 0.3941 0.3093 0.0443
B1 B 0.59847(5) 0.36138(7) 0.07940(6)
F13 F 0.52322(5) 0.38826(7) 0.09875(6)
F14 F 0.59802(5) 0.27981(7) 0.06710(6)
F15 F 0.61993(5) 0.36375(7) 0.00951(6)
F16 F 0.64711(5) 0.41189(7) 0.14434(6)
B2 B 0.23109(5) 0.45543(7) 0.41190(6)
F17 F 0.26289(5) 0.44811(7) 0.34018(6)
F18 F 0.28822(5) 0.44358(7) 0.45801(6)
F19 F 0.20223(5) 0.53326(7) 0.45488(6)
F20 F 0.17063(5) 0.39790(7) 0.39264(6)
C59 C 0.16515(9) 0.03283(11) 0.13795(9)
C60 C 0.21326(12) 0.10311(12) 0.17148(12)
C61 C 0.19582(17) 0.16755(16) 0.24522(15)
H33 H 0.2290 0.2161 0.2684
C62 C 0.13031(18) 0.1617(2) 0.28545(14)
H34 H 0.1183 0.2062 0.3364
C63 C 0.08222(17) 0.0915(2) 0.25192(16)
H35 H 0.0370 0.0874 0.2797
C64 C 0.09965(13) 0.02700(18) 0.17816(14)
H36 H 0.0664 -0.0215 0.1550
Cl1 Cl 0.18678(11) -0.04715(10) 0.04641(9)
Cl2 Cl 0.29456(18) 0.11033(17) 0.12157(19)
C65 C 0.41530(10) 0.32053(11) 0.84283(10)
C66 C 0.37873(11) 0.25347(9) 0.77958(11)
C67 C 0.38885(18) 0.17442(10) 0.77092(17)
H37 H 0.3636 0.1281 0.7272
C68 C 0.4355(2) 0.16244(15) 0.8255(2)
H38 H 0.4425 0.1078 0.8195
C69 C 0.4721(2) 0.22950(18) 0.8887(2)
H39 H 0.5043 0.2212 0.9264
C70 C 0.46197(16) 0.30856(16) 0.89742(14)
H40 H 0.4872 0.3549 0.9411
Cl3 Cl 0.40276(12) 0.41863(9) 0.85358(13)
Cl4 Cl 0.32081(12) 0.26833(12) 0.71184(12)
C71 C 0.34973(9) 0.77020(9) 0.40139(10)
C72 C 0.41537(11) 0.75851(12) 0.35537(14)
C73 C 0.43411(15) 0.81241(15) 0.32328(18)
H41 H 0.4794 0.8043 0.2915
C74 C 0.38724(18) 0.87800(16) 0.3372(2)
H42 H 0.4002 0.9152 0.3151
C75 C 0.32161(18) 0.88969(16) 0.3832(2)
H43 H 0.2892 0.9350 0.3929
C76 C 0.30287(14) 0.83578(14) 0.41532(18)
H44 H 0.2575 0.8439 0.4471
Cl5 Cl 0.32648(9) 0.70330(11) 0.44120(11)
Cl6 Cl 0.47355(15) 0.67712(18) 0.3381(2)
loop_
_geom_bond_atom_site_label_1
_geom_bond_atom_site_label_2
_geom_bond_site_symmetry_1
_geom_bond_site_symmetry_2
Pd1 N1 1_555 1_555
N1 C1 1_555 1_555
S1 C8 1_555 1_555
C1 H1 1_555 1_555
C2 C1 1_555 1_555
H2 C2 1_555 1_555
C3 C2 1_555 1_555
H3 C3 1_555 1_555
C4 C3 1_555 1_555
C5 N1 1_555 1_555
H4 C5 1_555 1_555
C6 C4 1_555 1_555
C7 C6 1_555 1_555
C8 C7 1_555 1_555
C9 C8 1_555 1_555
H5 C9 1_555 1_555
C10 C9 1_555 1_555
C11 S1 1_555 1_555
C12 C11 1_555 1_555
H6 C12 1_555 1_555
H7 C12 1_555 1_555
H8 C12 1_555 1_555
C13 C10 1_555 1_555
C14 C13 1_555 1_555
F1 C14 1_555 1_555
F2 C14 1_555 1_555
C15 C14 1_555 1_555
F3 C15 1_555 1_555
F4 C15 1_555 1_555
C16 C15 1_555 1_555
F5 C16 1_555 1_555
F6 C16 1_555 1_555
C17 C13 1_555 1_555
C18 H9 1_555 1_555
H10 C18 1_555 1_555
H11 C18 1_555 1_555
C19 C18 1_555 1_555
C20 C17 1_555 1_555
C21 C20 1_555 1_555
H12 C21 1_555 1_555
C22 C21 1_555 1_555
C23 C22 1_555 1_555
C24 C23 1_555 1_555
C25 H13 1_555 1_555
C26 C24 1_555 1_555
C27 C26 1_555 1_555
H14 C27 1_555 1_555
C28 H15 1_555 1_555
S2 C19 1_555 1_555
N2 C25 1_555 1_555
N3 Pd1 1_555 1_555
N4 C53 1_555 1_555
S3 C36 1_555 1_555
S4 C47 1_555 1_555
C29 N3 1_555 1_555
H16 C29 1_555 1_555
C30 C29 1_555 1_555
H17 C30 1_555 1_555
C31 C30 1_555 1_555
H18 C31 1_555 1_555
C32 C31 1_555 1_555
C33 N3 1_555 1_555
H19 C33 1_555 1_555
C34 C32 1_555 1_555
C35 C34 1_555 1_555
C36 C35 1_555 1_555
C37 C36 1_555 1_555
H20 C37 1_555 1_555
C38 C37 1_555 1_555
C39 S3 1_555 1_555
C40 C39 1_555 1_555
H21 C40 1_555 1_555
H22 C40 1_555 1_555
H23 C40 1_555 1_555
C41 C38 1_555 1_555
C42 C41 1_555 1_555
F7 C42 1_555 1_555
F8 C42 1_555 1_555
C43 C42 1_555 1_555
F9 C43 1_555 1_555
F10 C43 1_555 1_555
C44 C43 1_555 1_555
F11 C44 1_555 1_555
F12 C44 1_555 1_555
C45 C41 1_555 1_555
C46 H24 1_555 1_555
H25 C46 1_555 1_555
H26 C46 1_555 1_555
C47 C46 1_555 1_555
C48 C45 1_555 1_555
C49 C48 1_555 1_555
H27 C49 1_555 1_555
C50 S4 1_555 1_555
C51 C50 1_555 1_555
C52 C51 1_555 1_555
C53 H28 1_555 1_555
C54 C52 1_555 1_555
C55 C27 1_555 1_555
H29 C55 1_555 1_555
C56 C54 1_555 1_555
H30 C56 1_555 1_555
C57 C56 1_555 1_555
H31 C57 1_555 1_555
C58 N4 1_555 1_555
H32 C58 1_555 1_555
B1 F13 1_555 1_555
F14 B1 1_555 1_555
F15 B1 1_555 1_555
F16 B1 1_555 1_555
B2 F17 1_555 1_555
F18 B2 1_555 1_555
F19 B2 1_555 1_555
F20 B2 1_555 1_555
C59 C60 1_555 1_555
C60 C61 1_555 1_555
C61 H33 1_555 1_555
C62 C61 1_555 1_555
H34 C62 1_555 1_555
C63 C62 1_555 1_555
H35 C63 1_555 1_555
C64 C59 1_555 1_555
H36 C64 1_555 1_555
Cl1 C59 1_555 1_555
Cl2 C60 1_555 1_555
C65 C66 1_555 1_555
C66 C67 1_555 1_555
C67 H37 1_555 1_555
C68 C67 1_555 1_555
H38 C68 1_555 1_555
C69 C68 1_555 1_555
H39 C69 1_555 1_555
C70 C65 1_555 1_555
H40 C70 1_555 1_555
Cl3 C65 1_555 1_555
Cl4 C66 1_555 1_555
C71 C72 1_555 1_555
C72 C73 1_555 1_555
C73 H41 1_555 1_555
C74 C73 1_555 1_555
H42 C74 1_555 1_555
C75 C74 1_555 1_555
H43 C75 1_555 1_555
C76 C71 1_555 1_555
H44 C76 1_555 1_555
Cl5 C71 1_555 1_555
Cl6 C72 1_555 1_555
Pd1A N2 1_555 1_555
N1A Pd1A 1_555 1_555
S1A C8A 1_555 1_555
C1A N1A 1_555 1_555
H1A C1A 1_555 1_555
C2A C1A 1_555 1_555
H2A C2A 1_555 1_555
C3A C2A 1_555 1_555
H3A C3A 1_555 1_555
C4A C3A 1_555 1_555
C5A N1A 1_555 1_555
H4A C5A 1_555 1_555
C6A C4A 1_555 1_555
C7A C6A 1_555 1_555
C8A C7A 1_555 1_555
C9A C8A 1_555 1_555
H5A C9A 1_555 1_555
C10A C9A 1_555 1_555
C11A S1A 1_555 1_555
C12A C11A 1_555 1_555
H6A C12A 1_555 1_555
H7A C12A 1_555 1_555
H8A C12A 1_555 1_555
C13A C10A 1_555 1_555
C14A C13A 1_555 1_555
F1A C14A 1_555 1_555
F2A C14A 1_555 1_555
C15A C14A 1_555 1_555
F3A C15A 1_555 1_555
F4A C15A 1_555 1_555
C16A C15A 1_555 1_555
F5A C16A 1_555 1_555
F6A C16A 1_555 1_555
C17A C13A 1_555 1_555
C18A H9A 1_555 1_555
H10A C18A 1_555 1_555
H11A C18A 1_555 1_555
C19A C18A 1_555 1_555
C20A C17A 1_555 1_555
C21A C20A 1_555 1_555
H12A C21A 1_555 1_555
C22A C21A 1_555 1_555
C23A C22A 1_555 1_555
C24A C23A 1_555 1_555
C25A H13A 1_555 1_555
C26A C24A 1_555 1_555
C27A C26A 1_555 1_555
H14A C27A 1_555 1_555
C28A H15A 1_555 1_555
S2A C19A 1_555 1_555
N2A Pd1 1_555 1_555
N3A Pd1A 1_555 1_555
N4A Pd1 1_555 1_555
S3A C36A 1_555 1_555
S4A C47A 1_555 1_555
C29A N3A 1_555 1_555
H16A C29A 1_555 1_555
C30A C29A 1_555 1_555
H17A C30A 1_555 1_555
C31A C30A 1_555 1_555
H18A C31A 1_555 1_555
C32A C31A 1_555 1_555
C33A N3A 1_555 1_555
H19A C33A 1_555 1_555
C34A C32A 1_555 1_555
C35A C34A 1_555 1_555
C36A C35A 1_555 1_555
C37A C36A 1_555 1_555
H20A C37A 1_555 1_555
C38A C37A 1_555 1_555
C39A S3A 1_555 1_555
C40A C39A 1_555 1_555
H21A C40A 1_555 1_555
H22A C40A 1_555 1_555
H23A C40A 1_555 1_555
C41A C38A 1_555 1_555
C42A C41A 1_555 1_555
F7A C42A 1_555 1_555
F8A C42A 1_555 1_555
C43A C42A 1_555 1_555
F9A C43A 1_555 1_555
F10A C43A 1_555 1_555
C44A C43A 1_555 1_555
F11A C44A 1_555 1_555
F12A C44A 1_555 1_555
C45A C41A 1_555 1_555
C46A H24A 1_555 1_555
H25A C46A 1_555 1_555
H26A C46A 1_555 1_555
C47A C46A 1_555 1_555
C48A C45A 1_555 1_555
C49A C48A 1_555 1_555
H27A C49A 1_555 1_555
C50A S4A 1_555 1_555
C51A C50A 1_555 1_555
C52A C51A 1_555 1_555
C53A N4A 1_555 1_555
H28A C53A 1_555 1_555
C54A C52A 1_555 1_555
C55A C27A 1_555 1_555
H29A C55A 1_555 1_555
C56A C54A 1_555 1_555
H30A C56A 1_555 1_555
C57A C56A 1_555 1_555
H31A C57A 1_555 1_555
C58A N4A 1_555 1_555
H32A C58A 1_555 1_555
C4 C5 1_555 1_555
C10 C11 1_555 1_555
C16 C17 1_555 1_555
C19 C20 1_555 1_555
C22 S2 1_555 1_555
C25 C26 1_555 1_555
C28 N2 1_555 1_555
C28 C55 1_555 1_555
N4 Pd1A 1_555 1_555
C32 C33 1_555 1_555
C38 C39 1_555 1_555
C44 C45 1_555 1_555
C47 C48 1_555 1_555
C49 C50 1_555 1_555
C53 C54 1_555 1_555
C57 C58 1_555 1_555
C63 C64 1_555 1_555
C69 C70 1_555 1_555
C75 C76 1_555 1_555
C4A C5A 1_555 1_555
C10A C11A 1_555 1_555
C16A C17A 1_555 1_555
C19A C20A 1_555 1_555
C22A S2A 1_555 1_555
C25A C26A 1_555 1_555
C25A N2A 1_555 1_555
C28A N2A 1_555 1_555
C28A C55A 1_555 1_555
C32A C33A 1_555 1_555
C38A C39A 1_555 1_555
C44A C45A 1_555 1_555
C47A C48A 1_555 1_555
C49A C50A 1_555 1_555
C53A C54A 1_555 1_555
C57A C58A 1_555 1_555

#END
