# generated using pymatgen
data_B3H148PdC237S5N5(Cl27F17)2
_symmetry_space_group_name_H-M   'P 1'
_cell_length_a   17.31400000
_cell_length_b   18.19300000
_cell_length_c   18.61200000
_cell_angle_alpha   116.65000000
_cell_angle_beta   90.33000000
_cell_angle_gamma   91.70000000
_symmetry_Int_Tables_number   1
_chemical_formula_structural   B3H148PdC237S5N5(Cl27F17)2
_chemical_formula_sum   'B6 H296 Pd2 C474 S10 N10 Cl108 F68'
_cell_volume   5236.33115194
_cell_formula_units_Z   2
loop_
 _symmetry_equiv_pos_site_id
 _symmetry_equiv_pos_as_xyz
  1  'x, y, z'
loop_
 _atom_site_type_symbol
 _atom_site_label
 _atom_site_symmetry_multiplicity
 _atom_site_fract_x
 _atom_site_fract_y
 _atom_site_fract_z
 _atom_site_occupancy
  B  B1  1  0.231090  0.455430  0.411900  1
  B  B2  1  0.768910  0.544570  0.588100  1
  B  B3  1  0.228760  0.438390  0.400160  1
  B  B4  1  0.771240  0.561610  0.599840  1
  B  B5  1  0.598470  0.361380  0.079400  1.0
  B  B6  1  0.401530  0.638620  0.920600  1.0
  H  H7  1  0.229000  0.216100  0.268400  1
  H  H8  1  0.771000  0.783900  0.731600  1
  H  H9  1  0.118300  0.206200  0.336400  1
  H  H10  1  0.881700  0.793800  0.663600  1
  H  H11  1  0.037000  0.087400  0.279700  1
  H  H12  1  0.963000  0.912600  0.720300  1
  H  H13  1  0.066400  0.978500  0.155000  1
  H  H14  1  0.933600  0.021500  0.845000  1
  H  H15  1  0.363600  0.128100  0.727200  1
  H  H16  1  0.636400  0.871900  0.272800  1
  H  H17  1  0.442500  0.107800  0.819500  1
  H  H18  1  0.557500  0.892200  0.180500  1
  H  H19  1  0.504300  0.221200  0.926400  1
  H  H20  1  0.495700  0.778800  0.073600  1
  H  H21  1  0.487200  0.354900  0.941100  1
  H  H22  1  0.512800  0.645100  0.058900  1
  H  H23  1  0.479400  0.804300  0.291500  1
  H  H24  1  0.520600  0.195700  0.708500  1
  H  H25  1  0.400200  0.915200  0.315100  1
  H  H26  1  0.599800  0.084800  0.684900  1
  H  H27  1  0.289200  0.935000  0.392900  1
  H  H28  1  0.710800  0.065000  0.607100  1
  H  H29  1  0.257500  0.843900  0.447100  1
  H  H30  1  0.742500  0.156100  0.552900  1
  H  H31  1  0.453800  0.464300  0.110200  1
  H  H32  1  0.546200  0.535700  0.889800  1
  H  H33  1  0.413700  0.555500  0.062300  1
  H  H34  1  0.586300  0.444500  0.937700  1
  H  H35  1  0.313000  0.642500  0.123600  1
  H  H36  1  0.687000  0.357500  0.876400  1
  H  H37  1  0.288200  0.536500  0.272700  1
  H  H38  1  0.711800  0.463500  0.727300  1
  H  H39  1  0.048400  0.777600  0.268300  1
  H  H40  1  0.951600  0.222400  0.731700  1
  H  H41  1  0.948500  0.854400  0.531200  1
  H  H42  1  0.051500  0.145600  0.468800  1
  H  H43  1  0.017900  0.816600  0.559600  1
  H  H44  1  0.982100  0.183400  0.440400  1
  H  H45  1  0.943400  0.760100  0.514500  1
  H  H46  1  0.056600  0.239900  0.485500  1
  H  H47  1  0.227200  0.973900  0.033000  1
  H  H48  1  0.772800  0.026100  0.967000  1
  H  H49  1  0.112700  0.903100  0.036600  1
  H  H50  1  0.887300  0.096900  0.963400  1
  H  H51  1  0.029800  0.962700  0.145900  1
  H  H52  1  0.970200  0.037300  0.854100  1
  H  H53  1  0.061300  0.093100  0.251600  1
  H  H54  1  0.938700  0.906900  0.748400  1
  H  H55  1  0.471400  0.196400  0.892100  1
  H  H56  1  0.528600  0.803600  0.107900  1
  H  H57  1  0.434300  0.079300  0.773100  1
  H  H58  1  0.565700  0.920700  0.226900  1
  H  H59  1  0.368000  0.093900  0.670100  1
  H  H60  1  0.632000  0.906100  0.329900  1
  H  H61  1  0.338700  0.225600  0.685900  1
  H  H62  1  0.661300  0.774400  0.314100  1
  H  H63  1  0.334200  0.197100  0.696400  1
  H  H64  1  0.665800  0.802900  0.303600  1
  H  H65  1  0.387200  0.098500  0.729600  1
  H  H66  1  0.612800  0.901500  0.270400  1
  H  H67  1  0.458900  0.140900  0.850000  1
  H  H68  1  0.541100  0.859100  0.150000  1
  H  H69  1  0.477700  0.281800  0.937200  1
  H  H70  1  0.522300  0.718200  0.062800  1
  H  H71  1  0.377400  0.686800  0.453400  1
  H  H72  1  0.622600  0.313200  0.546600  1
  H  H73  1  0.270200  0.762000  0.520700  1
  H  H74  1  0.729800  0.238000  0.479300  1
  H  H75  1  0.227000  0.868400  0.493500  1
  H  H76  1  0.773000  0.131600  0.506500  1
  H  H77  1  0.291000  0.899500  0.398900  1
  H  H78  1  0.709000  0.100500  0.601100  1
  H  H79  1  0.778900  0.654400  0.140500  1
  H  H80  1  0.221100  0.345600  0.859500  1
  H  H81  1  0.748700  0.537300  0.018900  1
  H  H82  1  0.251300  0.462700  0.981100  1
  H  H83  1  0.819600  0.512100  0.903400  1
  H  H84  1  0.180400  0.487900  0.096600  1
  H  H85  1  0.920600  0.604000  0.909300  1
  H  H86  1  0.079400  0.396000  0.090700  1
  H  H87  1  0.909900  0.590600  0.136100  1
  H  H88  1  0.090100  0.409400  0.863900  1
  H  H89  1  0.020100  0.517700  0.074500  1
  H  H90  1  0.979900  0.482300  0.925500  1
  H  H91  1  0.109500  0.573200  0.015800  1
  H  H92  1  0.890500  0.426800  0.984200  1
  H  H93  1  0.088700  0.701600  0.018800  1
  H  H94  1  0.911300  0.298400  0.981200  1
  H  H95  1  0.757500  0.575000  0.024100  1
  H  H96  1  0.242500  0.425000  0.975900  1
  H  H97  1  0.721700  0.497200  0.091600  1
  H  H98  1  0.278300  0.502800  0.908400  1
  H  H99  1  0.786400  0.376500  0.066400  1
  H  H100  1  0.213600  0.623500  0.933600  1
  H  H101  1  0.887000  0.333700  0.973700  1
  H  H102  1  0.113000  0.666300  0.026300  1
  H  H103  1  0.023400  0.587800  0.084200  1
  H  H104  1  0.976600  0.412200  0.915800  1
  H  H105  1  0.142100  0.565000  0.018300  1
  H  H106  1  0.857900  0.435000  0.981700  1
  H  H107  1  0.192300  0.660300  0.976000  1
  H  H108  1  0.807700  0.339700  0.024000  1
  H  H109  1  0.123900  0.778400  0.999600  1
  H  H110  1  0.876100  0.221600  0.000400  1
  H  H111  1  0.874300  0.779800  0.200100  1
  H  H112  1  0.125700  0.220200  0.799900  1
  H  H113  1  0.980000  0.840100  0.165000  1
  H  H114  1  0.020000  0.159900  0.835000  1
  H  H115  1  0.022500  0.781100  0.031800  1
  H  H116  1  0.977500  0.218900  0.968200  1
  H  H117  1  0.959300  0.661800  0.933700  1
  H  H118  1  0.040700  0.338200  0.066300  1
  H  H119  1  0.880700  0.346800  0.977200  1
  H  H120  1  0.119300  0.653200  0.022800  1
  H  H121  1  0.775500  0.402400  0.061600  1
  H  H122  1  0.224500  0.597600  0.938400  1
  H  H123  1  0.714700  0.517100  0.063800  1
  H  H124  1  0.285300  0.482900  0.936200  1
  H  H125  1  0.759000  0.576300  0.981700  1
  H  H126  1  0.241000  0.423700  0.018300  1
  H  H127  1  0.965100  0.795000  0.046300  1
  H  H128  1  0.034900  0.205000  0.953700  1
  H  H129  1  0.069000  0.750500  0.958000  1
  H  H130  1  0.931000  0.249500  0.042000  1
  H  H131  1  0.135700  0.633700  0.942100  1
  H  H132  1  0.864300  0.366300  0.057900  1
  H  H133  1  0.098300  0.561300  0.014500  1
  H  H134  1  0.901700  0.438700  0.985500  1
  H  H135  1  0.954200  0.456400  0.578600  1
  H  H136  1  0.045800  0.543600  0.421400  1
  H  H137  1  0.068600  0.457800  0.511800  1
  H  H138  1  0.931400  0.542200  0.488200  1
  H  H139  1  0.184500  0.511600  0.585600  1
  H  H140  1  0.815500  0.488400  0.414400  1
  H  H141  1  0.186100  0.564100  0.726300  1
  H  H142  1  0.813900  0.435900  0.273700  1
  H  H143  1  0.033000  0.512100  0.805300  1
  H  H144  1  0.967000  0.487900  0.194700  1
  H  H145  1  0.921200  0.476100  0.722700  1
  H  H146  1  0.078800  0.523900  0.277300  1
  H  H147  1  0.928700  0.459500  0.590300  1
  H  H148  1  0.071300  0.540500  0.409700  1
  H  H149  1  0.047900  0.479000  0.540400  1
  H  H150  1  0.952100  0.521000  0.459600  1
  H  H151  1  0.172600  0.493300  0.579300  1
  H  H152  1  0.827400  0.506700  0.420700  1
  H  H153  1  0.058100  0.462800  0.501300  1
  H  H154  1  0.941900  0.537200  0.498700  1
  H  H155  1  0.938400  0.462100  0.559800  1
  H  H156  1  0.061600  0.537900  0.440200  1
  H  H157  1  0.933100  0.491900  0.696300  1
  H  H158  1  0.066900  0.508100  0.303700  1
  H  H159  1  0.098900  0.467800  0.547000  1
  H  H160  1  0.901100  0.532200  0.453000  1
  H  H161  1  0.965800  0.434800  0.524600  1
  H  H162  1  0.034200  0.565200  0.475400  1
  H  H163  1  0.885700  0.456800  0.633400  1
  H  H164  1  0.114300  0.543200  0.366600  1
  H  H165  1  0.938500  0.511900  0.764500  1
  H  H166  1  0.061500  0.488100  0.235500  1
  H  H167  1  0.330600  0.129000  0.728900  1
  H  H168  1  0.669400  0.871000  0.271100  1
  H  H169  1  0.429300  0.074000  0.775200  1
  H  H170  1  0.570700  0.926000  0.224800  1
  H  H171  1  0.519500  0.162400  0.872900  1
  H  H172  1  0.480500  0.837600  0.127100  1
  H  H173  1  0.511000  0.305700  0.924100  1
  H  H174  1  0.489000  0.694300  0.075900  1
  H  H175  1  0.432300  0.417800  0.866200  1
  H  H176  1  0.567700  0.582200  0.133800  1
  H  H177  1  0.358000  0.394300  0.751400  1
  H  H178  1  0.642000  0.605700  0.248600  1
  H  H179  1  0.313100  0.260200  0.663500  1
  H  H180  1  0.686900  0.739800  0.336500  1
  H  H181  1  0.342600  0.149600  0.690500  1
  H  H182  1  0.657400  0.850400  0.309500  1
  H  H183  1  0.312400  0.045500  0.321300  1
  H  H184  1  0.687600  0.954500  0.678700  1
  H  H185  1  0.405700  0.004000  0.220700  1
  H  H186  1  0.594300  0.996000  0.779300  1
  H  H187  1  0.388600  0.877900  0.104600  1
  H  H188  1  0.611400  0.122100  0.895400  1
  H  H189  1  0.278200  0.793400  0.089100  1
  H  H190  1  0.721800  0.206600  0.910900  1
  H  H191  1  0.358900  0.806400  0.075900  1
  H  H192  1  0.641100  0.193600  0.924100  1
  H  H193  1  0.246700  0.724300  0.060200  1
  H  H194  1  0.753300  0.275700  0.939800  1
  H  H195  1  0.145400  0.775900  0.150900  1
  H  H196  1  0.854600  0.224100  0.849100  1
  H  H197  1  0.156200  0.909700  0.257300  1
  H  H198  1  0.843800  0.090300  0.742700  1
  H  H199  1  0.376800  0.933900  0.151800  1
  H  H200  1  0.623200  0.066100  0.848200  1
  H  H201  1  0.345200  0.800100  0.052000  1
  H  H202  1  0.654800  0.199900  0.948000  1
  H  H203  1  0.234000  0.729500  0.064000  1
  H  H204  1  0.766000  0.270500  0.936000  1
  H  H205  1  0.154500  0.792500  0.175700  1
  H  H206  1  0.845500  0.207500  0.824300  1
  H  H207  1  0.338300  0.825100  0.055900  1
  H  H208  1  0.661700  0.174900  0.944100  1
  H  H209  1  0.222200  0.755000  0.056100  1
  H  H210  1  0.777800  0.245000  0.943900  1
  H  H211  1  0.147400  0.803000  0.172300  1
  H  H212  1  0.852600  0.197000  0.827700  1
  H  H213  1  0.188800  0.921100  0.288400  1
  H  H214  1  0.811200  0.078900  0.711600  1
  H  H215  1  0.176900  0.796000  0.187600  1
  H  H216  1  0.823100  0.204000  0.812400  1
  H  H217  1  0.111400  0.897300  0.295000  1
  H  H218  1  0.888600  0.102700  0.705000  1
  H  H219  1  0.160100  0.034100  0.355800  1
  H  H220  1  0.839900  0.965900  0.644200  1
  H  H221  1  0.274400  0.069500  0.309300  1
  H  H222  1  0.725600  0.930500  0.690700  1
  H  H223  1  0.606700  0.985600  0.410500  1
  H  H224  1  0.393300  0.014400  0.589500  1
  H  H225  1  0.548200  0.097300  0.403800  1
  H  H226  1  0.451800  0.902700  0.596200  1
  H  H227  1  0.439200  0.154800  0.481100  1
  H  H228  1  0.560800  0.845200  0.518900  1
  H  H229  1  0.388800  0.100700  0.565100  1
  H  H230  1  0.611200  0.899300  0.434900  1
  H  H231  1  0.645900  0.029800  0.034400  1
  H  H232  1  0.354100  0.970200  0.965600  1
  H  H233  1  0.620400  0.155100  0.032600  1
  H  H234  1  0.379600  0.844900  0.967400  1
  H  H235  1  0.494700  0.180800  0.003400  1
  H  H236  1  0.505300  0.819200  0.996600  1
  H  H237  1  0.394600  0.081200  0.975900  1
  H  H238  1  0.605400  0.918800  0.024100  1
  H  H239  1  0.438800  0.492000  0.117100  1.0
  H  H240  1  0.561200  0.508000  0.882900  1.0
  H  H241  1  0.395100  0.595400  0.087700  1.0
  H  H242  1  0.604900  0.404600  0.912300  1.0
  H  H243  1  0.292000  0.673300  0.158600  1.0
  H  H244  1  0.708000  0.326700  0.841400  1.0
  H  H245  1  0.280900  0.540600  0.284200  1.0
  H  H246  1  0.719100  0.459400  0.715800  1.0
  H  H247  1  0.052100  0.809400  0.306500  1.0
  H  H248  1  0.947900  0.190600  0.693500  1.0
  H  H249  1  0.925300  0.778700  0.536700  1.0
  H  H250  1  0.074700  0.221300  0.463300  1.0
  H  H251  1  0.934100  0.874200  0.558300  1.0
  H  H252  1  0.065900  0.125800  0.441700  1.0
  H  H253  1  0.999200  0.832100  0.587400  1.0
  H  H254  1  0.000800  0.167900  0.412600  1.0
  H  H255  1  0.838200  0.624700  0.285000  1.0
  H  H256  1  0.161800  0.375300  0.715000  1.0
  H  H257  1  0.917000  0.657700  0.336500  1.0
  H  H258  1  0.083000  0.342300  0.663500  1.0
  H  H259  1  0.881200  0.706800  0.292000  1.0
  H  H260  1  0.118800  0.293200  0.708000  1.0
  H  H261  1  0.749000  0.885600  0.528400  1.0
  H  H262  1  0.251000  0.114400  0.471600  1.0
  H  H263  1  0.646800  0.656200  0.664500  1.0
  H  H264  1  0.353200  0.343800  0.335500  1.0
  H  H265  1  0.532700  0.863900  0.714400  1.0
  H  H266  1  0.467300  0.136100  0.285600  1.0
  H  H267  1  0.499800  0.738200  0.843400  1.0
  H  H268  1  0.500200  0.261800  0.156600  1.0
  H  H269  1  0.564000  0.465200  0.250200  1.0
  H  H270  1  0.436000  0.534800  0.749800  1.0
  H  H271  1  0.648700  0.541900  0.357700  1.0
  H  H272  1  0.351300  0.458100  0.642300  1.0
  H  H273  1  0.601400  0.607600  0.488400  1.0
  H  H274  1  0.398600  0.392400  0.511600  1.0
  H  H275  1  0.387900  0.514200  0.397000  1.0
  H  H276  1  0.612100  0.485800  0.603000  1.0
  H  H277  1  0.345900  0.803100  0.644600  1.0
  H  H278  1  0.654100  0.196900  0.355400  1.0
  H  H279  1  0.191400  0.725700  0.832200  1.0
  H  H280  1  0.808600  0.274300  0.167800  1.0
  H  H281  1  0.236600  0.811400  0.885700  1.0
  H  H282  1  0.763400  0.188600  0.114300  1.0
  H  H283  1  0.271900  0.727000  0.875400  1.0
  H  H284  1  0.728100  0.273000  0.124600  1.0
  H  H285  1  0.102000  0.702000  0.585100  1.0
  H  H286  1  0.898000  0.298000  0.414900  1.0
  H  H287  1  0.178900  0.694600  0.629200  1.0
  H  H288  1  0.821100  0.305400  0.370800  1.0
  H  H289  1  0.161400  0.779300  0.626700  1.0
  H  H290  1  0.838600  0.220700  0.373300  1.0
  H  H291  1  0.054600  0.877200  0.892400  1.0
  H  H292  1  0.945400  0.122800  0.107600  1.0
  H  H293  1  0.761100  0.655900  0.789800  1.0
  H  H294  1  0.238900  0.344100  0.210200  1.0
  H  H295  1  0.471600  0.848200  0.818500  1.0
  H  H296  1  0.528400  0.151800  0.181500  1.0
  H  H297  1  0.816900  0.801700  0.024000  1.0
  H  H298  1  0.183100  0.198300  0.976000  1.0
  H  H299  1  0.692900  0.773800  0.057600  1.0
  H  H300  1  0.307100  0.226200  0.942400  1.0
  H  H301  1  0.605900  0.690700  0.955700  1.0
  H  H302  1  0.394100  0.309300  0.044300  1.0
  Pd  Pd303  1  0.397843  0.408374  0.223231  1.0
  Pd  Pd304  1  0.602157  0.591626  0.776769  1.0
  C  C305  1  0.165150  0.032830  0.137950  1
  C  C306  1  0.834850  0.967170  0.862050  1
  C  C307  1  0.213260  0.103110  0.171480  1
  C  C308  1  0.786740  0.896890  0.828520  1
  C  C309  1  0.195820  0.167550  0.245220  1
  C  C310  1  0.804180  0.832450  0.754780  1
  C  C311  1  0.130310  0.161700  0.285450  1
  C  C312  1  0.869690  0.838300  0.714550  1
  C  C313  1  0.082220  0.091500  0.251920  1
  C  C314  1  0.917780  0.908500  0.748080  1
  C  C315  1  0.099650  0.027000  0.178160  1
  C  C316  1  0.900350  0.973000  0.821840  1
  C  C317  1  0.415300  0.320530  0.842830  1
  C  C318  1  0.584700  0.679470  0.157170  1
  C  C319  1  0.378730  0.253470  0.779580  1
  C  C320  1  0.621270  0.746530  0.220420  1
  C  C321  1  0.388850  0.174420  0.770920  1
  C  C322  1  0.611150  0.825580  0.229080  1
  C  C323  1  0.435500  0.162440  0.825500  1
  C  C324  1  0.564500  0.837560  0.174500  1
  C  C325  1  0.472100  0.229500  0.888700  1
  C  C326  1  0.527900  0.770500  0.111300  1
  C  C327  1  0.461970  0.308560  0.897420  1
  C  C328  1  0.538030  0.691440  0.102580  1
  C  C329  1  0.349730  0.770200  0.401390  1
  C  C330  1  0.650270  0.229800  0.598610  1
  C  C331  1  0.415370  0.758510  0.355370  1
  C  C332  1  0.584630  0.241490  0.644630  1
  C  C333  1  0.434110  0.812410  0.323280  1
  C  C334  1  0.565890  0.187590  0.676720  1
  C  C335  1  0.387240  0.878000  0.337200  1
  C  C336  1  0.612760  0.122000  0.662800  1
  C  C337  1  0.321610  0.889690  0.383200  1
  C  C338  1  0.678390  0.110310  0.616800  1
  C  C339  1  0.302870  0.835780  0.415320  1
  C  C340  1  0.697130  0.164220  0.584680  1
  C  C341  1  0.411200  0.498100  0.133800  1
  C  C342  1  0.588800  0.501900  0.866200  1
  C  C343  1  0.387900  0.552800  0.106000  1
  C  C344  1  0.612100  0.447200  0.894000  1
  C  C345  1  0.327500  0.603300  0.141300  1
  C  C346  1  0.672500  0.396700  0.858700  1
  C  C347  1  0.287700  0.596800  0.203500  1
  C  C348  1  0.712300  0.403200  0.796500  1
  C  C349  1  0.313500  0.540700  0.229500  1
  C  C350  1  0.686500  0.459300  0.770500  1
  C  C351  1  0.223100  0.643700  0.242200  1
  C  C352  1  0.776900  0.356300  0.757800  1
  C  C353  1  0.168300  0.680000  0.276900  1
  C  C354  1  0.831700  0.320000  0.723100  1
  C  C355  1  0.106400  0.722000  0.325000  1
  C  C356  1  0.893600  0.278000  0.675000  1
  C  C357  1  0.051300  0.768500  0.314600  1
  C  C358  1  0.948700  0.231500  0.685400  1
  C  C359  1  0.999000  0.802100  0.378000  1
  C  C360  1  0.001000  0.197900  0.622000  1
  C  C361  1  0.015700  0.780600  0.438900  1
  C  C362  1  0.984300  0.219400  0.561100  1
  C  C363  1  0.978100  0.805000  0.517800  1
  C  C364  1  0.021900  0.195000  0.482200  1
  C  C365  1  0.936500  0.856300  0.381900  1
  C  C366  1  0.063500  0.143700  0.618100  1
  C  C367  1  0.950700  0.925300  0.358700  1
  C  C368  1  0.049300  0.074700  0.641300  1
  C  C369  1  0.870900  0.962600  0.365300  1
  C  C370  1  0.129100  0.037400  0.634700  1
  C  C371  1  0.825700  0.936600  0.420100  1
  C  C372  1  0.174300  0.063400  0.579900  1
  C  C373  1  0.864000  0.860000  0.408900  1
  C  C374  1  0.136000  0.140000  0.591100  1
  C  C375  1  0.162960  0.110700  0.204830  1
  C  C376  1  0.837040  0.889300  0.795170  1
  C  C377  1  0.212010  0.075440  0.140190  1
  C  C378  1  0.787990  0.924560  0.859810  1
  C  C379  1  0.193300  0.998300  0.077700  1
  C  C380  1  0.806700  0.001700  0.922300  1
  C  C381  1  0.125600  0.956400  0.079800  1
  C  C382  1  0.874400  0.043600  0.920200  1
  C  C383  1  0.076600  0.991600  0.144400  1
  C  C384  1  0.923400  0.008400  0.855600  1
  C  C385  1  0.095240  0.068800  0.207000  1
  C  C386  1  0.904760  0.931200  0.793000  1
  C  C387  1  0.387700  0.288900  0.798400  1
  C  C388  1  0.612300  0.711100  0.201600  1
  C  C389  1  0.427000  0.280200  0.859400  1
  C  C390  1  0.573000  0.719800  0.140600  1
  C  C391  1  0.444300  0.202300  0.850000  1
  C  C392  1  0.555700  0.797700  0.150000  1
  C  C393  1  0.422000  0.133100  0.779600  1
  C  C394  1  0.578000  0.866900  0.220400  1
  C  C395  1  0.383100  0.141700  0.718600  1
  C  C396  1  0.616900  0.858300  0.281400  1
  C  C397  1  0.365800  0.219600  0.728000  1
  C  C398  1  0.634200  0.780400  0.272000  1
  C  C399  1  0.417100  0.322800  0.868400  1
  C  C400  1  0.582900  0.677200  0.131600  1
  C  C401  1  0.374600  0.297700  0.797100  1
  C  C402  1  0.625400  0.702300  0.202900  1
  C  C403  1  0.363500  0.214400  0.745600  1
  C  C404  1  0.636500  0.785600  0.254400  1
  C  C405  1  0.394800  0.156100  0.765200  1
  C  C406  1  0.605200  0.843900  0.234800  1
  C  C407  1  0.437300  0.181100  0.836500  1
  C  C408  1  0.562700  0.818900  0.163500  1
  C  C409  1  0.448400  0.264500  0.888000  1
  C  C410  1  0.551600  0.735500  0.112000  1
  C  C411  1  0.371980  0.811560  0.370260  1
  C  C412  1  0.628020  0.188440  0.629740  1
  C  C413  1  0.397530  0.748650  0.386360  1
  C  C414  1  0.602470  0.251350  0.613640  1
  C  C415  1  0.359740  0.730200  0.442300  1
  C  C416  1  0.640260  0.269800  0.557700  1
  C  C417  1  0.296400  0.774700  0.482100  1
  C  C418  1  0.703600  0.225300  0.517900  1
  C  C419  1  0.270800  0.837600  0.466000  1
  C  C420  1  0.729200  0.162400  0.534000  1
  C  C421  1  0.308620  0.856000  0.410100  1
  C  C422  1  0.691380  0.144000  0.589900  1
  C  C423  1  0.909500  0.683500  0.028430  1
  C  C424  1  0.090500  0.316500  0.971570  1
  C  C425  1  0.867600  0.698400  0.096800  1
  C  C426  1  0.132400  0.301600  0.903200  1
  C  C427  1  0.807800  0.644100  0.093300  1
  C  C428  1  0.192200  0.355900  0.906700  1
  C  C429  1  0.790000  0.574800  0.021400  1
  C  C430  1  0.210000  0.425200  0.978600  1
  C  C431  1  0.831900  0.559900  0.953000  1
  C  C432  1  0.168100  0.440100  0.047000  1
  C  C433  1  0.891700  0.614300  0.956500  1
  C  C434  1  0.108300  0.385700  0.043500  1
  C  C435  1  0.987050  0.722100  0.079200  1
  C  C436  1  0.012950  0.277900  0.920800  1
  C  C437  1  0.934160  0.689250  0.113900  1
  C  C438  1  0.065840  0.310750  0.886100  1
  C  C439  1  0.946400  0.613300  0.112100  1
  C  C440  1  0.053600  0.386700  0.887900  1
  C  C441  1  0.011600  0.570200  0.075700  1
  C  C442  1  0.988400  0.429800  0.924300  1
  C  C443  1  0.064500  0.603000  0.041000  1
  C  C444  1  0.935500  0.397000  0.959000  1
  C  C445  1  0.052200  0.678900  0.042700  1
  C  C446  1  0.947800  0.321100  0.957300  1
  C  C447  1  0.881700  0.429100  0.944100  1
  C  C448  1  0.118300  0.570900  0.055900  1
  C  C449  1  0.843400  0.500500  0.959000  1
  C  C450  1  0.156600  0.499500  0.041000  1
  C  C451  1  0.784000  0.525700  0.013800  1
  C  C452  1  0.216000  0.474300  0.986200  1
  C  C453  1  0.762800  0.479700  0.053700  1
  C  C454  1  0.237200  0.520300  0.946300  1
  C  C455  1  0.801000  0.408300  0.038800  1
  C  C456  1  0.199000  0.591700  0.961200  1
  C  C457  1  0.860500  0.383000  0.984000  1
  C  C458  1  0.139500  0.617000  0.016000  1
  C  C459  1  0.033200  0.753000  0.055900  1
  C  C460  1  0.966800  0.247000  0.944100  1
  C  C461  1  0.003500  0.696600  0.080900  1
  C  C462  1  0.996500  0.303400  0.919100  1
  C  C463  1  0.043900  0.626800  0.066900  1
  C  C464  1  0.956100  0.373200  0.933100  1
  C  C465  1  0.114100  0.613200  0.027900  1
  C  C466  1  0.885900  0.386800  0.972100  1
  C  C467  1  0.143900  0.669600  0.002900  1
  C  C468  1  0.856100  0.330400  0.997100  1
  C  C469  1  0.103400  0.739500  0.016900  1
  C  C470  1  0.896600  0.260500  0.983100  1
  C  C471  1  0.879400  0.650200  0.008900  1
  C  C472  1  0.120600  0.349800  0.991100  1
  C  C473  1  0.854200  0.685100  0.087700  1
  C  C474  1  0.145800  0.314900  0.912300  1
  C  C475  1  0.891600  0.755700  0.145700  1
  C  C476  1  0.108400  0.244300  0.854300  1
  C  C477  1  0.954200  0.791300  0.125000  1
  C  C478  1  0.045800  0.208700  0.875000  1
  C  C479  1  0.979300  0.756500  0.046200  1
  C  C480  1  0.020700  0.243500  0.953800  1
  C  C481  1  0.941900  0.685900  0.988100  1
  C  C482  1  0.058100  0.314100  0.011900  1
  C  C483  1  0.846100  0.496500  0.930900  1
  C  C484  1  0.153900  0.503500  0.069100  1
  C  C485  1  0.882000  0.428600  0.929600  1
  C  C486  1  0.118000  0.571400  0.070400  1
  C  C487  1  0.855800  0.393600  0.978100  1
  C  C488  1  0.144200  0.606400  0.021900  1
  C  C489  1  0.793600  0.426500  0.028000  1
  C  C490  1  0.206400  0.573500  0.972000  1
  C  C491  1  0.757600  0.494400  0.029400  1
  C  C492  1  0.242400  0.505600  0.970600  1
  C  C493  1  0.783900  0.529400  0.980800  1
  C  C494  1  0.216100  0.470600  0.019200  1
  C  C495  1  0.009600  0.635300  0.073200  1
  C  C496  1  0.990400  0.364700  0.926800  1
  C  C497  1  0.970200  0.704400  0.082600  1
  C  C498  1  0.029800  0.295600  0.917400  1
  C  C499  1  0.992300  0.747200  0.039800  1
  C  C500  1  0.007700  0.252800  0.960200  1
  C  C501  1  0.053800  0.721000  0.987600  1
  C  C502  1  0.946200  0.279000  0.012400  1
  C  C503  1  0.093200  0.651900  0.978200  1
  C  C504  1  0.906800  0.348100  0.021800  1
  C  C505  1  0.071100  0.609000  0.021000  1
  C  C506  1  0.928900  0.391000  0.979000  1
  C  C507  1  0.071070  0.541310  0.735670  1
  C  C508  1  0.928930  0.458690  0.264330  1
  C  C509  1  0.002490  0.509450  0.691980  1
  C  C510  1  0.997510  0.490550  0.308020  1
  C  C511  1  0.001580  0.478400  0.608780  1
  C  C512  1  0.998420  0.521600  0.391220  1
  C  C513  1  0.069200  0.479200  0.569240  1
  C  C514  1  0.930800  0.520800  0.430760  1
  C  C515  1  0.137810  0.511100  0.612900  1
  C  C516  1  0.862190  0.488900  0.387100  1
  C  C517  1  0.138720  0.542100  0.696160  1
  C  C518  1  0.861280  0.457900  0.303840  1
  C  C519  1  0.110900  0.507100  0.643400  1
  C  C520  1  0.889100  0.492900  0.356600  1
  C  C521  1  0.106600  0.516900  0.721700  1
  C  C522  1  0.893400  0.483100  0.278300  1
  C  C523  1  0.036000  0.505400  0.751200  1
  C  C524  1  0.964000  0.494600  0.248800  1
  C  C525  1  0.969900  0.484100  0.702400  1
  C  C526  1  0.030100  0.515900  0.297600  1
  C  C527  1  0.974300  0.474300  0.624000  1
  C  C528  1  0.025700  0.525700  0.376000  1
  C  C529  1  0.044800  0.485800  0.594500  1
  C  C530  1  0.955200  0.514200  0.405500  1
  C  C531  1  0.049770  0.510200  0.718500  1
  C  C532  1  0.950230  0.489800  0.281500  1
  C  C533  1  0.120610  0.510600  0.683900  1
  C  C534  1  0.879390  0.489400  0.316100  1
  C  C535  1  0.123700  0.493000  0.603180  1
  C  C536  1  0.876300  0.507000  0.396820  1
  C  C537  1  0.056000  0.474900  0.557100  1
  C  C538  1  0.944000  0.525100  0.442900  1
  C  C539  1  0.985100  0.474600  0.591700  1
  C  C540  1  0.014900  0.525400  0.408300  1
  C  C541  1  0.982040  0.492200  0.672400  1
  C  C542  1  0.017960  0.507800  0.327600  1
  C  C543  1  0.050000  0.522400  0.733300  1
  C  C544  1  0.950000  0.477600  0.266700  1
  C  C545  1  0.097400  0.509300  0.668900  1
  C  C546  1  0.902600  0.490700  0.331100  1
  C  C547  1  0.066100  0.476800  0.591400  1
  C  C548  1  0.933900  0.523200  0.408600  1
  C  C549  1  0.987400  0.457300  0.578200  1
  C  C550  1  0.012600  0.542700  0.421800  1
  C  C551  1  0.940000  0.470300  0.642500  1
  C  C552  1  0.060000  0.529700  0.357500  1
  C  C553  1  0.971300  0.502900  0.720100  1
  C  C554  1  0.028700  0.497100  0.279900  1
  C  C555  1  0.415800  0.302100  0.856800  1
  C  C556  1  0.584200  0.697900  0.143200  1
  C  C557  1  0.362400  0.249900  0.799100  1
  C  C558  1  0.637600  0.750100  0.200900  1
  C  C559  1  0.367500  0.165100  0.768800  1
  C  C560  1  0.632500  0.834900  0.231200  1
  C  C561  1  0.425800  0.132600  0.796200  1
  C  C562  1  0.574200  0.867400  0.203800  1
  C  C563  1  0.479200  0.184900  0.853900  1
  C  C564  1  0.520800  0.815100  0.146100  1
  C  C565  1  0.474200  0.269600  0.884200  1
  C  C566  1  0.525800  0.730400  0.115800  1
  C  C567  1  0.404900  0.218300  0.794300  1
  C  C568  1  0.595100  0.781700  0.205700  1
  C  C569  1  0.431400  0.297600  0.846300  1
  C  C570  1  0.568600  0.702400  0.153700  1
  C  C571  1  0.414000  0.363000  0.830300  1
  C  C572  1  0.586000  0.637000  0.169700  1
  C  C573  1  0.370000  0.349100  0.762400  1
  C  C574  1  0.630000  0.650900  0.237600  1
  C  C575  1  0.343500  0.269800  0.710400  1
  C  C576  1  0.656500  0.730200  0.289600  1
  C  C577  1  0.360900  0.204400  0.726400  1
  C  C578  1  0.639100  0.795600  0.273600  1
  C  C579  1  0.229990  0.869480  0.195990  1
  C  C580  1  0.770010  0.130520  0.804010  1
  C  C581  1  0.240100  0.944040  0.264700  1
  C  C582  1  0.759900  0.055960  0.735300  1
  C  C583  1  0.305400  0.994000  0.273900  1
  C  C584  1  0.694600  0.006000  0.726100  1
  C  C585  1  0.360600  0.969500  0.214400  1
  C  C586  1  0.639400  0.030500  0.785600  1
  C  C587  1  0.350500  0.894900  0.145700  1
  C  C588  1  0.649500  0.105100  0.854300  1
  C  C589  1  0.285200  0.844900  0.136500  1
  C  C590  1  0.714800  0.155100  0.863500  1
  C  C591  1  0.264000  0.937200  0.229500  1
  C  C592  1  0.736000  0.062800  0.770500  1
  C  C593  1  0.323900  0.906600  0.175800  1
  C  C594  1  0.676100  0.093400  0.824200  1
  C  C595  1  0.317500  0.827500  0.112900  1
  C  C596  1  0.682500  0.172500  0.887100  1
  C  C597  1  0.251100  0.779000  0.103700  1
  C  C598  1  0.748900  0.221000  0.896300  1
  C  C599  1  0.191200  0.809500  0.157300  1
  C  C600  1  0.808800  0.190500  0.842700  1
  C  C601  1  0.197600  0.888600  0.220200  1
  C  C602  1  0.802400  0.111400  0.779800  1
  C  C603  1  0.218570  0.900530  0.229780  1
  C  C604  1  0.781430  0.099470  0.770220  1
  C  C605  1  0.284330  0.942340  0.222710  1
  C  C606  1  0.715670  0.057660  0.777290  1
  C  C607  1  0.331400  0.905000  0.156600  1
  C  C608  1  0.668600  0.095000  0.843400  1
  C  C609  1  0.312700  0.825900  0.097700  1
  C  C610  1  0.687300  0.174100  0.902300  1
  C  C611  1  0.246900  0.784100  0.104800  1
  C  C612  1  0.753100  0.215900  0.895200  1
  C  C613  1  0.199900  0.821400  0.170800  1
  C  C614  1  0.800100  0.178600  0.829200  1
  C  C615  1  0.288000  0.943000  0.240800  1
  C  C616  1  0.712000  0.057000  0.759200  1
  C  C617  1  0.332300  0.914600  0.172000  1
  C  C618  1  0.667700  0.085400  0.828000  1
  C  C619  1  0.307800  0.844700  0.103400  1
  C  C620  1  0.692200  0.155300  0.896600  1
  C  C621  1  0.239100  0.803200  0.103500  1
  C  C622  1  0.760900  0.196800  0.896500  1
  C  C623  1  0.194900  0.831600  0.172200  1
  C  C624  1  0.805100  0.168400  0.827800  1
  C  C625  1  0.219300  0.901500  0.240900  1
  C  C626  1  0.780700  0.098500  0.759100  1
  C  C627  1  0.293200  0.953700  0.221000  1
  C  C628  1  0.706800  0.046300  0.779000  1
  C  C629  1  0.264400  0.872800  0.185000  1
  C  C630  1  0.735600  0.127200  0.815000  1
  C  C631  1  0.196800  0.851800  0.212500  1
  C  C632  1  0.803200  0.148200  0.787500  1
  C  C633  1  0.158100  0.911800  0.276000  1
  C  C634  1  0.841900  0.088200  0.724000  1
  C  C635  1  0.186900  0.992700  0.312000  1
  C  C636  1  0.813100  0.007300  0.688000  1
  C  C637  1  0.254500  0.013600  0.284500  1
  C  C638  1  0.745500  0.986400  0.715500  1
  C  C639  1  0.468010  0.011130  0.537530  1
  C  C640  1  0.531990  0.988870  0.462470  1
  C  C641  1  0.532450  0.977100  0.491810  1
  C  C642  1  0.467550  0.022900  0.508190  1
  C  C643  1  0.562230  0.009100  0.442110  1
  C  C644  1  0.437770  0.990900  0.557890  1
  C  C645  1  0.527600  0.075200  0.438100  1
  C  C646  1  0.472400  0.924800  0.561900  1
  C  C647  1  0.463100  0.109200  0.483900  1
  C  C648  1  0.536900  0.890800  0.516100  1
  C  C649  1  0.433350  0.077190  0.533560  1
  C  C650  1  0.566650  0.922810  0.466440  1
  C  C651  1  0.461040  0.996550  0.988870  1
  C  C652  1  0.538960  0.003450  0.011130  1
  C  C653  1  0.535350  0.981350  0.006180  1
  C  C654  1  0.464650  0.018650  0.993820  1
  C  C655  1  0.594570  0.040270  0.022420  1
  C  C656  1  0.405430  0.959730  0.977580  1
  C  C657  1  0.579470  0.114400  0.021400  1
  C  C658  1  0.420530  0.885600  0.978600  1
  C  C659  1  0.505150  0.129610  0.004100  1
  C  C660  1  0.494850  0.870390  0.995900  1
  C  C661  1  0.445930  0.070680  0.987830  1
  C  C662  1  0.554070  0.929320  0.012170  1
  C  C663  1  0.396600  0.523600  0.145700  1.0
  C  C664  1  0.603400  0.476400  0.854300  1.0
  C  C665  1  0.371100  0.585000  0.128100  1.0
  C  C666  1  0.628900  0.415000  0.871900  1.0
  C  C667  1  0.310200  0.630800  0.170000  1.0
  C  C668  1  0.689800  0.369200  0.830000  1.0
  C  C669  1  0.275400  0.615200  0.229000  1.0
  C  C670  1  0.724600  0.384800  0.771000  1.0
  C  C671  1  0.304000  0.552000  0.243900  1.0
  C  C672  1  0.696000  0.448000  0.756100  1.0
  C  C673  1  0.211400  0.660300  0.274000  1.0
  C  C674  1  0.788600  0.339700  0.726000  1.0
  C  C675  1  0.159000  0.698900  0.311000  1.0
  C  C676  1  0.841000  0.301100  0.689000  1.0
  C  C677  1  0.097500  0.743000  0.358500  1.0
  C  C678  1  0.902500  0.257000  0.641500  1.0
  C  C679  1  0.048600  0.795000  0.349500  1.0
  C  C680  1  0.951400  0.205000  0.650500  1.0
  C  C681  1  0.992100  0.826100  0.408700  1.0
  C  C682  1  0.007900  0.173900  0.591300  1.0
  C  C683  1  0.003900  0.802100  0.468600  1.0
  C  C684  1  0.996100  0.197900  0.531400  1.0
  C  C685  1  0.962100  0.823600  0.544100  1.0
  C  C686  1  0.037900  0.176400  0.455900  1.0
  C  C687  1  0.931300  0.879500  0.407400  1.0
  C  C688  1  0.068700  0.120500  0.592600  1.0
  C  C689  1  0.948900  0.950900  0.389000  1.0
  C  C690  1  0.051100  0.049100  0.611000  1.0
  C  C691  1  0.877700  0.003600  0.417800  1.0
  C  C692  1  0.122300  0.996400  0.582200  1.0
  C  C693  1  0.813700  0.939400  0.408200  1.0
  C  C694  1  0.186300  0.060600  0.591800  1.0
  C  C695  1  0.854700  0.873700  0.419400  1.0
  C  C696  1  0.145300  0.126300  0.580600  1.0
  C  C697  1  0.868900  0.674000  0.320500  1.0
  C  C698  1  0.131100  0.326000  0.679500  1.0
  C  C699  1  0.824400  0.723400  0.392800  1.0
  C  C700  1  0.175600  0.276600  0.607200  1.0
  C  C701  1  0.817200  0.808000  0.433900  1.0
  C  C702  1  0.182800  0.192000  0.566100  1.0
  C  C703  1  0.763400  0.830500  0.496600  1.0
  C  C704  1  0.236600  0.169500  0.503400  1.0
  C  C705  1  0.734400  0.765600  0.506800  1.0
  C  C706  1  0.265600  0.234400  0.493200  1.0
  C  C707  1  0.682300  0.766200  0.565100  1.0
  C  C708  1  0.317700  0.233800  0.434900  1.0
  C  C709  1  0.639700  0.766000  0.615100  1.0
  C  C710  1  0.360300  0.234000  0.384900  1.0
  C  C711  1  0.610730  0.695800  0.695650  1.0
  C  C712  1  0.389270  0.304200  0.304350  1.0
  C  C713  1  0.596820  0.760900  0.678200  1.0
  C  C714  1  0.403180  0.239100  0.321800  1.0
  C  C715  1  0.543800  0.818700  0.724800  1.0
  C  C716  1  0.456200  0.181300  0.275200  1.0
  C  C717  1  0.524360  0.743800  0.800500  1.0
  C  C718  1  0.475640  0.256200  0.199500  1.0
  C  C719  1  0.544790  0.491180  0.303240  1.0
  C  C720  1  0.455210  0.508820  0.696760  1.0
  C  C721  1  0.595320  0.537300  0.367000  1.0
  C  C722  1  0.404680  0.462700  0.633000  1.0
  C  C723  1  0.567380  0.576530  0.444100  1.0
  C  C724  1  0.432620  0.423470  0.555900  1.0
  C  C725  1  0.488350  0.569760  0.455680  1.0
  C  C726  1  0.511650  0.430240  0.544320  1.0
  C  C727  1  0.441410  0.520730  0.389320  1.0
  C  C728  1  0.558590  0.479270  0.610680  1.0
  C  C729  1  0.452240  0.613380  0.531730  1.0
  C  C730  1  0.547760  0.386620  0.468270  1.0
  C  C731  1  0.413780  0.651010  0.588770  1.0
  C  C732  1  0.586220  0.348990  0.411230  1.0
  C  C733  1  0.366350  0.697660  0.654650  1.0
  C  C734  1  0.633650  0.302340  0.345350  1.0
  C  C735  1  0.335860  0.772480  0.673750  1.0
  C  C736  1  0.664140  0.227520  0.326250  1.0
  C  C737  1  0.287620  0.799610  0.741750  1.0
  C  C738  1  0.712380  0.200390  0.258250  1.0
  C  C739  1  0.284640  0.746150  0.776000  1.0
  C  C740  1  0.715360  0.253850  0.224000  1.0
  C  C741  1  0.242500  0.753200  0.848600  1.0
  C  C742  1  0.757500  0.246800  0.151400  1.0
  C  C743  1  0.246440  0.876240  0.773030  1.0
  C  C744  1  0.753560  0.123760  0.226970  1.0
  C  C745  1  0.286440  0.954510  0.782900  1.0
  C  C746  1  0.713560  0.045490  0.217100  1.0
  C  C747  1  0.235560  0.022700  0.841700  1.0
  C  C748  1  0.764440  0.977300  0.158300  1.0
  C  C749  1  0.155480  0.979100  0.832300  1.0
  C  C750  1  0.844520  0.020900  0.167700  1.0
  C  C751  1  0.172040  0.889200  0.795100  1.0
  C  C752  1  0.827960  0.110800  0.204900  1.0
  C  C753  1  0.138200  0.731400  0.630500  1.0
  C  C754  1  0.861800  0.268600  0.369500  1.0
  C  C755  1  0.095850  0.759400  0.707600  1.0
  C  C756  1  0.904150  0.240600  0.292400  1.0
  C  C757  1  0.109590  0.827600  0.781300  1.0
  C  C758  1  0.890410  0.172400  0.218700  1.0
  C  C759  1  0.054120  0.833800  0.839200  1.0
  C  C760  1  0.945880  0.166200  0.160800  1.0
  C  C761  1  0.999900  0.770600  0.810400  1.0
  C  C762  1  0.000100  0.229400  0.189600  1.0
  C  C763  1  0.933700  0.758000  0.848400  1.0
  C  C764  1  0.066300  0.242000  0.151600  1.0
  C  C765  1  0.875200  0.746500  0.876200  1.0
  C  C766  1  0.124800  0.253500  0.123800  1.0
  C  C767  1  0.747420  0.681000  0.844800  1.0
  C  C768  1  0.252580  0.319000  0.155200  1.0
  C  C769  1  0.801450  0.732000  0.902500  1.0
  C  C770  1  0.198550  0.268000  0.097500  1.0
  C  C771  1  0.507800  0.809400  0.786200  1.0
  C  C772  1  0.492200  0.190600  0.213800  1.0
  C  C773  1  0.781000  0.767100  0.983200  1.0
  C  C774  1  0.219000  0.232900  0.016800  1.0
  C  C775  1  0.707800  0.750900  0.003000  1.0
  C  C776  1  0.292200  0.249100  0.997000  1.0
  C  C777  1  0.656610  0.700880  0.942190  1.0
  C  C778  1  0.343390  0.299120  0.057810  1.0
  S  S779  1  0.094770  0.720100  0.416330  1
  S  S780  1  0.905230  0.279900  0.583670  1
  S  S781  1  0.080780  0.738870  0.447600  1.0
  S  S782  1  0.919220  0.261130  0.552400  1.0
  S  S783  1  0.769200  0.674070  0.435860  1.0
  S  S784  1  0.230800  0.325930  0.564140  1.0
  S  S785  1  0.338530  0.661810  0.722590  1.0
  S  S786  1  0.661470  0.338190  0.277410  1.0
  S  S787  1  0.015550  0.703920  0.710630  1.0
  S  S788  1  0.984450  0.296080  0.289370  1.0
  N  N789  1  0.372900  0.492500  0.195400  1
  N  N790  1  0.627100  0.507500  0.804600  1
  N  N791  1  0.363000  0.507400  0.202700  1.0
  N  N792  1  0.637000  0.492600  0.797300  1.0
  N  N793  1  0.574990  0.687040  0.754880  1.0
  N  N794  1  0.425010  0.312960  0.245120  1.0
  N  N795  1  0.469270  0.482530  0.314960  1.0
  N  N796  1  0.530730  0.517470  0.685040  1.0
  N  N797  1  0.676500  0.666380  0.864970  1.0
  N  N798  1  0.323500  0.333620  0.135030  1.0
  Cl  Cl799  1  0.186780  0.952850  0.046410  1
  Cl  Cl800  1  0.813220  0.047150  0.953590  1
  Cl  Cl801  1  0.294560  0.110330  0.121570  1
  Cl  Cl802  1  0.705440  0.889670  0.878430  1
  Cl  Cl803  1  0.402760  0.418630  0.853580  1
  Cl  Cl804  1  0.597240  0.581370  0.146420  1
  Cl  Cl805  1  0.320810  0.268330  0.711840  1
  Cl  Cl806  1  0.679190  0.731670  0.288160  1
  Cl  Cl807  1  0.326480  0.703300  0.441200  1
  Cl  Cl808  1  0.673520  0.296700  0.558800  1
  Cl  Cl809  1  0.473550  0.677120  0.338100  1
  Cl  Cl810  1  0.526450  0.322880  0.661900  1
  Cl  Cl811  1  0.186130  0.206400  0.282420  1
  Cl  Cl812  1  0.813870  0.793600  0.717580  1
  Cl  Cl813  1  0.296100  0.127400  0.137600  1
  Cl  Cl814  1  0.703900  0.872600  0.862400  1
  Cl  Cl815  1  0.366300  0.385500  0.810100  1
  Cl  Cl816  1  0.633700  0.614500  0.189900  1
  Cl  Cl817  1  0.454200  0.366200  0.946700  1
  Cl  Cl818  1  0.545800  0.633800  0.053300  1
  Cl  Cl819  1  0.430900  0.426200  0.932400  1
  Cl  Cl820  1  0.569100  0.573800  0.067600  1
  Cl  Cl821  1  0.335800  0.370000  0.772700  1
  Cl  Cl822  1  0.664200  0.630000  0.227300  1
  Cl  Cl823  1  0.418910  0.834400  0.300830  1
  Cl  Cl824  1  0.581090  0.165600  0.699170  1
  Cl  Cl825  1  0.476200  0.693400  0.337000  1
  Cl  Cl826  1  0.523800  0.306600  0.663000  1
  Cl  Cl827  1  0.983700  0.750900  0.032800  1
  Cl  Cl828  1  0.016300  0.249100  0.967200  1
  Cl  Cl829  1  0.889700  0.784300  0.186020  1
  Cl  Cl830  1  0.110300  0.215700  0.813980  1
  Cl  Cl831  1  0.971800  0.816300  0.081300  1
  Cl  Cl832  1  0.028200  0.183700  0.918700  1
  Cl  Cl833  1  0.853300  0.742700  0.159090  1
  Cl  Cl834  1  0.146700  0.257300  0.840910  1
  Cl  Cl835  1  0.955500  0.397700  0.876100  1
  Cl  Cl836  1  0.044500  0.602300  0.123900  1
  Cl  Cl837  1  0.869700  0.557640  0.909500  1
  Cl  Cl838  1  0.130300  0.442360  0.090500  1
  Cl  Cl839  1  0.983000  0.839700  0.073200  1
  Cl  Cl840  1  0.017000  0.160300  0.926800  1
  Cl  Cl841  1  0.916400  0.713400  0.129300  1
  Cl  Cl842  1  0.083600  0.286600  0.870700  1
  Cl  Cl843  1  0.833000  0.562700  0.936900  1
  Cl  Cl844  1  0.167000  0.437300  0.063100  1
  Cl  Cl845  1  0.776600  0.640800  0.113500  1
  Cl  Cl846  1  0.223400  0.359200  0.886500  1
  Cl  Cl847  1  0.878600  0.539900  0.870600  1
  Cl  Cl848  1  0.121400  0.460100  0.129400  1
  Cl  Cl849  1  0.959300  0.387800  0.867600  1
  Cl  Cl850  1  0.040700  0.612200  0.132400  1
  Cl  Cl851  1  0.982200  0.582100  0.126400  1
  Cl  Cl852  1  0.017800  0.417900  0.873600  1
  Cl  Cl853  1  0.893900  0.737000  0.147400  1
  Cl  Cl854  1  0.106100  0.263000  0.852600  1
  Cl  Cl855  1  0.072210  0.579800  0.838940  1
  Cl  Cl856  1  0.927790  0.420200  0.161060  1
  Cl  Cl857  1  0.918520  0.508440  0.741020  1
  Cl  Cl858  1  0.081480  0.491560  0.258980  1
  Cl  Cl859  1  0.198500  0.521400  0.606800  1
  Cl  Cl860  1  0.801500  0.478600  0.393200  1
  Cl  Cl861  1  0.188600  0.543400  0.782300  1
  Cl  Cl862  1  0.811400  0.456600  0.217700  1
  Cl  Cl863  1  0.045900  0.532100  0.818700  1
  Cl  Cl864  1  0.954100  0.467900  0.181300  1
  Cl  Cl865  1  0.204670  0.533040  0.741120  1
  Cl  Cl866  1  0.795330  0.466960  0.258880  1
  Cl  Cl867  1  0.088800  0.562800  0.829500  1
  Cl  Cl868  1  0.911200  0.437200  0.170500  1
  Cl  Cl869  1  0.195100  0.533600  0.685300  1
  Cl  Cl870  1  0.804900  0.466400  0.314700  1
  Cl  Cl871  1  0.409600  0.407300  0.894400  1
  Cl  Cl872  1  0.590400  0.592700  0.105600  1
  Cl  Cl873  1  0.290000  0.290200  0.765000  1
  Cl  Cl874  1  0.710000  0.709800  0.235000  1
  Cl  Cl875  1  0.426600  0.137200  0.814100  1
  Cl  Cl876  1  0.573400  0.862800  0.185900  1
  Cl  Cl877  1  0.486000  0.314900  0.930600  1
  Cl  Cl878  1  0.514000  0.685100  0.069400  1
  Cl  Cl879  1  0.148930  0.807460  0.184600  1
  Cl  Cl880  1  0.851070  0.192540  0.815400  1
  Cl  Cl881  1  0.171600  0.974500  0.338500  1
  Cl  Cl882  1  0.828400  0.025500  0.661500  1
  Cl  Cl883  1  0.272000  0.035400  0.307500  1
  Cl  Cl884  1  0.728000  0.964600  0.692500  1
  Cl  Cl885  1  0.406300  0.966900  0.187300  1
  Cl  Cl886  1  0.593700  0.033100  0.812700  1
  Cl  Cl887  1  0.160170  0.946850  0.311770  1
  Cl  Cl888  1  0.839830  0.053150  0.688230  1
  Cl  Cl889  1  0.307530  0.040510  0.295900  1
  Cl  Cl890  1  0.692470  0.959490  0.704100  1
  Cl  Cl891  1  0.318400  0.029700  0.325900  1
  Cl  Cl892  1  0.681600  0.970300  0.674100  1
  Cl  Cl893  1  0.417500  0.966000  0.171900  1
  Cl  Cl894  1  0.582500  0.034000  0.828100  1
  Cl  Cl895  1  0.377100  0.979700  0.186900  1
  Cl  Cl896  1  0.622900  0.020300  0.813100  1
  Cl  Cl897  1  0.312500  0.798400  0.106200  1
  Cl  Cl898  1  0.687500  0.201600  0.893800  1
  Cl  Cl899  1  0.431060  0.971370  0.599200  1
  Cl  Cl900  1  0.568940  0.028630  0.400800  1
  Cl  Cl901  1  0.575490  0.895110  0.496720  1
  Cl  Cl902  1  0.424510  0.104890  0.503280  1
  Cl  Cl903  1  0.387550  0.923420  0.968710  1
  Cl  Cl904  1  0.612450  0.076580  0.031290  1
  Cl  Cl905  1  0.554110  0.889350  0.007480  1
  Cl  Cl906  1  0.445890  0.110650  0.992520  1
  F  F907  1  0.523220  0.388260  0.098750  1
  F  F908  1  0.476780  0.611740  0.901250  1
  F  F909  1  0.598020  0.279810  0.067100  1
  F  F910  1  0.401980  0.720190  0.932900  1
  F  F911  1  0.619930  0.363750  0.009510  1
  F  F912  1  0.380070  0.636250  0.990490  1
  F  F913  1  0.647110  0.411890  0.144340  1
  F  F914  1  0.352890  0.588110  0.855660  1
  F  F915  1  0.262890  0.448110  0.340180  1
  F  F916  1  0.737110  0.551890  0.659820  1
  F  F917  1  0.288220  0.443580  0.458010  1
  F  F918  1  0.711780  0.556420  0.541990  1
  F  F919  1  0.202230  0.533260  0.454880  1
  F  F920  1  0.797770  0.466740  0.545120  1
  F  F921  1  0.170630  0.397900  0.392640  1
  F  F922  1  0.829370  0.602100  0.607360  1
  F  F923  1  0.975500  0.897500  0.282600  1
  F  F924  1  0.024500  0.102500  0.717400  1
  F  F925  1  0.006500  0.980400  0.403700  1
  F  F926  1  0.993500  0.019600  0.596300  1
  F  F927  1  0.834000  0.925600  0.292100  1
  F  F928  1  0.166000  0.074400  0.707900  1
  F  F929  1  0.874000  0.043800  0.389600  1
  F  F930  1  0.126000  0.956200  0.610400  1
  F  F931  1  0.749400  0.927300  0.403900  1
  F  F932  1  0.250600  0.072700  0.596100  1
  F  F933  1  0.834100  0.995700  0.497900  1
  F  F934  1  0.165900  0.004300  0.502100  1
  F  F935  1  0.528910  0.341800  0.105060  1
  F  F936  1  0.471090  0.658200  0.894940  1
  F  F937  1  0.650690  0.397320  0.142920  1
  F  F938  1  0.349310  0.602680  0.857080  1
  F  F939  1  0.587300  0.413270  0.043430  1
  F  F940  1  0.412700  0.586730  0.956570  1
  F  F941  1  0.631020  0.289180  0.024040  1
  F  F942  1  0.368980  0.710820  0.975960  1
  F  F943  1  0.266790  0.458900  0.345580  1
  F  F944  1  0.733210  0.541100  0.654420  1
  F  F945  1  0.283910  0.431590  0.451270  1
  F  F946  1  0.716090  0.568410  0.548730  1
  F  F947  1  0.174030  0.496390  0.439660  1
  F  F948  1  0.825970  0.503610  0.560340  1
  F  F949  1  0.190250  0.362880  0.360080  1
  F  F950  1  0.809750  0.637120  0.639920  1
  F  F951  1  0.958700  0.926700  0.309100  1.0
  F  F952  1  0.041300  0.073300  0.690900  1.0
  F  F953  1  0.012800  0.994500  0.427700  1.0
  F  F954  1  0.987200  0.005500  0.572300  1.0
  F  F955  1  0.863200  0.046500  0.375600  1.0
  F  F956  1  0.136800  0.953500  0.624400  1.0
  F  F957  1  0.888300  0.056700  0.494800  1.0
  F  F958  1  0.111700  0.943300  0.505200  1.0
  F  F959  1  0.778730  0.911000  0.335600  1.0
  F  F960  1  0.221270  0.089000  0.664400  1.0
  F  F961  1  0.758300  0.975200  0.463000  1.0
  F  F962  1  0.241700  0.024800  0.537000  1.0
  F  F963  1  0.289810  0.958920  0.712030  1.0
  F  F964  1  0.710190  0.041080  0.287970  1.0
  F  F965  1  0.360350  0.963850  0.810870  1.0
  F  F966  1  0.639650  0.036150  0.189130  1.0
  F  F967  1  0.234150  0.088930  0.828400  1.0
  F  F968  1  0.765850  0.911070  0.171600  1.0
  F  F969  1  0.262920  0.046960  0.917280  1.0
  F  F970  1  0.737080  0.953040  0.082720  1.0
  F  F971  1  0.108400  0.997080  0.784820  1.0
  F  F972  1  0.891600  0.002920  0.215180  1.0
  F  F973  1  0.120430  0.006410  0.904050  1.0
  F  F974  1  0.879570  0.993590  0.095950  1.0
