# generated using pymatgen
data_H106Pd5C108N16(Cl2O13)2
_symmetry_space_group_name_H-M   'P 1'
_cell_length_a   27.41800000
_cell_length_b   37.42100000
_cell_length_c   37.42100000
_cell_angle_alpha   120.00000000
_cell_angle_beta   90.00000000
_cell_angle_gamma   90.00000000
_symmetry_Int_Tables_number   1
_chemical_formula_structural   H106Pd5C108N16(Cl2O13)2
_chemical_formula_sum   'H636 Pd30 C648 N96 Cl24 O156'
_cell_volume   33250.42354239
_cell_formula_units_Z   6
loop_
 _symmetry_equiv_pos_site_id
 _symmetry_equiv_pos_as_xyz
  1  'x, y, z'
loop_
 _atom_site_type_symbol
 _atom_site_label
 _atom_site_symmetry_multiplicity
 _atom_site_fract_x
 _atom_site_fract_y
 _atom_site_fract_z
 _atom_site_occupancy
  H  H1  1  0.664700  0.478000  0.831100  1.0
  H  H2  1  0.664700  0.353100  0.522000  1.0
  H  H3  1  0.664700  0.168900  0.646900  1.0
  H  H4  1  0.335300  0.831100  0.478000  1.0
  H  H5  1  0.335300  0.522000  0.353100  1.0
  H  H6  1  0.335300  0.646900  0.168900  1.0
  H  H7  1  0.664700  0.646900  0.168900  1.0
  H  H8  1  0.664700  0.522000  0.353100  1.0
  H  H9  1  0.664700  0.831100  0.478000  1.0
  H  H10  1  0.335300  0.478000  0.831100  1.0
  H  H11  1  0.335300  0.168900  0.646900  1.0
  H  H12  1  0.335300  0.353100  0.522000  1.0
  H  H13  1  0.622100  0.501400  0.823500  1.0
  H  H14  1  0.622100  0.322100  0.498600  1.0
  H  H15  1  0.622100  0.176500  0.677900  1.0
  H  H16  1  0.377900  0.823500  0.501400  1.0
  H  H17  1  0.377900  0.498600  0.322100  1.0
  H  H18  1  0.377900  0.677900  0.176500  1.0
  H  H19  1  0.622100  0.677900  0.176500  1.0
  H  H20  1  0.622100  0.498600  0.322100  1.0
  H  H21  1  0.622100  0.823500  0.501400  1.0
  H  H22  1  0.377900  0.501400  0.823500  1.0
  H  H23  1  0.377900  0.176500  0.677900  1.0
  H  H24  1  0.377900  0.322100  0.498600  1.0
  H  H25  1  0.610500  0.464800  0.831300  1.0
  H  H26  1  0.610500  0.366500  0.535200  1.0
  H  H27  1  0.610500  0.168700  0.633500  1.0
  H  H28  1  0.389500  0.831300  0.464800  1.0
  H  H29  1  0.389500  0.535200  0.366500  1.0
  H  H30  1  0.389500  0.633500  0.168700  1.0
  H  H31  1  0.610500  0.633500  0.168700  1.0
  H  H32  1  0.610500  0.535200  0.366500  1.0
  H  H33  1  0.610500  0.831300  0.464800  1.0
  H  H34  1  0.389500  0.464800  0.831300  1.0
  H  H35  1  0.389500  0.168700  0.633500  1.0
  H  H36  1  0.389500  0.366500  0.535200  1.0
  H  H37  1  0.731500  0.032500  0.881400  1.0
  H  H38  1  0.731500  0.848900  0.967500  1.0
  H  H39  1  0.731500  0.118600  0.151100  1.0
  H  H40  1  0.268500  0.881400  0.032500  1.0
  H  H41  1  0.268500  0.967500  0.848900  1.0
  H  H42  1  0.268500  0.151100  0.118600  1.0
  H  H43  1  0.731500  0.151100  0.118600  1.0
  H  H44  1  0.731500  0.967500  0.848900  1.0
  H  H45  1  0.731500  0.881400  0.032500  1.0
  H  H46  1  0.268500  0.032500  0.881400  1.0
  H  H47  1  0.268500  0.118600  0.151100  1.0
  H  H48  1  0.268500  0.848900  0.967500  1.0
  H  H49  1  0.719900  0.068100  0.926200  1.0
  H  H50  1  0.719900  0.858100  0.931900  1.0
  H  H51  1  0.719900  0.073800  0.141900  1.0
  H  H52  1  0.280100  0.926200  0.068100  1.0
  H  H53  1  0.280100  0.931900  0.858100  1.0
  H  H54  1  0.280100  0.141900  0.073800  1.0
  H  H55  1  0.719900  0.141900  0.073800  1.0
  H  H56  1  0.719900  0.931900  0.858100  1.0
  H  H57  1  0.719900  0.926200  0.068100  1.0
  H  H58  1  0.280100  0.068100  0.926200  1.0
  H  H59  1  0.280100  0.073800  0.141900  1.0
  H  H60  1  0.280100  0.858100  0.931900  1.0
  H  H61  1  0.765400  0.182800  0.965600  1.0
  H  H62  1  0.765400  0.782800  0.817200  1.0
  H  H63  1  0.765400  0.034400  0.217200  1.0
  H  H64  1  0.234600  0.965600  0.182800  1.0
  H  H65  1  0.234600  0.817200  0.782800  1.0
  H  H66  1  0.234600  0.217200  0.034400  1.0
  H  H67  1  0.765400  0.217200  0.034400  1.0
  H  H68  1  0.765400  0.817200  0.782800  1.0
  H  H69  1  0.765400  0.965600  0.182800  1.0
  H  H70  1  0.234600  0.182800  0.965600  1.0
  H  H71  1  0.234600  0.034400  0.217200  1.0
  H  H72  1  0.234600  0.782800  0.817200  1.0
  H  H73  1  0.792300  0.232800  0.925900  1.0
  H  H74  1  0.792300  0.693100  0.767200  1.0
  H  H75  1  0.792300  0.074100  0.306900  1.0
  H  H76  1  0.207700  0.925900  0.232800  1.0
  H  H77  1  0.207700  0.767200  0.693100  1.0
  H  H78  1  0.207700  0.306900  0.074100  1.0
  H  H79  1  0.792300  0.306900  0.074100  1.0
  H  H80  1  0.792300  0.767200  0.693100  1.0
  H  H81  1  0.792300  0.925900  0.232800  1.0
  H  H82  1  0.207700  0.232800  0.925900  1.0
  H  H83  1  0.207700  0.074100  0.306900  1.0
  H  H84  1  0.207700  0.693100  0.767200  1.0
  H  H85  1  0.812800  0.083500  0.968100  1.0
  H  H86  1  0.812800  0.884600  0.916500  1.0
  H  H87  1  0.812800  0.031900  0.115400  1.0
  H  H88  1  0.187200  0.968100  0.083500  1.0
  H  H89  1  0.187200  0.916500  0.884600  1.0
  H  H90  1  0.187200  0.115400  0.031900  1.0
  H  H91  1  0.812800  0.115400  0.031900  1.0
  H  H92  1  0.812800  0.916500  0.884600  1.0
  H  H93  1  0.812800  0.968100  0.083500  1.0
  H  H94  1  0.187200  0.083500  0.968100  1.0
  H  H95  1  0.187200  0.031900  0.115400  1.0
  H  H96  1  0.187200  0.884600  0.916500  1.0
  H  H97  1  0.821500  0.378500  0.877900  1.0
  H  H98  1  0.821500  0.499400  0.621500  1.0
  H  H99  1  0.821500  0.122100  0.500600  1.0
  H  H100  1  0.178500  0.877900  0.378500  1.0
  H  H101  1  0.178500  0.621500  0.499400  1.0
  H  H102  1  0.178500  0.500600  0.122100  1.0
  H  H103  1  0.821500  0.500600  0.122100  1.0
  H  H104  1  0.821500  0.621500  0.499400  1.0
  H  H105  1  0.821500  0.877900  0.378500  1.0
  H  H106  1  0.178500  0.378500  0.877900  1.0
  H  H107  1  0.178500  0.122100  0.500600  1.0
  H  H108  1  0.178500  0.499400  0.621500  1.0
  H  H109  1  0.785600  0.601200  0.905800  1.0
  H  H110  1  0.785600  0.304600  0.398800  1.0
  H  H111  1  0.785600  0.094200  0.695400  1.0
  H  H112  1  0.214400  0.905800  0.601200  1.0
  H  H113  1  0.214400  0.398800  0.304600  1.0
  H  H114  1  0.214400  0.695400  0.094200  1.0
  H  H115  1  0.785600  0.695400  0.094200  1.0
  H  H116  1  0.785600  0.398800  0.304600  1.0
  H  H117  1  0.785600  0.905800  0.601200  1.0
  H  H118  1  0.214400  0.601200  0.905800  1.0
  H  H119  1  0.214400  0.094200  0.695400  1.0
  H  H120  1  0.214400  0.304600  0.398800  1.0
  H  H121  1  0.780300  0.642100  0.904300  1.0
  H  H122  1  0.780300  0.262200  0.357900  1.0
  H  H123  1  0.780300  0.095700  0.737800  1.0
  H  H124  1  0.219700  0.904300  0.642100  1.0
  H  H125  1  0.219700  0.357900  0.262200  1.0
  H  H126  1  0.219700  0.737800  0.095700  1.0
  H  H127  1  0.780300  0.737800  0.095700  1.0
  H  H128  1  0.780300  0.357900  0.262200  1.0
  H  H129  1  0.780300  0.904300  0.642100  1.0
  H  H130  1  0.219700  0.642100  0.904300  1.0
  H  H131  1  0.219700  0.095700  0.737800  1.0
  H  H132  1  0.219700  0.262200  0.357900  1.0
  H  H133  1  0.958100  0.215700  0.884700  1.0
  H  H134  1  0.958100  0.669000  0.784300  1.0
  H  H135  1  0.958100  0.115300  0.331000  1.0
  H  H136  1  0.041900  0.884700  0.215700  1.0
  H  H137  1  0.041900  0.784300  0.669000  1.0
  H  H138  1  0.041900  0.331000  0.115300  1.0
  H  H139  1  0.958100  0.331000  0.115300  1.0
  H  H140  1  0.958100  0.784300  0.669000  1.0
  H  H141  1  0.958100  0.884700  0.215700  1.0
  H  H142  1  0.041900  0.215700  0.884700  1.0
  H  H143  1  0.041900  0.115300  0.331000  1.0
  H  H144  1  0.041900  0.669000  0.784300  1.0
  H  H145  1  0.660700  0.042800  0.857400  1.0
  H  H146  1  0.660700  0.814600  0.957200  1.0
  H  H147  1  0.660700  0.142600  0.185400  1.0
  H  H148  1  0.339300  0.857400  0.042800  1.0
  H  H149  1  0.339300  0.957200  0.814600  1.0
  H  H150  1  0.339300  0.185400  0.142600  1.0
  H  H151  1  0.660700  0.185400  0.142600  1.0
  H  H152  1  0.660700  0.957200  0.814600  1.0
  H  H153  1  0.660700  0.857400  0.042800  1.0
  H  H154  1  0.339300  0.042800  0.857400  1.0
  H  H155  1  0.339300  0.142600  0.185400  1.0
  H  H156  1  0.339300  0.814600  0.957200  1.0
  H  H157  1  0.648600  0.039600  0.896800  1.0
  H  H158  1  0.648600  0.857200  0.960400  1.0
  H  H159  1  0.648600  0.103200  0.142800  1.0
  H  H160  1  0.351400  0.896800  0.039600  1.0
  H  H161  1  0.351400  0.960400  0.857200  1.0
  H  H162  1  0.351400  0.142800  0.103200  1.0
  H  H163  1  0.648600  0.142800  0.103200  1.0
  H  H164  1  0.648600  0.960400  0.857200  1.0
  H  H165  1  0.648600  0.896800  0.039600  1.0
  H  H166  1  0.351400  0.039600  0.896800  1.0
  H  H167  1  0.351400  0.103200  0.142800  1.0
  H  H168  1  0.351400  0.857200  0.960400  1.0
  H  H169  1  0.806100  0.123100  0.901300  1.0
  H  H170  1  0.806100  0.778200  0.876900  1.0
  H  H171  1  0.806100  0.098700  0.221800  1.0
  H  H172  1  0.193900  0.901300  0.123100  1.0
  H  H173  1  0.193900  0.876900  0.778200  1.0
  H  H174  1  0.193900  0.221800  0.098700  1.0
  H  H175  1  0.806100  0.221800  0.098700  1.0
  H  H176  1  0.806100  0.876900  0.778200  1.0
  H  H177  1  0.806100  0.901300  0.123100  1.0
  H  H178  1  0.193900  0.123100  0.901300  1.0
  H  H179  1  0.193900  0.098700  0.221800  1.0
  H  H180  1  0.193900  0.778200  0.876900  1.0
  H  H181  1  0.813600  0.081700  0.901500  1.0
  H  H182  1  0.813600  0.819800  0.918300  1.0
  H  H183  1  0.813600  0.098500  0.180200  1.0
  H  H184  1  0.186400  0.901500  0.081700  1.0
  H  H185  1  0.186400  0.918300  0.819800  1.0
  H  H186  1  0.186400  0.180200  0.098500  1.0
  H  H187  1  0.813600  0.180200  0.098500  1.0
  H  H188  1  0.813600  0.918300  0.819800  1.0
  H  H189  1  0.813600  0.901500  0.081700  1.0
  H  H190  1  0.186400  0.081700  0.901500  1.0
  H  H191  1  0.186400  0.098500  0.180200  1.0
  H  H192  1  0.186400  0.819800  0.918300  1.0
  H  H193  1  0.883100  0.214300  0.816500  1.0
  H  H194  1  0.883100  0.602200  0.785700  1.0
  H  H195  1  0.883100  0.183500  0.397800  1.0
  H  H196  1  0.116900  0.816500  0.214300  1.0
  H  H197  1  0.116900  0.785700  0.602200  1.0
  H  H198  1  0.116900  0.397800  0.183500  1.0
  H  H199  1  0.883100  0.397800  0.183500  1.0
  H  H200  1  0.883100  0.785700  0.602200  1.0
  H  H201  1  0.883100  0.816500  0.214300  1.0
  H  H202  1  0.116900  0.214300  0.816500  1.0
  H  H203  1  0.116900  0.183500  0.397800  1.0
  H  H204  1  0.116900  0.602200  0.785700  1.0
  H  H205  1  0.884000  0.414100  0.817200  1.0
  H  H206  1  0.884000  0.403100  0.585900  1.0
  H  H207  1  0.884000  0.182800  0.596900  1.0
  H  H208  1  0.116000  0.817200  0.414100  1.0
  H  H209  1  0.116000  0.585900  0.403100  1.0
  H  H210  1  0.116000  0.596900  0.182800  1.0
  H  H211  1  0.884000  0.596900  0.182800  1.0
  H  H212  1  0.884000  0.585900  0.403100  1.0
  H  H213  1  0.884000  0.817200  0.414100  1.0
  H  H214  1  0.116000  0.414100  0.817200  1.0
  H  H215  1  0.116000  0.182800  0.596900  1.0
  H  H216  1  0.116000  0.403100  0.585900  1.0
  H  H217  1  0.849700  0.279500  0.938700  1.0
  H  H218  1  0.849700  0.659200  0.720500  1.0
  H  H219  1  0.849700  0.061300  0.340800  1.0
  H  H220  1  0.150300  0.938700  0.279500  1.0
  H  H221  1  0.150300  0.720500  0.659200  1.0
  H  H222  1  0.150300  0.340800  0.061300  1.0
  H  H223  1  0.849700  0.340800  0.061300  1.0
  H  H224  1  0.849700  0.720500  0.659200  1.0
  H  H225  1  0.849700  0.938700  0.279500  1.0
  H  H226  1  0.150300  0.279500  0.938700  1.0
  H  H227  1  0.150300  0.061300  0.340800  1.0
  H  H228  1  0.150300  0.659200  0.720500  1.0
  H  H229  1  0.819700  0.170400  0.809900  1.0
  H  H230  1  0.819700  0.639500  0.829600  1.0
  H  H231  1  0.819700  0.190100  0.360500  1.0
  H  H232  1  0.180300  0.809900  0.170400  1.0
  H  H233  1  0.180300  0.829600  0.639500  1.0
  H  H234  1  0.180300  0.360500  0.190100  1.0
  H  H235  1  0.819700  0.360500  0.190100  1.0
  H  H236  1  0.819700  0.829600  0.639500  1.0
  H  H237  1  0.819700  0.809900  0.170400  1.0
  H  H238  1  0.180300  0.170400  0.809900  1.0
  H  H239  1  0.180300  0.190100  0.360500  1.0
  H  H240  1  0.180300  0.639500  0.829600  1.0
  H  H241  1  0.578600  0.156600  0.926600  1.0
  H  H242  1  0.578600  0.770000  0.843400  1.0
  H  H243  1  0.578600  0.073400  0.230000  1.0
  H  H244  1  0.421400  0.926600  0.156600  1.0
  H  H245  1  0.421400  0.843400  0.770000  1.0
  H  H246  1  0.421400  0.230000  0.073400  1.0
  H  H247  1  0.578600  0.230000  0.073400  1.0
  H  H248  1  0.578600  0.843400  0.770000  1.0
  H  H249  1  0.578600  0.926600  0.156600  1.0
  H  H250  1  0.421400  0.156600  0.926600  1.0
  H  H251  1  0.421400  0.073400  0.230000  1.0
  H  H252  1  0.421400  0.770000  0.843400  1.0
  H  H253  1  0.558700  0.140900  0.882000  1.0
  H  H254  1  0.558700  0.741100  0.859100  1.0
  H  H255  1  0.558700  0.118000  0.258900  1.0
  H  H256  1  0.441300  0.882000  0.140900  1.0
  H  H257  1  0.441300  0.859100  0.741100  1.0
  H  H258  1  0.441300  0.258900  0.118000  1.0
  H  H259  1  0.558700  0.258900  0.118000  1.0
  H  H260  1  0.558700  0.859100  0.741100  1.0
  H  H261  1  0.558700  0.882000  0.140900  1.0
  H  H262  1  0.441300  0.140900  0.882000  1.0
  H  H263  1  0.441300  0.118000  0.258900  1.0
  H  H264  1  0.441300  0.741100  0.859100  1.0
  H  H265  1  0.955700  0.477200  0.877200  1.0
  H  H266  1  0.955700  0.400000  0.522800  1.0
  H  H267  1  0.955700  0.122800  0.600000  1.0
  H  H268  1  0.044300  0.877200  0.477200  1.0
  H  H269  1  0.044300  0.522800  0.400000  1.0
  H  H270  1  0.044300  0.600000  0.122800  1.0
  H  H271  1  0.955700  0.600000  0.122800  1.0
  H  H272  1  0.955700  0.522800  0.400000  1.0
  H  H273  1  0.955700  0.877200  0.477200  1.0
  H  H274  1  0.044300  0.477200  0.877200  1.0
  H  H275  1  0.044300  0.122800  0.600000  1.0
  H  H276  1  0.044300  0.400000  0.522800  1.0
  H  H277  1  0.599000  0.078900  0.857000  1.0
  H  H278  1  0.599000  0.778100  0.921100  1.0
  H  H279  1  0.599000  0.143000  0.221900  1.0
  H  H280  1  0.401000  0.857000  0.078900  1.0
  H  H281  1  0.401000  0.921100  0.778100  1.0
  H  H282  1  0.401000  0.221900  0.143000  1.0
  H  H283  1  0.599000  0.221900  0.143000  1.0
  H  H284  1  0.599000  0.921100  0.778100  1.0
  H  H285  1  0.599000  0.857000  0.078900  1.0
  H  H286  1  0.401000  0.078900  0.857000  1.0
  H  H287  1  0.401000  0.143000  0.221900  1.0
  H  H288  1  0.401000  0.778100  0.921100  1.0
  H  H289  1  0.571400  0.086500  0.897100  1.0
  H  H290  1  0.571400  0.810600  0.913500  1.0
  H  H291  1  0.571400  0.102900  0.189400  1.0
  H  H292  1  0.428600  0.897100  0.086500  1.0
  H  H293  1  0.428600  0.913500  0.810600  1.0
  H  H294  1  0.428600  0.189400  0.102900  1.0
  H  H295  1  0.571400  0.189400  0.102900  1.0
  H  H296  1  0.571400  0.913500  0.810600  1.0
  H  H297  1  0.571400  0.897100  0.086500  1.0
  H  H298  1  0.428600  0.086500  0.897100  1.0
  H  H299  1  0.428600  0.102900  0.189400  1.0
  H  H300  1  0.428600  0.810600  0.913500  1.0
  H  H301  1  0.732500  0.056100  0.828000  1.0
  H  H302  1  0.732500  0.771900  0.943900  1.0
  H  H303  1  0.732500  0.172000  0.228100  1.0
  H  H304  1  0.267500  0.828000  0.056100  1.0
  H  H305  1  0.267500  0.943900  0.771900  1.0
  H  H306  1  0.267500  0.228100  0.172000  1.0
  H  H307  1  0.732500  0.228100  0.172000  1.0
  H  H308  1  0.732500  0.943900  0.771900  1.0
  H  H309  1  0.732500  0.828000  0.056100  1.0
  H  H310  1  0.267500  0.056100  0.828000  1.0
  H  H311  1  0.267500  0.172000  0.228100  1.0
  H  H312  1  0.267500  0.771900  0.943900  1.0
  H  H313  1  0.782500  0.045800  0.841100  1.0
  H  H314  1  0.782500  0.795300  0.954200  1.0
  H  H315  1  0.782500  0.158900  0.204700  1.0
  H  H316  1  0.217500  0.841100  0.045800  1.0
  H  H317  1  0.217500  0.954200  0.795300  1.0
  H  H318  1  0.217500  0.204700  0.158900  1.0
  H  H319  1  0.782500  0.204700  0.158900  1.0
  H  H320  1  0.782500  0.954200  0.795300  1.0
  H  H321  1  0.782500  0.841100  0.045800  1.0
  H  H322  1  0.217500  0.045800  0.841100  1.0
  H  H323  1  0.217500  0.158900  0.204700  1.0
  H  H324  1  0.217500  0.795300  0.954200  1.0
  H  H325  1  0.776700  0.086400  0.839000  1.0
  H  H326  1  0.776700  0.752600  0.913600  1.0
  H  H327  1  0.776700  0.161000  0.247400  1.0
  H  H328  1  0.223300  0.839000  0.086400  1.0
  H  H329  1  0.223300  0.913600  0.752600  1.0
  H  H330  1  0.223300  0.247400  0.161000  1.0
  H  H331  1  0.776700  0.247400  0.161000  1.0
  H  H332  1  0.776700  0.913600  0.752600  1.0
  H  H333  1  0.776700  0.839000  0.086400  1.0
  H  H334  1  0.223300  0.086400  0.839000  1.0
  H  H335  1  0.223300  0.161000  0.247400  1.0
  H  H336  1  0.223300  0.752600  0.913600  1.0
  H  H337  1  0.744000  0.563800  0.837100  1.0
  H  H338  1  0.744000  0.273300  0.436200  1.0
  H  H339  1  0.744000  0.162900  0.726700  1.0
  H  H340  1  0.256000  0.837100  0.563800  1.0
  H  H341  1  0.256000  0.436200  0.273300  1.0
  H  H342  1  0.256000  0.726700  0.162900  1.0
  H  H343  1  0.744000  0.726700  0.162900  1.0
  H  H344  1  0.744000  0.436200  0.273300  1.0
  H  H345  1  0.744000  0.837100  0.563800  1.0
  H  H346  1  0.256000  0.563800  0.837100  1.0
  H  H347  1  0.256000  0.162900  0.726700  1.0
  H  H348  1  0.256000  0.273300  0.436200  1.0
  H  H349  1  0.743200  0.606800  0.839300  1.0
  H  H350  1  0.743200  0.232500  0.393200  1.0
  H  H351  1  0.743200  0.160700  0.767500  1.0
  H  H352  1  0.256800  0.839300  0.606800  1.0
  H  H353  1  0.256800  0.393200  0.232500  1.0
  H  H354  1  0.256800  0.767500  0.160700  1.0
  H  H355  1  0.743200  0.767500  0.160700  1.0
  H  H356  1  0.743200  0.393200  0.232500  1.0
  H  H357  1  0.743200  0.839300  0.606800  1.0
  H  H358  1  0.256800  0.606800  0.839300  1.0
  H  H359  1  0.256800  0.160700  0.767500  1.0
  H  H360  1  0.256800  0.232500  0.393200  1.0
  H  H361  1  0.695200  0.580700  0.829300  1.0
  H  H362  1  0.695200  0.248600  0.419300  1.0
  H  H363  1  0.695200  0.170700  0.751400  1.0
  H  H364  1  0.304800  0.829300  0.580700  1.0
  H  H365  1  0.304800  0.419300  0.248600  1.0
  H  H366  1  0.304800  0.751400  0.170700  1.0
  H  H367  1  0.695200  0.751400  0.170700  1.0
  H  H368  1  0.695200  0.419300  0.248600  1.0
  H  H369  1  0.695200  0.829300  0.580700  1.0
  H  H370  1  0.304800  0.580700  0.829300  1.0
  H  H371  1  0.304800  0.170700  0.751400  1.0
  H  H372  1  0.304800  0.248600  0.419300  1.0
  H  H373  1  0.628600  0.113700  0.828600  1.0
  H  H374  1  0.628600  0.714900  0.886300  1.0
  H  H375  1  0.628600  0.171400  0.285100  1.0
  H  H376  1  0.371400  0.828600  0.113700  1.0
  H  H377  1  0.371400  0.886300  0.714900  1.0
  H  H378  1  0.371400  0.285100  0.171400  1.0
  H  H379  1  0.628600  0.285100  0.171400  1.0
  H  H380  1  0.628600  0.886300  0.714900  1.0
  H  H381  1  0.628600  0.828600  0.113700  1.0
  H  H382  1  0.371400  0.113700  0.828600  1.0
  H  H383  1  0.371400  0.171400  0.285100  1.0
  H  H384  1  0.371400  0.714900  0.886300  1.0
  H  H385  1  0.653000  0.153400  0.832500  1.0
  H  H386  1  0.653000  0.679100  0.846600  1.0
  H  H387  1  0.653000  0.167500  0.320900  1.0
  H  H388  1  0.347000  0.832500  0.153400  1.0
  H  H389  1  0.347000  0.846600  0.679100  1.0
  H  H390  1  0.347000  0.320900  0.167500  1.0
  H  H391  1  0.653000  0.320900  0.167500  1.0
  H  H392  1  0.653000  0.846600  0.679100  1.0
  H  H393  1  0.653000  0.832500  0.153400  1.0
  H  H394  1  0.347000  0.153400  0.832500  1.0
  H  H395  1  0.347000  0.167500  0.320900  1.0
  H  H396  1  0.347000  0.679100  0.846600  1.0
  H  H397  1  0.596100  0.150900  0.835000  1.0
  H  H398  1  0.596100  0.684100  0.849100  1.0
  H  H399  1  0.596100  0.165000  0.315900  1.0
  H  H400  1  0.403900  0.835000  0.150900  1.0
  H  H401  1  0.403900  0.849100  0.684100  1.0
  H  H402  1  0.403900  0.315900  0.165000  1.0
  H  H403  1  0.596100  0.315900  0.165000  1.0
  H  H404  1  0.596100  0.849100  0.684100  1.0
  H  H405  1  0.596100  0.835000  0.150900  1.0
  H  H406  1  0.403900  0.150900  0.835000  1.0
  H  H407  1  0.403900  0.165000  0.315900  1.0
  H  H408  1  0.403900  0.684100  0.849100  1.0
  H  H409  1  0.598000  0.213300  0.902900  1.0
  H  H410  1  0.598000  0.689600  0.786700  1.0
  H  H411  1  0.598000  0.097100  0.310400  1.0
  H  H412  1  0.402000  0.902900  0.213300  1.0
  H  H413  1  0.402000  0.786700  0.689600  1.0
  H  H414  1  0.402000  0.310400  0.097100  1.0
  H  H415  1  0.598000  0.310400  0.097100  1.0
  H  H416  1  0.598000  0.786700  0.689600  1.0
  H  H417  1  0.598000  0.902900  0.213300  1.0
  H  H418  1  0.402000  0.213300  0.902900  1.0
  H  H419  1  0.402000  0.097100  0.310400  1.0
  H  H420  1  0.402000  0.689600  0.786700  1.0
  H  H421  1  0.654900  0.215800  0.903400  1.0
  H  H422  1  0.654900  0.687600  0.784200  1.0
  H  H423  1  0.654900  0.096600  0.312400  1.0
  H  H424  1  0.345100  0.903400  0.215800  1.0
  H  H425  1  0.345100  0.784200  0.687600  1.0
  H  H426  1  0.345100  0.312400  0.096600  1.0
  H  H427  1  0.654900  0.312400  0.096600  1.0
  H  H428  1  0.654900  0.784200  0.687600  1.0
  H  H429  1  0.654900  0.903400  0.215800  1.0
  H  H430  1  0.345100  0.215800  0.903400  1.0
  H  H431  1  0.345100  0.096600  0.312400  1.0
  H  H432  1  0.345100  0.687600  0.784200  1.0
  H  H433  1  0.819800  0.313900  0.881100  1.0
  H  H434  1  0.819800  0.567200  0.686100  1.0
  H  H435  1  0.819800  0.118900  0.432800  1.0
  H  H436  1  0.180200  0.881100  0.313900  1.0
  H  H437  1  0.180200  0.686100  0.567200  1.0
  H  H438  1  0.180200  0.432800  0.118900  1.0
  H  H439  1  0.819800  0.432800  0.118900  1.0
  H  H440  1  0.819800  0.686100  0.567200  1.0
  H  H441  1  0.819800  0.881100  0.313900  1.0
  H  H442  1  0.180200  0.313900  0.881100  1.0
  H  H443  1  0.180200  0.118900  0.432800  1.0
  H  H444  1  0.180200  0.567200  0.686100  1.0
  H  H445  1  0.627500  0.143400  0.962800  1.0
  H  H446  1  0.627500  0.819400  0.856600  1.0
  H  H447  1  0.627500  0.037200  0.180600  1.0
  H  H448  1  0.372500  0.962800  0.143400  1.0
  H  H449  1  0.372500  0.856600  0.819400  1.0
  H  H450  1  0.372500  0.180600  0.037200  1.0
  H  H451  1  0.627500  0.180600  0.037200  1.0
  H  H452  1  0.627500  0.856600  0.819400  1.0
  H  H453  1  0.627500  0.962800  0.143400  1.0
  H  H454  1  0.372500  0.143400  0.962800  1.0
  H  H455  1  0.372500  0.037200  0.180600  1.0
  H  H456  1  0.372500  0.819400  0.856600  1.0
  H  H457  1  0.671300  0.117300  0.964300  1.0
  H  H458  1  0.671300  0.847000  0.882700  1.0
  H  H459  1  0.671300  0.035700  0.153000  1.0
  H  H460  1  0.328700  0.964300  0.117300  1.0
  H  H461  1  0.328700  0.882700  0.847000  1.0
  H  H462  1  0.328700  0.153000  0.035700  1.0
  H  H463  1  0.671300  0.153000  0.035700  1.0
  H  H464  1  0.671300  0.882700  0.847000  1.0
  H  H465  1  0.671300  0.964300  0.117300  1.0
  H  H466  1  0.328700  0.117300  0.964300  1.0
  H  H467  1  0.328700  0.035700  0.153000  1.0
  H  H468  1  0.328700  0.847000  0.882700  1.0
  H  H469  1  0.618100  0.099800  0.957700  1.0
  H  H470  1  0.618100  0.857900  0.900200  1.0
  H  H471  1  0.618100  0.042300  0.142100  1.0
  H  H472  1  0.381900  0.957700  0.099800  1.0
  H  H473  1  0.381900  0.900200  0.857900  1.0
  H  H474  1  0.381900  0.142100  0.042300  1.0
  H  H475  1  0.618100  0.142100  0.042300  1.0
  H  H476  1  0.618100  0.900200  0.857900  1.0
  H  H477  1  0.618100  0.957700  0.099800  1.0
  H  H478  1  0.381900  0.099800  0.957700  1.0
  H  H479  1  0.381900  0.042300  0.142100  1.0
  H  H480  1  0.381900  0.857900  0.900200  1.0
  H  H481  1  0.760000  0.596700  0.967200  1.0
  H  H482  1  0.760000  0.370500  0.403300  1.0
  H  H483  1  0.760000  0.032800  0.629500  1.0
  H  H484  1  0.240000  0.967200  0.596700  1.0
  H  H485  1  0.240000  0.403300  0.370500  1.0
  H  H486  1  0.240000  0.629500  0.032800  1.0
  H  H487  1  0.760000  0.629500  0.032800  1.0
  H  H488  1  0.760000  0.403300  0.370500  1.0
  H  H489  1  0.760000  0.967200  0.596700  1.0
  H  H490  1  0.240000  0.596700  0.967200  1.0
  H  H491  1  0.240000  0.032800  0.629500  1.0
  H  H492  1  0.240000  0.370500  0.403300  1.0
  H  H493  1  0.760800  0.704700  0.964500  1.0
  H  H494  1  0.760800  0.259800  0.295300  1.0
  H  H495  1  0.760800  0.035500  0.740200  1.0
  H  H496  1  0.239200  0.964500  0.704700  1.0
  H  H497  1  0.239200  0.295300  0.259800  1.0
  H  H498  1  0.239200  0.740200  0.035500  1.0
  H  H499  1  0.760800  0.740200  0.035500  1.0
  H  H500  1  0.760800  0.295300  0.259800  1.0
  H  H501  1  0.760800  0.964500  0.704700  1.0
  H  H502  1  0.239200  0.704700  0.964500  1.0
  H  H503  1  0.239200  0.035500  0.740200  1.0
  H  H504  1  0.239200  0.259800  0.295300  1.0
  H  H505  1  0.698700  0.219300  0.964400  1.0
  H  H506  1  0.698700  0.745100  0.780700  1.0
  H  H507  1  0.698700  0.035600  0.254900  1.0
  H  H508  1  0.301300  0.964400  0.219300  1.0
  H  H509  1  0.301300  0.780700  0.745100  1.0
  H  H510  1  0.301300  0.254900  0.035600  1.0
  H  H511  1  0.698700  0.254900  0.035600  1.0
  H  H512  1  0.698700  0.780700  0.745100  1.0
  H  H513  1  0.698700  0.964400  0.219300  1.0
  H  H514  1  0.301300  0.219300  0.964400  1.0
  H  H515  1  0.301300  0.035600  0.254900  1.0
  H  H516  1  0.301300  0.745100  0.780700  1.0
  H  H517  1  0.554100  0.236700  0.964700  1.0
  H  H518  1  0.554100  0.728000  0.763300  1.0
  H  H519  1  0.554100  0.035300  0.272000  1.0
  H  H520  1  0.445900  0.964700  0.236700  1.0
  H  H521  1  0.445900  0.763300  0.728000  1.0
  H  H522  1  0.445900  0.272000  0.035300  1.0
  H  H523  1  0.554100  0.272000  0.035300  1.0
  H  H524  1  0.554100  0.763300  0.728000  1.0
  H  H525  1  0.554100  0.964700  0.236700  1.0
  H  H526  1  0.445900  0.236700  0.964700  1.0
  H  H527  1  0.445900  0.035300  0.272000  1.0
  H  H528  1  0.445900  0.728000  0.763300  1.0
  H  H529  1  0.605700  0.606900  0.961100  1.0
  H  H530  1  0.605700  0.354200  0.393100  1.0
  H  H531  1  0.605700  0.038900  0.645800  1.0
  H  H532  1  0.394300  0.961100  0.606900  1.0
  H  H533  1  0.394300  0.393100  0.354200  1.0
  H  H534  1  0.394300  0.645800  0.038900  1.0
  H  H535  1  0.605700  0.645800  0.038900  1.0
  H  H536  1  0.605700  0.393100  0.354200  1.0
  H  H537  1  0.605700  0.961100  0.606900  1.0
  H  H538  1  0.394300  0.606900  0.961100  1.0
  H  H539  1  0.394300  0.038900  0.645800  1.0
  H  H540  1  0.394300  0.354200  0.393100  1.0
  H  H541  1  0.586300  0.642800  0.954800  1.0
  H  H542  1  0.586300  0.312000  0.357200  1.0
  H  H543  1  0.586300  0.045200  0.688000  1.0
  H  H544  1  0.413700  0.954800  0.642800  1.0
  H  H545  1  0.413700  0.357200  0.312000  1.0
  H  H546  1  0.413700  0.688000  0.045200  1.0
  H  H547  1  0.586300  0.688000  0.045200  1.0
  H  H548  1  0.586300  0.357200  0.312000  1.0
  H  H549  1  0.586300  0.954800  0.642800  1.0
  H  H550  1  0.413700  0.642800  0.954800  1.0
  H  H551  1  0.413700  0.045200  0.688000  1.0
  H  H552  1  0.413700  0.312000  0.357200  1.0
  H  H553  1  0.642200  0.639300  0.961500  1.0
  H  H554  1  0.642200  0.322200  0.360700  1.0
  H  H555  1  0.642200  0.038500  0.677800  1.0
  H  H556  1  0.357800  0.961500  0.639300  1.0
  H  H557  1  0.357800  0.360700  0.322200  1.0
  H  H558  1  0.357800  0.677800  0.038500  1.0
  H  H559  1  0.642200  0.677800  0.038500  1.0
  H  H560  1  0.642200  0.360700  0.322200  1.0
  H  H561  1  0.642200  0.961500  0.639300  1.0
  H  H562  1  0.357800  0.639300  0.961500  1.0
  H  H563  1  0.357800  0.038500  0.677800  1.0
  H  H564  1  0.357800  0.322200  0.360700  1.0
  H  H565  1  0.794500  0.509100  0.922300  1.0
  H  H566  1  0.794500  0.413200  0.490900  1.0
  H  H567  1  0.794500  0.077700  0.586800  1.0
  H  H568  1  0.205500  0.922300  0.509100  1.0
  H  H569  1  0.205500  0.490900  0.413200  1.0
  H  H570  1  0.205500  0.586800  0.077700  1.0
  H  H571  1  0.794500  0.586800  0.077700  1.0
  H  H572  1  0.794500  0.490900  0.413200  1.0
  H  H573  1  0.794500  0.922300  0.509100  1.0
  H  H574  1  0.205500  0.509100  0.922300  1.0
  H  H575  1  0.205500  0.077700  0.586800  1.0
  H  H576  1  0.205500  0.413200  0.490900  1.0
  H  H577  1  0.850300  0.470200  0.938300  1.0
  H  H578  1  0.850300  0.468100  0.529800  1.0
  H  H579  1  0.850300  0.061700  0.531900  1.0
  H  H580  1  0.149700  0.938300  0.470200  1.0
  H  H581  1  0.149700  0.529800  0.468100  1.0
  H  H582  1  0.149700  0.531900  0.061700  1.0
  H  H583  1  0.850300  0.531900  0.061700  1.0
  H  H584  1  0.850300  0.529800  0.468100  1.0
  H  H585  1  0.850300  0.938300  0.470200  1.0
  H  H586  1  0.149700  0.470200  0.938300  1.0
  H  H587  1  0.149700  0.061700  0.531900  1.0
  H  H588  1  0.149700  0.468100  0.529800  1.0
  H  H589  1  0.806000  0.441000  0.804800  1.0
  H  H590  1  0.806000  0.363800  0.559000  1.0
  H  H591  1  0.806000  0.195200  0.636200  1.0
  H  H592  1  0.194000  0.804800  0.441000  1.0
  H  H593  1  0.194000  0.559000  0.363800  1.0
  H  H594  1  0.194000  0.636200  0.195200  1.0
  H  H595  1  0.806000  0.636200  0.195200  1.0
  H  H596  1  0.806000  0.559000  0.363800  1.0
  H  H597  1  0.806000  0.804800  0.441000  1.0
  H  H598  1  0.194000  0.441000  0.804800  1.0
  H  H599  1  0.194000  0.195200  0.636200  1.0
  H  H600  1  0.194000  0.363800  0.559000  1.0
  H  H601  1  0.582200  0.502400  0.966400  1.0
  H  H602  1  0.582200  0.464000  0.497600  1.0
  H  H603  1  0.582200  0.033600  0.536000  1.0
  H  H604  1  0.417800  0.966400  0.502400  1.0
  H  H605  1  0.417800  0.497600  0.464000  1.0
  H  H606  1  0.417800  0.536000  0.033600  1.0
  H  H607  1  0.582200  0.536000  0.033600  1.0
  H  H608  1  0.582200  0.497600  0.464000  1.0
  H  H609  1  0.582200  0.966400  0.502400  1.0
  H  H610  1  0.417800  0.502400  0.966400  1.0
  H  H611  1  0.417800  0.033600  0.536000  1.0
  H  H612  1  0.417800  0.464000  0.497600  1.0
  H  H613  1  0.623700  0.471500  0.902800  1.0
  H  H614  1  0.623700  0.431300  0.528500  1.0
  H  H615  1  0.623700  0.097200  0.568700  1.0
  H  H616  1  0.376300  0.902800  0.471500  1.0
  H  H617  1  0.376300  0.528500  0.431300  1.0
  H  H618  1  0.376300  0.568700  0.097200  1.0
  H  H619  1  0.623700  0.568700  0.097200  1.0
  H  H620  1  0.623700  0.528500  0.431300  1.0
  H  H621  1  0.623700  0.902800  0.471500  1.0
  H  H622  1  0.376300  0.471500  0.902800  1.0
  H  H623  1  0.376300  0.097200  0.568700  1.0
  H  H624  1  0.376300  0.431300  0.528500  1.0
  H  H625  1  0.678100  0.484600  0.902800  1.0
  H  H626  1  0.678100  0.418200  0.515400  1.0
  H  H627  1  0.678100  0.097200  0.581800  1.0
  H  H628  1  0.321900  0.902800  0.484600  1.0
  H  H629  1  0.321900  0.515400  0.418200  1.0
  H  H630  1  0.321900  0.581800  0.097200  1.0
  H  H631  1  0.678100  0.581800  0.097200  1.0
  H  H632  1  0.678100  0.515400  0.418200  1.0
  H  H633  1  0.678100  0.902800  0.484600  1.0
  H  H634  1  0.321900  0.484600  0.902800  1.0
  H  H635  1  0.321900  0.097200  0.581800  1.0
  H  H636  1  0.321900  0.418200  0.515400  1.0
  Pd  Pd637  1  1.000000  0.348200  0.884430  1.0
  Pd  Pd638  1  1.000000  0.536230  0.651800  1.0
  Pd  Pd639  1  1.000000  0.115570  0.463770  1.0
  Pd  Pd640  1  0.000000  0.884430  0.348200  1.0
  Pd  Pd641  1  0.000000  0.651800  0.536230  1.0
  Pd  Pd642  1  0.000000  0.463770  0.115570  1.0
  Pd  Pd643  1  0.690980  0.132210  0.894710  1.0
  Pd  Pd644  1  0.690980  0.762500  0.867790  1.0
  Pd  Pd645  1  0.690980  0.105290  0.237500  1.0
  Pd  Pd646  1  0.309020  0.894710  0.132210  1.0
  Pd  Pd647  1  0.309020  0.867790  0.762500  1.0
  Pd  Pd648  1  0.309020  0.237500  0.105290  1.0
  Pd  Pd649  1  0.690980  0.237500  0.105290  1.0
  Pd  Pd650  1  0.690980  0.867790  0.762500  1.0
  Pd  Pd651  1  0.690980  0.894710  0.132210  1.0
  Pd  Pd652  1  0.309020  0.132210  0.894710  1.0
  Pd  Pd653  1  0.309020  0.105290  0.237500  1.0
  Pd  Pd654  1  0.309020  0.762500  0.867790  1.0
  Pd  Pd655  1  0.678060  0.563160  0.894410  1.0
  Pd  Pd656  1  0.678060  0.331250  0.436840  1.0
  Pd  Pd657  1  0.678060  0.105590  0.668750  1.0
  Pd  Pd658  1  0.321940  0.894410  0.563160  1.0
  Pd  Pd659  1  0.321940  0.436840  0.331250  1.0
  Pd  Pd660  1  0.321940  0.668750  0.105590  1.0
  Pd  Pd661  1  0.678060  0.668750  0.105590  1.0
  Pd  Pd662  1  0.678060  0.436840  0.331250  1.0
  Pd  Pd663  1  0.678060  0.894410  0.563160  1.0
  Pd  Pd664  1  0.321940  0.563160  0.894410  1.0
  Pd  Pd665  1  0.321940  0.105590  0.668750  1.0
  Pd  Pd666  1  0.321940  0.331250  0.436840  1.0
  C  C667  1  0.759100  0.503300  0.857700  1.0
  C  C668  1  0.759100  0.354400  0.496700  1.0
  C  C669  1  0.759100  0.142300  0.645600  1.0
  C  C670  1  0.240900  0.857700  0.503300  1.0
  C  C671  1  0.240900  0.496700  0.354400  1.0
  C  C672  1  0.240900  0.645600  0.142300  1.0
  C  C673  1  0.759100  0.645600  0.142300  1.0
  C  C674  1  0.759100  0.496700  0.354400  1.0
  C  C675  1  0.759100  0.857700  0.503300  1.0
  C  C676  1  0.240900  0.503300  0.857700  1.0
  C  C677  1  0.240900  0.142300  0.645600  1.0
  C  C678  1  0.240900  0.354400  0.496700  1.0
  C  C679  1  0.958500  0.274000  0.885300  1.0
  C  C680  1  0.958500  0.611300  0.726000  1.0
  C  C681  1  0.958500  0.114700  0.388700  1.0
  C  C682  1  0.041500  0.885300  0.274000  1.0
  C  C683  1  0.041500  0.726000  0.611300  1.0
  C  C684  1  0.041500  0.388700  0.114700  1.0
  C  C685  1  0.958500  0.388700  0.114700  1.0
  C  C686  1  0.958500  0.726000  0.611300  1.0
  C  C687  1  0.958500  0.885300  0.274000  1.0
  C  C688  1  0.041500  0.274000  0.885300  1.0
  C  C689  1  0.041500  0.114700  0.388700  1.0
  C  C690  1  0.041500  0.611300  0.726000  1.0
  C  C691  1  0.631900  0.487700  0.838700  1.0
  C  C692  1  0.631900  0.351000  0.512300  1.0
  C  C693  1  0.631900  0.161300  0.649000  1.0
  C  C694  1  0.368100  0.838700  0.487700  1.0
  C  C695  1  0.368100  0.512300  0.351000  1.0
  C  C696  1  0.368100  0.649000  0.161300  1.0
  C  C697  1  0.631900  0.649000  0.161300  1.0
  C  C698  1  0.631900  0.512300  0.351000  1.0
  C  C699  1  0.631900  0.838700  0.487700  1.0
  C  C700  1  0.368100  0.487700  0.838700  1.0
  C  C701  1  0.368100  0.161300  0.649000  1.0
  C  C702  1  0.368100  0.351000  0.512300  1.0
  C  C703  1  0.759900  0.167100  0.859700  1.0
  C  C704  1  0.759900  0.692600  0.832900  1.0
  C  C705  1  0.759900  0.140300  0.307400  1.0
  C  C706  1  0.240100  0.859700  0.167100  1.0
  C  C707  1  0.240100  0.832900  0.692600  1.0
  C  C708  1  0.240100  0.307400  0.140300  1.0
  C  C709  1  0.759900  0.307400  0.140300  1.0
  C  C710  1  0.759900  0.832900  0.692600  1.0
  C  C711  1  0.759900  0.859700  0.167100  1.0
  C  C712  1  0.240100  0.167100  0.859700  1.0
  C  C713  1  0.240100  0.140300  0.307400  1.0
  C  C714  1  0.240100  0.692600  0.832900  1.0
  C  C715  1  0.716600  0.059500  0.897100  1.0
  C  C716  1  0.716600  0.837600  0.940500  1.0
  C  C717  1  0.716600  0.102900  0.162400  1.0
  C  C718  1  0.283400  0.897100  0.059500  1.0
  C  C719  1  0.283400  0.940500  0.837600  1.0
  C  C720  1  0.283400  0.162400  0.102900  1.0
  C  C721  1  0.716600  0.162400  0.102900  1.0
  C  C722  1  0.716600  0.940500  0.837600  1.0
  C  C723  1  0.716600  0.897100  0.059500  1.0
  C  C724  1  0.283400  0.059500  0.897100  1.0
  C  C725  1  0.283400  0.102900  0.162400  1.0
  C  C726  1  0.283400  0.837600  0.940500  1.0
  C  C727  1  0.774600  0.169100  0.979500  1.0
  C  C728  1  0.774600  0.810400  0.830900  1.0
  C  C729  1  0.774600  0.020500  0.189600  1.0
  C  C730  1  0.225400  0.979500  0.169100  1.0
  C  C731  1  0.225400  0.830900  0.810400  1.0
  C  C732  1  0.225400  0.189600  0.020500  1.0
  C  C733  1  0.774600  0.189600  0.020500  1.0
  C  C734  1  0.774600  0.830900  0.810400  1.0
  C  C735  1  0.774600  0.979500  0.169100  1.0
  C  C736  1  0.225400  0.169100  0.979500  1.0
  C  C737  1  0.225400  0.020500  0.189600  1.0
  C  C738  1  0.225400  0.810400  0.830900  1.0
  C  C739  1  0.811100  0.229900  0.904000  1.0
  C  C740  1  0.811100  0.674100  0.770100  1.0
  C  C741  1  0.811100  0.096000  0.325900  1.0
  C  C742  1  0.188900  0.904000  0.229900  1.0
  C  C743  1  0.188900  0.770100  0.674100  1.0
  C  C744  1  0.188900  0.325900  0.096000  1.0
  C  C745  1  0.811100  0.325900  0.096000  1.0
  C  C746  1  0.811100  0.770100  0.674100  1.0
  C  C747  1  0.811100  0.904000  0.229900  1.0
  C  C748  1  0.188900  0.229900  0.904000  1.0
  C  C749  1  0.188900  0.096000  0.325900  1.0
  C  C750  1  0.188900  0.674100  0.770100  1.0
  C  C751  1  0.897100  0.318200  0.882500  1.0
  C  C752  1  0.897100  0.564300  0.681800  1.0
  C  C753  1  0.897100  0.117500  0.435700  1.0
  C  C754  1  0.102900  0.882500  0.318200  1.0
  C  C755  1  0.102900  0.681800  0.564300  1.0
  C  C756  1  0.102900  0.435700  0.117500  1.0
  C  C757  1  0.897100  0.435700  0.117500  1.0
  C  C758  1  0.897100  0.681800  0.564300  1.0
  C  C759  1  0.897100  0.882500  0.318200  1.0
  C  C760  1  0.102900  0.318200  0.882500  1.0
  C  C761  1  0.102900  0.117500  0.435700  1.0
  C  C762  1  0.102900  0.564300  0.681800  1.0
  C  C763  1  0.912400  0.283400  0.883500  1.0
  C  C764  1  0.912400  0.600100  0.716600  1.0
  C  C765  1  0.912400  0.116500  0.399900  1.0
  C  C766  1  0.087600  0.883500  0.283400  1.0
  C  C767  1  0.087600  0.716600  0.600100  1.0
  C  C768  1  0.087600  0.399900  0.116500  1.0
  C  C769  1  0.912400  0.399900  0.116500  1.0
  C  C770  1  0.912400  0.716600  0.600100  1.0
  C  C771  1  0.912400  0.883500  0.283400  1.0
  C  C772  1  0.087600  0.283400  0.883500  1.0
  C  C773  1  0.087600  0.116500  0.399900  1.0
  C  C774  1  0.087600  0.600100  0.716600  1.0
  C  C775  1  0.802500  0.110900  0.981600  1.0
  C  C776  1  0.802500  0.870700  0.889100  1.0
  C  C777  1  0.802500  0.018400  0.129300  1.0
  C  C778  1  0.197500  0.981600  0.110900  1.0
  C  C779  1  0.197500  0.889100  0.870700  1.0
  C  C780  1  0.197500  0.129300  0.018400  1.0
  C  C781  1  0.802500  0.129300  0.018400  1.0
  C  C782  1  0.802500  0.889100  0.870700  1.0
  C  C783  1  0.802500  0.981600  0.110900  1.0
  C  C784  1  0.197500  0.110900  0.981600  1.0
  C  C785  1  0.197500  0.018400  0.129300  1.0
  C  C786  1  0.197500  0.870700  0.889100  1.0
  C  C787  1  0.848400  0.364500  0.879900  1.0
  C  C788  1  0.848400  0.515400  0.635500  1.0
  C  C789  1  0.848400  0.120100  0.484600  1.0
  C  C790  1  0.151600  0.879900  0.364500  1.0
  C  C791  1  0.151600  0.635500  0.515400  1.0
  C  C792  1  0.151600  0.484600  0.120100  1.0
  C  C793  1  0.848400  0.484600  0.120100  1.0
  C  C794  1  0.848400  0.635500  0.515400  1.0
  C  C795  1  0.848400  0.879900  0.364500  1.0
  C  C796  1  0.151600  0.364500  0.879900  1.0
  C  C797  1  0.151600  0.120100  0.484600  1.0
  C  C798  1  0.151600  0.515400  0.635500  1.0
  C  C799  1  0.764200  0.624500  0.912900  1.0
  C  C800  1  0.764200  0.288400  0.375500  1.0
  C  C801  1  0.764200  0.087100  0.711600  1.0
  C  C802  1  0.235800  0.912900  0.624500  1.0
  C  C803  1  0.235800  0.375500  0.288400  1.0
  C  C804  1  0.235800  0.711600  0.087100  1.0
  C  C805  1  0.764200  0.711600  0.087100  1.0
  C  C806  1  0.764200  0.375500  0.288400  1.0
  C  C807  1  0.764200  0.912900  0.624500  1.0
  C  C808  1  0.235800  0.624500  0.912900  1.0
  C  C809  1  0.235800  0.087100  0.711600  1.0
  C  C810  1  0.235800  0.288400  0.375500  1.0
  C  C811  1  0.896700  0.376100  0.882000  1.0
  C  C812  1  0.896700  0.505900  0.623900  1.0
  C  C813  1  0.896700  0.118000  0.494100  1.0
  C  C814  1  0.103300  0.882000  0.376100  1.0
  C  C815  1  0.103300  0.623900  0.505900  1.0
  C  C816  1  0.103300  0.494100  0.118000  1.0
  C  C817  1  0.896700  0.494100  0.118000  1.0
  C  C818  1  0.896700  0.623900  0.505900  1.0
  C  C819  1  0.896700  0.882000  0.376100  1.0
  C  C820  1  0.103300  0.376100  0.882000  1.0
  C  C821  1  0.103300  0.118000  0.494100  1.0
  C  C822  1  0.103300  0.505900  0.623900  1.0
  C  C823  1  0.977500  0.236200  0.884900  1.0
  C  C824  1  0.977500  0.648700  0.763800  1.0
  C  C825  1  0.977500  0.115100  0.351300  1.0
  C  C826  1  0.022500  0.884900  0.236200  1.0
  C  C827  1  0.022500  0.763800  0.648700  1.0
  C  C828  1  0.022500  0.351300  0.115100  1.0
  C  C829  1  0.977500  0.351300  0.115100  1.0
  C  C830  1  0.977500  0.763800  0.648700  1.0
  C  C831  1  0.977500  0.884900  0.236200  1.0
  C  C832  1  0.022500  0.236200  0.884900  1.0
  C  C833  1  0.022500  0.115100  0.351300  1.0
  C  C834  1  0.022500  0.648700  0.763800  1.0
  C  C835  1  0.875300  0.253500  0.879400  1.0
  C  C836  1  0.875300  0.625900  0.746500  1.0
  C  C837  1  0.875300  0.120600  0.374100  1.0
  C  C838  1  0.124700  0.879400  0.253500  1.0
  C  C839  1  0.124700  0.746500  0.625900  1.0
  C  C840  1  0.124700  0.374100  0.120600  1.0
  C  C841  1  0.875300  0.374100  0.120600  1.0
  C  C842  1  0.875300  0.746500  0.625900  1.0
  C  C843  1  0.875300  0.879400  0.253500  1.0
  C  C844  1  0.124700  0.253500  0.879400  1.0
  C  C845  1  0.124700  0.120600  0.374100  1.0
  C  C846  1  0.124700  0.625900  0.746500  1.0
  C  C847  1  0.801400  0.198400  0.867200  1.0
  C  C848  1  0.801400  0.668800  0.801600  1.0
  C  C849  1  0.801400  0.132800  0.331200  1.0
  C  C850  1  0.198600  0.867200  0.198400  1.0
  C  C851  1  0.198600  0.801600  0.668800  1.0
  C  C852  1  0.198600  0.331200  0.132800  1.0
  C  C853  1  0.801400  0.331200  0.132800  1.0
  C  C854  1  0.801400  0.801600  0.668800  1.0
  C  C855  1  0.801400  0.867200  0.198400  1.0
  C  C856  1  0.198600  0.198400  0.867200  1.0
  C  C857  1  0.198600  0.132800  0.331200  1.0
  C  C858  1  0.198600  0.668800  0.801600  1.0
  C  C859  1  0.665100  0.055900  0.886900  1.0
  C  C860  1  0.665100  0.831000  0.944100  1.0
  C  C861  1  0.665100  0.113100  0.169000  1.0
  C  C862  1  0.334900  0.886900  0.055900  1.0
  C  C863  1  0.334900  0.944100  0.831000  1.0
  C  C864  1  0.334900  0.169000  0.113100  1.0
  C  C865  1  0.665100  0.169000  0.113100  1.0
  C  C866  1  0.665100  0.944100  0.831000  1.0
  C  C867  1  0.665100  0.886900  0.055900  1.0
  C  C868  1  0.334900  0.055900  0.886900  1.0
  C  C869  1  0.334900  0.113100  0.169000  1.0
  C  C870  1  0.334900  0.831000  0.944100  1.0
  C  C871  1  0.791700  0.104900  0.909900  1.0
  C  C872  1  0.791700  0.805000  0.895100  1.0
  C  C873  1  0.791700  0.090100  0.195000  1.0
  C  C874  1  0.208300  0.909900  0.104900  1.0
  C  C875  1  0.208300  0.895100  0.805000  1.0
  C  C876  1  0.208300  0.195000  0.090100  1.0
  C  C877  1  0.791700  0.195000  0.090100  1.0
  C  C878  1  0.791700  0.895100  0.805000  1.0
  C  C879  1  0.791700  0.909900  0.104900  1.0
  C  C880  1  0.208300  0.104900  0.909900  1.0
  C  C881  1  0.208300  0.090100  0.195000  1.0
  C  C882  1  0.208300  0.805000  0.895100  1.0
  C  C883  1  0.864900  0.219000  0.839400  1.0
  C  C884  1  0.864900  0.620400  0.781000  1.0
  C  C885  1  0.864900  0.160600  0.379600  1.0
  C  C886  1  0.135100  0.839400  0.219000  1.0
  C  C887  1  0.135100  0.781000  0.620400  1.0
  C  C888  1  0.135100  0.379600  0.160600  1.0
  C  C889  1  0.864900  0.379600  0.160600  1.0
  C  C890  1  0.864900  0.781000  0.620400  1.0
  C  C891  1  0.864900  0.839400  0.219000  1.0
  C  C892  1  0.135100  0.219000  0.839400  1.0
  C  C893  1  0.135100  0.160600  0.379600  1.0
  C  C894  1  0.135100  0.620400  0.781000  1.0
  C  C895  1  0.575500  0.568700  0.884400  1.0
  C  C896  1  0.575500  0.315700  0.431300  1.0
  C  C897  1  0.575500  0.115600  0.684300  1.0
  C  C898  1  0.424500  0.884400  0.568700  1.0
  C  C899  1  0.424500  0.431300  0.315700  1.0
  C  C900  1  0.424500  0.684300  0.115600  1.0
  C  C901  1  0.575500  0.684300  0.115600  1.0
  C  C902  1  0.575500  0.431300  0.315700  1.0
  C  C903  1  0.575500  0.884400  0.568700  1.0
  C  C904  1  0.424500  0.568700  0.884400  1.0
  C  C905  1  0.424500  0.115600  0.684300  1.0
  C  C906  1  0.424500  0.315700  0.431300  1.0
  C  C907  1  0.912600  0.410000  0.880200  1.0
  C  C908  1  0.912600  0.470200  0.590000  1.0
  C  C909  1  0.912600  0.119800  0.529800  1.0
  C  C910  1  0.087400  0.880200  0.410000  1.0
  C  C911  1  0.087400  0.590000  0.470200  1.0
  C  C912  1  0.087400  0.529800  0.119800  1.0
  C  C913  1  0.912600  0.529800  0.119800  1.0
  C  C914  1  0.912600  0.590000  0.470200  1.0
  C  C915  1  0.912600  0.880200  0.410000  1.0
  C  C916  1  0.087400  0.410000  0.880200  1.0
  C  C917  1  0.087400  0.119800  0.529800  1.0
  C  C918  1  0.087400  0.470200  0.590000  1.0
  C  C919  1  0.863200  0.430500  0.839000  1.0
  C  C920  1  0.863200  0.408500  0.569500  1.0
  C  C921  1  0.863200  0.161000  0.591500  1.0
  C  C922  1  0.136800  0.839000  0.430500  1.0
  C  C923  1  0.136800  0.569500  0.408500  1.0
  C  C924  1  0.136800  0.591500  0.161000  1.0
  C  C925  1  0.863200  0.591500  0.161000  1.0
  C  C926  1  0.863200  0.569500  0.408500  1.0
  C  C927  1  0.863200  0.839000  0.430500  1.0
  C  C928  1  0.136800  0.430500  0.839000  1.0
  C  C929  1  0.136800  0.161000  0.591500  1.0
  C  C930  1  0.136800  0.408500  0.569500  1.0
  C  C931  1  0.845300  0.257600  0.912000  1.0
  C  C932  1  0.845300  0.654400  0.742400  1.0
  C  C933  1  0.845300  0.088000  0.345600  1.0
  C  C934  1  0.154700  0.912000  0.257600  1.0
  C  C935  1  0.154700  0.742400  0.654400  1.0
  C  C936  1  0.154700  0.345600  0.088000  1.0
  C  C937  1  0.845300  0.345600  0.088000  1.0
  C  C938  1  0.845300  0.742400  0.654400  1.0
  C  C939  1  0.845300  0.912000  0.257600  1.0
  C  C940  1  0.154700  0.257600  0.912000  1.0
  C  C941  1  0.154700  0.088000  0.345600  1.0
  C  C942  1  0.154700  0.654400  0.742400  1.0
  C  C943  1  0.827000  0.192700  0.835700  1.0
  C  C944  1  0.827000  0.643000  0.807300  1.0
  C  C945  1  0.827000  0.164300  0.357000  1.0
  C  C946  1  0.173000  0.835700  0.192700  1.0
  C  C947  1  0.173000  0.807300  0.643000  1.0
  C  C948  1  0.173000  0.357000  0.164300  1.0
  C  C949  1  0.827000  0.357000  0.164300  1.0
  C  C950  1  0.827000  0.807300  0.643000  1.0
  C  C951  1  0.827000  0.835700  0.192700  1.0
  C  C952  1  0.173000  0.192700  0.835700  1.0
  C  C953  1  0.173000  0.164300  0.357000  1.0
  C  C954  1  0.173000  0.643000  0.807300  1.0
  C  C955  1  0.961100  0.424700  0.884100  1.0
  C  C956  1  0.961100  0.459400  0.575300  1.0
  C  C957  1  0.961100  0.115900  0.540600  1.0
  C  C958  1  0.038900  0.884100  0.424700  1.0
  C  C959  1  0.038900  0.575300  0.459400  1.0
  C  C960  1  0.038900  0.540600  0.115900  1.0
  C  C961  1  0.961100  0.540600  0.115900  1.0
  C  C962  1  0.961100  0.575300  0.459400  1.0
  C  C963  1  0.961100  0.884100  0.424700  1.0
  C  C964  1  0.038900  0.424700  0.884100  1.0
  C  C965  1  0.038900  0.115900  0.540600  1.0
  C  C966  1  0.038900  0.459400  0.575300  1.0
  C  C967  1  0.586800  0.140700  0.897600  1.0
  C  C968  1  0.586800  0.756900  0.859300  1.0
  C  C969  1  0.586800  0.102400  0.243100  1.0
  C  C970  1  0.413200  0.897600  0.140700  1.0
  C  C971  1  0.413200  0.859300  0.756900  1.0
  C  C972  1  0.413200  0.243100  0.102400  1.0
  C  C973  1  0.586800  0.243100  0.102400  1.0
  C  C974  1  0.586800  0.859300  0.756900  1.0
  C  C975  1  0.586800  0.897600  0.140700  1.0
  C  C976  1  0.413200  0.140700  0.897600  1.0
  C  C977  1  0.413200  0.102400  0.243100  1.0
  C  C978  1  0.413200  0.756900  0.859300  1.0
  C  C979  1  0.975900  0.458600  0.879600  1.0
  C  C980  1  0.975900  0.421000  0.541400  1.0
  C  C981  1  0.975900  0.120400  0.579000  1.0
  C  C982  1  0.024100  0.879600  0.458600  1.0
  C  C983  1  0.024100  0.541400  0.421000  1.0
  C  C984  1  0.024100  0.579000  0.120400  1.0
  C  C985  1  0.975900  0.579000  0.120400  1.0
  C  C986  1  0.975900  0.541400  0.421000  1.0
  C  C987  1  0.975900  0.879600  0.458600  1.0
  C  C988  1  0.024100  0.458600  0.879600  1.0
  C  C989  1  0.024100  0.120400  0.579000  1.0
  C  C990  1  0.024100  0.421000  0.541400  1.0
  C  C991  1  0.597100  0.096600  0.886600  1.0
  C  C992  1  0.597100  0.790000  0.903400  1.0
  C  C993  1  0.597100  0.113400  0.210000  1.0
  C  C994  1  0.402900  0.886600  0.096600  1.0
  C  C995  1  0.402900  0.903400  0.790000  1.0
  C  C996  1  0.402900  0.210000  0.113400  1.0
  C  C997  1  0.597100  0.210000  0.113400  1.0
  C  C998  1  0.597100  0.903400  0.790000  1.0
  C  C999  1  0.597100  0.886600  0.096600  1.0
  C  C1000  1  0.402900  0.096600  0.886600  1.0
  C  C1001  1  0.402900  0.113400  0.210000  1.0
  C  C1002  1  0.402900  0.790000  0.903400  1.0
  C  C1003  1  0.760500  0.067600  0.845500  1.0
  C  C1004  1  0.760500  0.777900  0.932400  1.0
  C  C1005  1  0.760500  0.154500  0.222100  1.0
  C  C1006  1  0.239500  0.845500  0.067600  1.0
  C  C1007  1  0.239500  0.932400  0.777900  1.0
  C  C1008  1  0.239500  0.222100  0.154500  1.0
  C  C1009  1  0.760500  0.222100  0.154500  1.0
  C  C1010  1  0.760500  0.932400  0.777900  1.0
  C  C1011  1  0.760500  0.845500  0.067600  1.0
  C  C1012  1  0.239500  0.067600  0.845500  1.0
  C  C1013  1  0.239500  0.154500  0.222100  1.0
  C  C1014  1  0.239500  0.777900  0.932400  1.0
  C  C1015  1  0.725000  0.588200  0.844900  1.0
  C  C1016  1  0.725000  0.256700  0.411800  1.0
  C  C1017  1  0.725000  0.155100  0.743300  1.0
  C  C1018  1  0.275000  0.844900  0.588200  1.0
  C  C1019  1  0.275000  0.411800  0.256700  1.0
  C  C1020  1  0.275000  0.743300  0.155100  1.0
  C  C1021  1  0.725000  0.743300  0.155100  1.0
  C  C1022  1  0.725000  0.411800  0.256700  1.0
  C  C1023  1  0.725000  0.844900  0.588200  1.0
  C  C1024  1  0.275000  0.588200  0.844900  1.0
  C  C1025  1  0.275000  0.155100  0.743300  1.0
  C  C1026  1  0.275000  0.256700  0.411800  1.0
  C  C1027  1  0.626600  0.143200  0.841800  1.0
  C  C1028  1  0.626600  0.698600  0.856800  1.0
  C  C1029  1  0.626600  0.158200  0.301400  1.0
  C  C1030  1  0.373400  0.841800  0.143200  1.0
  C  C1031  1  0.373400  0.856800  0.698600  1.0
  C  C1032  1  0.373400  0.301400  0.158200  1.0
  C  C1033  1  0.626600  0.301400  0.158200  1.0
  C  C1034  1  0.626600  0.856800  0.698600  1.0
  C  C1035  1  0.626600  0.841800  0.143200  1.0
  C  C1036  1  0.373400  0.143200  0.841800  1.0
  C  C1037  1  0.373400  0.158200  0.301400  1.0
  C  C1038  1  0.373400  0.698600  0.856800  1.0
  C  C1039  1  0.627400  0.204900  0.911300  1.0
  C  C1040  1  0.627400  0.706400  0.795100  1.0
  C  C1041  1  0.627400  0.088700  0.293600  1.0
  C  C1042  1  0.372600  0.911300  0.204900  1.0
  C  C1043  1  0.372600  0.795100  0.706400  1.0
  C  C1044  1  0.372600  0.293600  0.088700  1.0
  C  C1045  1  0.627400  0.293600  0.088700  1.0
  C  C1046  1  0.627400  0.795100  0.706400  1.0
  C  C1047  1  0.627400  0.911300  0.204900  1.0
  C  C1048  1  0.372600  0.204900  0.911300  1.0
  C  C1049  1  0.372600  0.088700  0.293600  1.0
  C  C1050  1  0.372600  0.706400  0.795100  1.0
  C  C1051  1  0.847300  0.328500  0.881100  1.0
  C  C1052  1  0.847300  0.552600  0.671500  1.0
  C  C1053  1  0.847300  0.118900  0.447400  1.0
  C  C1054  1  0.152700  0.881100  0.328500  1.0
  C  C1055  1  0.152700  0.671500  0.552600  1.0
  C  C1056  1  0.152700  0.447400  0.118900  1.0
  C  C1057  1  0.847300  0.447400  0.118900  1.0
  C  C1058  1  0.847300  0.671500  0.552600  1.0
  C  C1059  1  0.847300  0.881100  0.328500  1.0
  C  C1060  1  0.152700  0.328500  0.881100  1.0
  C  C1061  1  0.152700  0.118900  0.447400  1.0
  C  C1062  1  0.152700  0.552600  0.671500  1.0
  C  C1063  1  0.630400  0.626500  0.889300  1.0
  C  C1064  1  0.630400  0.262800  0.373500  1.0
  C  C1065  1  0.630400  0.110700  0.737200  1.0
  C  C1066  1  0.369600  0.889300  0.626500  1.0
  C  C1067  1  0.369600  0.373500  0.262800  1.0
  C  C1068  1  0.369600  0.737200  0.110700  1.0
  C  C1069  1  0.630400  0.737200  0.110700  1.0
  C  C1070  1  0.630400  0.373500  0.262800  1.0
  C  C1071  1  0.630400  0.889300  0.626500  1.0
  C  C1072  1  0.369600  0.626500  0.889300  1.0
  C  C1073  1  0.369600  0.110700  0.737200  1.0
  C  C1074  1  0.369600  0.262800  0.373500  1.0
  C  C1075  1  0.683400  0.647800  0.906300  1.0
  C  C1076  1  0.683400  0.258500  0.352200  1.0
  C  C1077  1  0.683400  0.093700  0.741500  1.0
  C  C1078  1  0.316600  0.906300  0.647800  1.0
  C  C1079  1  0.316600  0.352200  0.258500  1.0
  C  C1080  1  0.316600  0.741500  0.093700  1.0
  C  C1081  1  0.683400  0.741500  0.093700  1.0
  C  C1082  1  0.683400  0.352200  0.258500  1.0
  C  C1083  1  0.683400  0.906300  0.647800  1.0
  C  C1084  1  0.316600  0.647800  0.906300  1.0
  C  C1085  1  0.316600  0.093700  0.741500  1.0
  C  C1086  1  0.316600  0.258500  0.352200  1.0
  C  C1087  1  0.578500  0.535800  0.898800  1.0
  C  C1088  1  0.578500  0.363000  0.464200  1.0
  C  C1089  1  0.578500  0.101200  0.637000  1.0
  C  C1090  1  0.421500  0.898800  0.535800  1.0
  C  C1091  1  0.421500  0.464200  0.363000  1.0
  C  C1092  1  0.421500  0.637000  0.101200  1.0
  C  C1093  1  0.578500  0.637000  0.101200  1.0
  C  C1094  1  0.578500  0.464200  0.363000  1.0
  C  C1095  1  0.578500  0.898800  0.535800  1.0
  C  C1096  1  0.421500  0.535800  0.898800  1.0
  C  C1097  1  0.421500  0.101200  0.637000  1.0
  C  C1098  1  0.421500  0.363000  0.464200  1.0
  C  C1099  1  0.640300  0.116000  0.951800  1.0
  C  C1100  1  0.640300  0.835800  0.884000  1.0
  C  C1101  1  0.640300  0.048200  0.164200  1.0
  C  C1102  1  0.359700  0.951800  0.116000  1.0
  C  C1103  1  0.359700  0.884000  0.835800  1.0
  C  C1104  1  0.359700  0.164200  0.048200  1.0
  C  C1105  1  0.640300  0.164200  0.048200  1.0
  C  C1106  1  0.640300  0.884000  0.835800  1.0
  C  C1107  1  0.640300  0.951800  0.116000  1.0
  C  C1108  1  0.359700  0.116000  0.951800  1.0
  C  C1109  1  0.359700  0.048200  0.164200  1.0
  C  C1110  1  0.359700  0.835800  0.884000  1.0
  C  C1111  1  0.787700  0.128100  0.956900  1.0
  C  C1112  1  0.787700  0.828800  0.871900  1.0
  C  C1113  1  0.787700  0.043100  0.171200  1.0
  C  C1114  1  0.212300  0.956900  0.128100  1.0
  C  C1115  1  0.212300  0.871900  0.828800  1.0
  C  C1116  1  0.212300  0.171200  0.043100  1.0
  C  C1117  1  0.787700  0.171200  0.043100  1.0
  C  C1118  1  0.787700  0.871900  0.828800  1.0
  C  C1119  1  0.787700  0.956900  0.128100  1.0
  C  C1120  1  0.212300  0.128100  0.956900  1.0
  C  C1121  1  0.212300  0.043100  0.171200  1.0
  C  C1122  1  0.212300  0.828800  0.871900  1.0
  C  C1123  1  0.759300  0.625400  0.980900  1.0
  C  C1124  1  0.759300  0.355500  0.374600  1.0
  C  C1125  1  0.759300  0.019100  0.644500  1.0
  C  C1126  1  0.240700  0.980900  0.625400  1.0
  C  C1127  1  0.240700  0.374600  0.355500  1.0
  C  C1128  1  0.240700  0.644500  0.019100  1.0
  C  C1129  1  0.759300  0.644500  0.019100  1.0
  C  C1130  1  0.759300  0.374600  0.355500  1.0
  C  C1131  1  0.759300  0.980900  0.625400  1.0
  C  C1132  1  0.240700  0.625400  0.980900  1.0
  C  C1133  1  0.240700  0.019100  0.644500  1.0
  C  C1134  1  0.240700  0.355500  0.374600  1.0
  C  C1135  1  0.758100  0.646600  0.955700  1.0
  C  C1136  1  0.758100  0.309100  0.353400  1.0
  C  C1137  1  0.758100  0.044300  0.690900  1.0
  C  C1138  1  0.241900  0.955700  0.646600  1.0
  C  C1139  1  0.241900  0.353400  0.309100  1.0
  C  C1140  1  0.241900  0.690900  0.044300  1.0
  C  C1141  1  0.758100  0.690900  0.044300  1.0
  C  C1142  1  0.758100  0.353400  0.309100  1.0
  C  C1143  1  0.758100  0.955700  0.646600  1.0
  C  C1144  1  0.241900  0.646600  0.955700  1.0
  C  C1145  1  0.241900  0.044300  0.690900  1.0
  C  C1146  1  0.241900  0.309100  0.353400  1.0
  C  C1147  1  0.759700  0.690000  0.978400  1.0
  C  C1148  1  0.759700  0.288400  0.310000  1.0
  C  C1149  1  0.759700  0.021600  0.711600  1.0
  C  C1150  1  0.240300  0.978400  0.690000  1.0
  C  C1151  1  0.240300  0.310000  0.288400  1.0
  C  C1152  1  0.240300  0.711600  0.021600  1.0
  C  C1153  1  0.759700  0.711600  0.021600  1.0
  C  C1154  1  0.759700  0.310000  0.288400  1.0
  C  C1155  1  0.759700  0.978400  0.690000  1.0
  C  C1156  1  0.240300  0.690000  0.978400  1.0
  C  C1157  1  0.240300  0.021600  0.711600  1.0
  C  C1158  1  0.240300  0.288400  0.310000  1.0
  C  C1159  1  0.669700  0.230200  0.978600  1.0
  C  C1160  1  0.669700  0.748400  0.769800  1.0
  C  C1161  1  0.669700  0.021400  0.251600  1.0
  C  C1162  1  0.330300  0.978600  0.230200  1.0
  C  C1163  1  0.330300  0.769800  0.748400  1.0
  C  C1164  1  0.330300  0.251600  0.021400  1.0
  C  C1165  1  0.669700  0.251600  0.021400  1.0
  C  C1166  1  0.669700  0.769800  0.748400  1.0
  C  C1167  1  0.669700  0.978600  0.230200  1.0
  C  C1168  1  0.330300  0.230200  0.978600  1.0
  C  C1169  1  0.330300  0.021400  0.251600  1.0
  C  C1170  1  0.330300  0.748400  0.769800  1.0
  C  C1171  1  0.627000  0.225000  0.957000  1.0
  C  C1172  1  0.627000  0.732000  0.775000  1.0
  C  C1173  1  0.627000  0.043000  0.268000  1.0
  C  C1174  1  0.373000  0.957000  0.225000  1.0
  C  C1175  1  0.373000  0.775000  0.732000  1.0
  C  C1176  1  0.373000  0.268000  0.043000  1.0
  C  C1177  1  0.627000  0.268000  0.043000  1.0
  C  C1178  1  0.627000  0.775000  0.732000  1.0
  C  C1179  1  0.627000  0.957000  0.225000  1.0
  C  C1180  1  0.373000  0.225000  0.957000  1.0
  C  C1181  1  0.373000  0.043000  0.268000  1.0
  C  C1182  1  0.373000  0.732000  0.775000  1.0
  C  C1183  1  0.583200  0.240700  0.979000  1.0
  C  C1184  1  0.583200  0.738300  0.759300  1.0
  C  C1185  1  0.583200  0.021000  0.261700  1.0
  C  C1186  1  0.416800  0.979000  0.240700  1.0
  C  C1187  1  0.416800  0.759300  0.738300  1.0
  C  C1188  1  0.416800  0.261700  0.021000  1.0
  C  C1189  1  0.583200  0.261700  0.021000  1.0
  C  C1190  1  0.583200  0.759300  0.738300  1.0
  C  C1191  1  0.583200  0.979000  0.240700  1.0
  C  C1192  1  0.416800  0.240700  0.979000  1.0
  C  C1193  1  0.416800  0.021000  0.261700  1.0
  C  C1194  1  0.416800  0.738300  0.759300  1.0
  C  C1195  1  0.642700  0.522300  0.954700  1.0
  C  C1196  1  0.642700  0.432400  0.477700  1.0
  C  C1197  1  0.642700  0.045300  0.567600  1.0
  C  C1198  1  0.357300  0.954700  0.522300  1.0
  C  C1199  1  0.357300  0.477700  0.432400  1.0
  C  C1200  1  0.357300  0.567600  0.045300  1.0
  C  C1201  1  0.642700  0.567600  0.045300  1.0
  C  C1202  1  0.642700  0.477700  0.432400  1.0
  C  C1203  1  0.642700  0.954700  0.522300  1.0
  C  C1204  1  0.357300  0.522300  0.954700  1.0
  C  C1205  1  0.357300  0.045300  0.567600  1.0
  C  C1206  1  0.357300  0.432400  0.477700  1.0
  C  C1207  1  0.612900  0.624000  0.949400  1.0
  C  C1208  1  0.612900  0.325400  0.376000  1.0
  C  C1209  1  0.612900  0.050600  0.674600  1.0
  C  C1210  1  0.387100  0.949400  0.624000  1.0
  C  C1211  1  0.387100  0.376000  0.325400  1.0
  C  C1212  1  0.387100  0.674600  0.050600  1.0
  C  C1213  1  0.612900  0.674600  0.050600  1.0
  C  C1214  1  0.612900  0.376000  0.325400  1.0
  C  C1215  1  0.612900  0.949400  0.624000  1.0
  C  C1216  1  0.387100  0.624000  0.949400  1.0
  C  C1217  1  0.387100  0.050600  0.674600  1.0
  C  C1218  1  0.387100  0.325400  0.376000  1.0
  C  C1219  1  0.810500  0.487200  0.900600  1.0
  C  C1220  1  0.810500  0.413400  0.512800  1.0
  C  C1221  1  0.810500  0.099400  0.586600  1.0
  C  C1222  1  0.189500  0.900600  0.487200  1.0
  C  C1223  1  0.189500  0.512800  0.413400  1.0
  C  C1224  1  0.189500  0.586600  0.099400  1.0
  C  C1225  1  0.810500  0.586600  0.099400  1.0
  C  C1226  1  0.810500  0.512800  0.413400  1.0
  C  C1227  1  0.810500  0.900600  0.487200  1.0
  C  C1228  1  0.189500  0.487200  0.900600  1.0
  C  C1229  1  0.189500  0.099400  0.586600  1.0
  C  C1230  1  0.189500  0.413400  0.512800  1.0
  C  C1231  1  0.798700  0.479800  0.865000  1.0
  C  C1232  1  0.798700  0.385200  0.520200  1.0
  C  C1233  1  0.798700  0.135000  0.614800  1.0
  C  C1234  1  0.201300  0.865000  0.479800  1.0
  C  C1235  1  0.201300  0.520200  0.385200  1.0
  C  C1236  1  0.201300  0.614800  0.135000  1.0
  C  C1237  1  0.798700  0.614800  0.135000  1.0
  C  C1238  1  0.798700  0.520200  0.385200  1.0
  C  C1239  1  0.798700  0.865000  0.479800  1.0
  C  C1240  1  0.201300  0.479800  0.865000  1.0
  C  C1241  1  0.201300  0.135000  0.614800  1.0
  C  C1242  1  0.201300  0.385200  0.520200  1.0
  C  C1243  1  0.845700  0.465800  0.911800  1.0
  C  C1244  1  0.845700  0.446000  0.534200  1.0
  C  C1245  1  0.845700  0.088200  0.554000  1.0
  C  C1246  1  0.154300  0.911800  0.465800  1.0
  C  C1247  1  0.154300  0.534200  0.446000  1.0
  C  C1248  1  0.154300  0.554000  0.088200  1.0
  C  C1249  1  0.845700  0.554000  0.088200  1.0
  C  C1250  1  0.845700  0.534200  0.446000  1.0
  C  C1251  1  0.845700  0.911800  0.465800  1.0
  C  C1252  1  0.154300  0.465800  0.911800  1.0
  C  C1253  1  0.154300  0.088200  0.554000  1.0
  C  C1254  1  0.154300  0.446000  0.534200  1.0
  C  C1255  1  0.818300  0.449700  0.831000  1.0
  C  C1256  1  0.818300  0.381300  0.550300  1.0
  C  C1257  1  0.818300  0.169000  0.618700  1.0
  C  C1258  1  0.181700  0.831000  0.449700  1.0
  C  C1259  1  0.181700  0.550300  0.381300  1.0
  C  C1260  1  0.181700  0.618700  0.169000  1.0
  C  C1261  1  0.818300  0.618700  0.169000  1.0
  C  C1262  1  0.818300  0.550300  0.381300  1.0
  C  C1263  1  0.818300  0.831000  0.449700  1.0
  C  C1264  1  0.181700  0.449700  0.831000  1.0
  C  C1265  1  0.181700  0.169000  0.618700  1.0
  C  C1266  1  0.181700  0.381300  0.550300  1.0
  C  C1267  1  0.872900  0.436600  0.875800  1.0
  C  C1268  1  0.872900  0.439200  0.563400  1.0
  C  C1269  1  0.872900  0.124200  0.560800  1.0
  C  C1270  1  0.127100  0.875800  0.436600  1.0
  C  C1271  1  0.127100  0.563400  0.439200  1.0
  C  C1272  1  0.127100  0.560800  0.124200  1.0
  C  C1273  1  0.872900  0.560800  0.124200  1.0
  C  C1274  1  0.872900  0.563400  0.439200  1.0
  C  C1275  1  0.872900  0.875800  0.436600  1.0
  C  C1276  1  0.127100  0.436600  0.875800  1.0
  C  C1277  1  0.127100  0.124200  0.560800  1.0
  C  C1278  1  0.127100  0.439200  0.563400  1.0
  C  C1279  1  0.674400  0.547400  0.979400  1.0
  C  C1280  1  0.674400  0.432000  0.452600  1.0
  C  C1281  1  0.674400  0.020600  0.568000  1.0
  C  C1282  1  0.325600  0.979400  0.547400  1.0
  C  C1283  1  0.325600  0.452600  0.432000  1.0
  C  C1284  1  0.325600  0.568000  0.020600  1.0
  C  C1285  1  0.674400  0.568000  0.020600  1.0
  C  C1286  1  0.674400  0.452600  0.432000  1.0
  C  C1287  1  0.674400  0.979400  0.547400  1.0
  C  C1288  1  0.325600  0.547400  0.979400  1.0
  C  C1289  1  0.325600  0.020600  0.568000  1.0
  C  C1290  1  0.325600  0.432000  0.452600  1.0
  C  C1291  1  0.608000  0.520000  0.979300  1.0
  C  C1292  1  0.608000  0.459300  0.480000  1.0
  C  C1293  1  0.608000  0.020700  0.540700  1.0
  C  C1294  1  0.392000  0.979300  0.520000  1.0
  C  C1295  1  0.392000  0.480000  0.459300  1.0
  C  C1296  1  0.392000  0.540700  0.020700  1.0
  C  C1297  1  0.608000  0.540700  0.020700  1.0
  C  C1298  1  0.608000  0.480000  0.459300  1.0
  C  C1299  1  0.608000  0.979300  0.520000  1.0
  C  C1300  1  0.392000  0.520000  0.979300  1.0
  C  C1301  1  0.392000  0.020700  0.540700  1.0
  C  C1302  1  0.392000  0.459300  0.480000  1.0
  C  C1303  1  0.645100  0.494900  0.910600  1.0
  C  C1304  1  0.645100  0.415700  0.505100  1.0
  C  C1305  1  0.645100  0.089400  0.584300  1.0
  C  C1306  1  0.354900  0.910600  0.494900  1.0
  C  C1307  1  0.354900  0.505100  0.415700  1.0
  C  C1308  1  0.354900  0.584300  0.089400  1.0
  C  C1309  1  0.645100  0.584300  0.089400  1.0
  C  C1310  1  0.645100  0.505100  0.415700  1.0
  C  C1311  1  0.645100  0.910600  0.494900  1.0
  C  C1312  1  0.354900  0.494900  0.910600  1.0
  C  C1313  1  0.354900  0.089400  0.584300  1.0
  C  C1314  1  0.354900  0.415700  0.505100  1.0
  N  N1315  1  1.000000  0.295700  0.885100  1.0
  N  N1316  1  1.000000  0.589400  0.704300  1.0
  N  N1317  1  1.000000  0.114900  0.410600  1.0
  N  N1318  1  0.000000  0.885100  0.295700  1.0
  N  N1319  1  0.000000  0.704300  0.589400  1.0
  N  N1320  1  1.000000  0.410600  0.114900  1.0
  N  N1321  1  1.000000  0.400000  0.880300  1.0
  N  N1322  1  1.000000  0.480300  0.600000  1.0
  N  N1323  1  1.000000  0.119700  0.519700  1.0
  N  N1324  1  0.000000  0.880300  0.400000  1.0
  N  N1325  1  0.000000  0.600000  0.480300  1.0
  N  N1326  1  0.000000  0.519700  0.119700  1.0
  N  N1327  1  0.926700  0.348400  0.884100  1.0
  N  N1328  1  0.926700  0.535700  0.651600  1.0
  N  N1329  1  0.926700  0.115900  0.464300  1.0
  N  N1330  1  0.073300  0.884100  0.348400  1.0
  N  N1331  1  0.073300  0.651600  0.535700  1.0
  N  N1332  1  0.073300  0.464300  0.115900  1.0
  N  N1333  1  0.926700  0.464300  0.115900  1.0
  N  N1334  1  0.926700  0.651600  0.535700  1.0
  N  N1335  1  0.926700  0.884100  0.348400  1.0
  N  N1336  1  0.073300  0.348400  0.884100  1.0
  N  N1337  1  0.073300  0.115900  0.464300  1.0
  N  N1338  1  0.073300  0.535700  0.651600  1.0
  N  N1339  1  0.646400  0.096900  0.906800  1.0
  N  N1340  1  0.646400  0.809900  0.903100  1.0
  N  N1341  1  0.646400  0.093200  0.190100  1.0
  N  N1342  1  0.353600  0.906800  0.096900  1.0
  N  N1343  1  0.353600  0.903100  0.809900  1.0
  N  N1344  1  0.353600  0.190100  0.093200  1.0
  N  N1345  1  0.646400  0.190100  0.093200  1.0
  N  N1346  1  0.646400  0.903100  0.809900  1.0
  N  N1347  1  0.646400  0.906800  0.096900  1.0
  N  N1348  1  0.353600  0.096900  0.906800  1.0
  N  N1349  1  0.353600  0.093200  0.190100  1.0
  N  N1350  1  0.353600  0.809900  0.903100  1.0
  N  N1351  1  0.630000  0.161800  0.888800  1.0
  N  N1352  1  0.630000  0.727000  0.838200  1.0
  N  N1353  1  0.630000  0.111200  0.273000  1.0
  N  N1354  1  0.370000  0.888800  0.161800  1.0
  N  N1355  1  0.370000  0.838200  0.727000  1.0
  N  N1356  1  0.370000  0.273000  0.111200  1.0
  N  N1357  1  0.630000  0.273000  0.111200  1.0
  N  N1358  1  0.630000  0.838200  0.727000  1.0
  N  N1359  1  0.630000  0.888800  0.161800  1.0
  N  N1360  1  0.370000  0.161800  0.888800  1.0
  N  N1361  1  0.370000  0.111200  0.273000  1.0
  N  N1362  1  0.370000  0.727000  0.838200  1.0
  N  N1363  1  0.619400  0.598600  0.905600  1.0
  N  N1364  1  0.619400  0.307000  0.401400  1.0
  N  N1365  1  0.619400  0.094400  0.693000  1.0
  N  N1366  1  0.380600  0.905600  0.598600  1.0
  N  N1367  1  0.380600  0.401400  0.307000  1.0
  N  N1368  1  0.380600  0.693000  0.094400  1.0
  N  N1369  1  0.619400  0.693000  0.094400  1.0
  N  N1370  1  0.619400  0.401400  0.307000  1.0
  N  N1371  1  0.619400  0.905600  0.598600  1.0
  N  N1372  1  0.380600  0.598600  0.905600  1.0
  N  N1373  1  0.380600  0.094400  0.693000  1.0
  N  N1374  1  0.380600  0.307000  0.401400  1.0
  N  N1375  1  0.628800  0.519000  0.886100  1.0
  N  N1376  1  0.628800  0.367100  0.481000  1.0
  N  N1377  1  0.628800  0.113900  0.632900  1.0
  N  N1378  1  0.371200  0.886100  0.519000  1.0
  N  N1379  1  0.371200  0.481000  0.367100  1.0
  N  N1380  1  0.371200  0.632900  0.113900  1.0
  N  N1381  1  0.628800  0.632900  0.113900  1.0
  N  N1382  1  0.628800  0.481000  0.367100  1.0
  N  N1383  1  0.628800  0.886100  0.519000  1.0
  N  N1384  1  0.371200  0.519000  0.886100  1.0
  N  N1385  1  0.371200  0.113900  0.632900  1.0
  N  N1386  1  0.371200  0.367100  0.481000  1.0
  N  N1387  1  0.714200  0.607500  0.887000  1.0
  N  N1388  1  0.714200  0.279500  0.392500  1.0
  N  N1389  1  0.714200  0.113000  0.720500  1.0
  N  N1390  1  0.285800  0.887000  0.607500  1.0
  N  N1391  1  0.285800  0.392500  0.279500  1.0
  N  N1392  1  0.285800  0.720500  0.113000  1.0
  N  N1393  1  0.714200  0.720500  0.113000  1.0
  N  N1394  1  0.714200  0.392500  0.279500  1.0
  N  N1395  1  0.714200  0.887000  0.607500  1.0
  N  N1396  1  0.285800  0.607500  0.887000  1.0
  N  N1397  1  0.285800  0.113000  0.720500  1.0
  N  N1398  1  0.285800  0.279500  0.392500  1.0
  N  N1399  1  0.744900  0.089800  0.888800  1.0
  N  N1400  1  0.744900  0.799000  0.910200  1.0
  N  N1401  1  0.744900  0.111200  0.201000  1.0
  N  N1402  1  0.255100  0.888800  0.089800  1.0
  N  N1403  1  0.255100  0.910200  0.799000  1.0
  N  N1404  1  0.255100  0.201000  0.111200  1.0
  N  N1405  1  0.744900  0.201000  0.111200  1.0
  N  N1406  1  0.744900  0.910200  0.799000  1.0
  N  N1407  1  0.744900  0.888800  0.089800  1.0
  N  N1408  1  0.255100  0.089800  0.888800  1.0
  N  N1409  1  0.255100  0.111200  0.201000  1.0
  N  N1410  1  0.255100  0.799000  0.910200  1.0
  Cl  Cl1411  1  0.500000  0.433300  0.869200  1
  Cl  Cl1412  1  0.500000  0.435900  0.566700  1
  Cl  Cl1413  1  0.500000  0.130800  0.564100  1
  Cl  Cl1414  1  0.500000  0.869200  0.433300  1
  Cl  Cl1415  1  0.500000  0.566700  0.435900  1
  Cl  Cl1416  1  0.500000  0.564100  0.130800  1
  Cl  Cl1417  1  0.500000  0.618700  0.000000  1
  Cl  Cl1418  1  0.500000  0.381300  0.381300  1
  Cl  Cl1419  1  0.500000  1.000000  0.618700  1
  Cl  Cl1420  1  0.634700  0.760320  0.000000  1
  Cl  Cl1421  1  0.634700  0.239680  0.239680  1
  Cl  Cl1422  1  0.634700  1.000000  0.760320  1
  Cl  Cl1423  1  0.365300  1.000000  0.760320  1
  Cl  Cl1424  1  0.365300  0.239680  0.239680  1
  Cl  Cl1425  1  0.365300  0.760320  0.000000  1
  Cl  Cl1426  1  0.854700  1.000000  0.879400  1
  Cl  Cl1427  1  0.854700  0.879400  0.000000  1
  Cl  Cl1428  1  0.854700  0.120600  0.120600  1
  Cl  Cl1429  1  0.145300  0.879400  0.000000  1
  Cl  Cl1430  1  0.145300  1.000000  0.879400  1
  Cl  Cl1431  1  0.145300  0.120600  0.120600  1
  Cl  Cl1432  1  0.500000  0.152900  0.000000  1
  Cl  Cl1433  1  0.500000  0.847100  0.847100  1
  Cl  Cl1434  1  0.500000  1.000000  0.152900  1
  O  O1435  1  0.500000  0.456100  0.917500  1
  O  O1436  1  0.500000  0.461400  0.543900  1
  O  O1437  1  0.500000  0.082500  0.538600  1
  O  O1438  1  0.500000  0.917500  0.456100  1
  O  O1439  1  0.500000  0.543900  0.461400  1
  O  O1440  1  0.500000  0.538600  0.082500  1
  O  O1441  1  0.500000  0.449000  0.835300  1
  O  O1442  1  0.500000  0.386300  0.551000  1
  O  O1443  1  0.500000  0.164700  0.613700  1
  O  O1444  1  0.500000  0.835300  0.449000  1
  O  O1445  1  0.500000  0.551000  0.386300  1
  O  O1446  1  0.500000  0.613700  0.164700  1
  O  O1447  1  0.542000  0.183000  0.000000  1
  O  O1448  1  0.542000  0.817000  0.817000  1
  O  O1449  1  0.542000  1.000000  0.183000  1
  O  O1450  1  0.458000  1.000000  0.183000  1
  O  O1451  1  0.458000  0.817000  0.817000  1
  O  O1452  1  0.458000  0.183000  0.000000  1
  O  O1453  1  0.530000  0.123100  0.000000  1
  O  O1454  1  0.530000  0.876900  0.876900  1
  O  O1455  1  0.530000  1.000000  0.123100  1
  O  O1456  1  0.470000  1.000000  0.123100  1
  O  O1457  1  0.470000  0.876900  0.876900  1
  O  O1458  1  0.470000  0.123100  0.000000  1
  O  O1459  1  0.500000  0.126900  0.950600  1
  O  O1460  1  0.500000  0.823700  0.873100  1
  O  O1461  1  0.500000  0.049400  0.176300  1
  O  O1462  1  0.500000  0.950600  0.126900  1
  O  O1463  1  0.500000  0.873100  0.823700  1
  O  O1464  1  0.500000  0.176300  0.049400  1
  O  O1465  1  0.544000  0.594800  0.000000  1
  O  O1466  1  0.544000  0.405200  0.405200  1
  O  O1467  1  0.544000  1.000000  0.594800  1
  O  O1468  1  0.456000  1.000000  0.594800  1
  O  O1469  1  0.456000  0.405200  0.405200  1
  O  O1470  1  0.456000  0.594800  0.000000  1
  O  O1471  1  0.500000  0.666000  0.025000  1
  O  O1472  1  0.500000  0.359000  0.334000  1
  O  O1473  1  0.500000  0.975000  0.641000  1
  O  O1474  1  0.500000  0.025000  0.666000  1
  O  O1475  1  0.500000  0.334000  0.359000  1
  O  O1476  1  0.500000  0.641000  0.975000  1
  O  O1477  1  0.605200  0.784400  0.000000  1
  O  O1478  1  0.605200  0.215600  0.215600  1
  O  O1479  1  0.605200  1.000000  0.784400  1
  O  O1480  1  0.394800  1.000000  0.784400  1
  O  O1481  1  0.394800  0.215600  0.215600  1
  O  O1482  1  0.394800  0.784400  0.000000  1
  O  O1483  1  0.652300  0.747600  0.960400  1
  O  O1484  1  0.652300  0.212800  0.252400  1
  O  O1485  1  0.652300  0.039600  0.787200  1
  O  O1486  1  0.347700  0.960400  0.747600  1
  O  O1487  1  0.347700  0.252400  0.212800  1
  O  O1488  1  0.347700  0.787200  0.039600  1
  O  O1489  1  0.652300  0.787200  0.039600  1
  O  O1490  1  0.652300  0.252400  0.212800  1
  O  O1491  1  0.652300  0.960400  0.747600  1
  O  O1492  1  0.347700  0.747600  0.960400  1
  O  O1493  1  0.347700  0.039600  0.787200  1
  O  O1494  1  0.347700  0.212800  0.252400  1
  O  O1495  1  0.624800  0.725100  1.000000  1
  O  O1496  1  0.624800  0.274900  0.274900  1
  O  O1497  1  0.624800  1.000000  0.725100  1
  O  O1498  1  0.375200  1.000000  0.725100  1
  O  O1499  1  0.375200  0.274900  0.274900  1
  O  O1500  1  0.375200  0.725100  1.000000  1
  O  O1501  1  0.885000  0.041000  0.901000  1
  O  O1502  1  0.885000  0.860000  0.959000  1
  O  O1503  1  0.885000  0.099000  0.140000  1
  O  O1504  1  0.115000  0.901000  0.041000  1
  O  O1505  1  0.115000  0.959000  0.860000  1
  O  O1506  1  0.115000  0.140000  0.099000  1
  O  O1507  1  0.885000  0.140000  0.099000  1
  O  O1508  1  0.885000  0.959000  0.860000  1
  O  O1509  1  0.885000  0.901000  0.041000  1
  O  O1510  1  0.115000  0.041000  0.901000  1
  O  O1511  1  0.115000  0.099000  0.140000  1
  O  O1512  1  0.115000  0.860000  0.959000  1
  O  O1513  1  0.803000  1.000000  0.888000  1
  O  O1514  1  0.803000  0.888000  0.000000  1
  O  O1515  1  0.803000  0.112000  0.112000  1
  O  O1516  1  0.197000  0.888000  0.000000  1
  O  O1517  1  0.197000  1.000000  0.888000  1
  O  O1518  1  0.197000  0.112000  0.112000  1
  O  O1519  1  0.849500  1.000000  0.844900  1
  O  O1520  1  0.849500  0.844900  0.000000  1
  O  O1521  1  0.849500  0.155100  0.155100  1
  O  O1522  1  0.150500  0.844900  0.000000  1
  O  O1523  1  0.150500  1.000000  0.844900  1
  O  O1524  1  0.150500  0.155100  0.155100  1
  O  O1525  1  0.550800  0.146100  0.000000  1
  O  O1526  1  0.550800  0.853900  0.853900  1
  O  O1527  1  0.550800  1.000000  0.146100  1
  O  O1528  1  0.449200  1.000000  0.146100  1
  O  O1529  1  0.449200  0.853900  0.853900  1
  O  O1530  1  0.449200  0.146100  0.000000  1
  O  O1531  1  0.548000  0.414400  0.851800  1.0
  O  O1532  1  0.548000  0.437400  0.585600  1.0
  O  O1533  1  0.548000  0.148200  0.562600  1.0
  O  O1534  1  0.452000  0.851800  0.414400  1.0
  O  O1535  1  0.452000  0.585600  0.437400  1.0
  O  O1536  1  0.452000  0.562600  0.148200  1.0
  O  O1537  1  0.548000  0.562600  0.148200  1.0
  O  O1538  1  0.548000  0.585600  0.437400  1.0
  O  O1539  1  0.548000  0.851800  0.414400  1.0
  O  O1540  1  0.452000  0.414400  0.851800  1.0
  O  O1541  1  0.452000  0.148200  0.562600  1.0
  O  O1542  1  0.452000  0.437400  0.585600  1.0
  O  O1543  1  0.738300  0.172700  0.893200  1.0
  O  O1544  1  0.738300  0.720500  0.827300  1.0
  O  O1545  1  0.738300  0.106800  0.279500  1.0
  O  O1546  1  0.261700  0.893200  0.172700  1.0
  O  O1547  1  0.261700  0.827300  0.720500  1.0
  O  O1548  1  0.261700  0.279500  0.106800  1.0
  O  O1549  1  0.738300  0.279500  0.106800  1.0
  O  O1550  1  0.738300  0.827300  0.720500  1.0
  O  O1551  1  0.738300  0.893200  0.172700  1.0
  O  O1552  1  0.261700  0.172700  0.893200  1.0
  O  O1553  1  0.261700  0.106800  0.279500  1.0
  O  O1554  1  0.261700  0.720500  0.827300  1.0
  O  O1555  1  0.751000  0.138300  0.825200  1.0
  O  O1556  1  0.751000  0.686900  0.861700  1.0
  O  O1557  1  0.751000  0.174800  0.313100  1.0
  O  O1558  1  0.249000  0.825200  0.138300  1.0
  O  O1559  1  0.249000  0.861700  0.686900  1.0
  O  O1560  1  0.249000  0.313100  0.174800  1.0
  O  O1561  1  0.751000  0.313100  0.174800  1.0
  O  O1562  1  0.751000  0.861700  0.686900  1.0
  O  O1563  1  0.751000  0.825200  0.138300  1.0
  O  O1564  1  0.249000  0.138300  0.825200  1.0
  O  O1565  1  0.249000  0.174800  0.313100  1.0
  O  O1566  1  0.249000  0.686900  0.861700  1.0
  O  O1567  1  0.738700  0.530500  0.891300  1.0
  O  O1568  1  0.738700  0.360800  0.469500  1.0
  O  O1569  1  0.738700  0.108700  0.639200  1.0
  O  O1570  1  0.261300  0.891300  0.530500  1.0
  O  O1571  1  0.261300  0.469500  0.360800  1.0
  O  O1572  1  0.261300  0.639200  0.108700  1.0
  O  O1573  1  0.738700  0.639200  0.108700  1.0
  O  O1574  1  0.738700  0.469500  0.360800  1.0
  O  O1575  1  0.738700  0.891300  0.530500  1.0
  O  O1576  1  0.261300  0.530500  0.891300  1.0
  O  O1577  1  0.261300  0.108700  0.639200  1.0
  O  O1578  1  0.261300  0.360800  0.469500  1.0
  O  O1579  1  0.746200  0.495000  0.822500  1.0
  O  O1580  1  0.746200  0.327500  0.505000  1.0
  O  O1581  1  0.746200  0.177500  0.672500  1.0
  O  O1582  1  0.253800  0.822500  0.495000  1.0
  O  O1583  1  0.253800  0.505000  0.327500  1.0
  O  O1584  1  0.253800  0.672500  0.177500  1.0
  O  O1585  1  0.746200  0.672500  0.177500  1.0
  O  O1586  1  0.746200  0.505000  0.327500  1.0
  O  O1587  1  0.746200  0.822500  0.495000  1.0
  O  O1588  1  0.253800  0.495000  0.822500  1.0
  O  O1589  1  0.253800  0.177500  0.672500  1.0
  O  O1590  1  0.253800  0.327500  0.505000  1.0
