
#######################################################################
#
#                 Cambridge Crystallographic Data Centre
#                                CCDC 
#
#######################################################################
#
# If this CIF has been generated from an entry in the Cambridge 
# Structural Database, then it will include bibliographic, chemical, 
# crystal, experimental, refinement or atomic coordinate data resulting 
# from the CCDC's data processing and validation procedures.
#
#######################################################################

data_FIBTER
_chemical_formula_moiety         'C216 H248 N32 O16 Pd10 8+,8(Cl1 O4 1-)'
_chemical_name_systematic        
"bis(\m~5~-4,4',4'',4'''-Porphyrinato-5,10,15,20-tetrayltetrabenzoato)-tetrakis(\m~2~- 3,6,9,16,19,22-hexamethyl-3,6,9,16,19,22-hexaazatricyclo[22.2.2.2^11,14^]triaconta-1(26),11,13,24,27,29-hexaene)-deca-palladium octaperchlorate"
_symmetry_cell_setting           hexagonal
_symmetry_space_group_name_H-M   'P -6 2 m'
_symmetry_Int_Tables_number      189
_space_group_name_Hall           "P -6 -2'"
loop_
_symmetry_equiv_pos_site_id
_symmetry_equiv_pos_as_xyz
1 x,y,z
2 -y,x-y,z
3 -x+y,-x,z
4 x-y,-y,-z
5 -x,-x+y,-z
6 y,x,-z
7 y,x,z
8 -x,-x+y,z
9 x-y,-y,z
10 x,y,-z
11 -x+y,-x,-z
12 -y,x-y,-z
_cell_length_a                   37.421(5)
_cell_length_b                   37.421(5)
_cell_length_c                   27.418(6)
_cell_angle_alpha                90
_cell_angle_beta                 90
_cell_angle_gamma                120
_cell_volume                     33250.4
_exptl_crystal_description       prism
_cell_formula_units_Z            3
loop_
_atom_site_label
_atom_site_type_symbol
_atom_site_fract_x
_atom_site_fract_y
_atom_site_fract_z
C1 C 0.4967(13) 0.3544(12) 0.2409(15)
C2 C 0.7260(6) 0.6113(7) 0.0415(8)
C3 C 0.5123(11) 0.351(2) 0.3681(13)
H1 H 0.5220 0.3531 0.3353
H2 H 0.4986 0.3221 0.3779
H3 H 0.5352 0.3665 0.3895
C4 C 0.8329(8) 0.6926(7) 0.2401(8)
C5 C 0.9405(8) 0.8376(9) 0.2834(15)
H4 H 0.9675 0.8489 0.2685
H5 H 0.9319 0.8581 0.2801
C6 C 0.8309(5) 0.8104(6) 0.2254(8)
H6 H 0.8172 0.7828 0.2346
C7 C 0.7701(8) 0.6741(9) 0.1889(9)
H7 H 0.7672 0.6931 0.2077
C8 C 0.6818(8) 0.5643(8) 0.1029(8)
C9 C 0.7166(7) 0.6001(8) 0.0876(8)
C10 C 0.8891(10) 0.8707(10) 0.1975(12)
H8 H 0.9165 0.8846 0.1872
C11 C 0.6355(8) 0.5154(9) 0.1516(8)
H9 H 0.6215 0.4994 0.1785
C12 C 0.3755(9) 0.2884(10) 0.2358(11)
H10 H 0.3988 0.3046 0.2144
H11 H 0.3579 0.2622 0.2197
C13 C 0.6239(7) 0.5059(7) 0.1033(8)
C14 C 0.7638(6) 0.6487(7) 0.0225(8)
H12 H 0.7843 0.6690 0.0419
C15 C 0.7465(7) 0.6259(7) 0.1247(9)
C16 C 0.8016(7) 0.6688(8) 0.1986(7)
C17 C 0.9441(8) 0.8310(12) 0.3349(14)
H13 H 0.9572 0.8146 0.3393
H14 H 0.9604 0.8572 0.3514
C18 C 0.8951(9) 0.8050(10) 0.2083(12)
H15 H 0.8769 0.7782 0.1939
H16 H 0.9183 0.8198 0.1864
C19 C 0.7810(10) 0.6204(12) 0.1351(11)
H17 H 0.7857 0.6022 0.1169
C20 C 0.4313(10) 0.3157(11) 0.4245(11)
C21 C 0.5900(9) 0.4702(11) 0.0874(11)
C22 C 0.5695(10) 0.4085(16) 0.1368(14)
H18 H 0.5859 0.4031 0.1160
C23 C 0.7424(8) 0.6544(8) 0.1547(9)
H19 H 0.7205 0.6592 0.1503
C24 C 0.8073(10) 0.6430(9) 0.1730(12)
H20 H 0.8296 0.6395 0.1803
C25 C 0.5753(7) 0.4594(8) 0.0389(11)
C26 C 0.8593(11) 0.7569(13) 0.4132(11)
H21 H 0.8434 0.7700 0.4214
H22 H 0.8591 0.7411 0.4413
C27 C 0.5414(8) 0.4210(9) 0.0241(10)
H23 H 0.5228 0.4000 0.0443
C28 C 0.9034(11) 0.7900(13) 0.4029(18)
H24 H 0.9211 0.7781 0.4010
H25 H 0.9135 0.8106 0.4286
C29 C 0.9324(12) 0.7779(14) 0.2395(18)
H26 H 0.9439 0.7719 0.2675
H27 H 0.9542 0.7953 0.2175
H28 H 0.9136 0.7526 0.2233
C30 C 0.4118(10) 0.2567(10) 0.2750(13)
H29 H 0.4362 0.2733 0.2560
H30 H 0.3932 0.2325 0.2568
H31 H 0.4193 0.2486 0.3048
C31 C 0.8568(12) 0.6986(11) 0.3734(11)
H32 H 0.8863 0.7149 0.3714
H33 H 0.8466 0.6791 0.3470
H34 H 0.8491 0.6841 0.4039
C32 C 0.7951(9) 0.7064(9) 0.3726(12)
H35 H 0.7867 0.6896 0.4020
H36 H 0.7842 0.6876 0.3451
C33 C 0.6715(9) 0.5526(12) 0.1527(9)
H37 H 0.6861 0.5672 0.1802
C34 C 0.3735(9) 0.2628(8) 0.3696(11)
C35 C 0.3522(13) 0.2585(11) 0.3166(11)
C36 C 0.4642(9) 0.3630(13) 0.4215(14)
C37 C 0.8840(8) 0.8358(10) 0.3597(10)
H38 H 0.8566 0.8194 0.3725
H39 H 0.8827 0.8470 0.3287
H40 H 0.9002 0.8579 0.3819
C38 C 0.8719(8) 0.8288(8) 0.2123(10)
C39 C 0.3746(7) 0.3555(9) 0.2407(10)
H41 H 0.4033 0.3705 0.2400
C40 C 0.3534(10) 0.3091(10) 0.2419(12)
C41 C 0.3100(9) 0.2884(8) 0.2403(12)
H42 H 0.2953 0.2598 0.2392
C42 C 0.7698(7) 0.7484(8) 0.3303(8)
H43 H 0.7807 0.7451 0.3013
C43 C 0.7750(6) 0.7320(7) 0.3730(11)
C44 C 0.7593(9) 0.7383(8) 0.4168(9)
H44 H 0.7633 0.7280 0.4459
C45 C 0.4777(12) 0.4324(14) 0.3573(14)
C46 C 0.3760(11) 0.3254(9) 0.3871(9)
H45 H 0.3931 0.3542 0.3943
H46 H 0.3572 0.3120 0.4137
H47 H 0.3607 0.3222 0.3578
C47 C 0.5128(9) 0.4134(12) 0.1895(13)
H48 H 0.4909 0.4132 0.2055
C48 C 0.5202(10) 0.3852(12) 0.2013(13)
C49 C 0.5342(8) 0.4460(10) 0.1543(10)
H49 H 0.5298 0.4681 0.1497
C50 C 0.5503(15) 0.3813(12) 0.1817(18)
H50 H 0.5590 0.3638 0.1940
O1 O 0.8273(4) 0.7205(5) 0.2617(6)
O2 O 0.8617(5) 0.6869(5) 0.2490(6)
O3 O 0.4695(6) 0.3608(5) 0.2613(9)
O4 O 0.5050(8) 0.3275(12) 0.2538(12)
Pd1 Pd 0.86779(6) 0.76250(6) 0.30902(7)
Pd2 Pd 0.65180(7) 0.53623(8) 0.0000
Pd3 Pd 0.43684(7) 0.33125(7) 0.32194(9)
N1 N 0.7043(6) 0.5894(8) 0.0000
N2 N 0.6516(5) 0.5357(6) 0.0733(6)
N3 N 0.9031(7) 0.8099(8) 0.3536(11)
N4 N 0.8382(6) 0.7270(5) 0.3700(8)
N5 N 0.6000(7) 0.4803(8) 0.0000
N6 N 0.4014(6) 0.3070(8) 0.3806(9)
N7 N 0.4810(8) 0.3671(9) 0.3712(11)
N8 N 0.3925(7) 0.2795(8) 0.2858(10)
N9 N 0.9102(6) 0.7990(8) 0.2551(12)
C51 C 0.5634(9) 0.4392(10) 0.1271(11)
C52 C 0.4526(9) 0.4320(8) 0.3256(14)
C53 C 0.4800(13) 0.4593(14) 0.392(3)
H51 H 0.4976 0.4640 0.4178
C54 C 0.5051(13) 0.4157(9) 0.3549(17)
H52 H 0.5285 0.4313 0.3763
H53 H 0.5154 0.4182 0.3219
C1I C 0.4967(13) 0.3544(12) -0.2409(15)
C2I C 0.7260(6) 0.6113(7) -0.0415(8)
C4I C 0.8329(8) 0.6926(7) -0.2401(8)
C7I C 0.7701(8) 0.6741(9) -0.1889(9)
H7I H 0.7672 0.6931 -0.2077
C8I C 0.6818(8) 0.5643(8) -0.1029(8)
C9I C 0.7166(7) 0.6001(8) -0.0876(8)
C11I C 0.6355(8) 0.5154(9) -0.1516(8)
H9I H 0.6215 0.4994 -0.1785
C13I C 0.6239(7) 0.5059(7) -0.1033(8)
C14I C 0.7638(6) 0.6487(7) -0.0225(8)
H12I H 0.7843 0.6690 -0.0419
C15I C 0.7465(7) 0.6259(7) -0.1247(9)
C16I C 0.8016(7) 0.6688(8) -0.1986(7)
C19I C 0.7810(10) 0.6204(12) -0.1351(11)
H17I H 0.7857 0.6022 -0.1169
C21I C 0.5900(9) 0.4702(11) -0.0874(11)
C22I C 0.5695(10) 0.4085(16) -0.1368(14)
H18I H 0.5859 0.4031 -0.1160
C23I C 0.7424(8) 0.6544(8) -0.1547(9)
H19I H 0.7205 0.6592 -0.1503
C24I C 0.8073(10) 0.6430(9) -0.1730(12)
H20I H 0.8296 0.6395 -0.1803
C25I C 0.5753(7) 0.4594(8) -0.0389(11)
C27I C 0.5414(8) 0.4210(9) -0.0241(10)
H23I H 0.5228 0.4000 -0.0443
C33I C 0.6715(9) 0.5526(12) -0.1527(9)
H37I H 0.6861 0.5672 -0.1802
C47I C 0.5128(9) 0.4134(12) -0.1895(13)
H48I H 0.4909 0.4132 -0.2055
C48I C 0.5202(10) 0.3852(12) -0.2013(13)
C49I C 0.5342(8) 0.4460(10) -0.1543(10)
H49I H 0.5298 0.4681 -0.1497
C50I C 0.5503(15) 0.3813(12) -0.1817(18)
H50I H 0.5590 0.3638 -0.1940
O1I O 0.8273(4) 0.7205(5) -0.2617(6)
O2I O 0.8617(5) 0.6869(5) -0.2490(6)
O3I O 0.4695(6) 0.3608(5) -0.2613(9)
O4I O 0.5050(8) 0.3275(12) -0.2538(12)
N2I N 0.6516(5) 0.5357(6) -0.0733(6)
C51I C 0.5634(9) 0.4392(10) -0.1271(11)
C3F C 0.351(2) 0.5123(11) 0.3681(13)
H1F H 0.3531 0.5220 0.3353
H2F H 0.3221 0.4986 0.3779
H3F H 0.3665 0.5352 0.3895
C12F C 0.2884(10) 0.3755(9) 0.2358(11)
H10F H 0.3046 0.3988 0.2144
H11F H 0.2622 0.3579 0.2197
C20F C 0.3157(11) 0.4313(10) 0.4245(11)
C30F C 0.2567(10) 0.4118(10) 0.2750(13)
H29F H 0.2733 0.4362 0.2560
H30F H 0.2325 0.3932 0.2568
H31F H 0.2486 0.4193 0.3048
C34F C 0.2628(8) 0.3735(9) 0.3696(11)
C35F C 0.2585(11) 0.3522(13) 0.3166(11)
C36F C 0.3630(13) 0.4642(9) 0.4215(14)
C39F C 0.3555(9) 0.3746(7) 0.2407(10)
H41F H 0.3705 0.4033 0.2400
C40F C 0.3091(10) 0.3534(10) 0.2419(12)
C41F C 0.2884(8) 0.3100(9) 0.2403(12)
H42F H 0.2598 0.2953 0.2392
C45F C 0.4324(14) 0.4777(12) 0.3573(14)
C46F C 0.3254(9) 0.3760(11) 0.3871(9)
H45F H 0.3542 0.3931 0.3943
H46F H 0.3120 0.3572 0.4137
H47F H 0.3222 0.3607 0.3578
N6F N 0.3070(8) 0.4014(6) 0.3806(9)
N7F N 0.3671(9) 0.4810(8) 0.3712(11)
N8F N 0.2795(8) 0.3925(7) 0.2858(10)
C52F C 0.4320(8) 0.4526(9) 0.3256(14)
C53F C 0.4593(14) 0.4800(13) 0.392(3)
H51F H 0.4640 0.4976 0.4178
C54F C 0.4157(9) 0.5051(13) 0.3549(17)
H52F H 0.4313 0.5285 0.3763
H53F H 0.4182 0.5154 0.3219
C5F C 0.8376(9) 0.9405(8) 0.2834(15)
H4F H 0.8489 0.9675 0.2685
H5F H 0.8581 0.9319 0.2801
C6F C 0.8104(6) 0.8309(5) 0.2254(8)
H6F H 0.7828 0.8172 0.2346
C10F C 0.8707(10) 0.8891(10) 0.1975(12)
H8F H 0.8846 0.9165 0.1872
C17F C 0.8310(12) 0.9441(8) 0.3349(14)
H13F H 0.8146 0.9572 0.3393
H14F H 0.8572 0.9604 0.3514
C18F C 0.8050(10) 0.8951(9) 0.2083(12)
H15F H 0.7782 0.8769 0.1939
H16F H 0.8198 0.9183 0.1864
C26F C 0.7569(13) 0.8593(11) 0.4132(11)
H21F H 0.7700 0.8434 0.4214
H22F H 0.7411 0.8591 0.4413
C28F C 0.7900(13) 0.9034(11) 0.4029(18)
H24F H 0.7781 0.9211 0.4010
H25F H 0.8106 0.9135 0.4286
C29F C 0.7779(14) 0.9324(12) 0.2395(18)
H26F H 0.7719 0.9439 0.2675
H27F H 0.7953 0.9542 0.2175
H28F H 0.7526 0.9136 0.2233
C31F C 0.6986(11) 0.8568(12) 0.3734(11)
H32F H 0.7149 0.8863 0.3714
H33F H 0.6791 0.8466 0.3470
H34F H 0.6841 0.8491 0.4039
C32F C 0.7064(9) 0.7951(9) 0.3726(12)
H35F H 0.6896 0.7867 0.4020
H36F H 0.6876 0.7842 0.3451
C37F C 0.8358(10) 0.8840(8) 0.3597(10)
H38F H 0.8194 0.8566 0.3725
H39F H 0.8470 0.8827 0.3287
H40F H 0.8579 0.9002 0.3819
C38F C 0.8288(8) 0.8719(8) 0.2123(10)
C42F C 0.7484(8) 0.7698(7) 0.3303(8)
H43F H 0.7451 0.7807 0.3013
C43F C 0.7320(7) 0.7750(6) 0.3730(11)
C44F C 0.7383(8) 0.7593(9) 0.4168(9)
H44F H 0.7280 0.7633 0.4459
N3F N 0.8099(8) 0.9031(7) 0.3536(11)
N4F N 0.7270(5) 0.8382(6) 0.3700(8)
N9F N 0.7990(8) 0.9102(6) 0.2551(12)
C1F C 0.3544(12) 0.4967(13) 0.2409(15)
C2F C 0.6113(7) 0.7260(6) 0.0415(8)
C4F C 0.6926(7) 0.8329(8) 0.2401(8)
C7F C 0.6741(9) 0.7701(8) 0.1889(9)
H7F H 0.6931 0.7672 0.2077
C8F C 0.5643(8) 0.6818(8) 0.1029(8)
C9F C 0.6001(8) 0.7166(7) 0.0876(8)
C11F C 0.5154(9) 0.6355(8) 0.1516(8)
H9F H 0.4994 0.6215 0.1785
C13F C 0.5059(7) 0.6239(7) 0.1033(8)
C14F C 0.6487(7) 0.7638(6) 0.0225(8)
H12F H 0.6690 0.7843 0.0419
C15F C 0.6259(7) 0.7465(7) 0.1247(9)
C16F C 0.6688(8) 0.8016(7) 0.1986(7)
C19F C 0.6204(12) 0.7810(10) 0.1351(11)
H17F H 0.6022 0.7857 0.1169
C21F C 0.4702(11) 0.5900(9) 0.0874(11)
C22F C 0.4085(16) 0.5695(10) 0.1368(14)
H18F H 0.4031 0.5859 0.1160
C23F C 0.6544(8) 0.7424(8) 0.1547(9)
H19F H 0.6592 0.7205 0.1503
C24F C 0.6430(9) 0.8073(10) 0.1730(12)
H20F H 0.6395 0.8296 0.1803
C25F C 0.4594(8) 0.5753(7) 0.0389(11)
C27F C 0.4210(9) 0.5414(8) 0.0241(10)
H23F H 0.4000 0.5228 0.0443
C33F C 0.5526(12) 0.6715(9) 0.1527(9)
H37F H 0.5672 0.6861 0.1802
C47F C 0.4134(12) 0.5128(9) 0.1895(13)
H48F H 0.4132 0.4909 0.2055
C48F C 0.3852(12) 0.5202(10) 0.2013(13)
C49F C 0.4460(10) 0.5342(8) 0.1543(10)
H49F H 0.4681 0.5298 0.1497
C50F C 0.3813(12) 0.5503(15) 0.1817(18)
H50F H 0.3638 0.5590 0.1940
O1F O 0.7205(5) 0.8273(4) 0.2617(6)
O2F O 0.6869(5) 0.8617(5) 0.2490(6)
O3F O 0.3608(5) 0.4695(6) 0.2613(9)
O4F O 0.3275(12) 0.5050(8) 0.2538(12)
Pd1F Pd 0.76250(6) 0.86779(6) 0.30902(7)
Pd2E Pd 0.53623(8) 0.65180(7) 0.0000
Pd3F Pd 0.33125(7) 0.43684(7) 0.32194(9)
N1E N 0.5894(8) 0.7043(6) 0.0000
N2F N 0.5357(6) 0.6516(5) 0.0733(6)
N5E N 0.4803(8) 0.6000(7) 0.0000
C51F C 0.4392(10) 0.5634(9) 0.1271(11)
C1E C 0.3544(12) 0.4967(13) -0.2409(15)
C2E C 0.6113(7) 0.7260(6) -0.0415(8)
C4E C 0.6926(7) 0.8329(8) -0.2401(8)
C7E C 0.6741(9) 0.7701(8) -0.1889(9)
H7E H 0.6931 0.7672 -0.2077
C8E C 0.5643(8) 0.6818(8) -0.1029(8)
C9E C 0.6001(8) 0.7166(7) -0.0876(8)
C11E C 0.5154(9) 0.6355(8) -0.1516(8)
H9E H 0.4994 0.6215 -0.1785
C13E C 0.5059(7) 0.6239(7) -0.1033(8)
C14E C 0.6487(7) 0.7638(6) -0.0225(8)
H12E H 0.6690 0.7843 -0.0419
C15E C 0.6259(7) 0.7465(7) -0.1247(9)
C16E C 0.6688(8) 0.8016(7) -0.1986(7)
C19E C 0.6204(12) 0.7810(10) -0.1351(11)
H17E H 0.6022 0.7857 -0.1169
C21E C 0.4702(11) 0.5900(9) -0.0874(11)
C22E C 0.4085(16) 0.5695(10) -0.1368(14)
H18E H 0.4031 0.5859 -0.1160
C23E C 0.6544(8) 0.7424(8) -0.1547(9)
H19E H 0.6592 0.7205 -0.1503
C24E C 0.6430(9) 0.8073(10) -0.1730(12)
H20E H 0.6395 0.8296 -0.1803
C25E C 0.4594(8) 0.5753(7) -0.0389(11)
C27E C 0.4210(9) 0.5414(8) -0.0241(10)
H23E H 0.4000 0.5228 -0.0443
C33E C 0.5526(12) 0.6715(9) -0.1527(9)
H37E H 0.5672 0.6861 -0.1802
C47E C 0.4134(12) 0.5128(9) -0.1895(13)
H48E H 0.4132 0.4909 -0.2055
C48E C 0.3852(12) 0.5202(10) -0.2013(13)
C49E C 0.4460(10) 0.5342(8) -0.1543(10)
H49E H 0.4681 0.5298 -0.1497
C50E C 0.3813(12) 0.5503(15) -0.1817(18)
H50E H 0.3638 0.5590 -0.1940
O1E O 0.7205(5) 0.8273(4) -0.2617(6)
O2E O 0.6869(5) 0.8617(5) -0.2490(6)
O3E O 0.3608(5) 0.4695(6) -0.2613(9)
O4E O 0.3275(12) 0.5050(8) -0.2538(12)
N2E N 0.5357(6) 0.6516(5) -0.0733(6)
C51E C 0.4392(10) 0.5634(9) -0.1271(11)
C3I C 0.5123(11) 0.351(2) -0.3681(13)
H1I H 0.5220 0.3531 -0.3353
H2I H 0.4986 0.3221 -0.3779
H3I H 0.5352 0.3665 -0.3895
C5I C 0.9405(8) 0.8376(9) -0.2834(15)
H4I H 0.9675 0.8489 -0.2685
H5I H 0.9319 0.8581 -0.2801
C6I C 0.8309(5) 0.8104(6) -0.2254(8)
H6I H 0.8172 0.7828 -0.2346
C10I C 0.8891(10) 0.8707(10) -0.1975(12)
H8I H 0.9165 0.8846 -0.1872
C12I C 0.3755(9) 0.2884(10) -0.2358(11)
H10I H 0.3988 0.3046 -0.2144
H11I H 0.3579 0.2622 -0.2197
C17I C 0.9441(8) 0.8310(12) -0.3349(14)
H13I H 0.9572 0.8146 -0.3393
H14I H 0.9604 0.8572 -0.3514
C18I C 0.8951(9) 0.8050(10) -0.2083(12)
H15I H 0.8769 0.7782 -0.1939
H16I H 0.9183 0.8198 -0.1864
C20I C 0.4313(10) 0.3157(11) -0.4245(11)
C26I C 0.8593(11) 0.7569(13) -0.4132(11)
H21I H 0.8434 0.7700 -0.4214
H22I H 0.8591 0.7411 -0.4413
C28I C 0.9034(11) 0.7900(13) -0.4029(18)
H24I H 0.9211 0.7781 -0.4010
H25I H 0.9135 0.8106 -0.4286
C29I C 0.9324(12) 0.7779(14) -0.2395(18)
H26I H 0.9439 0.7719 -0.2675
H27I H 0.9542 0.7953 -0.2175
H28I H 0.9136 0.7526 -0.2233
C30I C 0.4118(10) 0.2567(10) -0.2750(13)
H29I H 0.4362 0.2733 -0.2560
H30I H 0.3932 0.2325 -0.2568
H31I H 0.4193 0.2486 -0.3048
C31I C 0.8568(12) 0.6986(11) -0.3734(11)
H32I H 0.8863 0.7149 -0.3714
H33I H 0.8466 0.6791 -0.3470
H34I H 0.8491 0.6841 -0.4039
C32I C 0.7951(9) 0.7064(9) -0.3726(12)
H35I H 0.7867 0.6896 -0.4020
H36I H 0.7842 0.6876 -0.3451
C34I C 0.3735(9) 0.2628(8) -0.3696(11)
C35I C 0.3522(13) 0.2585(11) -0.3166(11)
C36I C 0.4642(9) 0.3630(13) -0.4215(14)
C37I C 0.8840(8) 0.8358(10) -0.3597(10)
H38I H 0.8566 0.8194 -0.3725
H39I H 0.8827 0.8470 -0.3287
H40I H 0.9002 0.8579 -0.3819
C38I C 0.8719(8) 0.8288(8) -0.2123(10)
C39I C 0.3746(7) 0.3555(9) -0.2407(10)
H41I H 0.4033 0.3705 -0.2400
C40I C 0.3534(10) 0.3091(10) -0.2419(12)
C41I C 0.3100(9) 0.2884(8) -0.2403(12)
H42I H 0.2953 0.2598 -0.2392
C42I C 0.7698(7) 0.7484(8) -0.3303(8)
H43I H 0.7807 0.7451 -0.3013
C43I C 0.7750(6) 0.7320(7) -0.3730(11)
C44I C 0.7593(9) 0.7383(8) -0.4168(9)
H44I H 0.7633 0.7280 -0.4459
C45I C 0.4777(12) 0.4324(14) -0.3573(14)
C46I C 0.3760(11) 0.3254(9) -0.3871(9)
H45I H 0.3931 0.3542 -0.3943
H46I H 0.3572 0.3120 -0.4137
H47I H 0.3607 0.3222 -0.3578
Pd1I Pd 0.86779(6) 0.76250(6) -0.30902(7)
Pd3I Pd 0.43684(7) 0.33125(7) -0.32194(9)
N3I N 0.9031(7) 0.8099(8) -0.3536(11)
N4I N 0.8382(6) 0.7270(5) -0.3700(8)
N6I N 0.4014(6) 0.3070(8) -0.3806(9)
N7I N 0.4810(8) 0.3671(9) -0.3712(11)
N8I N 0.3925(7) 0.2795(8) -0.2858(10)
N9I N 0.9102(6) 0.7990(8) -0.2551(12)
C52I C 0.4526(9) 0.4320(8) -0.3256(14)
C53I C 0.4800(13) 0.4593(14) -0.392(3)
H51I H 0.4976 0.4640 -0.4178
C54I C 0.5051(13) 0.4157(9) -0.3549(17)
H52I H 0.5285 0.4313 -0.3763
H53I H 0.5154 0.4182 -0.3219
C3E C 0.351(2) 0.5123(11) -0.3681(13)
H1E H 0.3531 0.5220 -0.3353
H2E H 0.3221 0.4986 -0.3779
H3E H 0.3665 0.5352 -0.3895
C12E C 0.2884(10) 0.3755(9) -0.2358(11)
H10E H 0.3046 0.3988 -0.2144
H11E H 0.2622 0.3579 -0.2197
C20E C 0.3157(11) 0.4313(10) -0.4245(11)
C30E C 0.2567(10) 0.4118(10) -0.2750(13)
H29E H 0.2733 0.4362 -0.2560
H30E H 0.2325 0.3932 -0.2568
H31E H 0.2486 0.4193 -0.3048
C34E C 0.2628(8) 0.3735(9) -0.3696(11)
C35E C 0.2585(11) 0.3522(13) -0.3166(11)
C36E C 0.3630(13) 0.4642(9) -0.4215(14)
C39E C 0.3555(9) 0.3746(7) -0.2407(10)
H41E H 0.3705 0.4033 -0.2400
C40E C 0.3091(10) 0.3534(10) -0.2419(12)
C41E C 0.2884(8) 0.3100(9) -0.2403(12)
H42E H 0.2598 0.2953 -0.2392
C45E C 0.4324(14) 0.4777(12) -0.3573(14)
C46E C 0.3254(9) 0.3760(11) -0.3871(9)
H45E H 0.3542 0.3931 -0.3943
H46E H 0.3120 0.3572 -0.4137
H47E H 0.3222 0.3607 -0.3578
N6E N 0.3070(8) 0.4014(6) -0.3806(9)
N7E N 0.3671(9) 0.4810(8) -0.3712(11)
N8E N 0.2795(8) 0.3925(7) -0.2858(10)
C52E C 0.4320(8) 0.4526(9) -0.3256(14)
C53E C 0.4593(14) 0.4800(13) -0.392(3)
H51E H 0.4640 0.4976 -0.4178
C54E C 0.4157(9) 0.5051(13) -0.3549(17)
H52E H 0.4313 0.5285 -0.3763
H53E H 0.4182 0.5154 -0.3219
C5E C 0.8376(9) 0.9405(8) -0.2834(15)
H4E H 0.8489 0.9675 -0.2685
H5E H 0.8581 0.9319 -0.2801
C6E C 0.8104(6) 0.8309(5) -0.2254(8)
H6E H 0.7828 0.8172 -0.2346
C10E C 0.8707(10) 0.8891(10) -0.1975(12)
H8E H 0.8846 0.9165 -0.1872
C17E C 0.8310(12) 0.9441(8) -0.3349(14)
H13E H 0.8146 0.9572 -0.3393
H14E H 0.8572 0.9604 -0.3514
C18E C 0.8050(10) 0.8951(9) -0.2083(12)
H15E H 0.7782 0.8769 -0.1939
H16E H 0.8198 0.9183 -0.1864
C26E C 0.7569(13) 0.8593(11) -0.4132(11)
H21E H 0.7700 0.8434 -0.4214
H22E H 0.7411 0.8591 -0.4413
C28E C 0.7900(13) 0.9034(11) -0.4029(18)
H24E H 0.7781 0.9211 -0.4010
H25E H 0.8106 0.9135 -0.4286
C29E C 0.7779(14) 0.9324(12) -0.2395(18)
H26E H 0.7719 0.9439 -0.2675
H27E H 0.7953 0.9542 -0.2175
H28E H 0.7526 0.9136 -0.2233
C31E C 0.6986(11) 0.8568(12) -0.3734(11)
H32E H 0.7149 0.8863 -0.3714
H33E H 0.6791 0.8466 -0.3470
H34E H 0.6841 0.8491 -0.4039
C32E C 0.7064(9) 0.7951(9) -0.3726(12)
H35E H 0.6896 0.7867 -0.4020
H36E H 0.6876 0.7842 -0.3451
C37E C 0.8358(10) 0.8840(8) -0.3597(10)
H38E H 0.8194 0.8566 -0.3725
H39E H 0.8470 0.8827 -0.3287
H40E H 0.8579 0.9002 -0.3819
C38E C 0.8288(8) 0.8719(8) -0.2123(10)
C42E C 0.7484(8) 0.7698(7) -0.3303(8)
H43E H 0.7451 0.7807 -0.3013
C43E C 0.7320(7) 0.7750(6) -0.3730(11)
C44E C 0.7383(8) 0.7593(9) -0.4168(9)
H44E H 0.7280 0.7633 -0.4459
N3E N 0.8099(8) 0.9031(7) -0.3536(11)
N4E N 0.7270(5) 0.8382(6) -0.3700(8)
N9E N 0.7990(8) 0.9102(6) -0.2551(12)
Pd1E Pd 0.76250(6) 0.86779(6) -0.30902(7)
Pd3E Pd 0.33125(7) 0.43684(7) -0.32194(9)
Cl1 Cl 0.5667(10) 0.4359(16) 0.5000
O5 O 0.5439 0.4614 0.5000
O6 O 0.5510 0.3863 0.5000
O7 O 0.5856 0.4374 0.4520
O7I O 0.5856 0.4374 0.5480
O8? O 0.8170(19) 0.8170(19) 0.458(2)
O9? O 0.8769(18) 0.8769(18) 0.470(2)
O10? O 0.8731 0.8237 0.5000
Cl2? Cl 0.3813(10) 0.3813(10) 0.5000
O11? O 0.4052(12) 0.4052(12) 0.4560(17)
O12? O 0.334(3) 0.359(3) 0.5000
Cl3? Cl 0.23968(19) 0.23968(19) 0.3653(3)
O13? O 0.2156 0.2156 0.3948
O14? O 0.2524 0.2128 0.3477
O15? O 0.2749 0.2749 0.3752
Cl4? Cl 0.0000 0.8794(16) 0.1453(18)
O16? O -0.041(2) 0.860(2) 0.115(3)
O17? O 0.0000 0.888(3) 0.197(5)
O18? O 0.0000 0.8449 0.1505
Cl5? Cl 0.8471(5) 0.8471(5) 0.5000
O19? O 0.8539(19) 0.8539(19) 0.4492(9)
loop_
_geom_bond_atom_site_label_1
_geom_bond_atom_site_label_2
_geom_bond_site_symmetry_1
_geom_bond_site_symmetry_2
C1 C48 1_555 1_555
C2 C9 1_555 1_555
C3 H1 1_555 1_555
H2 C3 1_555 1_555
H3 C3 1_555 1_555
C4 C16 1_555 1_555
C5 H4 1_555 1_555
H5 C5 1_555 1_555
C6 H6 1_555 1_555
C7 H7 1_555 1_555
C8 C9 1_555 1_555
C9 C15 1_555 1_555
C10 H8 1_555 1_555
C11 H9 1_555 1_555
C12 H10 1_555 1_555
H11 C12 1_555 1_555
C13 C11 1_555 1_555
C14 C2 1_555 1_555
H12 C14 1_555 1_555
C15 C19 1_555 1_555
C16 C7 1_555 1_555
C17 C5 1_555 1_555
H13 C17 1_555 1_555
H14 C17 1_555 1_555
C18 H15 1_555 1_555
H16 C18 1_555 1_555
C19 H17 1_555 1_555
C20 C36 1_555 1_555
C21 C13 1_555 1_555
C22 H18 1_555 1_555
C23 C7 1_555 1_555
H19 C23 1_555 1_555
C24 C16 1_555 1_555
H20 C24 1_555 1_555
C25 C21 1_555 1_555
C26 H21 1_555 1_555
H22 C26 1_555 1_555
C27 C25 1_555 1_555
H23 C27 1_555 1_555
C28 C26 1_555 1_555
H24 C28 1_555 1_555
H25 C28 1_555 1_555
C29 H26 1_555 1_555
H27 C29 1_555 1_555
H28 C29 1_555 1_555
C30 H29 1_555 1_555
H30 C30 1_555 1_555
H31 C30 1_555 1_555
C31 H32 1_555 1_555
H33 C31 1_555 1_555
H34 C31 1_555 1_555
C32 H35 1_555 1_555
H36 C32 1_555 1_555
C33 C8 1_555 1_555
H37 C33 1_555 1_555
C34 C35 1_555 1_555
C35 N8 1_555 1_555
C36 N7 1_555 1_555
C37 H38 1_555 1_555
H39 C37 1_555 1_555
H40 C37 1_555 1_555
C38 C6 1_555 1_555
C39 H41 1_555 1_555
C40 C12 1_555 1_555
C41 C40 1_555 1_555
H42 C41 1_555 1_555
C42 H43 1_555 1_555
C43 C32 1_555 1_555
C44 C43 1_555 1_555
H44 C44 1_555 1_555
C45 C52 1_555 1_555
C46 H45 1_555 1_555
H46 C46 1_555 1_555
H47 C46 1_555 1_555
C47 H48 1_555 1_555
C48 C47 1_555 1_555
C49 C47 1_555 1_555
H49 C49 1_555 1_555
C50 C22 1_555 1_555
H50 C50 1_555 1_555
O1 C4 1_555 1_555
O2 C4 1_555 1_555
O3 C1 1_555 1_555
O4 C1 1_555 1_555
Pd1 O1 1_555 1_555
Pd2 N1 1_555 1_555
Pd3 O3 1_555 1_555
N1 C2 1_555 1_555
N2 C8 1_555 1_555
N3 C17 1_555 1_555
N4 C26 1_555 1_555
N5 C25 1_555 1_555
N6 C20 1_555 1_555
N7 C3 1_555 1_555
N8 C12 1_555 1_555
N9 C5 1_555 1_555
C51 C21 1_555 1_555
C52 C52F 1_555 1_555
C53 C45 1_555 1_555
H51 C53 1_555 1_555
C54 C45 1_555 1_555
H52 C54 1_555 1_555
H53 C54 1_555 1_555
Cl1 O5 1_555 1_555
O6 Cl1 1_555 1_555
O7 Cl1 1_555 1_555
C1I C48I 1_555 1_555
C2I N1 1_555 1_555
C4I C16I 1_555 1_555
C7I H7I 1_555 1_555
C8I C9I 1_555 1_555
C9I C2I 1_555 1_555
C11I H9I 1_555 1_555
C13I C11I 1_555 1_555
C14I C14 1_555 1_555
H12I C14I 1_555 1_555
C15I C9I 1_555 1_555
C16I C7I 1_555 1_555
C19I C15I 1_555 1_555
H17I C19I 1_555 1_555
C21I C13I 1_555 1_555
C22I H18I 1_555 1_555
C23I C7I 1_555 1_555
H19I C23I 1_555 1_555
C24I C16I 1_555 1_555
H20I C24I 1_555 1_555
C25I N5 1_555 1_555
C27I C27 1_555 1_555
H23I C27I 1_555 1_555
C33I C8I 1_555 1_555
H37I C33I 1_555 1_555
C47I H48I 1_555 1_555
C48I C47I 1_555 1_555
C49I C47I 1_555 1_555
H49I C49I 1_555 1_555
C50I C22I 1_555 1_555
H50I C50I 1_555 1_555
O1I C4I 1_555 1_555
O2I C4I 1_555 1_555
O3I C1I 1_555 1_555
O4I C1I 1_555 1_555
N2I Pd2 1_555 1_555
C51I C21I 1_555 1_555
C3F H1F 1_555 1_555
H2F C3F 1_555 1_555
H3F C3F 1_555 1_555
C12F H10F 1_555 1_555
H11F C12F 1_555 1_555
C20F C36F 1_555 1_555
C30F H29F 1_555 1_555
H30F C30F 1_555 1_555
H31F C30F 1_555 1_555
C34F C35F 1_555 1_555
C35F N8F 1_555 1_555
C36F N7F 1_555 1_555
C39F C39 1_555 1_555
H41F C39F 1_555 1_555
C40F C12F 1_555 1_555
C41F C41 1_555 1_555
H42F C41F 1_555 1_555
C45F C52F 1_555 1_555
C46F H45F 1_555 1_555
H46F C46F 1_555 1_555
H47F C46F 1_555 1_555
N6F C20F 1_555 1_555
N7F C3F 1_555 1_555
N8F C12F 1_555 1_555
C53F C53 1_555 1_555
H51F C53F 1_555 1_555
C54F C45F 1_555 1_555
H52F C54F 1_555 1_555
H53F C54F 1_555 1_555
C5F H4F 1_555 1_555
H5F C5F 1_555 1_555
C6F C6 1_555 1_555
H6F C6F 1_555 1_555
C10F C10 1_555 1_555
H8F C10F 1_555 1_555
C17F C5F 1_555 1_555
H13F C17F 1_555 1_555
H14F C17F 1_555 1_555
C18F H15F 1_555 1_555
H16F C18F 1_555 1_555
C26F H21F 1_555 1_555
H22F C26F 1_555 1_555
C28F C26F 1_555 1_555
H24F C28F 1_555 1_555
H25F C28F 1_555 1_555
C29F H26F 1_555 1_555
H27F C29F 1_555 1_555
H28F C29F 1_555 1_555
C31F H32F 1_555 1_555
H33F C31F 1_555 1_555
H34F C31F 1_555 1_555
C32F H35F 1_555 1_555
H36F C32F 1_555 1_555
C37F H38F 1_555 1_555
H39F C37F 1_555 1_555
H40F C37F 1_555 1_555
C38F C6F 1_555 1_555
C42F C42 1_555 1_555
H43F C42F 1_555 1_555
C43F C32F 1_555 1_555
C44F C44 1_555 1_555
H44F C44F 1_555 1_555
N3F C17F 1_555 1_555
N4F C26F 1_555 1_555
N9F C5F 1_555 1_555
C1F C48F 1_555 1_555
C2F C9F 1_555 1_555
C4F C16F 1_555 1_555
C7F H7F 1_555 1_555
C8F C9F 1_555 1_555
C9F C15F 1_555 1_555
C11F H9F 1_555 1_555
C13F C11F 1_555 1_555
C14F C2F 1_555 1_555
H12F C14F 1_555 1_555
C15F C19F 1_555 1_555
C16F C7F 1_555 1_555
C19F H17F 1_555 1_555
C21F C13F 1_555 1_555
C22F H18F 1_555 1_555
C23F C7F 1_555 1_555
H19F C23F 1_555 1_555
C24F C16F 1_555 1_555
H20F C24F 1_555 1_555
C25F C21F 1_555 1_555
C27F C25F 1_555 1_555
H23F C27F 1_555 1_555
C33F C8F 1_555 1_555
H37F C33F 1_555 1_555
C47F H48F 1_555 1_555
C48F C47F 1_555 1_555
C49F C47F 1_555 1_555
H49F C49F 1_555 1_555
C50F C22F 1_555 1_555
H50F C50F 1_555 1_555
O1F C4F 1_555 1_555
O2F C4F 1_555 1_555
O3F C1F 1_555 1_555
O4F C1F 1_555 1_555
Pd1F N3F 1_555 1_555
Pd2E N1E 1_555 1_555
Pd3F N6F 1_555 1_555
N1E C2F 1_555 1_555
N2F C8F 1_555 1_555
N5E C25F 1_555 1_555
C51F C21F 1_555 1_555
C1E C48E 1_555 1_555
C2E N1E 1_555 1_555
C4E C16E 1_555 1_555
C7E H7E 1_555 1_555
C8E C9E 1_555 1_555
C9E C2E 1_555 1_555
C11E H9E 1_555 1_555
C13E C11E 1_555 1_555
C14E C14F 1_555 1_555
H12E C14E 1_555 1_555
C15E C9E 1_555 1_555
C16E C7E 1_555 1_555
C19E C15E 1_555 1_555
H17E C19E 1_555 1_555
C21E C13E 1_555 1_555
C22E H18E 1_555 1_555
C23E C7E 1_555 1_555
H19E C23E 1_555 1_555
C24E C16E 1_555 1_555
H20E C24E 1_555 1_555
C25E N5E 1_555 1_555
C27E C27F 1_555 1_555
H23E C27E 1_555 1_555
C33E C8E 1_555 1_555
H37E C33E 1_555 1_555
C47E H48E 1_555 1_555
C48E C47E 1_555 1_555
C49E C47E 1_555 1_555
H49E C49E 1_555 1_555
C50E C22E 1_555 1_555
H50E C50E 1_555 1_555
O1E C4E 1_555 1_555
O2E C4E 1_555 1_555
O3E C1E 1_555 1_555
O4E C1E 1_555 1_555
N2E Pd2E 1_555 1_555
C51E C21E 1_555 1_555
C3I H1I 1_555 1_555
H2I C3I 1_555 1_555
H3I C3I 1_555 1_555
C5I H4I 1_555 1_555
H5I C5I 1_555 1_555
C6I H6I 1_555 1_555
C10I H8I 1_555 1_555
C12I H10I 1_555 1_555
H11I C12I 1_555 1_555
C17I C5I 1_555 1_555
H13I C17I 1_555 1_555
H14I C17I 1_555 1_555
C18I H15I 1_555 1_555
H16I C18I 1_555 1_555
C20I C36I 1_555 1_555
C26I H21I 1_555 1_555
H22I C26I 1_555 1_555
C28I C26I 1_555 1_555
H24I C28I 1_555 1_555
H25I C28I 1_555 1_555
C29I H26I 1_555 1_555
H27I C29I 1_555 1_555
H28I C29I 1_555 1_555
C30I H29I 1_555 1_555
H30I C30I 1_555 1_555
H31I C30I 1_555 1_555
C31I H32I 1_555 1_555
H33I C31I 1_555 1_555
H34I C31I 1_555 1_555
C32I H35I 1_555 1_555
H36I C32I 1_555 1_555
C34I C35I 1_555 1_555
C35I N8I 1_555 1_555
C36I N7I 1_555 1_555
C37I H38I 1_555 1_555
H39I C37I 1_555 1_555
H40I C37I 1_555 1_555
C38I C6I 1_555 1_555
C39I H41I 1_555 1_555
C40I C12I 1_555 1_555
C41I C40I 1_555 1_555
H42I C41I 1_555 1_555
C42I H43I 1_555 1_555
C43I C32I 1_555 1_555
C44I C43I 1_555 1_555
H44I C44I 1_555 1_555
C45I C52I 1_555 1_555
C46I H45I 1_555 1_555
H46I C46I 1_555 1_555
H47I C46I 1_555 1_555
Pd1I O1I 1_555 1_555
Pd3I O3I 1_555 1_555
N3I C17I 1_555 1_555
N4I C26I 1_555 1_555
N6I C20I 1_555 1_555
N7I C3I 1_555 1_555
N8I C12I 1_555 1_555
N9I C5I 1_555 1_555
C52I C52E 1_555 1_555
C53I C45I 1_555 1_555
H51I C53I 1_555 1_555
C54I C45I 1_555 1_555
H52I C54I 1_555 1_555
H53I C54I 1_555 1_555
C3E H1E 1_555 1_555
H2E C3E 1_555 1_555
H3E C3E 1_555 1_555
C12E H10E 1_555 1_555
H11E C12E 1_555 1_555
C20E C36E 1_555 1_555
C30E H29E 1_555 1_555
H30E C30E 1_555 1_555
H31E C30E 1_555 1_555
C34E C35E 1_555 1_555
C35E N8E 1_555 1_555
C36E N7E 1_555 1_555
C39E C39I 1_555 1_555
H41E C39E 1_555 1_555
C40E C12E 1_555 1_555
C41E C41I 1_555 1_555
H42E C41E 1_555 1_555
C45E C52E 1_555 1_555
C46E H45E 1_555 1_555
H46E C46E 1_555 1_555
H47E C46E 1_555 1_555
N6E C20E 1_555 1_555
N7E C3E 1_555 1_555
N8E C12E 1_555 1_555
C53E C53I 1_555 1_555
H51E C53E 1_555 1_555
C54E C45E 1_555 1_555
H52E C54E 1_555 1_555
H53E C54E 1_555 1_555
C5E H4E 1_555 1_555
H5E C5E 1_555 1_555
C6E C6I 1_555 1_555
H6E C6E 1_555 1_555
C10E C10I 1_555 1_555
H8E C10E 1_555 1_555
C17E C5E 1_555 1_555
H13E C17E 1_555 1_555
H14E C17E 1_555 1_555
C18E H15E 1_555 1_555
H16E C18E 1_555 1_555
C26E H21E 1_555 1_555
H22E C26E 1_555 1_555
C28E C26E 1_555 1_555
H24E C28E 1_555 1_555
H25E C28E 1_555 1_555
C29E H26E 1_555 1_555
H27E C29E 1_555 1_555
H28E C29E 1_555 1_555
C31E H32E 1_555 1_555
H33E C31E 1_555 1_555
H34E C31E 1_555 1_555
C32E H35E 1_555 1_555
H36E C32E 1_555 1_555
C37E H38E 1_555 1_555
H39E C37E 1_555 1_555
H40E C37E 1_555 1_555
C38E C6E 1_555 1_555
C42E C42I 1_555 1_555
H43E C42E 1_555 1_555
C43E C32E 1_555 1_555
C44E C44I 1_555 1_555
H44E C44E 1_555 1_555
N3E C17E 1_555 1_555
N4E C26E 1_555 1_555
N9E C5E 1_555 1_555
Pd1E O1E 1_555 1_555
Pd3E O3E 1_555 1_555
O7I Cl1 1_555 1_555
C10 C38 1_555 1_555
C11 C33 1_555 1_555
C13 N2 1_555 1_555
C15 C23 1_555 1_555
C18 C38 1_555 1_555
C18 N9 1_555 1_555
C19 C24 1_555 1_555
C22 C51 1_555 1_555
C28 N3 1_555 1_555
C29 N9 1_555 1_555
C30 N8 1_555 1_555
C31 N4 1_555 1_555
C32 N4 1_555 1_555
C34 N6 1_555 1_555
C37 N3 1_555 1_555
C39 C40 1_555 1_555
C42 C43 1_555 1_555
C46 N6 1_555 1_555
C48 C50 1_555 1_555
C49 C51 1_555 1_555
Pd1 N3 1_555 1_555
Pd1 N4 1_555 1_555
Pd1 N9 1_555 1_555
Pd2 N2 1_555 1_555
Pd2 N5 1_555 1_555
Pd3 N6 1_555 1_555
Pd3 N7 1_555 1_555
Pd3 N8 1_555 1_555
N7 C54 1_555 1_555
C2I C14I 1_555 1_555
C8I N2I 1_555 1_555
C11I C33I 1_555 1_555
C13I N2I 1_555 1_555
C15I C23I 1_555 1_555
C19I C24I 1_555 1_555
C21I C25I 1_555 1_555
C22I C51I 1_555 1_555
C25I C27I 1_555 1_555
C48I C50I 1_555 1_555
C49I C51I 1_555 1_555
C30F N8F 1_555 1_555
C34F N6F 1_555 1_555
C39F C40F 1_555 1_555
C40F C41F 1_555 1_555
C45F C53F 1_555 1_555
C46F N6F 1_555 1_555
N7F C54F 1_555 1_555
N7F Pd3F 1_555 1_555
N8F Pd3F 1_555 1_555
C10F C38F 1_555 1_555
C18F C38F 1_555 1_555
C18F N9F 1_555 1_555
C28F N3F 1_555 1_555
C29F N9F 1_555 1_555
C31F N4F 1_555 1_555
C32F N4F 1_555 1_555
C37F N3F 1_555 1_555
C42F C43F 1_555 1_555
C43F C44F 1_555 1_555
N4F Pd1F 1_555 1_555
N9F Pd1F 1_555 1_555
C11F C33F 1_555 1_555
C13F N2F 1_555 1_555
C15F C23F 1_555 1_555
C19F C24F 1_555 1_555
C22F C51F 1_555 1_555
C48F C50F 1_555 1_555
C49F C51F 1_555 1_555
O1F Pd1F 1_555 1_555
O3F Pd3F 1_555 1_555
Pd2E N2F 1_555 1_555
Pd2E N5E 1_555 1_555
C2E C14E 1_555 1_555
C8E N2E 1_555 1_555
C11E C33E 1_555 1_555
C13E N2E 1_555 1_555
C15E C23E 1_555 1_555
C19E C24E 1_555 1_555
C21E C25E 1_555 1_555
C22E C51E 1_555 1_555
C25E C27E 1_555 1_555
C48E C50E 1_555 1_555
C49E C51E 1_555 1_555
C10I C38I 1_555 1_555
C18I C38I 1_555 1_555
C18I N9I 1_555 1_555
C28I N3I 1_555 1_555
C29I N9I 1_555 1_555
C30I N8I 1_555 1_555
C31I N4I 1_555 1_555
C32I N4I 1_555 1_555
C34I N6I 1_555 1_555
C37I N3I 1_555 1_555
C39I C40I 1_555 1_555
C42I C43I 1_555 1_555
C46I N6I 1_555 1_555
Pd1I N3I 1_555 1_555
Pd1I N4I 1_555 1_555
Pd1I N9I 1_555 1_555
Pd3I N6I 1_555 1_555
Pd3I N7I 1_555 1_555
Pd3I N8I 1_555 1_555
N7I C54I 1_555 1_555
C30E N8E 1_555 1_555
C34E N6E 1_555 1_555
C39E C40E 1_555 1_555
C40E C41E 1_555 1_555
C45E C53E 1_555 1_555
C46E N6E 1_555 1_555
N6E Pd3E 1_555 1_555
N7E C54E 1_555 1_555
N7E Pd3E 1_555 1_555
N8E Pd3E 1_555 1_555
C10E C38E 1_555 1_555
C18E C38E 1_555 1_555
C18E N9E 1_555 1_555
C28E N3E 1_555 1_555
C29E N9E 1_555 1_555
C31E N4E 1_555 1_555
C32E N4E 1_555 1_555
C37E N3E 1_555 1_555
C42E C43E 1_555 1_555
C43E C44E 1_555 1_555
N3E Pd1E 1_555 1_555
N4E Pd1E 1_555 1_555
N9E Pd1E 1_555 1_555

#END
