
#######################################################################
#
#                 Cambridge Crystallographic Data Centre
#                                CCDC 
#
#######################################################################
#
# If this CIF has been generated from an entry in the Cambridge 
# Structural Database, then it will include bibliographic, chemical, 
# crystal, experimental, refinement or atomic coordinate data resulting 
# from the CCDC's data processing and validation procedures.
#
#######################################################################

data_FIBTIV
_chemical_formula_moiety         'C34 H56 N6 O4 Pd2 2+,2(C2 H3 O2 1-)'
_chemical_name_systematic        
'bis(\m~2~-3,6,9,16,19,22-Hexamethyl-3,6,9,16,19,22-hexaazatricyclo[22.2.2.2^11,14^]triaconta-1(26),11,13,24,27,29-hexaene)-diacetato-di-palladium(ii) diacetate unknown solvate'
_symmetry_cell_setting           monoclinic
_symmetry_space_group_name_H-M   'C 2/m'
_symmetry_Int_Tables_number      12
_space_group_name_Hall           '-C 2y'
loop_
_symmetry_equiv_pos_site_id
_symmetry_equiv_pos_as_xyz
1 x,y,z
2 -x,y,-z
3 1/2+x,1/2+y,z
4 1/2-x,1/2+y,-z
5 -x,-y,-z
6 x,-y,z
7 1/2-x,1/2-y,-z
8 1/2+x,1/2-y,z
_cell_length_a                   35.76(4)
_cell_length_b                   11.688(12)
_cell_length_c                   13.033(13)
_cell_angle_alpha                90
_cell_angle_beta                 97.174(14)
_cell_angle_gamma                90
_cell_volume                     5404.67
_exptl_crystal_colour            yellow
_exptl_crystal_description       block
_cell_formula_units_Z            4
loop_
_atom_site_label
_atom_site_type_symbol
_atom_site_fract_x
_atom_site_fract_y
_atom_site_fract_z
Pd1 Pd 0.16913(3) 0.5000 0.35709(7)
O1 O 0.0517(2) 0.5000 -0.1337(6)
N1 N 0.1778(3) 0.3182(15) 0.3726(6)
C1 C 0.1451(3) 0.2437(13) 0.3303(7)
H1 H 0.1230 0.2649 0.3652
H2 H 0.1515 0.1633 0.3488
Pd2 Pd 0.10543(3) 0.5000 -0.16820(7)
N2 N 0.1094(2) 0.3274(11) -0.1870(5)
O2 O 0.0215(3) 0.5000 -0.2954(7)
C2 C 0.1334(3) 0.2504(13) 0.2110(7)
O3 O 0.1129(3) 0.5000 0.3796(6)
N3 N 0.1618(3) 0.5000 -0.1767(8)
C3 C 0.1098(3) 0.3371(12) 0.1685(7)
H3 H 0.1028 0.3972 0.2113
O4 O 0.1224(3) 0.5000 0.5520(7)
N4 N 0.2198(4) 0.5000 0.3032(10)
C4 C 0.0962(3) 0.3365(12) 0.0616(7)
H4 H 0.0788 0.3929 0.0332
C5 C 0.1087(3) 0.2522(12) -0.0010(7)
C6 C 0.1332(3) 0.1697(12) 0.0407(7)
H5 H 0.1412 0.1116 -0.0027
C7 C 0.1465(3) 0.1697(13) 0.1458(8)
H6 H 0.1646 0.1146 0.1729
C8 C 0.0919(3) 0.2456(12) -0.1153(7)
H7 H 0.0948 0.1664 -0.1400
H8 H 0.0645 0.2618 -0.1203
C9 C 0.0883(3) 0.2980(10) -0.2939(6)
H9 H 0.0896 0.2154 -0.3057
H10 H 0.0999 0.3387 -0.3476
H11 H 0.0618 0.3212 -0.2966
C10 C 0.1506(3) 0.2906(13) -0.1900(8)
H12 H 0.1518 0.2230 -0.2353
H13 H 0.1628 0.2711 -0.1197
C11 C 0.1707(3) 0.3951(15) -0.2338(8)
H14 H 0.1983 0.3826 -0.2254
H15 H 0.1619 0.4043 -0.3084
C12 C 0.1812(4) 0.5000 -0.0673(10)
H16 H 0.2086 0.5000 -0.0682
H17 H 0.1739 0.4315 -0.0313
C13 C 0.2136(5) 0.5000 0.1872(11)
H18 H 0.2380 0.5000 0.1603
H19 H 0.1994 0.5685 0.1627
C14 C 0.2399(3) 0.3941(18) 0.3454(9)
H20 H 0.2484 0.4039 0.4201
H21 H 0.2624 0.3805 0.3097
C15 C 0.2133(3) 0.2922(16) 0.3290(8)
H22 H 0.2076 0.2758 0.2541
H23 H 0.2254 0.2238 0.3634
C16 C 0.1837(4) 0.299(2) 0.4905(8)
H24 H 0.1878 0.2176 0.5051
H25 H 0.1613 0.3252 0.5202
H26 H 0.2058 0.3428 0.5210
C17 C 0.0225(4) 0.5000 -0.1984(10)
C18 C -0.0152(4) 0.5000 -0.1571(12)
H27 H -0.0112 0.5000 -0.0813
H28 H -0.0294 0.4315 -0.1816
C19 C 0.1026(4) 0.5000 0.4683(10)
C20 C 0.0595(4) 0.5000 0.4700(12)
H29 H 0.0540 0.5000 0.5418
H30 H 0.0486 0.4315 0.4347
H28E H -0.0294 0.5685 -0.1816
N1E N 0.1778(3) 0.6818(15) 0.3726(6)
C1E C 0.1451(3) 0.7563(13) 0.3303(7)
H1E H 0.1230 0.7351 0.3652
H2E H 0.1515 0.8367 0.3488
N2E N 0.1094(2) 0.6726(11) -0.1870(5)
C2E C 0.1334(3) 0.7496(13) 0.2110(7)
C3E C 0.1098(3) 0.6629(12) 0.1685(7)
H3E H 0.1028 0.6028 0.2113
C4E C 0.0962(3) 0.6635(12) 0.0616(7)
H4E H 0.0788 0.6071 0.0332
C5E C 0.1087(3) 0.7478(12) -0.0010(7)
C6E C 0.1332(3) 0.8303(12) 0.0407(7)
H5E H 0.1412 0.8884 -0.0027
C7E C 0.1465(3) 0.8303(13) 0.1458(8)
H6E H 0.1646 0.8854 0.1729
C8E C 0.0919(3) 0.7544(12) -0.1153(7)
H7E H 0.0948 0.8336 -0.1400
H8E H 0.0645 0.7382 -0.1203
C9E C 0.0883(3) 0.7020(10) -0.2939(6)
H9E H 0.0896 0.7846 -0.3057
H10E H 0.0999 0.6613 -0.3476
H11E H 0.0618 0.6788 -0.2966
C10E C 0.1506(3) 0.7094(13) -0.1900(8)
H12E H 0.1518 0.7770 -0.2353
H13E H 0.1628 0.7289 -0.1197
C11E C 0.1707(3) 0.6049(15) -0.2338(8)
H14E H 0.1983 0.6174 -0.2254
H15E H 0.1619 0.5957 -0.3084
H17E H 0.1739 0.5685 -0.0313
H19E H 0.1994 0.4315 0.1627
C14E C 0.2399(3) 0.6059(18) 0.3454(9)
H20E H 0.2484 0.5961 0.4201
H21E H 0.2624 0.6195 0.3097
C15E C 0.2133(3) 0.7078(16) 0.3290(8)
H22E H 0.2076 0.7242 0.2541
H23E H 0.2254 0.7762 0.3634
C16E C 0.1837(4) 0.701(2) 0.4905(8)
H24E H 0.1878 0.7824 0.5051
H25E H 0.1613 0.6748 0.5202
H26E H 0.2058 0.6572 0.5210
H30E H 0.0486 0.5685 0.4347
O5 O 0.3252(4) 0.5000 0.5398(10)
O6 O 0.3251(5) 0.5000 0.3707(14)
C21 C 0.3429(7) 0.5000 0.4581(19)
C22 C 0.3823(6) 0.5000 0.4646(18)
H31 H 0.3932 0.5000 0.5375
H32 H 0.3906 0.5685 0.4305
H32E H 0.3906 0.4315 0.4305
loop_
_geom_bond_atom_site_label_1
_geom_bond_atom_site_label_2
_geom_bond_site_symmetry_1
_geom_bond_site_symmetry_2
Pd1 N1 1_555 1_555
O1 Pd2 1_555 1_555
N1 C1 1_555 1_555
C1 H1 1_555 1_555
H2 C1 1_555 1_555
Pd2 N2 1_555 1_555
N2 C8 1_555 1_555
O2 C17 1_555 1_555
C2 C1 1_555 1_555
O3 Pd1 1_555 1_555
N3 Pd2 1_555 1_555
C3 C2 1_555 1_555
H3 C3 1_555 1_555
O4 C19 1_555 1_555
N4 Pd1 1_555 1_555
C4 C3 1_555 1_555
H4 C4 1_555 1_555
C5 C4 1_555 1_555
C6 C5 1_555 1_555
H5 C6 1_555 1_555
C7 C2 1_555 1_555
H6 C7 1_555 1_555
C8 C5 1_555 1_555
H7 C8 1_555 1_555
H8 C8 1_555 1_555
C9 N2 1_555 1_555
H9 C9 1_555 1_555
H10 C9 1_555 1_555
H11 C9 1_555 1_555
C10 N2 1_555 1_555
H12 C10 1_555 1_555
H13 C10 1_555 1_555
C11 N3 1_555 1_555
H14 C11 1_555 1_555
H15 C11 1_555 1_555
C12 N3 1_555 1_555
H16 C12 1_555 1_555
H17 C12 1_555 1_555
C13 N4 1_555 1_555
H18 C13 1_555 1_555
H19 C13 1_555 1_555
C14 N4 1_555 1_555
H20 C14 1_555 1_555
H21 C14 1_555 1_555
C15 N1 1_555 1_555
H22 C15 1_555 1_555
H23 C15 1_555 1_555
C16 N1 1_555 1_555
H24 C16 1_555 1_555
H25 C16 1_555 1_555
H26 C16 1_555 1_555
C17 O1 1_555 1_555
C18 C17 1_555 1_555
H27 C18 1_555 1_555
H28 C18 1_555 1_555
C19 O3 1_555 1_555
C20 C19 1_555 1_555
H29 C20 1_555 1_555
H30 C20 1_555 1_555
O5 C21 1_555 1_555
O6 C21 1_555 1_555
C21 C22 1_555 1_555
C22 H31 1_555 1_555
H32 C22 1_555 1_555
H28E C18 1_555 1_555
N1E Pd1 1_555 1_555
C1E N1E 1_555 1_555
H1E C1E 1_555 1_555
H2E C1E 1_555 1_555
N2E Pd2 1_555 1_555
C2E C1E 1_555 1_555
C3E C2E 1_555 1_555
H3E C3E 1_555 1_555
C4E C3E 1_555 1_555
H4E C4E 1_555 1_555
C5E C4E 1_555 1_555
C6E C5E 1_555 1_555
H5E C6E 1_555 1_555
C7E C2E 1_555 1_555
H6E C7E 1_555 1_555
C8E N2E 1_555 1_555
H7E C8E 1_555 1_555
H8E C8E 1_555 1_555
C9E N2E 1_555 1_555
H9E C9E 1_555 1_555
H10E C9E 1_555 1_555
H11E C9E 1_555 1_555
C10E N2E 1_555 1_555
H12E C10E 1_555 1_555
H13E C10E 1_555 1_555
C11E N3 1_555 1_555
H14E C11E 1_555 1_555
H15E C11E 1_555 1_555
H17E C12 1_555 1_555
H19E C13 1_555 1_555
C14E N4 1_555 1_555
H20E C14E 1_555 1_555
H21E C14E 1_555 1_555
C15E N1E 1_555 1_555
H22E C15E 1_555 1_555
H23E C15E 1_555 1_555
C16E N1E 1_555 1_555
H24E C16E 1_555 1_555
H25E C16E 1_555 1_555
H26E C16E 1_555 1_555
H30E C20 1_555 1_555
H32E C22 1_555 1_555
C6 C7 1_555 1_555
C10 C11 1_555 1_555
C14 C15 1_555 1_555
C5E C8E 1_555 1_555
C6E C7E 1_555 1_555
C10E C11E 1_555 1_555
C14E C15E 1_555 1_555

#END
