# generated using pymatgen
data_Cd2H72Rh2C97(N7O4)2
_symmetry_space_group_name_H-M   'P 1'
_cell_length_a   37.68910000
_cell_length_b   37.68910000
_cell_length_c   37.68910000
_cell_angle_alpha   90.00000000
_cell_angle_beta   90.00000000
_cell_angle_gamma   90.00000000
_symmetry_Int_Tables_number   1
_chemical_formula_structural   Cd2H72Rh2C97(N7O4)2
_chemical_formula_sum   'Cd24 H864 Rh24 C1164 N168 O96'
_cell_volume   53536.17025312
_cell_formula_units_Z   12
loop_
 _symmetry_equiv_pos_site_id
 _symmetry_equiv_pos_as_xyz
  1  'x, y, z'
loop_
 _atom_site_type_symbol
 _atom_site_label
 _atom_site_symmetry_multiplicity
 _atom_site_fract_x
 _atom_site_fract_y
 _atom_site_fract_z
 _atom_site_occupancy
  Cd  Cd1  1  0.247360  0.507870  0.510580  1.0
  Cd  Cd2  1  0.510580  0.247360  0.507870  1.0
  Cd  Cd3  1  0.507870  0.510580  0.247360  1.0
  Cd  Cd4  1  0.992130  0.989420  0.247360  1.0
  Cd  Cd5  1  0.510580  0.252640  0.992130  1.0
  Cd  Cd6  1  0.992130  0.510580  0.252640  1.0
  Cd  Cd7  1  0.989420  0.252640  0.507870  1.0
  Cd  Cd8  1  0.989420  0.247360  0.992130  1.0
  Cd  Cd9  1  0.507870  0.989420  0.252640  1.0
  Cd  Cd10  1  0.252640  0.992130  0.510580  1.0
  Cd  Cd11  1  0.247360  0.992130  0.989420  1.0
  Cd  Cd12  1  0.252640  0.507870  0.989420  1.0
  Cd  Cd13  1  0.752640  0.492130  0.489420  1.0
  Cd  Cd14  1  0.489420  0.752640  0.492130  1.0
  Cd  Cd15  1  0.492130  0.489420  0.752640  1.0
  Cd  Cd16  1  0.007870  0.010580  0.752640  1.0
  Cd  Cd17  1  0.489420  0.747360  0.007870  1.0
  Cd  Cd18  1  0.007870  0.489420  0.747360  1.0
  Cd  Cd19  1  0.010580  0.747360  0.492130  1.0
  Cd  Cd20  1  0.010580  0.752640  0.007870  1.0
  Cd  Cd21  1  0.492130  0.010580  0.747360  1.0
  Cd  Cd22  1  0.747360  0.007870  0.489420  1.0
  Cd  Cd23  1  0.752640  0.007870  0.010580  1.0
  Cd  Cd24  1  0.747360  0.492130  0.010580  1.0
  H  H25  1  0.115634  0.535249  0.444060  1
  H  H26  1  0.444060  0.115634  0.535249  1
  H  H27  1  0.535249  0.444060  0.115634  1
  H  H28  1  0.964751  0.055940  0.115634  1
  H  H29  1  0.444060  0.384366  0.964751  1
  H  H30  1  0.964751  0.444060  0.384366  1
  H  H31  1  0.055940  0.384366  0.535249  1
  H  H32  1  0.055940  0.115634  0.964751  1
  H  H33  1  0.535249  0.055940  0.384366  1
  H  H34  1  0.384366  0.964751  0.444060  1
  H  H35  1  0.115634  0.964751  0.055940  1
  H  H36  1  0.384366  0.535249  0.055940  1
  H  H37  1  0.884366  0.464751  0.555940  1
  H  H38  1  0.555940  0.884366  0.464751  1
  H  H39  1  0.464751  0.555940  0.884366  1
  H  H40  1  0.035249  0.944060  0.884366  1
  H  H41  1  0.555940  0.615634  0.035249  1
  H  H42  1  0.035249  0.555940  0.615634  1
  H  H43  1  0.944060  0.615634  0.464751  1
  H  H44  1  0.944060  0.884366  0.035249  1
  H  H45  1  0.464751  0.944060  0.615634  1
  H  H46  1  0.615634  0.035249  0.555940  1
  H  H47  1  0.884366  0.035249  0.944060  1
  H  H48  1  0.615634  0.464751  0.944060  1
  H  H49  1  0.151181  0.566215  0.484462  1
  H  H50  1  0.484462  0.151181  0.566215  1
  H  H51  1  0.566215  0.484462  0.151181  1
  H  H52  1  0.933785  0.015538  0.151181  1
  H  H53  1  0.484462  0.348819  0.933785  1
  H  H54  1  0.933785  0.484462  0.348819  1
  H  H55  1  0.015538  0.348819  0.566215  1
  H  H56  1  0.015538  0.151181  0.933785  1
  H  H57  1  0.566215  0.015538  0.348819  1
  H  H58  1  0.348819  0.933785  0.484462  1
  H  H59  1  0.151181  0.933785  0.015538  1
  H  H60  1  0.348819  0.566215  0.015538  1
  H  H61  1  0.848819  0.433785  0.515538  1
  H  H62  1  0.515538  0.848819  0.433785  1
  H  H63  1  0.433785  0.515538  0.848819  1
  H  H64  1  0.066215  0.984462  0.848819  1
  H  H65  1  0.515538  0.651181  0.066215  1
  H  H66  1  0.066215  0.515538  0.651181  1
  H  H67  1  0.984462  0.651181  0.433785  1
  H  H68  1  0.984462  0.848819  0.066215  1
  H  H69  1  0.433785  0.984462  0.651181  1
  H  H70  1  0.651181  0.066215  0.515538  1
  H  H71  1  0.848819  0.066215  0.984462  1
  H  H72  1  0.651181  0.433785  0.984462  1
  H  H73  1  0.141506  0.559963  0.545471  1
  H  H74  1  0.545471  0.141506  0.559963  1
  H  H75  1  0.559963  0.545471  0.141506  1
  H  H76  1  0.940037  0.954529  0.141506  1
  H  H77  1  0.545471  0.358494  0.940037  1
  H  H78  1  0.940037  0.545471  0.358494  1
  H  H79  1  0.954529  0.358494  0.559963  1
  H  H80  1  0.954529  0.141506  0.940037  1
  H  H81  1  0.559963  0.954529  0.358494  1
  H  H82  1  0.358494  0.940037  0.545471  1
  H  H83  1  0.141506  0.940037  0.954529  1
  H  H84  1  0.358494  0.559963  0.954529  1
  H  H85  1  0.858494  0.440037  0.454529  1
  H  H86  1  0.454529  0.858494  0.440037  1
  H  H87  1  0.440037  0.454529  0.858494  1
  H  H88  1  0.059963  0.045471  0.858494  1
  H  H89  1  0.454529  0.641506  0.059963  1
  H  H90  1  0.059963  0.454529  0.641506  1
  H  H91  1  0.045471  0.641506  0.440037  1
  H  H92  1  0.045471  0.858494  0.059963  1
  H  H93  1  0.440037  0.045471  0.641506  1
  H  H94  1  0.641506  0.059963  0.454529  1
  H  H95  1  0.858494  0.059963  0.045471  1
  H  H96  1  0.641506  0.440037  0.045471  1
  H  H97  1  0.096284  0.522747  0.566078  1
  H  H98  1  0.566078  0.096284  0.522747  1
  H  H99  1  0.522747  0.566078  0.096284  1
  H  H100  1  0.977253  0.933922  0.096284  1
  H  H101  1  0.566078  0.403716  0.977253  1
  H  H102  1  0.977253  0.566078  0.403716  1
  H  H103  1  0.933922  0.403716  0.522747  1
  H  H104  1  0.933922  0.096284  0.977253  1
  H  H105  1  0.522747  0.933922  0.403716  1
  H  H106  1  0.403716  0.977253  0.566078  1
  H  H107  1  0.096284  0.977253  0.933922  1
  H  H108  1  0.403716  0.522747  0.933922  1
  H  H109  1  0.903716  0.477253  0.433922  1
  H  H110  1  0.433922  0.903716  0.477253  1
  H  H111  1  0.477253  0.433922  0.903716  1
  H  H112  1  0.022747  0.066078  0.903716  1
  H  H113  1  0.433922  0.596284  0.022747  1
  H  H114  1  0.022747  0.433922  0.596284  1
  H  H115  1  0.066078  0.596284  0.477253  1
  H  H116  1  0.066078  0.903716  0.022747  1
  H  H117  1  0.477253  0.066078  0.596284  1
  H  H118  1  0.596284  0.022747  0.433922  1
  H  H119  1  0.903716  0.022747  0.066078  1
  H  H120  1  0.596284  0.477253  0.066078  1
  H  H121  1  0.060736  0.491781  0.525677  1
  H  H122  1  0.525677  0.060736  0.491781  1
  H  H123  1  0.491781  0.525677  0.060736  1
  H  H124  1  0.008219  0.974323  0.060736  1
  H  H125  1  0.525677  0.439264  0.008219  1
  H  H126  1  0.008219  0.525677  0.439264  1
  H  H127  1  0.974323  0.439264  0.491781  1
  H  H128  1  0.974323  0.060736  0.008219  1
  H  H129  1  0.491781  0.974323  0.439264  1
  H  H130  1  0.439264  0.008219  0.525677  1
  H  H131  1  0.060736  0.008219  0.974323  1
  H  H132  1  0.439264  0.491781  0.974323  1
  H  H133  1  0.939264  0.508219  0.474323  1
  H  H134  1  0.474323  0.939264  0.508219  1
  H  H135  1  0.508219  0.474323  0.939264  1
  H  H136  1  0.991781  0.025677  0.939264  1
  H  H137  1  0.474323  0.560736  0.991781  1
  H  H138  1  0.991781  0.474323  0.560736  1
  H  H139  1  0.025677  0.560736  0.508219  1
  H  H140  1  0.025677  0.939264  0.991781  1
  H  H141  1  0.508219  0.025677  0.560736  1
  H  H142  1  0.560736  0.991781  0.474323  1
  H  H143  1  0.939264  0.991781  0.025677  1
  H  H144  1  0.560736  0.508219  0.025677  1
  H  H145  1  0.070411  0.498032  0.464668  1
  H  H146  1  0.464668  0.070411  0.498032  1
  H  H147  1  0.498032  0.464668  0.070411  1
  H  H148  1  0.001968  0.035332  0.070411  1
  H  H149  1  0.464668  0.429589  0.001968  1
  H  H150  1  0.001968  0.464668  0.429589  1
  H  H151  1  0.035332  0.429589  0.498032  1
  H  H152  1  0.035332  0.070411  0.001968  1
  H  H153  1  0.498032  0.035332  0.429589  1
  H  H154  1  0.429589  0.001968  0.464668  1
  H  H155  1  0.070411  0.001968  0.035332  1
  H  H156  1  0.429589  0.498032  0.035332  1
  H  H157  1  0.929589  0.501968  0.535332  1
  H  H158  1  0.535332  0.929589  0.501968  1
  H  H159  1  0.501968  0.535332  0.929589  1
  H  H160  1  0.998032  0.964668  0.929589  1
  H  H161  1  0.535332  0.570411  0.998032  1
  H  H162  1  0.998032  0.535332  0.570411  1
  H  H163  1  0.964668  0.570411  0.501968  1
  H  H164  1  0.964668  0.929589  0.998032  1
  H  H165  1  0.501968  0.964668  0.570411  1
  H  H166  1  0.570411  0.998032  0.535332  1
  H  H167  1  0.929589  0.998032  0.964668  1
  H  H168  1  0.570411  0.501968  0.964668  1
  H  H169  1  0.232713  0.267383  0.319893  1
  H  H170  1  0.319893  0.232713  0.267383  1
  H  H171  1  0.267383  0.319893  0.232713  1
  H  H172  1  0.232617  0.180107  0.232713  1
  H  H173  1  0.319893  0.267287  0.232617  1
  H  H174  1  0.232617  0.319893  0.267287  1
  H  H175  1  0.180107  0.267287  0.267383  1
  H  H176  1  0.180107  0.232713  0.232617  1
  H  H177  1  0.267383  0.180107  0.267287  1
  H  H178  1  0.267287  0.232617  0.319893  1
  H  H179  1  0.232713  0.232617  0.180107  1
  H  H180  1  0.267287  0.267383  0.180107  1
  H  H181  1  0.767287  0.732617  0.680107  1
  H  H182  1  0.680107  0.767287  0.732617  1
  H  H183  1  0.732617  0.680107  0.767287  1
  H  H184  1  0.767383  0.819893  0.767287  1
  H  H185  1  0.680107  0.732713  0.767383  1
  H  H186  1  0.767383  0.680107  0.732713  1
  H  H187  1  0.819893  0.732713  0.732617  1
  H  H188  1  0.819893  0.767287  0.767383  1
  H  H189  1  0.732617  0.819893  0.732713  1
  H  H190  1  0.732713  0.767383  0.680107  1
  H  H191  1  0.767287  0.767383  0.819893  1
  H  H192  1  0.732713  0.732617  0.819893  1
  H  H193  1  0.243590  0.226338  0.319893  1
  H  H194  1  0.319893  0.243590  0.226338  1
  H  H195  1  0.226338  0.319893  0.243590  1
  H  H196  1  0.273662  0.180107  0.243590  1
  H  H197  1  0.319893  0.256410  0.273662  1
  H  H198  1  0.273662  0.319893  0.256410  1
  H  H199  1  0.180107  0.256410  0.226338  1
  H  H200  1  0.180107  0.243590  0.273662  1
  H  H201  1  0.226338  0.180107  0.256410  1
  H  H202  1  0.256410  0.273662  0.319893  1
  H  H203  1  0.243590  0.273662  0.180107  1
  H  H204  1  0.256410  0.226338  0.180107  1
  H  H205  1  0.756410  0.773662  0.680107  1
  H  H206  1  0.680107  0.756410  0.773662  1
  H  H207  1  0.773662  0.680107  0.756410  1
  H  H208  1  0.726338  0.819893  0.756410  1
  H  H209  1  0.680107  0.743590  0.726338  1
  H  H210  1  0.726338  0.680107  0.743590  1
  H  H211  1  0.819893  0.743590  0.773662  1
  H  H212  1  0.819893  0.756410  0.726338  1
  H  H213  1  0.773662  0.819893  0.743590  1
  H  H214  1  0.743590  0.726338  0.680107  1
  H  H215  1  0.756410  0.726338  0.819893  1
  H  H216  1  0.743590  0.773662  0.819893  1
  H  H217  1  0.273697  0.256280  0.319893  1
  H  H218  1  0.319893  0.273697  0.256280  1
  H  H219  1  0.256280  0.319893  0.273697  1
  H  H220  1  0.243720  0.180107  0.273697  1
  H  H221  1  0.319893  0.226303  0.243720  1
  H  H222  1  0.243720  0.319893  0.226303  1
  H  H223  1  0.180107  0.226303  0.256280  1
  H  H224  1  0.180107  0.273697  0.243720  1
  H  H225  1  0.256280  0.180107  0.226303  1
  H  H226  1  0.226303  0.243720  0.319893  1
  H  H227  1  0.273697  0.243720  0.180107  1
  H  H228  1  0.226303  0.256280  0.180107  1
  H  H229  1  0.726303  0.743720  0.680107  1
  H  H230  1  0.680107  0.726303  0.743720  1
  H  H231  1  0.743720  0.680107  0.726303  1
  H  H232  1  0.756280  0.819893  0.726303  1
  H  H233  1  0.680107  0.773697  0.756280  1
  H  H234  1  0.756280  0.680107  0.773697  1
  H  H235  1  0.819893  0.773697  0.743720  1
  H  H236  1  0.819893  0.726303  0.756280  1
  H  H237  1  0.743720  0.819893  0.773697  1
  H  H238  1  0.773697  0.756280  0.680107  1
  H  H239  1  0.726303  0.756280  0.819893  1
  H  H240  1  0.773697  0.743720  0.819893  1
  H  H241  1  0.246438  0.254489  0.659436  1
  H  H242  1  0.659436  0.246438  0.254489  1
  H  H243  1  0.254489  0.659436  0.246438  1
  H  H244  1  0.245511  0.840564  0.246438  1
  H  H245  1  0.659436  0.253562  0.245511  1
  H  H246  1  0.245511  0.659436  0.253562  1
  H  H247  1  0.840564  0.253562  0.254489  1
  H  H248  1  0.840564  0.246438  0.245511  1
  H  H249  1  0.254489  0.840564  0.253562  1
  H  H250  1  0.253562  0.245511  0.659436  1
  H  H251  1  0.246438  0.245511  0.840564  1
  H  H252  1  0.253562  0.254489  0.840564  1
  H  H253  1  0.753562  0.745511  0.340564  1
  H  H254  1  0.340564  0.753562  0.745511  1
  H  H255  1  0.745511  0.340564  0.753562  1
  H  H256  1  0.754489  0.159436  0.753562  1
  H  H257  1  0.340564  0.746438  0.754489  1
  H  H258  1  0.754489  0.340564  0.746438  1
  H  H259  1  0.159436  0.746438  0.745511  1
  H  H260  1  0.159436  0.753562  0.754489  1
  H  H261  1  0.745511  0.159436  0.746438  1
  H  H262  1  0.746438  0.754489  0.340564  1
  H  H263  1  0.753562  0.754489  0.159436  1
  H  H264  1  0.746438  0.745511  0.159436  1
  H  H265  1  0.266486  0.219227  0.646880  1
  H  H266  1  0.646880  0.266486  0.219227  1
  H  H267  1  0.219227  0.646880  0.266486  1
  H  H268  1  0.280773  0.853120  0.266486  1
  H  H269  1  0.646880  0.233514  0.280773  1
  H  H270  1  0.280773  0.646880  0.233514  1
  H  H271  1  0.853120  0.233514  0.219227  1
  H  H272  1  0.853120  0.266486  0.280773  1
  H  H273  1  0.219227  0.853120  0.233514  1
  H  H274  1  0.233514  0.280773  0.646880  1
  H  H275  1  0.266486  0.280773  0.853120  1
  H  H276  1  0.233514  0.219227  0.853120  1
  H  H277  1  0.733514  0.780773  0.353120  1
  H  H278  1  0.353120  0.733514  0.780773  1
  H  H279  1  0.780773  0.353120  0.733514  1
  H  H280  1  0.719227  0.146880  0.733514  1
  H  H281  1  0.353120  0.766486  0.719227  1
  H  H282  1  0.719227  0.353120  0.766486  1
  H  H283  1  0.146880  0.766486  0.780773  1
  H  H284  1  0.146880  0.733514  0.719227  1
  H  H285  1  0.780773  0.146880  0.766486  1
  H  H286  1  0.766486  0.719227  0.353120  1
  H  H287  1  0.733514  0.719227  0.146880  1
  H  H288  1  0.766486  0.780773  0.146880  1
  H  H289  1  0.286955  0.256430  0.646880  1
  H  H290  1  0.646880  0.286955  0.256430  1
  H  H291  1  0.256430  0.646880  0.286955  1
  H  H292  1  0.243570  0.853120  0.286955  1
  H  H293  1  0.646880  0.213045  0.243570  1
  H  H294  1  0.243570  0.646880  0.213045  1
  H  H295  1  0.853120  0.213045  0.256430  1
  H  H296  1  0.853120  0.286955  0.243570  1
  H  H297  1  0.256430  0.853120  0.213045  1
  H  H298  1  0.213045  0.243570  0.646880  1
  H  H299  1  0.286955  0.243570  0.853120  1
  H  H300  1  0.213045  0.256430  0.853120  1
  H  H301  1  0.713045  0.743570  0.353120  1
  H  H302  1  0.353120  0.713045  0.743570  1
  H  H303  1  0.743570  0.353120  0.713045  1
  H  H304  1  0.756430  0.146880  0.713045  1
  H  H305  1  0.353120  0.786955  0.756430  1
  H  H306  1  0.756430  0.353120  0.786955  1
  H  H307  1  0.146880  0.786955  0.743570  1
  H  H308  1  0.146880  0.713045  0.756430  1
  H  H309  1  0.743570  0.146880  0.786955  1
  H  H310  1  0.786955  0.756430  0.353120  1
  H  H311  1  0.713045  0.756430  0.146880  1
  H  H312  1  0.786955  0.743570  0.146880  1
  H  H313  1  0.200559  0.573156  0.554277  1.0
  H  H314  1  0.554277  0.200559  0.573156  1.0
  H  H315  1  0.573156  0.554277  0.200559  1.0
  H  H316  1  0.926844  0.945723  0.200559  1.0
  H  H317  1  0.554277  0.299441  0.926844  1.0
  H  H318  1  0.926844  0.554277  0.299441  1.0
  H  H319  1  0.945723  0.299441  0.573156  1.0
  H  H320  1  0.945723  0.200559  0.926844  1.0
  H  H321  1  0.573156  0.945723  0.299441  1.0
  H  H322  1  0.299441  0.926844  0.554277  1.0
  H  H323  1  0.200559  0.926844  0.945723  1.0
  H  H324  1  0.299441  0.573156  0.945723  1.0
  H  H325  1  0.799441  0.426844  0.445723  1.0
  H  H326  1  0.445723  0.799441  0.426844  1.0
  H  H327  1  0.426844  0.445723  0.799441  1.0
  H  H328  1  0.073156  0.054277  0.799441  1.0
  H  H329  1  0.445723  0.700559  0.073156  1.0
  H  H330  1  0.073156  0.445723  0.700559  1.0
  H  H331  1  0.054277  0.700559  0.426844  1.0
  H  H332  1  0.054277  0.799441  0.073156  1.0
  H  H333  1  0.426844  0.054277  0.700559  1.0
  H  H334  1  0.700559  0.073156  0.445723  1.0
  H  H335  1  0.799441  0.073156  0.054277  1.0
  H  H336  1  0.700559  0.426844  0.054277  1.0
  H  H337  1  0.195189  0.633834  0.557523  1.0
  H  H338  1  0.557523  0.195189  0.633834  1.0
  H  H339  1  0.633834  0.557523  0.195189  1.0
  H  H340  1  0.866166  0.942477  0.195189  1.0
  H  H341  1  0.557523  0.304811  0.866166  1.0
  H  H342  1  0.866166  0.557523  0.304811  1.0
  H  H343  1  0.942477  0.304811  0.633834  1.0
  H  H344  1  0.942477  0.195189  0.866166  1.0
  H  H345  1  0.633834  0.942477  0.304811  1.0
  H  H346  1  0.304811  0.866166  0.557523  1.0
  H  H347  1  0.195189  0.866166  0.942477  1.0
  H  H348  1  0.304811  0.633834  0.942477  1.0
  H  H349  1  0.804811  0.366166  0.442477  1.0
  H  H350  1  0.442477  0.804811  0.366166  1.0
  H  H351  1  0.366166  0.442477  0.804811  1.0
  H  H352  1  0.133834  0.057523  0.804811  1.0
  H  H353  1  0.442477  0.695189  0.133834  1.0
  H  H354  1  0.133834  0.442477  0.695189  1.0
  H  H355  1  0.057523  0.695189  0.366166  1.0
  H  H356  1  0.057523  0.804811  0.133834  1.0
  H  H357  1  0.366166  0.057523  0.695189  1.0
  H  H358  1  0.695189  0.133834  0.442477  1.0
  H  H359  1  0.804811  0.133834  0.057523  1.0
  H  H360  1  0.695189  0.366166  0.057523  1.0
  H  H361  1  0.229418  0.669572  0.520452  1.0
  H  H362  1  0.520452  0.229418  0.669572  1.0
  H  H363  1  0.669572  0.520452  0.229418  1.0
  H  H364  1  0.830428  0.979548  0.229418  1.0
  H  H365  1  0.520452  0.270582  0.830428  1.0
  H  H366  1  0.830428  0.520452  0.270582  1.0
  H  H367  1  0.979548  0.270582  0.669572  1.0
  H  H368  1  0.979548  0.229418  0.830428  1.0
  H  H369  1  0.669572  0.979548  0.270582  1.0
  H  H370  1  0.270582  0.830428  0.520452  1.0
  H  H371  1  0.229418  0.830428  0.979548  1.0
  H  H372  1  0.270582  0.669572  0.979548  1.0
  H  H373  1  0.770582  0.330428  0.479548  1.0
  H  H374  1  0.479548  0.770582  0.330428  1.0
  H  H375  1  0.330428  0.479548  0.770582  1.0
  H  H376  1  0.169572  0.020452  0.770582  1.0
  H  H377  1  0.479548  0.729418  0.169572  1.0
  H  H378  1  0.169572  0.479548  0.729418  1.0
  H  H379  1  0.020452  0.729418  0.330428  1.0
  H  H380  1  0.020452  0.770582  0.169572  1.0
  H  H381  1  0.330428  0.020452  0.729418  1.0
  H  H382  1  0.729418  0.169572  0.479548  1.0
  H  H383  1  0.770582  0.169572  0.020452  1.0
  H  H384  1  0.729418  0.330428  0.020452  1.0
  H  H385  1  0.276352  0.672642  0.470810  1.0
  H  H386  1  0.470810  0.276352  0.672642  1.0
  H  H387  1  0.672642  0.470810  0.276352  1.0
  H  H388  1  0.827358  0.029190  0.276352  1.0
  H  H389  1  0.470810  0.223648  0.827358  1.0
  H  H390  1  0.827358  0.470810  0.223648  1.0
  H  H391  1  0.029190  0.223648  0.672642  1.0
  H  H392  1  0.029190  0.276352  0.827358  1.0
  H  H393  1  0.672642  0.029190  0.223648  1.0
  H  H394  1  0.223648  0.827358  0.470810  1.0
  H  H395  1  0.276352  0.827358  0.029190  1.0
  H  H396  1  0.223648  0.672642  0.029190  1.0
  H  H397  1  0.723648  0.327358  0.529190  1.0
  H  H398  1  0.529190  0.723648  0.327358  1.0
  H  H399  1  0.327358  0.529190  0.723648  1.0
  H  H400  1  0.172642  0.970810  0.723648  1.0
  H  H401  1  0.529190  0.776352  0.172642  1.0
  H  H402  1  0.172642  0.529190  0.776352  1.0
  H  H403  1  0.970810  0.776352  0.327358  1.0
  H  H404  1  0.970810  0.723648  0.172642  1.0
  H  H405  1  0.327358  0.970810  0.776352  1.0
  H  H406  1  0.776352  0.172642  0.529190  1.0
  H  H407  1  0.723648  0.172642  0.970810  1.0
  H  H408  1  0.776352  0.327358  0.970810  1.0
  H  H409  1  0.314436  0.643844  0.433472  1.0
  H  H410  1  0.433472  0.314436  0.643844  1.0
  H  H411  1  0.643844  0.433472  0.314436  1.0
  H  H412  1  0.856156  0.066528  0.314436  1.0
  H  H413  1  0.433472  0.185564  0.856156  1.0
  H  H414  1  0.856156  0.433472  0.185564  1.0
  H  H415  1  0.066528  0.185564  0.643844  1.0
  H  H416  1  0.066528  0.314436  0.856156  1.0
  H  H417  1  0.643844  0.066528  0.185564  1.0
  H  H418  1  0.185564  0.856156  0.433472  1.0
  H  H419  1  0.314436  0.856156  0.066528  1.0
  H  H420  1  0.185564  0.643844  0.066528  1.0
  H  H421  1  0.685564  0.356156  0.566528  1.0
  H  H422  1  0.566528  0.685564  0.356156  1.0
  H  H423  1  0.356156  0.566528  0.685564  1.0
  H  H424  1  0.143844  0.933472  0.685564  1.0
  H  H425  1  0.566528  0.814436  0.143844  1.0
  H  H426  1  0.143844  0.566528  0.814436  1.0
  H  H427  1  0.933472  0.814436  0.356156  1.0
  H  H428  1  0.933472  0.685564  0.143844  1.0
  H  H429  1  0.356156  0.933472  0.814436  1.0
  H  H430  1  0.814436  0.143844  0.566528  1.0
  H  H431  1  0.685564  0.143844  0.933472  1.0
  H  H432  1  0.814436  0.356156  0.933472  1.0
  H  H433  1  0.344333  0.586207  0.413017  1.0
  H  H434  1  0.413017  0.344333  0.586207  1.0
  H  H435  1  0.586207  0.413017  0.344333  1.0
  H  H436  1  0.913793  0.086983  0.344333  1.0
  H  H437  1  0.413017  0.155667  0.913793  1.0
  H  H438  1  0.913793  0.413017  0.155667  1.0
  H  H439  1  0.086983  0.155667  0.586207  1.0
  H  H440  1  0.086983  0.344333  0.913793  1.0
  H  H441  1  0.586207  0.086983  0.155667  1.0
  H  H442  1  0.155667  0.913793  0.413017  1.0
  H  H443  1  0.344333  0.913793  0.086983  1.0
  H  H444  1  0.155667  0.586207  0.086983  1.0
  H  H445  1  0.655667  0.413793  0.586983  1.0
  H  H446  1  0.586983  0.655667  0.413793  1.0
  H  H447  1  0.413793  0.586983  0.655667  1.0
  H  H448  1  0.086207  0.913017  0.655667  1.0
  H  H449  1  0.586983  0.844333  0.086207  1.0
  H  H450  1  0.086207  0.586983  0.844333  1.0
  H  H451  1  0.913017  0.844333  0.413793  1.0
  H  H452  1  0.913017  0.655667  0.086207  1.0
  H  H453  1  0.413793  0.913017  0.844333  1.0
  H  H454  1  0.844333  0.086207  0.586983  1.0
  H  H455  1  0.655667  0.086207  0.913017  1.0
  H  H456  1  0.844333  0.413793  0.913017  1.0
  H  H457  1  0.348427  0.524903  0.419284  1.0
  H  H458  1  0.419284  0.348427  0.524903  1.0
  H  H459  1  0.524903  0.419284  0.348427  1.0
  H  H460  1  0.975097  0.080716  0.348427  1.0
  H  H461  1  0.419284  0.151573  0.975097  1.0
  H  H462  1  0.975097  0.419284  0.151573  1.0
  H  H463  1  0.080716  0.151573  0.524903  1.0
  H  H464  1  0.080716  0.348427  0.975097  1.0
  H  H465  1  0.524903  0.080716  0.151573  1.0
  H  H466  1  0.151573  0.975097  0.419284  1.0
  H  H467  1  0.348427  0.975097  0.080716  1.0
  H  H468  1  0.151573  0.524903  0.080716  1.0
  H  H469  1  0.651573  0.475097  0.580716  1.0
  H  H470  1  0.580716  0.651573  0.475097  1.0
  H  H471  1  0.475097  0.580716  0.651573  1.0
  H  H472  1  0.024903  0.919284  0.651573  1.0
  H  H473  1  0.580716  0.848427  0.024903  1.0
  H  H474  1  0.024903  0.580716  0.848427  1.0
  H  H475  1  0.919284  0.848427  0.475097  1.0
  H  H476  1  0.919284  0.651573  0.024903  1.0
  H  H477  1  0.475097  0.919284  0.848427  1.0
  H  H478  1  0.848427  0.024903  0.580716  1.0
  H  H479  1  0.651573  0.024903  0.919284  1.0
  H  H480  1  0.848427  0.475097  0.919284  1.0
  H  H481  1  0.323606  0.467526  0.445642  1.0
  H  H482  1  0.445642  0.323606  0.467526  1.0
  H  H483  1  0.467526  0.445642  0.323606  1.0
  H  H484  1  0.032474  0.054358  0.323606  1.0
  H  H485  1  0.445642  0.176394  0.032474  1.0
  H  H486  1  0.032474  0.445642  0.176394  1.0
  H  H487  1  0.054358  0.176394  0.467526  1.0
  H  H488  1  0.054358  0.323606  0.032474  1.0
  H  H489  1  0.467526  0.054358  0.176394  1.0
  H  H490  1  0.176394  0.032474  0.445642  1.0
  H  H491  1  0.323606  0.032474  0.054358  1.0
  H  H492  1  0.176394  0.467526  0.054358  1.0
  H  H493  1  0.676394  0.532474  0.554358  1.0
  H  H494  1  0.554358  0.676394  0.532474  1.0
  H  H495  1  0.532474  0.554358  0.676394  1.0
  H  H496  1  0.967526  0.945642  0.676394  1.0
  H  H497  1  0.554358  0.823606  0.967526  1.0
  H  H498  1  0.967526  0.554358  0.823606  1.0
  H  H499  1  0.945642  0.823606  0.532474  1.0
  H  H500  1  0.945642  0.676394  0.967526  1.0
  H  H501  1  0.532474  0.945642  0.823606  1.0
  H  H502  1  0.823606  0.967526  0.554358  1.0
  H  H503  1  0.676394  0.967526  0.945642  1.0
  H  H504  1  0.823606  0.532474  0.945642  1.0
  H  H505  1  0.277351  0.426554  0.535748  1.0
  H  H506  1  0.535748  0.277351  0.426554  1.0
  H  H507  1  0.426554  0.535748  0.277351  1.0
  H  H508  1  0.073446  0.964252  0.277351  1.0
  H  H509  1  0.535748  0.222649  0.073446  1.0
  H  H510  1  0.073446  0.535748  0.222649  1.0
  H  H511  1  0.964252  0.222649  0.426554  1.0
  H  H512  1  0.964252  0.277351  0.073446  1.0
  H  H513  1  0.426554  0.964252  0.222649  1.0
  H  H514  1  0.222649  0.073446  0.535748  1.0
  H  H515  1  0.277351  0.073446  0.964252  1.0
  H  H516  1  0.222649  0.426554  0.964252  1.0
  H  H517  1  0.722649  0.573446  0.464252  1.0
  H  H518  1  0.464252  0.722649  0.573446  1.0
  H  H519  1  0.573446  0.464252  0.722649  1.0
  H  H520  1  0.926554  0.035748  0.722649  1.0
  H  H521  1  0.464252  0.777351  0.926554  1.0
  H  H522  1  0.926554  0.464252  0.777351  1.0
  H  H523  1  0.035748  0.777351  0.573446  1.0
  H  H524  1  0.035748  0.722649  0.926554  1.0
  H  H525  1  0.573446  0.035748  0.777351  1.0
  H  H526  1  0.777351  0.926554  0.464252  1.0
  H  H527  1  0.722649  0.926554  0.035748  1.0
  H  H528  1  0.777351  0.573446  0.035748  1.0
  H  H529  1  0.267151  0.365434  0.538326  1.0
  H  H530  1  0.538326  0.267151  0.365434  1.0
  H  H531  1  0.365434  0.538326  0.267151  1.0
  H  H532  1  0.134566  0.961674  0.267151  1.0
  H  H533  1  0.538326  0.232849  0.134566  1.0
  H  H534  1  0.134566  0.538326  0.232849  1.0
  H  H535  1  0.961674  0.232849  0.365434  1.0
  H  H536  1  0.961674  0.267151  0.134566  1.0
  H  H537  1  0.365434  0.961674  0.232849  1.0
  H  H538  1  0.232849  0.134566  0.538326  1.0
  H  H539  1  0.267151  0.134566  0.961674  1.0
  H  H540  1  0.232849  0.365434  0.961674  1.0
  H  H541  1  0.732849  0.634566  0.461674  1.0
  H  H542  1  0.461674  0.732849  0.634566  1.0
  H  H543  1  0.634566  0.461674  0.732849  1.0
  H  H544  1  0.865434  0.038326  0.732849  1.0
  H  H545  1  0.461674  0.767151  0.865434  1.0
  H  H546  1  0.865434  0.461674  0.767151  1.0
  H  H547  1  0.038326  0.767151  0.634566  1.0
  H  H548  1  0.038326  0.732849  0.865434  1.0
  H  H549  1  0.634566  0.038326  0.767151  1.0
  H  H550  1  0.767151  0.865434  0.461674  1.0
  H  H551  1  0.732849  0.865434  0.038326  1.0
  H  H552  1  0.767151  0.634566  0.038326  1.0
  H  H553  1  0.277999  0.359084  0.431346  1.0
  H  H554  1  0.431346  0.277999  0.359084  1.0
  H  H555  1  0.359084  0.431346  0.277999  1.0
  H  H556  1  0.140916  0.068654  0.277999  1.0
  H  H557  1  0.431346  0.222001  0.140916  1.0
  H  H558  1  0.140916  0.431346  0.222001  1.0
  H  H559  1  0.068654  0.222001  0.359084  1.0
  H  H560  1  0.068654  0.277999  0.140916  1.0
  H  H561  1  0.359084  0.068654  0.222001  1.0
  H  H562  1  0.222001  0.140916  0.431346  1.0
  H  H563  1  0.277999  0.140916  0.068654  1.0
  H  H564  1  0.222001  0.359084  0.068654  1.0
  H  H565  1  0.722001  0.640916  0.568654  1.0
  H  H566  1  0.568654  0.722001  0.640916  1.0
  H  H567  1  0.640916  0.568654  0.722001  1.0
  H  H568  1  0.859084  0.931346  0.722001  1.0
  H  H569  1  0.568654  0.777999  0.859084  1.0
  H  H570  1  0.859084  0.568654  0.777999  1.0
  H  H571  1  0.931346  0.777999  0.640916  1.0
  H  H572  1  0.931346  0.722001  0.859084  1.0
  H  H573  1  0.640916  0.931346  0.777999  1.0
  H  H574  1  0.777999  0.859084  0.568654  1.0
  H  H575  1  0.722001  0.859084  0.931346  1.0
  H  H576  1  0.777999  0.640916  0.931346  1.0
  H  H577  1  0.287137  0.420351  0.428811  1.0
  H  H578  1  0.428811  0.287137  0.420351  1.0
  H  H579  1  0.420351  0.428811  0.287137  1.0
  H  H580  1  0.079649  0.071189  0.287137  1.0
  H  H581  1  0.428811  0.212863  0.079649  1.0
  H  H582  1  0.079649  0.428811  0.212863  1.0
  H  H583  1  0.071189  0.212863  0.420351  1.0
  H  H584  1  0.071189  0.287137  0.079649  1.0
  H  H585  1  0.420351  0.071189  0.212863  1.0
  H  H586  1  0.212863  0.079649  0.428811  1.0
  H  H587  1  0.287137  0.079649  0.071189  1.0
  H  H588  1  0.212863  0.420351  0.071189  1.0
  H  H589  1  0.712863  0.579649  0.571189  1.0
  H  H590  1  0.571189  0.712863  0.579649  1.0
  H  H591  1  0.579649  0.571189  0.712863  1.0
  H  H592  1  0.920351  0.928811  0.712863  1.0
  H  H593  1  0.571189  0.787137  0.920351  1.0
  H  H594  1  0.920351  0.571189  0.787137  1.0
  H  H595  1  0.928811  0.787137  0.579649  1.0
  H  H596  1  0.928811  0.712863  0.920351  1.0
  H  H597  1  0.579649  0.928811  0.787137  1.0
  H  H598  1  0.787137  0.920351  0.571189  1.0
  H  H599  1  0.712863  0.920351  0.928811  1.0
  H  H600  1  0.787137  0.579649  0.928811  1.0
  H  H601  1  0.920256  0.197510  0.528558  1.0
  H  H602  1  0.528558  0.920256  0.197510  1.0
  H  H603  1  0.197510  0.528558  0.920256  1.0
  H  H604  1  0.302490  0.971442  0.920256  1.0
  H  H605  1  0.528558  0.579744  0.302490  1.0
  H  H606  1  0.302490  0.528558  0.579744  1.0
  H  H607  1  0.971442  0.579744  0.197510  1.0
  H  H608  1  0.971442  0.920256  0.302490  1.0
  H  H609  1  0.197510  0.971442  0.579744  1.0
  H  H610  1  0.579744  0.302490  0.528558  1.0
  H  H611  1  0.920256  0.302490  0.971442  1.0
  H  H612  1  0.579744  0.197510  0.971442  1.0
  H  H613  1  0.079744  0.802490  0.471442  1.0
  H  H614  1  0.471442  0.079744  0.802490  1.0
  H  H615  1  0.802490  0.471442  0.079744  1.0
  H  H616  1  0.697510  0.028558  0.079744  1.0
  H  H617  1  0.471442  0.420256  0.697510  1.0
  H  H618  1  0.697510  0.471442  0.420256  1.0
  H  H619  1  0.028558  0.420256  0.802490  1.0
  H  H620  1  0.028558  0.079744  0.697510  1.0
  H  H621  1  0.802490  0.028558  0.420256  1.0
  H  H622  1  0.420256  0.697510  0.471442  1.0
  H  H623  1  0.079744  0.697510  0.028558  1.0
  H  H624  1  0.420256  0.802490  0.028558  1.0
  H  H625  1  0.859360  0.193497  0.525172  1.0
  H  H626  1  0.525172  0.859360  0.193497  1.0
  H  H627  1  0.193497  0.525172  0.859360  1.0
  H  H628  1  0.306503  0.974828  0.859360  1.0
  H  H629  1  0.525172  0.640640  0.306503  1.0
  H  H630  1  0.306503  0.525172  0.640640  1.0
  H  H631  1  0.974828  0.640640  0.193497  1.0
  H  H632  1  0.974828  0.859360  0.306503  1.0
  H  H633  1  0.193497  0.974828  0.640640  1.0
  H  H634  1  0.640640  0.306503  0.525172  1.0
  H  H635  1  0.859360  0.306503  0.974828  1.0
  H  H636  1  0.640640  0.193497  0.974828  1.0
  H  H637  1  0.140640  0.806503  0.474828  1.0
  H  H638  1  0.474828  0.140640  0.806503  1.0
  H  H639  1  0.806503  0.474828  0.140640  1.0
  H  H640  1  0.693497  0.025172  0.140640  1.0
  H  H641  1  0.474828  0.359360  0.693497  1.0
  H  H642  1  0.693497  0.474828  0.359360  1.0
  H  H643  1  0.025172  0.359360  0.806503  1.0
  H  H644  1  0.025172  0.140640  0.693497  1.0
  H  H645  1  0.806503  0.025172  0.359360  1.0
  H  H646  1  0.359360  0.693497  0.474828  1.0
  H  H647  1  0.140640  0.693497  0.025172  1.0
  H  H648  1  0.359360  0.806503  0.025172  1.0
  H  H649  1  0.826985  0.239668  0.499616  1.0
  H  H650  1  0.499616  0.826985  0.239668  1.0
  H  H651  1  0.239668  0.499616  0.826985  1.0
  H  H652  1  0.260332  0.000384  0.826985  1.0
  H  H653  1  0.499616  0.673015  0.260332  1.0
  H  H654  1  0.260332  0.499616  0.673015  1.0
  H  H655  1  0.000384  0.673015  0.239668  1.0
  H  H656  1  0.000384  0.826985  0.260332  1.0
  H  H657  1  0.239668  0.000384  0.673015  1.0
  H  H658  1  0.673015  0.260332  0.499616  1.0
  H  H659  1  0.826985  0.260332  0.000384  1.0
  H  H660  1  0.673015  0.239668  0.000384  1.0
  H  H661  1  0.173015  0.760332  0.500384  1.0
  H  H662  1  0.500384  0.173015  0.760332  1.0
  H  H663  1  0.760332  0.500384  0.173015  1.0
  H  H664  1  0.739668  0.999616  0.173015  1.0
  H  H665  1  0.500384  0.326985  0.739668  1.0
  H  H666  1  0.739668  0.500384  0.326985  1.0
  H  H667  1  0.999616  0.326985  0.760332  1.0
  H  H668  1  0.999616  0.173015  0.739668  1.0
  H  H669  1  0.760332  0.999616  0.326985  1.0
  H  H670  1  0.326985  0.739668  0.500384  1.0
  H  H671  1  0.173015  0.739668  0.999616  1.0
  H  H672  1  0.326985  0.760332  0.999616  1.0
  H  H673  1  0.828733  0.299435  0.467665  1.0
  H  H674  1  0.467665  0.828733  0.299435  1.0
  H  H675  1  0.299435  0.467665  0.828733  1.0
  H  H676  1  0.200565  0.032335  0.828733  1.0
  H  H677  1  0.467665  0.671267  0.200565  1.0
  H  H678  1  0.200565  0.467665  0.671267  1.0
  H  H679  1  0.032335  0.671267  0.299435  1.0
  H  H680  1  0.032335  0.828733  0.200565  1.0
  H  H681  1  0.299435  0.032335  0.671267  1.0
  H  H682  1  0.671267  0.200565  0.467665  1.0
  H  H683  1  0.828733  0.200565  0.032335  1.0
  H  H684  1  0.671267  0.299435  0.032335  1.0
  H  H685  1  0.171267  0.700565  0.532335  1.0
  H  H686  1  0.532335  0.171267  0.700565  1.0
  H  H687  1  0.700565  0.532335  0.171267  1.0
  H  H688  1  0.799435  0.967665  0.171267  1.0
  H  H689  1  0.532335  0.328733  0.799435  1.0
  H  H690  1  0.799435  0.532335  0.328733  1.0
  H  H691  1  0.967665  0.328733  0.700565  1.0
  H  H692  1  0.967665  0.171267  0.799435  1.0
  H  H693  1  0.700565  0.967665  0.328733  1.0
  H  H694  1  0.328733  0.799435  0.532335  1.0
  H  H695  1  0.171267  0.799435  0.967665  1.0
  H  H696  1  0.328733  0.700565  0.967665  1.0
  H  H697  1  0.860684  0.344621  0.442931  1.0
  H  H698  1  0.442931  0.860684  0.344621  1.0
  H  H699  1  0.344621  0.442931  0.860684  1.0
  H  H700  1  0.155379  0.057069  0.860684  1.0
  H  H701  1  0.442931  0.639316  0.155379  1.0
  H  H702  1  0.155379  0.442931  0.639316  1.0
  H  H703  1  0.057069  0.639316  0.344621  1.0
  H  H704  1  0.057069  0.860684  0.155379  1.0
  H  H705  1  0.344621  0.057069  0.639316  1.0
  H  H706  1  0.639316  0.155379  0.442931  1.0
  H  H707  1  0.860684  0.155379  0.057069  1.0
  H  H708  1  0.639316  0.344621  0.057069  1.0
  H  H709  1  0.139316  0.655379  0.557069  1.0
  H  H710  1  0.557069  0.139316  0.655379  1.0
  H  H711  1  0.655379  0.557069  0.139316  1.0
  H  H712  1  0.844621  0.942931  0.139316  1.0
  H  H713  1  0.557069  0.360684  0.844621  1.0
  H  H714  1  0.844621  0.557069  0.360684  1.0
  H  H715  1  0.942931  0.360684  0.655379  1.0
  H  H716  1  0.942931  0.139316  0.844621  1.0
  H  H717  1  0.655379  0.942931  0.360684  1.0
  H  H718  1  0.360684  0.844621  0.557069  1.0
  H  H719  1  0.139316  0.844621  0.942931  1.0
  H  H720  1  0.360684  0.655379  0.942931  1.0
  H  H721  1  0.921094  0.373240  0.429766  1.0
  H  H722  1  0.429766  0.921094  0.373240  1.0
  H  H723  1  0.373240  0.429766  0.921094  1.0
  H  H724  1  0.126760  0.070234  0.921094  1.0
  H  H725  1  0.429766  0.578906  0.126760  1.0
  H  H726  1  0.126760  0.429766  0.578906  1.0
  H  H727  1  0.070234  0.578906  0.373240  1.0
  H  H728  1  0.070234  0.921094  0.126760  1.0
  H  H729  1  0.373240  0.070234  0.578906  1.0
  H  H730  1  0.578906  0.126760  0.429766  1.0
  H  H731  1  0.921094  0.126760  0.070234  1.0
  H  H732  1  0.578906  0.373240  0.070234  1.0
  H  H733  1  0.078906  0.626760  0.570234  1.0
  H  H734  1  0.570234  0.078906  0.626760  1.0
  H  H735  1  0.626760  0.570234  0.078906  1.0
  H  H736  1  0.873240  0.929766  0.078906  1.0
  H  H737  1  0.570234  0.421094  0.873240  1.0
  H  H738  1  0.873240  0.570234  0.421094  1.0
  H  H739  1  0.929766  0.421094  0.626760  1.0
  H  H740  1  0.929766  0.078906  0.873240  1.0
  H  H741  1  0.626760  0.929766  0.421094  1.0
  H  H742  1  0.421094  0.873240  0.570234  1.0
  H  H743  1  0.078906  0.873240  0.929766  1.0
  H  H744  1  0.421094  0.626760  0.929766  1.0
  H  H745  1  0.982523  0.369939  0.434791  1.0
  H  H746  1  0.434791  0.982523  0.369939  1.0
  H  H747  1  0.369939  0.434791  0.982523  1.0
  H  H748  1  0.130061  0.065209  0.982523  1.0
  H  H749  1  0.434791  0.517477  0.130061  1.0
  H  H750  1  0.130061  0.434791  0.517477  1.0
  H  H751  1  0.065209  0.517477  0.369939  1.0
  H  H752  1  0.065209  0.982523  0.130061  1.0
  H  H753  1  0.369939  0.065209  0.517477  1.0
  H  H754  1  0.517477  0.130061  0.434791  1.0
  H  H755  1  0.982523  0.130061  0.065209  1.0
  H  H756  1  0.517477  0.369939  0.065209  1.0
  H  H757  1  0.017477  0.630061  0.565209  1.0
  H  H758  1  0.565209  0.017477  0.630061  1.0
  H  H759  1  0.630061  0.565209  0.017477  1.0
  H  H760  1  0.869939  0.934791  0.017477  1.0
  H  H761  1  0.565209  0.482523  0.869939  1.0
  H  H762  1  0.869939  0.565209  0.482523  1.0
  H  H763  1  0.934791  0.482523  0.630061  1.0
  H  H764  1  0.934791  0.017477  0.869939  1.0
  H  H765  1  0.630061  0.934791  0.482523  1.0
  H  H766  1  0.482523  0.869939  0.565209  1.0
  H  H767  1  0.017477  0.869939  0.934791  1.0
  H  H768  1  0.482523  0.630061  0.934791  1.0
  H  H769  1  0.037499  0.338222  0.458404  1.0
  H  H770  1  0.458404  0.037499  0.338222  1.0
  H  H771  1  0.338222  0.458404  0.037499  1.0
  H  H772  1  0.161778  0.041596  0.037499  1.0
  H  H773  1  0.458404  0.462501  0.161778  1.0
  H  H774  1  0.161778  0.458404  0.462501  1.0
  H  H775  1  0.041596  0.462501  0.338222  1.0
  H  H776  1  0.041596  0.037499  0.161778  1.0
  H  H777  1  0.338222  0.041596  0.462501  1.0
  H  H778  1  0.462501  0.161778  0.458404  1.0
  H  H779  1  0.037499  0.161778  0.041596  1.0
  H  H780  1  0.462501  0.338222  0.041596  1.0
  H  H781  1  0.962501  0.661778  0.541596  1.0
  H  H782  1  0.541596  0.962501  0.661778  1.0
  H  H783  1  0.661778  0.541596  0.962501  1.0
  H  H784  1  0.838222  0.958404  0.962501  1.0
  H  H785  1  0.541596  0.537499  0.838222  1.0
  H  H786  1  0.838222  0.541596  0.537499  1.0
  H  H787  1  0.958404  0.537499  0.661778  1.0
  H  H788  1  0.958404  0.962501  0.838222  1.0
  H  H789  1  0.661778  0.958404  0.537499  1.0
  H  H790  1  0.537499  0.838222  0.541596  1.0
  H  H791  1  0.962501  0.838222  0.958404  1.0
  H  H792  1  0.537499  0.661778  0.958404  1.0
  H  H793  1  0.077763  0.284991  0.540650  1.0
  H  H794  1  0.540650  0.077763  0.284991  1.0
  H  H795  1  0.284991  0.540650  0.077763  1.0
  H  H796  1  0.215009  0.959350  0.077763  1.0
  H  H797  1  0.540650  0.422237  0.215009  1.0
  H  H798  1  0.215009  0.540650  0.422237  1.0
  H  H799  1  0.959350  0.422237  0.284991  1.0
  H  H800  1  0.959350  0.077763  0.215009  1.0
  H  H801  1  0.284991  0.959350  0.422237  1.0
  H  H802  1  0.422237  0.215009  0.540650  1.0
  H  H803  1  0.077763  0.215009  0.959350  1.0
  H  H804  1  0.422237  0.284991  0.959350  1.0
  H  H805  1  0.922237  0.715009  0.459350  1.0
  H  H806  1  0.459350  0.922237  0.715009  1.0
  H  H807  1  0.715009  0.459350  0.922237  1.0
  H  H808  1  0.784991  0.040650  0.922237  1.0
  H  H809  1  0.459350  0.577763  0.784991  1.0
  H  H810  1  0.784991  0.459350  0.577763  1.0
  H  H811  1  0.040650  0.577763  0.715009  1.0
  H  H812  1  0.040650  0.922237  0.784991  1.0
  H  H813  1  0.715009  0.040650  0.577763  1.0
  H  H814  1  0.577763  0.784991  0.459350  1.0
  H  H815  1  0.922237  0.784991  0.040650  1.0
  H  H816  1  0.577763  0.715009  0.040650  1.0
  H  H817  1  0.138177  0.271696  0.540607  1.0
  H  H818  1  0.540607  0.138177  0.271696  1.0
  H  H819  1  0.271696  0.540607  0.138177  1.0
  H  H820  1  0.228304  0.959393  0.138177  1.0
  H  H821  1  0.540607  0.361823  0.228304  1.0
  H  H822  1  0.228304  0.540607  0.361823  1.0
  H  H823  1  0.959393  0.361823  0.271696  1.0
  H  H824  1  0.959393  0.138177  0.228304  1.0
  H  H825  1  0.271696  0.959393  0.361823  1.0
  H  H826  1  0.361823  0.228304  0.540607  1.0
  H  H827  1  0.138177  0.228304  0.959393  1.0
  H  H828  1  0.361823  0.271696  0.959393  1.0
  H  H829  1  0.861823  0.728304  0.459393  1.0
  H  H830  1  0.459393  0.861823  0.728304  1.0
  H  H831  1  0.728304  0.459393  0.861823  1.0
  H  H832  1  0.771696  0.040607  0.861823  1.0
  H  H833  1  0.459393  0.638177  0.771696  1.0
  H  H834  1  0.771696  0.459393  0.638177  1.0
  H  H835  1  0.040607  0.638177  0.728304  1.0
  H  H836  1  0.040607  0.861823  0.771696  1.0
  H  H837  1  0.728304  0.040607  0.638177  1.0
  H  H838  1  0.638177  0.771696  0.459393  1.0
  H  H839  1  0.861823  0.771696  0.040607  1.0
  H  H840  1  0.638177  0.728304  0.040607  1.0
  H  H841  1  0.138380  0.274468  0.433070  1.0
  H  H842  1  0.433070  0.138380  0.274468  1.0
  H  H843  1  0.274468  0.433070  0.138380  1.0
  H  H844  1  0.225532  0.066930  0.138380  1.0
  H  H845  1  0.433070  0.361620  0.225532  1.0
  H  H846  1  0.225532  0.433070  0.361620  1.0
  H  H847  1  0.066930  0.361620  0.274468  1.0
  H  H848  1  0.066930  0.138380  0.225532  1.0
  H  H849  1  0.274468  0.066930  0.361620  1.0
  H  H850  1  0.361620  0.225532  0.433070  1.0
  H  H851  1  0.138380  0.225532  0.066930  1.0
  H  H852  1  0.361620  0.274468  0.066930  1.0
  H  H853  1  0.861620  0.725532  0.566930  1.0
  H  H854  1  0.566930  0.861620  0.725532  1.0
  H  H855  1  0.725532  0.566930  0.861620  1.0
  H  H856  1  0.774468  0.933070  0.861620  1.0
  H  H857  1  0.566930  0.638380  0.774468  1.0
  H  H858  1  0.774468  0.566930  0.638380  1.0
  H  H859  1  0.933070  0.638380  0.725532  1.0
  H  H860  1  0.933070  0.861620  0.774468  1.0
  H  H861  1  0.725532  0.933070  0.638380  1.0
  H  H862  1  0.638380  0.774468  0.566930  1.0
  H  H863  1  0.861620  0.774468  0.933070  1.0
  H  H864  1  0.638380  0.725532  0.933070  1.0
  H  H865  1  0.078055  0.287725  0.433223  1.0
  H  H866  1  0.433223  0.078055  0.287725  1.0
  H  H867  1  0.287725  0.433223  0.078055  1.0
  H  H868  1  0.212275  0.066777  0.078055  1.0
  H  H869  1  0.433223  0.421945  0.212275  1.0
  H  H870  1  0.212275  0.433223  0.421945  1.0
  H  H871  1  0.066777  0.421945  0.287725  1.0
  H  H872  1  0.066777  0.078055  0.212275  1.0
  H  H873  1  0.287725  0.066777  0.421945  1.0
  H  H874  1  0.421945  0.212275  0.433223  1.0
  H  H875  1  0.078055  0.212275  0.066777  1.0
  H  H876  1  0.421945  0.287725  0.066777  1.0
  H  H877  1  0.921945  0.712275  0.566777  1.0
  H  H878  1  0.566777  0.921945  0.712275  1.0
  H  H879  1  0.712275  0.566777  0.921945  1.0
  H  H880  1  0.787725  0.933223  0.921945  1.0
  H  H881  1  0.566777  0.578055  0.787725  1.0
  H  H882  1  0.787725  0.566777  0.578055  1.0
  H  H883  1  0.933223  0.578055  0.712275  1.0
  H  H884  1  0.933223  0.921945  0.787725  1.0
  H  H885  1  0.712275  0.933223  0.578055  1.0
  H  H886  1  0.578055  0.787725  0.566777  1.0
  H  H887  1  0.921945  0.787725  0.933223  1.0
  H  H888  1  0.578055  0.712275  0.933223  1.0
  Rh  Rh889  1  0.250000  0.250000  0.455530  1.0
  Rh  Rh890  1  0.455530  0.250000  0.250000  1.0
  Rh  Rh891  1  0.250000  0.455530  0.250000  1.0
  Rh  Rh892  1  0.250000  0.044470  0.250000  1.0
  Rh  Rh893  1  0.044470  0.250000  0.250000  1.0
  Rh  Rh894  1  0.250000  0.250000  0.044470  1.0
  Rh  Rh895  1  0.750000  0.750000  0.544470  1.0
  Rh  Rh896  1  0.544470  0.750000  0.750000  1.0
  Rh  Rh897  1  0.750000  0.544470  0.750000  1.0
  Rh  Rh898  1  0.750000  0.955530  0.750000  1.0
  Rh  Rh899  1  0.955530  0.750000  0.750000  1.0
  Rh  Rh900  1  0.750000  0.750000  0.955530  1.0
  Rh  Rh901  1  0.250000  0.250000  0.518640  1.0
  Rh  Rh902  1  0.518640  0.250000  0.250000  1.0
  Rh  Rh903  1  0.250000  0.518640  0.250000  1.0
  Rh  Rh904  1  0.250000  0.981360  0.250000  1.0
  Rh  Rh905  1  0.981360  0.250000  0.250000  1.0
  Rh  Rh906  1  0.250000  0.250000  0.981360  1.0
  Rh  Rh907  1  0.750000  0.750000  0.481360  1.0
  Rh  Rh908  1  0.481360  0.750000  0.750000  1.0
  Rh  Rh909  1  0.750000  0.481360  0.750000  1.0
  Rh  Rh910  1  0.750000  0.018640  0.750000  1.0
  Rh  Rh911  1  0.018640  0.750000  0.750000  1.0
  Rh  Rh912  1  0.750000  0.750000  0.018640  1.0
  C  C913  1  0.111700  0.532700  0.468800  1
  C  C914  1  0.468800  0.111700  0.532700  1
  C  C915  1  0.532700  0.468800  0.111700  1
  C  C916  1  0.967300  0.031200  0.111700  1
  C  C917  1  0.468800  0.388300  0.967300  1
  C  C918  1  0.967300  0.468800  0.388300  1
  C  C919  1  0.031200  0.388300  0.532700  1
  C  C920  1  0.031200  0.111700  0.967300  1
  C  C921  1  0.532700  0.031200  0.388300  1
  C  C922  1  0.388300  0.967300  0.468800  1
  C  C923  1  0.111700  0.967300  0.031200  1
  C  C924  1  0.388300  0.532700  0.031200  1
  C  C925  1  0.888300  0.467300  0.531200  1
  C  C926  1  0.531200  0.888300  0.467300  1
  C  C927  1  0.467300  0.531200  0.888300  1
  C  C928  1  0.032700  0.968800  0.888300  1
  C  C929  1  0.531200  0.611700  0.032700  1
  C  C930  1  0.032700  0.531200  0.611700  1
  C  C931  1  0.968800  0.611700  0.467300  1
  C  C932  1  0.968800  0.888300  0.032700  1
  C  C933  1  0.467300  0.968800  0.611700  1
  C  C934  1  0.611700  0.032700  0.531200  1
  C  C935  1  0.888300  0.032700  0.968800  1
  C  C936  1  0.611700  0.467300  0.968800  1
  C  C937  1  0.132800  0.551100  0.492800  1
  C  C938  1  0.492800  0.132800  0.551100  1
  C  C939  1  0.551100  0.492800  0.132800  1
  C  C940  1  0.948900  0.007200  0.132800  1
  C  C941  1  0.492800  0.367200  0.948900  1
  C  C942  1  0.948900  0.492800  0.367200  1
  C  C943  1  0.007200  0.367200  0.551100  1
  C  C944  1  0.007200  0.132800  0.948900  1
  C  C945  1  0.551100  0.007200  0.367200  1
  C  C946  1  0.367200  0.948900  0.492800  1
  C  C947  1  0.132800  0.948900  0.007200  1
  C  C948  1  0.367200  0.551100  0.007200  1
  C  C949  1  0.867200  0.448900  0.507200  1
  C  C950  1  0.507200  0.867200  0.448900  1
  C  C951  1  0.448900  0.507200  0.867200  1
  C  C952  1  0.051100  0.992800  0.867200  1
  C  C953  1  0.507200  0.632800  0.051100  1
  C  C954  1  0.051100  0.507200  0.632800  1
  C  C955  1  0.992800  0.632800  0.448900  1
  C  C956  1  0.992800  0.867200  0.051100  1
  C  C957  1  0.448900  0.992800  0.632800  1
  C  C958  1  0.632800  0.051100  0.507200  1
  C  C959  1  0.867200  0.051100  0.992800  1
  C  C960  1  0.632800  0.448900  0.992800  1
  C  C961  1  0.127100  0.547400  0.529100  1
  C  C962  1  0.529100  0.127100  0.547400  1
  C  C963  1  0.547400  0.529100  0.127100  1
  C  C964  1  0.952600  0.970900  0.127100  1
  C  C965  1  0.529100  0.372900  0.952600  1
  C  C966  1  0.952600  0.529100  0.372900  1
  C  C967  1  0.970900  0.372900  0.547400  1
  C  C968  1  0.970900  0.127100  0.952600  1
  C  C969  1  0.547400  0.970900  0.372900  1
  C  C970  1  0.372900  0.952600  0.529100  1
  C  C971  1  0.127100  0.952600  0.970900  1
  C  C972  1  0.372900  0.547400  0.970900  1
  C  C973  1  0.872900  0.452600  0.470900  1
  C  C974  1  0.470900  0.872900  0.452600  1
  C  C975  1  0.452600  0.470900  0.872900  1
  C  C976  1  0.047400  0.029100  0.872900  1
  C  C977  1  0.470900  0.627100  0.047400  1
  C  C978  1  0.047400  0.470900  0.627100  1
  C  C979  1  0.029100  0.627100  0.452600  1
  C  C980  1  0.029100  0.872900  0.047400  1
  C  C981  1  0.452600  0.029100  0.627100  1
  C  C982  1  0.627100  0.047400  0.470900  1
  C  C983  1  0.872900  0.047400  0.029100  1
  C  C984  1  0.627100  0.452600  0.029100  1
  C  C985  1  0.100200  0.525300  0.541300  1
  C  C986  1  0.541300  0.100200  0.525300  1
  C  C987  1  0.525300  0.541300  0.100200  1
  C  C988  1  0.974700  0.958700  0.100200  1
  C  C989  1  0.541300  0.399800  0.974700  1
  C  C990  1  0.974700  0.541300  0.399800  1
  C  C991  1  0.958700  0.399800  0.525300  1
  C  C992  1  0.958700  0.100200  0.974700  1
  C  C993  1  0.525300  0.958700  0.399800  1
  C  C994  1  0.399800  0.974700  0.541300  1
  C  C995  1  0.100200  0.974700  0.958700  1
  C  C996  1  0.399800  0.525300  0.958700  1
  C  C997  1  0.899800  0.474700  0.458700  1
  C  C998  1  0.458700  0.899800  0.474700  1
  C  C999  1  0.474700  0.458700  0.899800  1
  C  C1000  1  0.025300  0.041300  0.899800  1
  C  C1001  1  0.458700  0.600200  0.025300  1
  C  C1002  1  0.025300  0.458700  0.600200  1
  C  C1003  1  0.041300  0.600200  0.474700  1
  C  C1004  1  0.041300  0.899800  0.025300  1
  C  C1005  1  0.474700  0.041300  0.600200  1
  C  C1006  1  0.600200  0.025300  0.458700  1
  C  C1007  1  0.899800  0.025300  0.041300  1
  C  C1008  1  0.600200  0.474700  0.041300  1
  C  C1009  1  0.079100  0.506900  0.517300  1
  C  C1010  1  0.517300  0.079100  0.506900  1
  C  C1011  1  0.506900  0.517300  0.079100  1
  C  C1012  1  0.993100  0.982700  0.079100  1
  C  C1013  1  0.517300  0.420900  0.993100  1
  C  C1014  1  0.993100  0.517300  0.420900  1
  C  C1015  1  0.982700  0.420900  0.506900  1
  C  C1016  1  0.982700  0.079100  0.993100  1
  C  C1017  1  0.506900  0.982700  0.420900  1
  C  C1018  1  0.420900  0.993100  0.517300  1
  C  C1019  1  0.079100  0.993100  0.982700  1
  C  C1020  1  0.420900  0.506900  0.982700  1
  C  C1021  1  0.920900  0.493100  0.482700  1
  C  C1022  1  0.482700  0.920900  0.493100  1
  C  C1023  1  0.493100  0.482700  0.920900  1
  C  C1024  1  0.006900  0.017300  0.920900  1
  C  C1025  1  0.482700  0.579100  0.006900  1
  C  C1026  1  0.006900  0.482700  0.579100  1
  C  C1027  1  0.017300  0.579100  0.493100  1
  C  C1028  1  0.017300  0.920900  0.006900  1
  C  C1029  1  0.493100  0.017300  0.579100  1
  C  C1030  1  0.579100  0.006900  0.482700  1
  C  C1031  1  0.920900  0.006900  0.017300  1
  C  C1032  1  0.579100  0.493100  0.017300  1
  C  C1033  1  0.084800  0.510600  0.481100  1
  C  C1034  1  0.481100  0.084800  0.510600  1
  C  C1035  1  0.510600  0.481100  0.084800  1
  C  C1036  1  0.989400  0.018900  0.084800  1
  C  C1037  1  0.481100  0.415200  0.989400  1
  C  C1038  1  0.989400  0.481100  0.415200  1
  C  C1039  1  0.018900  0.415200  0.510600  1
  C  C1040  1  0.018900  0.084800  0.989400  1
  C  C1041  1  0.510600  0.018900  0.415200  1
  C  C1042  1  0.415200  0.989400  0.481100  1
  C  C1043  1  0.084800  0.989400  0.018900  1
  C  C1044  1  0.415200  0.510600  0.018900  1
  C  C1045  1  0.915200  0.489400  0.518900  1
  C  C1046  1  0.518900  0.915200  0.489400  1
  C  C1047  1  0.489400  0.518900  0.915200  1
  C  C1048  1  0.010600  0.981100  0.915200  1
  C  C1049  1  0.518900  0.584800  0.010600  1
  C  C1050  1  0.010600  0.518900  0.584800  1
  C  C1051  1  0.981100  0.584800  0.489400  1
  C  C1052  1  0.981100  0.915200  0.010600  1
  C  C1053  1  0.489400  0.981100  0.584800  1
  C  C1054  1  0.584800  0.010600  0.518900  1
  C  C1055  1  0.915200  0.010600  0.981100  1
  C  C1056  1  0.584800  0.489400  0.981100  1
  C  C1057  1  0.250000  0.250000  0.606500  1.0
  C  C1058  1  0.606500  0.250000  0.250000  1.0
  C  C1059  1  0.250000  0.606500  0.250000  1.0
  C  C1060  1  0.250000  0.893500  0.250000  1.0
  C  C1061  1  0.893500  0.250000  0.250000  1.0
  C  C1062  1  0.250000  0.250000  0.893500  1.0
  C  C1063  1  0.750000  0.750000  0.393500  1.0
  C  C1064  1  0.393500  0.750000  0.750000  1.0
  C  C1065  1  0.750000  0.393500  0.750000  1.0
  C  C1066  1  0.750000  0.106500  0.750000  1.0
  C  C1067  1  0.106500  0.750000  0.750000  1.0
  C  C1068  1  0.750000  0.750000  0.106500  1.0
  C  C1069  1  0.250000  0.250000  0.367400  1.0
  C  C1070  1  0.367400  0.250000  0.250000  1.0
  C  C1071  1  0.250000  0.367400  0.250000  1.0
  C  C1072  1  0.250000  0.132600  0.250000  1.0
  C  C1073  1  0.132600  0.250000  0.250000  1.0
  C  C1074  1  0.250000  0.250000  0.132600  1.0
  C  C1075  1  0.750000  0.750000  0.632600  1.0
  C  C1076  1  0.632600  0.750000  0.750000  1.0
  C  C1077  1  0.750000  0.632600  0.750000  1.0
  C  C1078  1  0.750000  0.867400  0.750000  1.0
  C  C1079  1  0.867400  0.750000  0.750000  1.0
  C  C1080  1  0.750000  0.750000  0.867400  1.0
  C  C1081  1  0.250000  0.250000  0.328600  1.0
  C  C1082  1  0.328600  0.250000  0.250000  1.0
  C  C1083  1  0.250000  0.328600  0.250000  1.0
  C  C1084  1  0.250000  0.171400  0.250000  1.0
  C  C1085  1  0.171400  0.250000  0.250000  1.0
  C  C1086  1  0.250000  0.250000  0.171400  1.0
  C  C1087  1  0.750000  0.750000  0.671400  1.0
  C  C1088  1  0.671400  0.750000  0.750000  1.0
  C  C1089  1  0.750000  0.671400  0.750000  1.0
  C  C1090  1  0.750000  0.828600  0.750000  1.0
  C  C1091  1  0.828600  0.750000  0.750000  1.0
  C  C1092  1  0.750000  0.750000  0.828600  1.0
  C  C1093  1  0.215200  0.587300  0.539400  1.0
  C  C1094  1  0.539400  0.215200  0.587300  1.0
  C  C1095  1  0.587300  0.539400  0.215200  1.0
  C  C1096  1  0.912700  0.960600  0.215200  1.0
  C  C1097  1  0.539400  0.284800  0.912700  1.0
  C  C1098  1  0.912700  0.539400  0.284800  1.0
  C  C1099  1  0.960600  0.284800  0.587300  1.0
  C  C1100  1  0.960600  0.215200  0.912700  1.0
  C  C1101  1  0.587300  0.960600  0.284800  1.0
  C  C1102  1  0.284800  0.912700  0.539400  1.0
  C  C1103  1  0.215200  0.912700  0.960600  1.0
  C  C1104  1  0.284800  0.587300  0.960600  1.0
  C  C1105  1  0.784800  0.412700  0.460600  1.0
  C  C1106  1  0.460600  0.784800  0.412700  1.0
  C  C1107  1  0.412700  0.460600  0.784800  1.0
  C  C1108  1  0.087300  0.039400  0.784800  1.0
  C  C1109  1  0.460600  0.715200  0.087300  1.0
  C  C1110  1  0.087300  0.460600  0.715200  1.0
  C  C1111  1  0.039400  0.715200  0.412700  1.0
  C  C1112  1  0.039400  0.784800  0.087300  1.0
  C  C1113  1  0.412700  0.039400  0.715200  1.0
  C  C1114  1  0.715200  0.087300  0.460600  1.0
  C  C1115  1  0.784800  0.087300  0.039400  1.0
  C  C1116  1  0.715200  0.412700  0.039400  1.0
  C  C1117  1  0.211500  0.623500  0.541300  1.0
  C  C1118  1  0.541300  0.211500  0.623500  1.0
  C  C1119  1  0.623500  0.541300  0.211500  1.0
  C  C1120  1  0.876500  0.958700  0.211500  1.0
  C  C1121  1  0.541300  0.288500  0.876500  1.0
  C  C1122  1  0.876500  0.541300  0.288500  1.0
  C  C1123  1  0.958700  0.288500  0.623500  1.0
  C  C1124  1  0.958700  0.211500  0.876500  1.0
  C  C1125  1  0.623500  0.958700  0.288500  1.0
  C  C1126  1  0.288500  0.876500  0.541300  1.0
  C  C1127  1  0.211500  0.876500  0.958700  1.0
  C  C1128  1  0.288500  0.623500  0.958700  1.0
  C  C1129  1  0.788500  0.376500  0.458700  1.0
  C  C1130  1  0.458700  0.788500  0.376500  1.0
  C  C1131  1  0.376500  0.458700  0.788500  1.0
  C  C1132  1  0.123500  0.041300  0.788500  1.0
  C  C1133  1  0.458700  0.711500  0.123500  1.0
  C  C1134  1  0.123500  0.458700  0.711500  1.0
  C  C1135  1  0.041300  0.711500  0.376500  1.0
  C  C1136  1  0.041300  0.788500  0.123500  1.0
  C  C1137  1  0.376500  0.041300  0.711500  1.0
  C  C1138  1  0.711500  0.123500  0.458700  1.0
  C  C1139  1  0.788500  0.123500  0.041300  1.0
  C  C1140  1  0.711500  0.376500  0.041300  1.0
  C  C1141  1  0.231600  0.644500  0.519500  1.0
  C  C1142  1  0.519500  0.231600  0.644500  1.0
  C  C1143  1  0.644500  0.519500  0.231600  1.0
  C  C1144  1  0.855500  0.980500  0.231600  1.0
  C  C1145  1  0.519500  0.268400  0.855500  1.0
  C  C1146  1  0.855500  0.519500  0.268400  1.0
  C  C1147  1  0.980500  0.268400  0.644500  1.0
  C  C1148  1  0.980500  0.231600  0.855500  1.0
  C  C1149  1  0.644500  0.980500  0.268400  1.0
  C  C1150  1  0.268400  0.855500  0.519500  1.0
  C  C1151  1  0.231600  0.855500  0.980500  1.0
  C  C1152  1  0.268400  0.644500  0.980500  1.0
  C  C1153  1  0.768400  0.355500  0.480500  1.0
  C  C1154  1  0.480500  0.768400  0.355500  1.0
  C  C1155  1  0.355500  0.480500  0.768400  1.0
  C  C1156  1  0.144500  0.019500  0.768400  1.0
  C  C1157  1  0.480500  0.731600  0.144500  1.0
  C  C1158  1  0.144500  0.480500  0.731600  1.0
  C  C1159  1  0.019500  0.731600  0.355500  1.0
  C  C1160  1  0.019500  0.768400  0.144500  1.0
  C  C1161  1  0.355500  0.019500  0.731600  1.0
  C  C1162  1  0.731600  0.144500  0.480500  1.0
  C  C1163  1  0.768400  0.144500  0.019500  1.0
  C  C1164  1  0.731600  0.355500  0.019500  1.0
  C  C1165  1  0.255900  0.628400  0.495500  1.0
  C  C1166  1  0.495500  0.255900  0.628400  1.0
  C  C1167  1  0.628400  0.495500  0.255900  1.0
  C  C1168  1  0.871600  0.004500  0.255900  1.0
  C  C1169  1  0.495500  0.244100  0.871600  1.0
  C  C1170  1  0.871600  0.495500  0.244100  1.0
  C  C1171  1  0.004500  0.244100  0.628400  1.0
  C  C1172  1  0.004500  0.255900  0.871600  1.0
  C  C1173  1  0.628400  0.004500  0.244100  1.0
  C  C1174  1  0.244100  0.871600  0.495500  1.0
  C  C1175  1  0.255900  0.871600  0.004500  1.0
  C  C1176  1  0.244100  0.628400  0.004500  1.0
  C  C1177  1  0.744100  0.371600  0.504500  1.0
  C  C1178  1  0.504500  0.744100  0.371600  1.0
  C  C1179  1  0.371600  0.504500  0.744100  1.0
  C  C1180  1  0.128400  0.995500  0.744100  1.0
  C  C1181  1  0.504500  0.755900  0.128400  1.0
  C  C1182  1  0.128400  0.504500  0.755900  1.0
  C  C1183  1  0.995500  0.755900  0.371600  1.0
  C  C1184  1  0.995500  0.744100  0.128400  1.0
  C  C1185  1  0.371600  0.995500  0.755900  1.0
  C  C1186  1  0.755900  0.128400  0.504500  1.0
  C  C1187  1  0.744100  0.128400  0.995500  1.0
  C  C1188  1  0.755900  0.371600  0.995500  1.0
  C  C1189  1  0.277700  0.647500  0.471500  1.0
  C  C1190  1  0.471500  0.277700  0.647500  1.0
  C  C1191  1  0.647500  0.471500  0.277700  1.0
  C  C1192  1  0.852500  0.028500  0.277700  1.0
  C  C1193  1  0.471500  0.222300  0.852500  1.0
  C  C1194  1  0.852500  0.471500  0.222300  1.0
  C  C1195  1  0.028500  0.222300  0.647500  1.0
  C  C1196  1  0.028500  0.277700  0.852500  1.0
  C  C1197  1  0.647500  0.028500  0.222300  1.0
  C  C1198  1  0.222300  0.852500  0.471500  1.0
  C  C1199  1  0.277700  0.852500  0.028500  1.0
  C  C1200  1  0.222300  0.647500  0.028500  1.0
  C  C1201  1  0.722300  0.352500  0.528500  1.0
  C  C1202  1  0.528500  0.722300  0.352500  1.0
  C  C1203  1  0.352500  0.528500  0.722300  1.0
  C  C1204  1  0.147500  0.971500  0.722300  1.0
  C  C1205  1  0.528500  0.777700  0.147500  1.0
  C  C1206  1  0.147500  0.528500  0.777700  1.0
  C  C1207  1  0.971500  0.777700  0.352500  1.0
  C  C1208  1  0.971500  0.722300  0.147500  1.0
  C  C1209  1  0.352500  0.971500  0.777700  1.0
  C  C1210  1  0.777700  0.147500  0.528500  1.0
  C  C1211  1  0.722300  0.147500  0.971500  1.0
  C  C1212  1  0.777700  0.352500  0.971500  1.0
  C  C1213  1  0.300600  0.630400  0.449700  1.0
  C  C1214  1  0.449700  0.300600  0.630400  1.0
  C  C1215  1  0.630400  0.449700  0.300600  1.0
  C  C1216  1  0.869600  0.050300  0.300600  1.0
  C  C1217  1  0.449700  0.199400  0.869600  1.0
  C  C1218  1  0.869600  0.449700  0.199400  1.0
  C  C1219  1  0.050300  0.199400  0.630400  1.0
  C  C1220  1  0.050300  0.300600  0.869600  1.0
  C  C1221  1  0.630400  0.050300  0.199400  1.0
  C  C1222  1  0.199400  0.869600  0.449700  1.0
  C  C1223  1  0.300600  0.869600  0.050300  1.0
  C  C1224  1  0.199400  0.630400  0.050300  1.0
  C  C1225  1  0.699400  0.369600  0.550300  1.0
  C  C1226  1  0.550300  0.699400  0.369600  1.0
  C  C1227  1  0.369600  0.550300  0.699400  1.0
  C  C1228  1  0.130400  0.949700  0.699400  1.0
  C  C1229  1  0.550300  0.800600  0.130400  1.0
  C  C1230  1  0.130400  0.550300  0.800600  1.0
  C  C1231  1  0.949700  0.800600  0.369600  1.0
  C  C1232  1  0.949700  0.699400  0.130400  1.0
  C  C1233  1  0.369600  0.949700  0.800600  1.0
  C  C1234  1  0.800600  0.130400  0.550300  1.0
  C  C1235  1  0.699400  0.130400  0.949700  1.0
  C  C1236  1  0.800600  0.369600  0.949700  1.0
  C  C1237  1  0.304500  0.593000  0.450200  1.0
  C  C1238  1  0.450200  0.304500  0.593000  1.0
  C  C1239  1  0.593000  0.450200  0.304500  1.0
  C  C1240  1  0.907000  0.049800  0.304500  1.0
  C  C1241  1  0.450200  0.195500  0.907000  1.0
  C  C1242  1  0.907000  0.450200  0.195500  1.0
  C  C1243  1  0.049800  0.195500  0.593000  1.0
  C  C1244  1  0.049800  0.304500  0.907000  1.0
  C  C1245  1  0.593000  0.049800  0.195500  1.0
  C  C1246  1  0.195500  0.907000  0.450200  1.0
  C  C1247  1  0.304500  0.907000  0.049800  1.0
  C  C1248  1  0.195500  0.593000  0.049800  1.0
  C  C1249  1  0.695500  0.407000  0.549800  1.0
  C  C1250  1  0.549800  0.695500  0.407000  1.0
  C  C1251  1  0.407000  0.549800  0.695500  1.0
  C  C1252  1  0.093000  0.950200  0.695500  1.0
  C  C1253  1  0.549800  0.804500  0.093000  1.0
  C  C1254  1  0.093000  0.549800  0.804500  1.0
  C  C1255  1  0.950200  0.804500  0.407000  1.0
  C  C1256  1  0.950200  0.695500  0.093000  1.0
  C  C1257  1  0.407000  0.950200  0.804500  1.0
  C  C1258  1  0.804500  0.093000  0.549800  1.0
  C  C1259  1  0.695500  0.093000  0.950200  1.0
  C  C1260  1  0.804500  0.407000  0.950200  1.0
  C  C1261  1  0.329400  0.574000  0.429300  1.0
  C  C1262  1  0.429300  0.329400  0.574000  1.0
  C  C1263  1  0.574000  0.429300  0.329400  1.0
  C  C1264  1  0.926000  0.070700  0.329400  1.0
  C  C1265  1  0.429300  0.170600  0.926000  1.0
  C  C1266  1  0.926000  0.429300  0.170600  1.0
  C  C1267  1  0.070700  0.170600  0.574000  1.0
  C  C1268  1  0.070700  0.329400  0.926000  1.0
  C  C1269  1  0.574000  0.070700  0.170600  1.0
  C  C1270  1  0.170600  0.926000  0.429300  1.0
  C  C1271  1  0.329400  0.926000  0.070700  1.0
  C  C1272  1  0.170600  0.574000  0.070700  1.0
  C  C1273  1  0.670600  0.426000  0.570700  1.0
  C  C1274  1  0.570700  0.670600  0.426000  1.0
  C  C1275  1  0.426000  0.570700  0.670600  1.0
  C  C1276  1  0.074000  0.929300  0.670600  1.0
  C  C1277  1  0.570700  0.829400  0.074000  1.0
  C  C1278  1  0.074000  0.570700  0.829400  1.0
  C  C1279  1  0.929300  0.829400  0.426000  1.0
  C  C1280  1  0.929300  0.670600  0.074000  1.0
  C  C1281  1  0.426000  0.929300  0.829400  1.0
  C  C1282  1  0.829400  0.074000  0.570700  1.0
  C  C1283  1  0.670600  0.074000  0.929300  1.0
  C  C1284  1  0.829400  0.426000  0.929300  1.0
  C  C1285  1  0.331700  0.538000  0.432900  1.0
  C  C1286  1  0.432900  0.331700  0.538000  1.0
  C  C1287  1  0.538000  0.432900  0.331700  1.0
  C  C1288  1  0.962000  0.067100  0.331700  1.0
  C  C1289  1  0.432900  0.168300  0.962000  1.0
  C  C1290  1  0.962000  0.432900  0.168300  1.0
  C  C1291  1  0.067100  0.168300  0.538000  1.0
  C  C1292  1  0.067100  0.331700  0.962000  1.0
  C  C1293  1  0.538000  0.067100  0.168300  1.0
  C  C1294  1  0.168300  0.962000  0.432900  1.0
  C  C1295  1  0.331700  0.962000  0.067100  1.0
  C  C1296  1  0.168300  0.538000  0.067100  1.0
  C  C1297  1  0.668300  0.462000  0.567100  1.0
  C  C1298  1  0.567100  0.668300  0.462000  1.0
  C  C1299  1  0.462000  0.567100  0.668300  1.0
  C  C1300  1  0.038000  0.932900  0.668300  1.0
  C  C1301  1  0.567100  0.831700  0.038000  1.0
  C  C1302  1  0.038000  0.567100  0.831700  1.0
  C  C1303  1  0.932900  0.831700  0.462000  1.0
  C  C1304  1  0.932900  0.668300  0.038000  1.0
  C  C1305  1  0.462000  0.932900  0.831700  1.0
  C  C1306  1  0.831700  0.038000  0.567100  1.0
  C  C1307  1  0.668300  0.038000  0.932900  1.0
  C  C1308  1  0.831700  0.462000  0.932900  1.0
  C  C1309  1  0.309300  0.520600  0.456500  1.0
  C  C1310  1  0.456500  0.309300  0.520600  1.0
  C  C1311  1  0.520600  0.456500  0.309300  1.0
  C  C1312  1  0.979400  0.043500  0.309300  1.0
  C  C1313  1  0.456500  0.190700  0.979400  1.0
  C  C1314  1  0.979400  0.456500  0.190700  1.0
  C  C1315  1  0.043500  0.190700  0.520600  1.0
  C  C1316  1  0.043500  0.309300  0.979400  1.0
  C  C1317  1  0.520600  0.043500  0.190700  1.0
  C  C1318  1  0.190700  0.979400  0.456500  1.0
  C  C1319  1  0.309300  0.979400  0.043500  1.0
  C  C1320  1  0.190700  0.520600  0.043500  1.0
  C  C1321  1  0.690700  0.479400  0.543500  1.0
  C  C1322  1  0.543500  0.690700  0.479400  1.0
  C  C1323  1  0.479400  0.543500  0.690700  1.0
  C  C1324  1  0.020600  0.956500  0.690700  1.0
  C  C1325  1  0.543500  0.809300  0.020600  1.0
  C  C1326  1  0.020600  0.543500  0.809300  1.0
  C  C1327  1  0.956500  0.809300  0.479400  1.0
  C  C1328  1  0.956500  0.690700  0.020600  1.0
  C  C1329  1  0.479400  0.956500  0.809300  1.0
  C  C1330  1  0.809300  0.020600  0.543500  1.0
  C  C1331  1  0.690700  0.020600  0.956500  1.0
  C  C1332  1  0.809300  0.479400  0.956500  1.0
  C  C1333  1  0.283200  0.573100  0.473600  1.0
  C  C1334  1  0.473600  0.283200  0.573100  1.0
  C  C1335  1  0.573100  0.473600  0.283200  1.0
  C  C1336  1  0.926900  0.026400  0.283200  1.0
  C  C1337  1  0.473600  0.216800  0.926900  1.0
  C  C1338  1  0.926900  0.473600  0.216800  1.0
  C  C1339  1  0.026400  0.216800  0.573100  1.0
  C  C1340  1  0.026400  0.283200  0.926900  1.0
  C  C1341  1  0.573100  0.026400  0.216800  1.0
  C  C1342  1  0.216800  0.926900  0.473600  1.0
  C  C1343  1  0.283200  0.926900  0.026400  1.0
  C  C1344  1  0.216800  0.573100  0.026400  1.0
  C  C1345  1  0.716800  0.426900  0.526400  1.0
  C  C1346  1  0.526400  0.716800  0.426900  1.0
  C  C1347  1  0.426900  0.526400  0.716800  1.0
  C  C1348  1  0.073100  0.973600  0.716800  1.0
  C  C1349  1  0.526400  0.783200  0.073100  1.0
  C  C1350  1  0.073100  0.526400  0.783200  1.0
  C  C1351  1  0.973600  0.783200  0.426900  1.0
  C  C1352  1  0.973600  0.716800  0.073100  1.0
  C  C1353  1  0.426900  0.973600  0.783200  1.0
  C  C1354  1  0.783200  0.073100  0.526400  1.0
  C  C1355  1  0.716800  0.073100  0.973600  1.0
  C  C1356  1  0.783200  0.426900  0.973600  1.0
  C  C1357  1  0.257900  0.591000  0.496400  1.0
  C  C1358  1  0.496400  0.257900  0.591000  1.0
  C  C1359  1  0.591000  0.496400  0.257900  1.0
  C  C1360  1  0.909000  0.003600  0.257900  1.0
  C  C1361  1  0.496400  0.242100  0.909000  1.0
  C  C1362  1  0.909000  0.496400  0.242100  1.0
  C  C1363  1  0.003600  0.242100  0.591000  1.0
  C  C1364  1  0.003600  0.257900  0.909000  1.0
  C  C1365  1  0.591000  0.003600  0.242100  1.0
  C  C1366  1  0.242100  0.909000  0.496400  1.0
  C  C1367  1  0.257900  0.909000  0.003600  1.0
  C  C1368  1  0.242100  0.591000  0.003600  1.0
  C  C1369  1  0.742100  0.409000  0.503600  1.0
  C  C1370  1  0.503600  0.742100  0.409000  1.0
  C  C1371  1  0.409000  0.503600  0.742100  1.0
  C  C1372  1  0.091000  0.996400  0.742100  1.0
  C  C1373  1  0.503600  0.757900  0.091000  1.0
  C  C1374  1  0.091000  0.503600  0.757900  1.0
  C  C1375  1  0.996400  0.757900  0.409000  1.0
  C  C1376  1  0.996400  0.742100  0.091000  1.0
  C  C1377  1  0.409000  0.996400  0.757900  1.0
  C  C1378  1  0.757900  0.091000  0.503600  1.0
  C  C1379  1  0.742100  0.091000  0.996400  1.0
  C  C1380  1  0.757900  0.409000  0.996400  1.0
  C  C1381  1  0.308100  0.481600  0.459700  1.0
  C  C1382  1  0.459700  0.308100  0.481600  1.0
  C  C1383  1  0.481600  0.459700  0.308100  1.0
  C  C1384  1  0.018400  0.040300  0.308100  1.0
  C  C1385  1  0.459700  0.191900  0.018400  1.0
  C  C1386  1  0.018400  0.459700  0.191900  1.0
  C  C1387  1  0.040300  0.191900  0.481600  1.0
  C  C1388  1  0.040300  0.308100  0.018400  1.0
  C  C1389  1  0.481600  0.040300  0.191900  1.0
  C  C1390  1  0.191900  0.018400  0.459700  1.0
  C  C1391  1  0.308100  0.018400  0.040300  1.0
  C  C1392  1  0.191900  0.481600  0.040300  1.0
  C  C1393  1  0.691900  0.518400  0.540300  1.0
  C  C1394  1  0.540300  0.691900  0.518400  1.0
  C  C1395  1  0.518400  0.540300  0.691900  1.0
  C  C1396  1  0.981600  0.959700  0.691900  1.0
  C  C1397  1  0.540300  0.808100  0.981600  1.0
  C  C1398  1  0.981600  0.540300  0.808100  1.0
  C  C1399  1  0.959700  0.808100  0.518400  1.0
  C  C1400  1  0.959700  0.691900  0.981600  1.0
  C  C1401  1  0.518400  0.959700  0.808100  1.0
  C  C1402  1  0.808100  0.981600  0.540300  1.0
  C  C1403  1  0.691900  0.981600  0.959700  1.0
  C  C1404  1  0.808100  0.518400  0.959700  1.0
  C  C1405  1  0.282800  0.429100  0.482000  1.0
  C  C1406  1  0.482000  0.282800  0.429100  1.0
  C  C1407  1  0.429100  0.482000  0.282800  1.0
  C  C1408  1  0.070900  0.018000  0.282800  1.0
  C  C1409  1  0.482000  0.217200  0.070900  1.0
  C  C1410  1  0.070900  0.482000  0.217200  1.0
  C  C1411  1  0.018000  0.217200  0.429100  1.0
  C  C1412  1  0.018000  0.282800  0.070900  1.0
  C  C1413  1  0.429100  0.018000  0.217200  1.0
  C  C1414  1  0.217200  0.070900  0.482000  1.0
  C  C1415  1  0.282800  0.070900  0.018000  1.0
  C  C1416  1  0.217200  0.429100  0.018000  1.0
  C  C1417  1  0.717200  0.570900  0.518000  1.0
  C  C1418  1  0.518000  0.717200  0.570900  1.0
  C  C1419  1  0.570900  0.518000  0.717200  1.0
  C  C1420  1  0.929100  0.982000  0.717200  1.0
  C  C1421  1  0.518000  0.782800  0.929100  1.0
  C  C1422  1  0.929100  0.518000  0.782800  1.0
  C  C1423  1  0.982000  0.782800  0.570900  1.0
  C  C1424  1  0.982000  0.717200  0.929100  1.0
  C  C1425  1  0.570900  0.982000  0.782800  1.0
  C  C1426  1  0.782800  0.929100  0.518000  1.0
  C  C1427  1  0.717200  0.929100  0.982000  1.0
  C  C1428  1  0.782800  0.570900  0.982000  1.0
  C  C1429  1  0.277200  0.412900  0.514600  1.0
  C  C1430  1  0.514600  0.277200  0.412900  1.0
  C  C1431  1  0.412900  0.514600  0.277200  1.0
  C  C1432  1  0.087100  0.985400  0.277200  1.0
  C  C1433  1  0.514600  0.222800  0.087100  1.0
  C  C1434  1  0.087100  0.514600  0.222800  1.0
  C  C1435  1  0.985400  0.222800  0.412900  1.0
  C  C1436  1  0.985400  0.277200  0.087100  1.0
  C  C1437  1  0.412900  0.985400  0.222800  1.0
  C  C1438  1  0.222800  0.087100  0.514600  1.0
  C  C1439  1  0.277200  0.087100  0.985400  1.0
  C  C1440  1  0.222800  0.412900  0.985400  1.0
  C  C1441  1  0.722800  0.587100  0.485400  1.0
  C  C1442  1  0.485400  0.722800  0.587100  1.0
  C  C1443  1  0.587100  0.485400  0.722800  1.0
  C  C1444  1  0.912900  0.014600  0.722800  1.0
  C  C1445  1  0.485400  0.777200  0.912900  1.0
  C  C1446  1  0.912900  0.485400  0.777200  1.0
  C  C1447  1  0.014600  0.777200  0.587100  1.0
  C  C1448  1  0.014600  0.722800  0.912900  1.0
  C  C1449  1  0.587100  0.014600  0.777200  1.0
  C  C1450  1  0.777200  0.912900  0.485400  1.0
  C  C1451  1  0.722800  0.912900  0.014600  1.0
  C  C1452  1  0.777200  0.587100  0.014600  1.0
  C  C1453  1  0.271300  0.376600  0.516100  1.0
  C  C1454  1  0.516100  0.271300  0.376600  1.0
  C  C1455  1  0.376600  0.516100  0.271300  1.0
  C  C1456  1  0.123400  0.983900  0.271300  1.0
  C  C1457  1  0.516100  0.228700  0.123400  1.0
  C  C1458  1  0.123400  0.516100  0.228700  1.0
  C  C1459  1  0.983900  0.228700  0.376600  1.0
  C  C1460  1  0.983900  0.271300  0.123400  1.0
  C  C1461  1  0.376600  0.983900  0.228700  1.0
  C  C1462  1  0.228700  0.123400  0.516100  1.0
  C  C1463  1  0.271300  0.123400  0.983900  1.0
  C  C1464  1  0.228700  0.376600  0.983900  1.0
  C  C1465  1  0.728700  0.623400  0.483900  1.0
  C  C1466  1  0.483900  0.728700  0.623400  1.0
  C  C1467  1  0.623400  0.483900  0.728700  1.0
  C  C1468  1  0.876600  0.016100  0.728700  1.0
  C  C1469  1  0.483900  0.771300  0.876600  1.0
  C  C1470  1  0.876600  0.483900  0.771300  1.0
  C  C1471  1  0.016100  0.771300  0.623400  1.0
  C  C1472  1  0.016100  0.728700  0.876600  1.0
  C  C1473  1  0.623400  0.016100  0.771300  1.0
  C  C1474  1  0.771300  0.876600  0.483900  1.0
  C  C1475  1  0.728700  0.876600  0.016100  1.0
  C  C1476  1  0.771300  0.623400  0.016100  1.0
  C  C1477  1  0.271600  0.356600  0.485300  1.0
  C  C1478  1  0.485300  0.271600  0.356600  1.0
  C  C1479  1  0.356600  0.485300  0.271600  1.0
  C  C1480  1  0.143400  0.014700  0.271600  1.0
  C  C1481  1  0.485300  0.228400  0.143400  1.0
  C  C1482  1  0.143400  0.485300  0.228400  1.0
  C  C1483  1  0.014700  0.228400  0.356600  1.0
  C  C1484  1  0.014700  0.271600  0.143400  1.0
  C  C1485  1  0.356600  0.014700  0.228400  1.0
  C  C1486  1  0.228400  0.143400  0.485300  1.0
  C  C1487  1  0.271600  0.143400  0.014700  1.0
  C  C1488  1  0.228400  0.356600  0.014700  1.0
  C  C1489  1  0.728400  0.643400  0.514700  1.0
  C  C1490  1  0.514700  0.728400  0.643400  1.0
  C  C1491  1  0.643400  0.514700  0.728400  1.0
  C  C1492  1  0.856600  0.985300  0.728400  1.0
  C  C1493  1  0.514700  0.771600  0.856600  1.0
  C  C1494  1  0.856600  0.514700  0.771600  1.0
  C  C1495  1  0.985300  0.771600  0.643400  1.0
  C  C1496  1  0.985300  0.728400  0.856600  1.0
  C  C1497  1  0.643400  0.985300  0.771600  1.0
  C  C1498  1  0.771600  0.856600  0.514700  1.0
  C  C1499  1  0.728400  0.856600  0.985300  1.0
  C  C1500  1  0.771600  0.643400  0.985300  1.0
  C  C1501  1  0.277700  0.372800  0.452500  1.0
  C  C1502  1  0.452500  0.277700  0.372800  1.0
  C  C1503  1  0.372800  0.452500  0.277700  1.0
  C  C1504  1  0.127200  0.047500  0.277700  1.0
  C  C1505  1  0.452500  0.222300  0.127200  1.0
  C  C1506  1  0.127200  0.452500  0.222300  1.0
  C  C1507  1  0.047500  0.222300  0.372800  1.0
  C  C1508  1  0.047500  0.277700  0.127200  1.0
  C  C1509  1  0.372800  0.047500  0.222300  1.0
  C  C1510  1  0.222300  0.127200  0.452500  1.0
  C  C1511  1  0.277700  0.127200  0.047500  1.0
  C  C1512  1  0.222300  0.372800  0.047500  1.0
  C  C1513  1  0.722300  0.627200  0.547500  1.0
  C  C1514  1  0.547500  0.722300  0.627200  1.0
  C  C1515  1  0.627200  0.547500  0.722300  1.0
  C  C1516  1  0.872800  0.952500  0.722300  1.0
  C  C1517  1  0.547500  0.777700  0.872800  1.0
  C  C1518  1  0.872800  0.547500  0.777700  1.0
  C  C1519  1  0.952500  0.777700  0.627200  1.0
  C  C1520  1  0.952500  0.722300  0.872800  1.0
  C  C1521  1  0.627200  0.952500  0.777700  1.0
  C  C1522  1  0.777700  0.872800  0.547500  1.0
  C  C1523  1  0.722300  0.872800  0.952500  1.0
  C  C1524  1  0.777700  0.627200  0.952500  1.0
  C  C1525  1  0.283100  0.409100  0.451000  1.0
  C  C1526  1  0.451000  0.283100  0.409100  1.0
  C  C1527  1  0.409100  0.451000  0.283100  1.0
  C  C1528  1  0.090900  0.049000  0.283100  1.0
  C  C1529  1  0.451000  0.216900  0.090900  1.0
  C  C1530  1  0.090900  0.451000  0.216900  1.0
  C  C1531  1  0.049000  0.216900  0.409100  1.0
  C  C1532  1  0.049000  0.283100  0.090900  1.0
  C  C1533  1  0.409100  0.049000  0.216900  1.0
  C  C1534  1  0.216900  0.090900  0.451000  1.0
  C  C1535  1  0.283100  0.090900  0.049000  1.0
  C  C1536  1  0.216900  0.409100  0.049000  1.0
  C  C1537  1  0.716900  0.590900  0.549000  1.0
  C  C1538  1  0.549000  0.716900  0.590900  1.0
  C  C1539  1  0.590900  0.549000  0.716900  1.0
  C  C1540  1  0.909100  0.951000  0.716900  1.0
  C  C1541  1  0.549000  0.783100  0.909100  1.0
  C  C1542  1  0.909100  0.549000  0.783100  1.0
  C  C1543  1  0.951000  0.783100  0.590900  1.0
  C  C1544  1  0.951000  0.716900  0.909100  1.0
  C  C1545  1  0.590900  0.951000  0.783100  1.0
  C  C1546  1  0.783100  0.909100  0.549000  1.0
  C  C1547  1  0.716900  0.909100  0.951000  1.0
  C  C1548  1  0.783100  0.590900  0.951000  1.0
  C  C1549  1  0.264500  0.317400  0.486900  1.0
  C  C1550  1  0.486900  0.264500  0.317400  1.0
  C  C1551  1  0.317400  0.486900  0.264500  1.0
  C  C1552  1  0.182600  0.013100  0.264500  1.0
  C  C1553  1  0.486900  0.235500  0.182600  1.0
  C  C1554  1  0.182600  0.486900  0.235500  1.0
  C  C1555  1  0.013100  0.235500  0.317400  1.0
  C  C1556  1  0.013100  0.264500  0.182600  1.0
  C  C1557  1  0.317400  0.013100  0.235500  1.0
  C  C1558  1  0.235500  0.182600  0.486900  1.0
  C  C1559  1  0.264500  0.182600  0.013100  1.0
  C  C1560  1  0.235500  0.317400  0.013100  1.0
  C  C1561  1  0.735500  0.682600  0.513100  1.0
  C  C1562  1  0.513100  0.735500  0.682600  1.0
  C  C1563  1  0.682600  0.513100  0.735500  1.0
  C  C1564  1  0.817400  0.986900  0.735500  1.0
  C  C1565  1  0.513100  0.764500  0.817400  1.0
  C  C1566  1  0.817400  0.513100  0.764500  1.0
  C  C1567  1  0.986900  0.764500  0.682600  1.0
  C  C1568  1  0.986900  0.735500  0.817400  1.0
  C  C1569  1  0.682600  0.986900  0.764500  1.0
  C  C1570  1  0.764500  0.817400  0.513100  1.0
  C  C1571  1  0.735500  0.817400  0.986900  1.0
  C  C1572  1  0.764500  0.682600  0.986900  1.0
  C  C1573  1  0.907600  0.216500  0.517800  1.0
  C  C1574  1  0.517800  0.907600  0.216500  1.0
  C  C1575  1  0.216500  0.517800  0.907600  1.0
  C  C1576  1  0.283500  0.982200  0.907600  1.0
  C  C1577  1  0.517800  0.592400  0.283500  1.0
  C  C1578  1  0.283500  0.517800  0.592400  1.0
  C  C1579  1  0.982200  0.592400  0.216500  1.0
  C  C1580  1  0.982200  0.907600  0.283500  1.0
  C  C1581  1  0.216500  0.982200  0.592400  1.0
  C  C1582  1  0.592400  0.283500  0.517800  1.0
  C  C1583  1  0.907600  0.283500  0.982200  1.0
  C  C1584  1  0.592400  0.216500  0.982200  1.0
  C  C1585  1  0.092400  0.783500  0.482200  1.0
  C  C1586  1  0.482200  0.092400  0.783500  1.0
  C  C1587  1  0.783500  0.482200  0.092400  1.0
  C  C1588  1  0.716500  0.017800  0.092400  1.0
  C  C1589  1  0.482200  0.407600  0.716500  1.0
  C  C1590  1  0.716500  0.482200  0.407600  1.0
  C  C1591  1  0.017800  0.407600  0.783500  1.0
  C  C1592  1  0.017800  0.092400  0.716500  1.0
  C  C1593  1  0.783500  0.017800  0.407600  1.0
  C  C1594  1  0.407600  0.716500  0.482200  1.0
  C  C1595  1  0.092400  0.716500  0.017800  1.0
  C  C1596  1  0.407600  0.783500  0.017800  1.0
  C  C1597  1  0.871100  0.213800  0.516000  1.0
  C  C1598  1  0.516000  0.871100  0.213800  1.0
  C  C1599  1  0.213800  0.516000  0.871100  1.0
  C  C1600  1  0.286200  0.984000  0.871100  1.0
  C  C1601  1  0.516000  0.628900  0.286200  1.0
  C  C1602  1  0.286200  0.516000  0.628900  1.0
  C  C1603  1  0.984000  0.628900  0.213800  1.0
  C  C1604  1  0.984000  0.871100  0.286200  1.0
  C  C1605  1  0.213800  0.984000  0.628900  1.0
  C  C1606  1  0.628900  0.286200  0.516000  1.0
  C  C1607  1  0.871100  0.286200  0.984000  1.0
  C  C1608  1  0.628900  0.213800  0.984000  1.0
  C  C1609  1  0.128900  0.786200  0.484000  1.0
  C  C1610  1  0.484000  0.128900  0.786200  1.0
  C  C1611  1  0.786200  0.484000  0.128900  1.0
  C  C1612  1  0.713800  0.016000  0.128900  1.0
  C  C1613  1  0.484000  0.371100  0.713800  1.0
  C  C1614  1  0.713800  0.484000  0.371100  1.0
  C  C1615  1  0.016000  0.371100  0.786200  1.0
  C  C1616  1  0.016000  0.128900  0.713800  1.0
  C  C1617  1  0.786200  0.016000  0.371100  1.0
  C  C1618  1  0.371100  0.713800  0.484000  1.0
  C  C1619  1  0.128900  0.713800  0.016000  1.0
  C  C1620  1  0.371100  0.786200  0.016000  1.0
  C  C1621  1  0.852100  0.240800  0.500900  1.0
  C  C1622  1  0.500900  0.852100  0.240800  1.0
  C  C1623  1  0.240800  0.500900  0.852100  1.0
  C  C1624  1  0.259200  0.999100  0.852100  1.0
  C  C1625  1  0.500900  0.647900  0.259200  1.0
  C  C1626  1  0.259200  0.500900  0.647900  1.0
  C  C1627  1  0.999100  0.647900  0.240800  1.0
  C  C1628  1  0.999100  0.852100  0.259200  1.0
  C  C1629  1  0.240800  0.999100  0.647900  1.0
  C  C1630  1  0.647900  0.259200  0.500900  1.0
  C  C1631  1  0.852100  0.259200  0.999100  1.0
  C  C1632  1  0.647900  0.240800  0.999100  1.0
  C  C1633  1  0.147900  0.759200  0.499100  1.0
  C  C1634  1  0.499100  0.147900  0.759200  1.0
  C  C1635  1  0.759200  0.499100  0.147900  1.0
  C  C1636  1  0.740800  0.000900  0.147900  1.0
  C  C1637  1  0.499100  0.352100  0.740800  1.0
  C  C1638  1  0.740800  0.499100  0.352100  1.0
  C  C1639  1  0.000900  0.352100  0.759200  1.0
  C  C1640  1  0.000900  0.147900  0.740800  1.0
  C  C1641  1  0.759200  0.000900  0.352100  1.0
  C  C1642  1  0.352100  0.740800  0.499100  1.0
  C  C1643  1  0.147900  0.740800  0.000900  1.0
  C  C1644  1  0.352100  0.759200  0.000900  1.0
  C  C1645  1  0.870800  0.270700  0.487100  1.0
  C  C1646  1  0.487100  0.870800  0.270700  1.0
  C  C1647  1  0.270700  0.487100  0.870800  1.0
  C  C1648  1  0.229300  0.012900  0.870800  1.0
  C  C1649  1  0.487100  0.629200  0.229300  1.0
  C  C1650  1  0.229300  0.487100  0.629200  1.0
  C  C1651  1  0.012900  0.629200  0.270700  1.0
  C  C1652  1  0.012900  0.870800  0.229300  1.0
  C  C1653  1  0.270700  0.012900  0.629200  1.0
  C  C1654  1  0.629200  0.229300  0.487100  1.0
  C  C1655  1  0.870800  0.229300  0.012900  1.0
  C  C1656  1  0.629200  0.270700  0.012900  1.0
  C  C1657  1  0.129200  0.729300  0.512900  1.0
  C  C1658  1  0.512900  0.129200  0.729300  1.0
  C  C1659  1  0.729300  0.512900  0.129200  1.0
  C  C1660  1  0.770700  0.987100  0.129200  1.0
  C  C1661  1  0.512900  0.370800  0.770700  1.0
  C  C1662  1  0.770700  0.512900  0.370800  1.0
  C  C1663  1  0.987100  0.370800  0.729300  1.0
  C  C1664  1  0.987100  0.129200  0.770700  1.0
  C  C1665  1  0.729300  0.987100  0.370800  1.0
  C  C1666  1  0.370800  0.770700  0.512900  1.0
  C  C1667  1  0.129200  0.770700  0.987100  1.0
  C  C1668  1  0.370800  0.729300  0.987100  1.0
  C  C1669  1  0.853900  0.299200  0.469400  1.0
  C  C1670  1  0.469400  0.853900  0.299200  1.0
  C  C1671  1  0.299200  0.469400  0.853900  1.0
  C  C1672  1  0.200800  0.030600  0.853900  1.0
  C  C1673  1  0.469400  0.646100  0.200800  1.0
  C  C1674  1  0.200800  0.469400  0.646100  1.0
  C  C1675  1  0.030600  0.646100  0.299200  1.0
  C  C1676  1  0.030600  0.853900  0.200800  1.0
  C  C1677  1  0.299200  0.030600  0.646100  1.0
  C  C1678  1  0.646100  0.200800  0.469400  1.0
  C  C1679  1  0.853900  0.200800  0.030600  1.0
  C  C1680  1  0.646100  0.299200  0.030600  1.0
  C  C1681  1  0.146100  0.700800  0.530600  1.0
  C  C1682  1  0.530600  0.146100  0.700800  1.0
  C  C1683  1  0.700800  0.530600  0.146100  1.0
  C  C1684  1  0.799200  0.969400  0.146100  1.0
  C  C1685  1  0.530600  0.353900  0.799200  1.0
  C  C1686  1  0.799200  0.530600  0.353900  1.0
  C  C1687  1  0.969400  0.353900  0.700800  1.0
  C  C1688  1  0.969400  0.146100  0.799200  1.0
  C  C1689  1  0.700800  0.969400  0.353900  1.0
  C  C1690  1  0.353900  0.799200  0.530600  1.0
  C  C1691  1  0.146100  0.799200  0.969400  1.0
  C  C1692  1  0.353900  0.700800  0.969400  1.0
  C  C1693  1  0.872800  0.326000  0.454800  1.0
  C  C1694  1  0.454800  0.872800  0.326000  1.0
  C  C1695  1  0.326000  0.454800  0.872800  1.0
  C  C1696  1  0.174000  0.045200  0.872800  1.0
  C  C1697  1  0.454800  0.627200  0.174000  1.0
  C  C1698  1  0.174000  0.454800  0.627200  1.0
  C  C1699  1  0.045200  0.627200  0.326000  1.0
  C  C1700  1  0.045200  0.872800  0.174000  1.0
  C  C1701  1  0.326000  0.045200  0.627200  1.0
  C  C1702  1  0.627200  0.174000  0.454800  1.0
  C  C1703  1  0.872800  0.174000  0.045200  1.0
  C  C1704  1  0.627200  0.326000  0.045200  1.0
  C  C1705  1  0.127200  0.674000  0.545200  1.0
  C  C1706  1  0.545200  0.127200  0.674000  1.0
  C  C1707  1  0.674000  0.545200  0.127200  1.0
  C  C1708  1  0.826000  0.954800  0.127200  1.0
  C  C1709  1  0.545200  0.372800  0.826000  1.0
  C  C1710  1  0.826000  0.545200  0.372800  1.0
  C  C1711  1  0.954800  0.372800  0.674000  1.0
  C  C1712  1  0.954800  0.127200  0.826000  1.0
  C  C1713  1  0.674000  0.954800  0.372800  1.0
  C  C1714  1  0.372800  0.826000  0.545200  1.0
  C  C1715  1  0.127200  0.826000  0.954800  1.0
  C  C1716  1  0.372800  0.674000  0.954800  1.0
  C  C1717  1  0.910500  0.327000  0.456900  1.0
  C  C1718  1  0.456900  0.910500  0.327000  1.0
  C  C1719  1  0.327000  0.456900  0.910500  1.0
  C  C1720  1  0.173000  0.043100  0.910500  1.0
  C  C1721  1  0.456900  0.589500  0.173000  1.0
  C  C1722  1  0.173000  0.456900  0.589500  1.0
  C  C1723  1  0.043100  0.589500  0.327000  1.0
  C  C1724  1  0.043100  0.910500  0.173000  1.0
  C  C1725  1  0.327000  0.043100  0.589500  1.0
  C  C1726  1  0.589500  0.173000  0.456900  1.0
  C  C1727  1  0.910500  0.173000  0.043100  1.0
  C  C1728  1  0.589500  0.327000  0.043100  1.0
  C  C1729  1  0.089500  0.673000  0.543100  1.0
  C  C1730  1  0.543100  0.089500  0.673000  1.0
  C  C1731  1  0.673000  0.543100  0.089500  1.0
  C  C1732  1  0.827000  0.956900  0.089500  1.0
  C  C1733  1  0.543100  0.410500  0.827000  1.0
  C  C1734  1  0.827000  0.543100  0.410500  1.0
  C  C1735  1  0.956900  0.410500  0.673000  1.0
  C  C1736  1  0.956900  0.089500  0.827000  1.0
  C  C1737  1  0.673000  0.956900  0.410500  1.0
  C  C1738  1  0.410500  0.827000  0.543100  1.0
  C  C1739  1  0.089500  0.827000  0.956900  1.0
  C  C1740  1  0.410500  0.673000  0.956900  1.0
  C  C1741  1  0.931800  0.354000  0.442000  1.0
  C  C1742  1  0.442000  0.931800  0.354000  1.0
  C  C1743  1  0.354000  0.442000  0.931800  1.0
  C  C1744  1  0.146000  0.058000  0.931800  1.0
  C  C1745  1  0.442000  0.568200  0.146000  1.0
  C  C1746  1  0.146000  0.442000  0.568200  1.0
  C  C1747  1  0.058000  0.568200  0.354000  1.0
  C  C1748  1  0.058000  0.931800  0.146000  1.0
  C  C1749  1  0.354000  0.058000  0.568200  1.0
  C  C1750  1  0.568200  0.146000  0.442000  1.0
  C  C1751  1  0.931800  0.146000  0.058000  1.0
  C  C1752  1  0.568200  0.354000  0.058000  1.0
  C  C1753  1  0.068200  0.646000  0.558000  1.0
  C  C1754  1  0.558000  0.068200  0.646000  1.0
  C  C1755  1  0.646000  0.558000  0.068200  1.0
  C  C1756  1  0.854000  0.942000  0.068200  1.0
  C  C1757  1  0.558000  0.431800  0.854000  1.0
  C  C1758  1  0.854000  0.558000  0.431800  1.0
  C  C1759  1  0.942000  0.431800  0.646000  1.0
  C  C1760  1  0.942000  0.068200  0.854000  1.0
  C  C1761  1  0.646000  0.942000  0.431800  1.0
  C  C1762  1  0.431800  0.854000  0.558000  1.0
  C  C1763  1  0.068200  0.854000  0.942000  1.0
  C  C1764  1  0.431800  0.646000  0.942000  1.0
  C  C1765  1  0.968000  0.352200  0.445300  1.0
  C  C1766  1  0.445300  0.968000  0.352200  1.0
  C  C1767  1  0.352200  0.445300  0.968000  1.0
  C  C1768  1  0.147800  0.054700  0.968000  1.0
  C  C1769  1  0.445300  0.532000  0.147800  1.0
  C  C1770  1  0.147800  0.445300  0.532000  1.0
  C  C1771  1  0.054700  0.532000  0.352200  1.0
  C  C1772  1  0.054700  0.968000  0.147800  1.0
  C  C1773  1  0.352200  0.054700  0.532000  1.0
  C  C1774  1  0.532000  0.147800  0.445300  1.0
  C  C1775  1  0.968000  0.147800  0.054700  1.0
  C  C1776  1  0.532000  0.352200  0.054700  1.0
  C  C1777  1  0.032000  0.647800  0.554700  1.0
  C  C1778  1  0.554700  0.032000  0.647800  1.0
  C  C1779  1  0.647800  0.554700  0.032000  1.0
  C  C1780  1  0.852200  0.945300  0.032000  1.0
  C  C1781  1  0.554700  0.468000  0.852200  1.0
  C  C1782  1  0.852200  0.554700  0.468000  1.0
  C  C1783  1  0.945300  0.468000  0.647800  1.0
  C  C1784  1  0.945300  0.032000  0.852200  1.0
  C  C1785  1  0.647800  0.945300  0.468000  1.0
  C  C1786  1  0.468000  0.852200  0.554700  1.0
  C  C1787  1  0.032000  0.852200  0.945300  1.0
  C  C1788  1  0.468000  0.647800  0.945300  1.0
  C  C1789  1  0.983300  0.324400  0.463900  1.0
  C  C1790  1  0.463900  0.983300  0.324400  1.0
  C  C1791  1  0.324400  0.463900  0.983300  1.0
  C  C1792  1  0.175600  0.036100  0.983300  1.0
  C  C1793  1  0.463900  0.516700  0.175600  1.0
  C  C1794  1  0.175600  0.463900  0.516700  1.0
  C  C1795  1  0.036100  0.516700  0.324400  1.0
  C  C1796  1  0.036100  0.983300  0.175600  1.0
  C  C1797  1  0.324400  0.036100  0.516700  1.0
  C  C1798  1  0.516700  0.175600  0.463900  1.0
  C  C1799  1  0.983300  0.175600  0.036100  1.0
  C  C1800  1  0.516700  0.324400  0.036100  1.0
  C  C1801  1  0.016700  0.675600  0.536100  1.0
  C  C1802  1  0.536100  0.016700  0.675600  1.0
  C  C1803  1  0.675600  0.536100  0.016700  1.0
  C  C1804  1  0.824400  0.963900  0.016700  1.0
  C  C1805  1  0.536100  0.483300  0.824400  1.0
  C  C1806  1  0.824400  0.536100  0.483300  1.0
  C  C1807  1  0.963900  0.483300  0.675600  1.0
  C  C1808  1  0.963900  0.016700  0.824400  1.0
  C  C1809  1  0.675600  0.963900  0.483300  1.0
  C  C1810  1  0.483300  0.824400  0.536100  1.0
  C  C1811  1  0.016700  0.824400  0.963900  1.0
  C  C1812  1  0.483300  0.675600  0.963900  1.0
  C  C1813  1  0.928400  0.299500  0.474900  1.0
  C  C1814  1  0.474900  0.928400  0.299500  1.0
  C  C1815  1  0.299500  0.474900  0.928400  1.0
  C  C1816  1  0.200500  0.025100  0.928400  1.0
  C  C1817  1  0.474900  0.571600  0.200500  1.0
  C  C1818  1  0.200500  0.474900  0.571600  1.0
  C  C1819  1  0.025100  0.571600  0.299500  1.0
  C  C1820  1  0.025100  0.928400  0.200500  1.0
  C  C1821  1  0.299500  0.025100  0.571600  1.0
  C  C1822  1  0.571600  0.200500  0.474900  1.0
  C  C1823  1  0.928400  0.200500  0.025100  1.0
  C  C1824  1  0.571600  0.299500  0.025100  1.0
  C  C1825  1  0.071600  0.700500  0.525100  1.0
  C  C1826  1  0.525100  0.071600  0.700500  1.0
  C  C1827  1  0.700500  0.525100  0.071600  1.0
  C  C1828  1  0.799500  0.974900  0.071600  1.0
  C  C1829  1  0.525100  0.428400  0.799500  1.0
  C  C1830  1  0.799500  0.525100  0.428400  1.0
  C  C1831  1  0.974900  0.428400  0.700500  1.0
  C  C1832  1  0.974900  0.071600  0.799500  1.0
  C  C1833  1  0.700500  0.974900  0.428400  1.0
  C  C1834  1  0.428400  0.799500  0.525100  1.0
  C  C1835  1  0.071600  0.799500  0.974900  1.0
  C  C1836  1  0.428400  0.700500  0.974900  1.0
  C  C1837  1  0.908100  0.270600  0.490200  1.0
  C  C1838  1  0.490200  0.908100  0.270600  1.0
  C  C1839  1  0.270600  0.490200  0.908100  1.0
  C  C1840  1  0.229400  0.009800  0.908100  1.0
  C  C1841  1  0.490200  0.591900  0.229400  1.0
  C  C1842  1  0.229400  0.490200  0.591900  1.0
  C  C1843  1  0.009800  0.591900  0.270600  1.0
  C  C1844  1  0.009800  0.908100  0.229400  1.0
  C  C1845  1  0.270600  0.009800  0.591900  1.0
  C  C1846  1  0.591900  0.229400  0.490200  1.0
  C  C1847  1  0.908100  0.229400  0.009800  1.0
  C  C1848  1  0.591900  0.270600  0.009800  1.0
  C  C1849  1  0.091900  0.729400  0.509800  1.0
  C  C1850  1  0.509800  0.091900  0.729400  1.0
  C  C1851  1  0.729400  0.509800  0.091900  1.0
  C  C1852  1  0.770600  0.990200  0.091900  1.0
  C  C1853  1  0.509800  0.408100  0.770600  1.0
  C  C1854  1  0.770600  0.509800  0.408100  1.0
  C  C1855  1  0.990200  0.408100  0.729400  1.0
  C  C1856  1  0.990200  0.091900  0.770600  1.0
  C  C1857  1  0.729400  0.990200  0.408100  1.0
  C  C1858  1  0.408100  0.770600  0.509800  1.0
  C  C1859  1  0.091900  0.770600  0.990200  1.0
  C  C1860  1  0.408100  0.729400  0.990200  1.0
  C  C1861  1  0.022000  0.320900  0.468200  1.0
  C  C1862  1  0.468200  0.022000  0.320900  1.0
  C  C1863  1  0.320900  0.468200  0.022000  1.0
  C  C1864  1  0.179100  0.031800  0.022000  1.0
  C  C1865  1  0.468200  0.478000  0.179100  1.0
  C  C1866  1  0.179100  0.468200  0.478000  1.0
  C  C1867  1  0.031800  0.478000  0.320900  1.0
  C  C1868  1  0.031800  0.022000  0.179100  1.0
  C  C1869  1  0.320900  0.031800  0.478000  1.0
  C  C1870  1  0.478000  0.179100  0.468200  1.0
  C  C1871  1  0.022000  0.179100  0.031800  1.0
  C  C1872  1  0.478000  0.320900  0.031800  1.0
  C  C1873  1  0.978000  0.679100  0.531800  1.0
  C  C1874  1  0.531800  0.978000  0.679100  1.0
  C  C1875  1  0.679100  0.531800  0.978000  1.0
  C  C1876  1  0.820900  0.968200  0.978000  1.0
  C  C1877  1  0.531800  0.522000  0.820900  1.0
  C  C1878  1  0.820900  0.531800  0.522000  1.0
  C  C1879  1  0.968200  0.522000  0.679100  1.0
  C  C1880  1  0.968200  0.978000  0.820900  1.0
  C  C1881  1  0.679100  0.968200  0.522000  1.0
  C  C1882  1  0.522000  0.820900  0.531800  1.0
  C  C1883  1  0.978000  0.820900  0.968200  1.0
  C  C1884  1  0.522000  0.679100  0.968200  1.0
  C  C1885  1  0.071900  0.287700  0.486900  1.0
  C  C1886  1  0.486900  0.071900  0.287700  1.0
  C  C1887  1  0.287700  0.486900  0.071900  1.0
  C  C1888  1  0.212300  0.013100  0.071900  1.0
  C  C1889  1  0.486900  0.428100  0.212300  1.0
  C  C1890  1  0.212300  0.486900  0.428100  1.0
  C  C1891  1  0.013100  0.428100  0.287700  1.0
  C  C1892  1  0.013100  0.071900  0.212300  1.0
  C  C1893  1  0.287700  0.013100  0.428100  1.0
  C  C1894  1  0.428100  0.212300  0.486900  1.0
  C  C1895  1  0.071900  0.212300  0.013100  1.0
  C  C1896  1  0.428100  0.287700  0.013100  1.0
  C  C1897  1  0.928100  0.712300  0.513100  1.0
  C  C1898  1  0.513100  0.928100  0.712300  1.0
  C  C1899  1  0.712300  0.513100  0.928100  1.0
  C  C1900  1  0.787700  0.986900  0.928100  1.0
  C  C1901  1  0.513100  0.571900  0.787700  1.0
  C  C1902  1  0.787700  0.513100  0.571900  1.0
  C  C1903  1  0.986900  0.571900  0.712300  1.0
  C  C1904  1  0.986900  0.928100  0.787700  1.0
  C  C1905  1  0.712300  0.986900  0.571900  1.0
  C  C1906  1  0.571900  0.787700  0.513100  1.0
  C  C1907  1  0.928100  0.787700  0.986900  1.0
  C  C1908  1  0.571900  0.712300  0.986900  1.0
  C  C1909  1  0.090100  0.282900  0.518800  1.0
  C  C1910  1  0.518800  0.090100  0.282900  1.0
  C  C1911  1  0.282900  0.518800  0.090100  1.0
  C  C1912  1  0.217100  0.981200  0.090100  1.0
  C  C1913  1  0.518800  0.409900  0.217100  1.0
  C  C1914  1  0.217100  0.518800  0.409900  1.0
  C  C1915  1  0.981200  0.409900  0.282900  1.0
  C  C1916  1  0.981200  0.090100  0.217100  1.0
  C  C1917  1  0.282900  0.981200  0.409900  1.0
  C  C1918  1  0.409900  0.217100  0.518800  1.0
  C  C1919  1  0.090100  0.217100  0.981200  1.0
  C  C1920  1  0.409900  0.282900  0.981200  1.0
  C  C1921  1  0.909900  0.717100  0.481200  1.0
  C  C1922  1  0.481200  0.909900  0.717100  1.0
  C  C1923  1  0.717100  0.481200  0.909900  1.0
  C  C1924  1  0.782900  0.018800  0.909900  1.0
  C  C1925  1  0.481200  0.590100  0.782900  1.0
  C  C1926  1  0.782900  0.481200  0.590100  1.0
  C  C1927  1  0.018800  0.590100  0.717100  1.0
  C  C1928  1  0.018800  0.909900  0.782900  1.0
  C  C1929  1  0.717100  0.018800  0.590100  1.0
  C  C1930  1  0.590100  0.782900  0.481200  1.0
  C  C1931  1  0.909900  0.782900  0.018800  1.0
  C  C1932  1  0.590100  0.717100  0.018800  1.0
  C  C1933  1  0.126000  0.275000  0.518800  1.0
  C  C1934  1  0.518800  0.126000  0.275000  1.0
  C  C1935  1  0.275000  0.518800  0.126000  1.0
  C  C1936  1  0.225000  0.981200  0.126000  1.0
  C  C1937  1  0.518800  0.374000  0.225000  1.0
  C  C1938  1  0.225000  0.518800  0.374000  1.0
  C  C1939  1  0.981200  0.374000  0.275000  1.0
  C  C1940  1  0.981200  0.126000  0.225000  1.0
  C  C1941  1  0.275000  0.981200  0.374000  1.0
  C  C1942  1  0.374000  0.225000  0.518800  1.0
  C  C1943  1  0.126000  0.225000  0.981200  1.0
  C  C1944  1  0.374000  0.275000  0.981200  1.0
  C  C1945  1  0.874000  0.725000  0.481200  1.0
  C  C1946  1  0.481200  0.874000  0.725000  1.0
  C  C1947  1  0.725000  0.481200  0.874000  1.0
  C  C1948  1  0.775000  0.018800  0.874000  1.0
  C  C1949  1  0.481200  0.626000  0.775000  1.0
  C  C1950  1  0.775000  0.481200  0.626000  1.0
  C  C1951  1  0.018800  0.626000  0.725000  1.0
  C  C1952  1  0.018800  0.874000  0.775000  1.0
  C  C1953  1  0.725000  0.018800  0.626000  1.0
  C  C1954  1  0.626000  0.775000  0.481200  1.0
  C  C1955  1  0.874000  0.775000  0.018800  1.0
  C  C1956  1  0.626000  0.725000  0.018800  1.0
  C  C1957  1  0.144300  0.272000  0.486800  1.0
  C  C1958  1  0.486800  0.144300  0.272000  1.0
  C  C1959  1  0.272000  0.486800  0.144300  1.0
  C  C1960  1  0.228000  0.013200  0.144300  1.0
  C  C1961  1  0.486800  0.355700  0.228000  1.0
  C  C1962  1  0.228000  0.486800  0.355700  1.0
  C  C1963  1  0.013200  0.355700  0.272000  1.0
  C  C1964  1  0.013200  0.144300  0.228000  1.0
  C  C1965  1  0.272000  0.013200  0.355700  1.0
  C  C1966  1  0.355700  0.228000  0.486800  1.0
  C  C1967  1  0.144300  0.228000  0.013200  1.0
  C  C1968  1  0.355700  0.272000  0.013200  1.0
  C  C1969  1  0.855700  0.728000  0.513200  1.0
  C  C1970  1  0.513200  0.855700  0.728000  1.0
  C  C1971  1  0.728000  0.513200  0.855700  1.0
  C  C1972  1  0.772000  0.986800  0.855700  1.0
  C  C1973  1  0.513200  0.644300  0.772000  1.0
  C  C1974  1  0.772000  0.513200  0.644300  1.0
  C  C1975  1  0.986800  0.644300  0.728000  1.0
  C  C1976  1  0.986800  0.855700  0.772000  1.0
  C  C1977  1  0.728000  0.986800  0.644300  1.0
  C  C1978  1  0.644300  0.772000  0.513200  1.0
  C  C1979  1  0.855700  0.772000  0.986800  1.0
  C  C1980  1  0.644300  0.728000  0.986800  1.0
  C  C1981  1  0.126100  0.276700  0.455000  1.0
  C  C1982  1  0.455000  0.126100  0.276700  1.0
  C  C1983  1  0.276700  0.455000  0.126100  1.0
  C  C1984  1  0.223300  0.045000  0.126100  1.0
  C  C1985  1  0.455000  0.373900  0.223300  1.0
  C  C1986  1  0.223300  0.455000  0.373900  1.0
  C  C1987  1  0.045000  0.373900  0.276700  1.0
  C  C1988  1  0.045000  0.126100  0.223300  1.0
  C  C1989  1  0.276700  0.045000  0.373900  1.0
  C  C1990  1  0.373900  0.223300  0.455000  1.0
  C  C1991  1  0.126100  0.223300  0.045000  1.0
  C  C1992  1  0.373900  0.276700  0.045000  1.0
  C  C1993  1  0.873900  0.723300  0.545000  1.0
  C  C1994  1  0.545000  0.873900  0.723300  1.0
  C  C1995  1  0.723300  0.545000  0.873900  1.0
  C  C1996  1  0.776700  0.955000  0.873900  1.0
  C  C1997  1  0.545000  0.626100  0.776700  1.0
  C  C1998  1  0.776700  0.545000  0.626100  1.0
  C  C1999  1  0.955000  0.626100  0.723300  1.0
  C  C2000  1  0.955000  0.873900  0.776700  1.0
  C  C2001  1  0.723300  0.955000  0.626100  1.0
  C  C2002  1  0.626100  0.776700  0.545000  1.0
  C  C2003  1  0.873900  0.776700  0.955000  1.0
  C  C2004  1  0.626100  0.723300  0.955000  1.0
  C  C2005  1  0.090200  0.284500  0.455100  1.0
  C  C2006  1  0.455100  0.090200  0.284500  1.0
  C  C2007  1  0.284500  0.455100  0.090200  1.0
  C  C2008  1  0.215500  0.044900  0.090200  1.0
  C  C2009  1  0.455100  0.409800  0.215500  1.0
  C  C2010  1  0.215500  0.455100  0.409800  1.0
  C  C2011  1  0.044900  0.409800  0.284500  1.0
  C  C2012  1  0.044900  0.090200  0.215500  1.0
  C  C2013  1  0.284500  0.044900  0.409800  1.0
  C  C2014  1  0.409800  0.215500  0.455100  1.0
  C  C2015  1  0.090200  0.215500  0.044900  1.0
  C  C2016  1  0.409800  0.284500  0.044900  1.0
  C  C2017  1  0.909800  0.715500  0.544900  1.0
  C  C2018  1  0.544900  0.909800  0.715500  1.0
  C  C2019  1  0.715500  0.544900  0.909800  1.0
  C  C2020  1  0.784500  0.955100  0.909800  1.0
  C  C2021  1  0.544900  0.590200  0.784500  1.0
  C  C2022  1  0.784500  0.544900  0.590200  1.0
  C  C2023  1  0.955100  0.590200  0.715500  1.0
  C  C2024  1  0.955100  0.909800  0.784500  1.0
  C  C2025  1  0.715500  0.955100  0.590200  1.0
  C  C2026  1  0.590200  0.784500  0.544900  1.0
  C  C2027  1  0.909800  0.784500  0.955100  1.0
  C  C2028  1  0.590200  0.715500  0.955100  1.0
  C  C2029  1  0.183500  0.263500  0.486500  1.0
  C  C2030  1  0.486500  0.183500  0.263500  1.0
  C  C2031  1  0.263500  0.486500  0.183500  1.0
  C  C2032  1  0.236500  0.013500  0.183500  1.0
  C  C2033  1  0.486500  0.316500  0.236500  1.0
  C  C2034  1  0.236500  0.486500  0.316500  1.0
  C  C2035  1  0.013500  0.316500  0.263500  1.0
  C  C2036  1  0.013500  0.183500  0.236500  1.0
  C  C2037  1  0.263500  0.013500  0.316500  1.0
  C  C2038  1  0.316500  0.236500  0.486500  1.0
  C  C2039  1  0.183500  0.236500  0.013500  1.0
  C  C2040  1  0.316500  0.263500  0.013500  1.0
  C  C2041  1  0.816500  0.736500  0.513500  1.0
  C  C2042  1  0.513500  0.816500  0.736500  1.0
  C  C2043  1  0.736500  0.513500  0.816500  1.0
  C  C2044  1  0.763500  0.986500  0.816500  1.0
  C  C2045  1  0.513500  0.683500  0.763500  1.0
  C  C2046  1  0.763500  0.513500  0.683500  1.0
  C  C2047  1  0.986500  0.683500  0.736500  1.0
  C  C2048  1  0.986500  0.816500  0.763500  1.0
  C  C2049  1  0.736500  0.986500  0.683500  1.0
  C  C2050  1  0.683500  0.763500  0.513500  1.0
  C  C2051  1  0.816500  0.763500  0.986500  1.0
  C  C2052  1  0.683500  0.736500  0.986500  1.0
  C  C2053  1  0.264000  0.245000  0.642900  1.0
  C  C2054  1  0.642900  0.264000  0.245000  1.0
  C  C2055  1  0.245000  0.642900  0.264000  1.0
  C  C2056  1  0.255000  0.857100  0.264000  1.0
  C  C2057  1  0.642900  0.236000  0.255000  1.0
  C  C2058  1  0.255000  0.642900  0.236000  1.0
  C  C2059  1  0.857100  0.236000  0.245000  1.0
  C  C2060  1  0.857100  0.264000  0.255000  1.0
  C  C2061  1  0.245000  0.857100  0.236000  1.0
  C  C2062  1  0.236000  0.255000  0.642900  1.0
  C  C2063  1  0.264000  0.255000  0.857100  1.0
  C  C2064  1  0.236000  0.245000  0.857100  1.0
  C  C2065  1  0.736000  0.755000  0.357100  1.0
  C  C2066  1  0.357100  0.736000  0.755000  1.0
  C  C2067  1  0.755000  0.357100  0.736000  1.0
  C  C2068  1  0.745000  0.142900  0.736000  1.0
  C  C2069  1  0.357100  0.764000  0.745000  1.0
  C  C2070  1  0.745000  0.357100  0.764000  1.0
  C  C2071  1  0.142900  0.764000  0.755000  1.0
  C  C2072  1  0.142900  0.736000  0.745000  1.0
  C  C2073  1  0.755000  0.142900  0.764000  1.0
  C  C2074  1  0.764000  0.745000  0.357100  1.0
  C  C2075  1  0.736000  0.745000  0.142900  1.0
  C  C2076  1  0.764000  0.755000  0.142900  1.0
  N  N2077  1  0.250000  0.250000  0.575400  1.0
  N  N2078  1  0.575400  0.250000  0.250000  1.0
  N  N2079  1  0.250000  0.575400  0.250000  1.0
  N  N2080  1  0.250000  0.924600  0.250000  1.0
  N  N2081  1  0.924600  0.250000  0.250000  1.0
  N  N2082  1  0.250000  0.250000  0.924600  1.0
  N  N2083  1  0.750000  0.750000  0.424600  1.0
  N  N2084  1  0.424600  0.750000  0.750000  1.0
  N  N2085  1  0.750000  0.424600  0.750000  1.0
  N  N2086  1  0.750000  0.075400  0.750000  1.0
  N  N2087  1  0.075400  0.750000  0.750000  1.0
  N  N2088  1  0.750000  0.750000  0.075400  1.0
  N  N2089  1  0.250000  0.250000  0.397900  1.0
  N  N2090  1  0.397900  0.250000  0.250000  1.0
  N  N2091  1  0.250000  0.397900  0.250000  1.0
  N  N2092  1  0.250000  0.102100  0.250000  1.0
  N  N2093  1  0.102100  0.250000  0.250000  1.0
  N  N2094  1  0.250000  0.250000  0.102100  1.0
  N  N2095  1  0.750000  0.750000  0.602100  1.0
  N  N2096  1  0.602100  0.750000  0.750000  1.0
  N  N2097  1  0.750000  0.602100  0.750000  1.0
  N  N2098  1  0.750000  0.897900  0.750000  1.0
  N  N2099  1  0.897900  0.750000  0.750000  1.0
  N  N2100  1  0.750000  0.750000  0.897900  1.0
  N  N2101  1  0.237700  0.570700  0.518100  1.0
  N  N2102  1  0.518100  0.237700  0.570700  1.0
  N  N2103  1  0.570700  0.518100  0.237700  1.0
  N  N2104  1  0.929300  0.981900  0.237700  1.0
  N  N2105  1  0.518100  0.262300  0.929300  1.0
  N  N2106  1  0.929300  0.518100  0.262300  1.0
  N  N2107  1  0.981900  0.262300  0.570700  1.0
  N  N2108  1  0.981900  0.237700  0.929300  1.0
  N  N2109  1  0.570700  0.981900  0.262300  1.0
  N  N2110  1  0.262300  0.929300  0.518100  1.0
  N  N2111  1  0.237700  0.929300  0.981900  1.0
  N  N2112  1  0.262300  0.570700  0.981900  1.0
  N  N2113  1  0.762300  0.429300  0.481900  1.0
  N  N2114  1  0.481900  0.762300  0.429300  1.0
  N  N2115  1  0.429300  0.481900  0.762300  1.0
  N  N2116  1  0.070700  0.018100  0.762300  1.0
  N  N2117  1  0.481900  0.737700  0.070700  1.0
  N  N2118  1  0.070700  0.481900  0.737700  1.0
  N  N2119  1  0.018100  0.737700  0.429300  1.0
  N  N2120  1  0.018100  0.762300  0.070700  1.0
  N  N2121  1  0.429300  0.018100  0.737700  1.0
  N  N2122  1  0.737700  0.070700  0.481900  1.0
  N  N2123  1  0.762300  0.070700  0.018100  1.0
  N  N2124  1  0.737700  0.429300  0.018100  1.0
  N  N2125  1  0.285600  0.537300  0.476500  1.0
  N  N2126  1  0.476500  0.285600  0.537300  1.0
  N  N2127  1  0.537300  0.476500  0.285600  1.0
  N  N2128  1  0.962700  0.023500  0.285600  1.0
  N  N2129  1  0.476500  0.214400  0.962700  1.0
  N  N2130  1  0.962700  0.476500  0.214400  1.0
  N  N2131  1  0.023500  0.214400  0.537300  1.0
  N  N2132  1  0.023500  0.285600  0.962700  1.0
  N  N2133  1  0.537300  0.023500  0.214400  1.0
  N  N2134  1  0.214400  0.962700  0.476500  1.0
  N  N2135  1  0.285600  0.962700  0.023500  1.0
  N  N2136  1  0.214400  0.537300  0.023500  1.0
  N  N2137  1  0.714400  0.462700  0.523500  1.0
  N  N2138  1  0.523500  0.714400  0.462700  1.0
  N  N2139  1  0.462700  0.523500  0.714400  1.0
  N  N2140  1  0.037300  0.976500  0.714400  1.0
  N  N2141  1  0.523500  0.785600  0.037300  1.0
  N  N2142  1  0.037300  0.523500  0.785600  1.0
  N  N2143  1  0.976500  0.785600  0.462700  1.0
  N  N2144  1  0.976500  0.714400  0.037300  1.0
  N  N2145  1  0.462700  0.976500  0.785600  1.0
  N  N2146  1  0.785600  0.037300  0.523500  1.0
  N  N2147  1  0.714400  0.037300  0.976500  1.0
  N  N2148  1  0.785600  0.462700  0.976500  1.0
  N  N2149  1  0.286500  0.466500  0.481000  1.0
  N  N2150  1  0.481000  0.286500  0.466500  1.0
  N  N2151  1  0.466500  0.481000  0.286500  1.0
  N  N2152  1  0.033500  0.019000  0.286500  1.0
  N  N2153  1  0.481000  0.213500  0.033500  1.0
  N  N2154  1  0.033500  0.481000  0.213500  1.0
  N  N2155  1  0.019000  0.213500  0.466500  1.0
  N  N2156  1  0.019000  0.286500  0.033500  1.0
  N  N2157  1  0.466500  0.019000  0.213500  1.0
  N  N2158  1  0.213500  0.033500  0.481000  1.0
  N  N2159  1  0.286500  0.033500  0.019000  1.0
  N  N2160  1  0.213500  0.466500  0.019000  1.0
  N  N2161  1  0.713500  0.533500  0.519000  1.0
  N  N2162  1  0.519000  0.713500  0.533500  1.0
  N  N2163  1  0.533500  0.519000  0.713500  1.0
  N  N2164  1  0.966500  0.981000  0.713500  1.0
  N  N2165  1  0.519000  0.786500  0.966500  1.0
  N  N2166  1  0.966500  0.519000  0.786500  1.0
  N  N2167  1  0.981000  0.786500  0.533500  1.0
  N  N2168  1  0.981000  0.713500  0.966500  1.0
  N  N2169  1  0.533500  0.981000  0.786500  1.0
  N  N2170  1  0.786500  0.966500  0.519000  1.0
  N  N2171  1  0.713500  0.966500  0.981000  1.0
  N  N2172  1  0.786500  0.533500  0.981000  1.0
  N  N2173  1  0.926100  0.243600  0.505600  1.0
  N  N2174  1  0.505600  0.926100  0.243600  1.0
  N  N2175  1  0.243600  0.505600  0.926100  1.0
  N  N2176  1  0.256400  0.994400  0.926100  1.0
  N  N2177  1  0.505600  0.573900  0.256400  1.0
  N  N2178  1  0.256400  0.505600  0.573900  1.0
  N  N2179  1  0.994400  0.573900  0.243600  1.0
  N  N2180  1  0.994400  0.926100  0.256400  1.0
  N  N2181  1  0.243600  0.994400  0.573900  1.0
  N  N2182  1  0.573900  0.256400  0.505600  1.0
  N  N2183  1  0.926100  0.256400  0.994400  1.0
  N  N2184  1  0.573900  0.243600  0.994400  1.0
  N  N2185  1  0.073900  0.756400  0.494400  1.0
  N  N2186  1  0.494400  0.073900  0.756400  1.0
  N  N2187  1  0.756400  0.494400  0.073900  1.0
  N  N2188  1  0.743600  0.005600  0.073900  1.0
  N  N2189  1  0.494400  0.426100  0.743600  1.0
  N  N2190  1  0.743600  0.494400  0.426100  1.0
  N  N2191  1  0.005600  0.426100  0.756400  1.0
  N  N2192  1  0.005600  0.073900  0.743600  1.0
  N  N2193  1  0.756400  0.005600  0.426100  1.0
  N  N2194  1  0.426100  0.743600  0.494400  1.0
  N  N2195  1  0.073900  0.743600  0.005600  1.0
  N  N2196  1  0.426100  0.756400  0.005600  1.0
  N  N2197  1  0.964200  0.298700  0.478700  1.0
  N  N2198  1  0.478700  0.964200  0.298700  1.0
  N  N2199  1  0.298700  0.478700  0.964200  1.0
  N  N2200  1  0.201300  0.021300  0.964200  1.0
  N  N2201  1  0.478700  0.535800  0.201300  1.0
  N  N2202  1  0.201300  0.478700  0.535800  1.0
  N  N2203  1  0.021300  0.535800  0.298700  1.0
  N  N2204  1  0.021300  0.964200  0.201300  1.0
  N  N2205  1  0.298700  0.021300  0.535800  1.0
  N  N2206  1  0.535800  0.201300  0.478700  1.0
  N  N2207  1  0.964200  0.201300  0.021300  1.0
  N  N2208  1  0.535800  0.298700  0.021300  1.0
  N  N2209  1  0.035800  0.701300  0.521300  1.0
  N  N2210  1  0.521300  0.035800  0.701300  1.0
  N  N2211  1  0.701300  0.521300  0.035800  1.0
  N  N2212  1  0.798700  0.978700  0.035800  1.0
  N  N2213  1  0.521300  0.464200  0.798700  1.0
  N  N2214  1  0.798700  0.521300  0.464200  1.0
  N  N2215  1  0.978700  0.464200  0.701300  1.0
  N  N2216  1  0.978700  0.035800  0.798700  1.0
  N  N2217  1  0.701300  0.978700  0.464200  1.0
  N  N2218  1  0.464200  0.798700  0.521300  1.0
  N  N2219  1  0.035800  0.798700  0.978700  1.0
  N  N2220  1  0.464200  0.701300  0.978700  1.0
  N  N2221  1  0.034700  0.294200  0.485300  1.0
  N  N2222  1  0.485300  0.034700  0.294200  1.0
  N  N2223  1  0.294200  0.485300  0.034700  1.0
  N  N2224  1  0.205800  0.014700  0.034700  1.0
  N  N2225  1  0.485300  0.465300  0.205800  1.0
  N  N2226  1  0.205800  0.485300  0.465300  1.0
  N  N2227  1  0.014700  0.465300  0.294200  1.0
  N  N2228  1  0.014700  0.034700  0.205800  1.0
  N  N2229  1  0.294200  0.014700  0.465300  1.0
  N  N2230  1  0.465300  0.205800  0.485300  1.0
  N  N2231  1  0.034700  0.205800  0.014700  1.0
  N  N2232  1  0.465300  0.294200  0.014700  1.0
  N  N2233  1  0.965300  0.705800  0.514700  1.0
  N  N2234  1  0.514700  0.965300  0.705800  1.0
  N  N2235  1  0.705800  0.514700  0.965300  1.0
  N  N2236  1  0.794200  0.985300  0.965300  1.0
  N  N2237  1  0.514700  0.534700  0.794200  1.0
  N  N2238  1  0.794200  0.514700  0.534700  1.0
  N  N2239  1  0.985300  0.534700  0.705800  1.0
  N  N2240  1  0.985300  0.965300  0.794200  1.0
  N  N2241  1  0.705800  0.985300  0.534700  1.0
  N  N2242  1  0.534700  0.794200  0.514700  1.0
  N  N2243  1  0.965300  0.794200  0.985300  1.0
  N  N2244  1  0.534700  0.705800  0.985300  1.0
  O  O2245  1  0.259600  0.303700  0.516400  1.0
  O  O2246  1  0.516400  0.259600  0.303700  1.0
  O  O2247  1  0.303700  0.516400  0.259600  1.0
  O  O2248  1  0.196300  0.983600  0.259600  1.0
  O  O2249  1  0.516400  0.240400  0.196300  1.0
  O  O2250  1  0.196300  0.516400  0.240400  1.0
  O  O2251  1  0.983600  0.240400  0.303700  1.0
  O  O2252  1  0.983600  0.259600  0.196300  1.0
  O  O2253  1  0.303700  0.983600  0.240400  1.0
  O  O2254  1  0.240400  0.196300  0.516400  1.0
  O  O2255  1  0.259600  0.196300  0.983600  1.0
  O  O2256  1  0.240400  0.303700  0.983600  1.0
  O  O2257  1  0.740400  0.696300  0.483600  1.0
  O  O2258  1  0.483600  0.740400  0.696300  1.0
  O  O2259  1  0.696300  0.483600  0.740400  1.0
  O  O2260  1  0.803700  0.016400  0.740400  1.0
  O  O2261  1  0.483600  0.759600  0.803700  1.0
  O  O2262  1  0.803700  0.483600  0.759600  1.0
  O  O2263  1  0.016400  0.759600  0.696300  1.0
  O  O2264  1  0.016400  0.740400  0.803700  1.0
  O  O2265  1  0.696300  0.016400  0.759600  1.0
  O  O2266  1  0.759600  0.803700  0.483600  1.0
  O  O2267  1  0.740400  0.803700  0.016400  1.0
  O  O2268  1  0.759600  0.696300  0.016400  1.0
  O  O2269  1  0.261300  0.302100  0.457300  1.0
  O  O2270  1  0.457300  0.261300  0.302100  1.0
  O  O2271  1  0.302100  0.457300  0.261300  1.0
  O  O2272  1  0.197900  0.042700  0.261300  1.0
  O  O2273  1  0.457300  0.238700  0.197900  1.0
  O  O2274  1  0.197900  0.457300  0.238700  1.0
  O  O2275  1  0.042700  0.238700  0.302100  1.0
  O  O2276  1  0.042700  0.261300  0.197900  1.0
  O  O2277  1  0.302100  0.042700  0.238700  1.0
  O  O2278  1  0.238700  0.197900  0.457300  1.0
  O  O2279  1  0.261300  0.197900  0.042700  1.0
  O  O2280  1  0.238700  0.302100  0.042700  1.0
  O  O2281  1  0.738700  0.697900  0.542700  1.0
  O  O2282  1  0.542700  0.738700  0.697900  1.0
  O  O2283  1  0.697900  0.542700  0.738700  1.0
  O  O2284  1  0.802100  0.957300  0.738700  1.0
  O  O2285  1  0.542700  0.761300  0.802100  1.0
  O  O2286  1  0.802100  0.542700  0.761300  1.0
  O  O2287  1  0.957300  0.761300  0.697900  1.0
  O  O2288  1  0.957300  0.738700  0.802100  1.0
  O  O2289  1  0.697900  0.957300  0.761300  1.0
  O  O2290  1  0.761300  0.802100  0.542700  1.0
  O  O2291  1  0.738700  0.802100  0.957300  1.0
  O  O2292  1  0.761300  0.697900  0.957300  1.0
  O  O2293  1  0.198900  0.259300  0.516000  1.0
  O  O2294  1  0.516000  0.198900  0.259300  1.0
  O  O2295  1  0.259300  0.516000  0.198900  1.0
  O  O2296  1  0.240700  0.984000  0.198900  1.0
  O  O2297  1  0.516000  0.301100  0.240700  1.0
  O  O2298  1  0.240700  0.516000  0.301100  1.0
  O  O2299  1  0.984000  0.301100  0.259300  1.0
  O  O2300  1  0.984000  0.198900  0.240700  1.0
  O  O2301  1  0.259300  0.984000  0.301100  1.0
  O  O2302  1  0.301100  0.240700  0.516000  1.0
  O  O2303  1  0.198900  0.240700  0.984000  1.0
  O  O2304  1  0.301100  0.259300  0.984000  1.0
  O  O2305  1  0.801100  0.740700  0.484000  1.0
  O  O2306  1  0.484000  0.801100  0.740700  1.0
  O  O2307  1  0.740700  0.484000  0.801100  1.0
  O  O2308  1  0.759300  0.016000  0.801100  1.0
  O  O2309  1  0.484000  0.698900  0.759300  1.0
  O  O2310  1  0.759300  0.484000  0.698900  1.0
  O  O2311  1  0.016000  0.698900  0.740700  1.0
  O  O2312  1  0.016000  0.801100  0.759300  1.0
  O  O2313  1  0.740700  0.016000  0.698900  1.0
  O  O2314  1  0.698900  0.759300  0.484000  1.0
  O  O2315  1  0.801100  0.759300  0.016000  1.0
  O  O2316  1  0.698900  0.740700  0.016000  1.0
  O  O2317  1  0.197400  0.259900  0.456200  1.0
  O  O2318  1  0.456200  0.197400  0.259900  1.0
  O  O2319  1  0.259900  0.456200  0.197400  1.0
  O  O2320  1  0.240100  0.043800  0.197400  1.0
  O  O2321  1  0.456200  0.302600  0.240100  1.0
  O  O2322  1  0.240100  0.456200  0.302600  1.0
  O  O2323  1  0.043800  0.302600  0.259900  1.0
  O  O2324  1  0.043800  0.197400  0.240100  1.0
  O  O2325  1  0.259900  0.043800  0.302600  1.0
  O  O2326  1  0.302600  0.240100  0.456200  1.0
  O  O2327  1  0.197400  0.240100  0.043800  1.0
  O  O2328  1  0.302600  0.259900  0.043800  1.0
  O  O2329  1  0.802600  0.740100  0.543800  1.0
  O  O2330  1  0.543800  0.802600  0.740100  1.0
  O  O2331  1  0.740100  0.543800  0.802600  1.0
  O  O2332  1  0.759900  0.956200  0.802600  1.0
  O  O2333  1  0.543800  0.697400  0.759900  1.0
  O  O2334  1  0.759900  0.543800  0.697400  1.0
  O  O2335  1  0.956200  0.697400  0.740100  1.0
  O  O2336  1  0.956200  0.802600  0.759900  1.0
  O  O2337  1  0.740100  0.956200  0.697400  1.0
  O  O2338  1  0.697400  0.759900  0.543800  1.0
  O  O2339  1  0.802600  0.759900  0.956200  1.0
  O  O2340  1  0.697400  0.740100  0.956200  1.0
