
#######################################################################
#
#                 Cambridge Crystallographic Data Centre
#                                CCDC 
#
#######################################################################
#
# If this CIF has been generated from an entry in the Cambridge 
# Structural Database, then it will include bibliographic, chemical, 
# crystal, experimental, refinement or atomic coordinate data resulting 
# from the CCDC's data processing and validation procedures.
#
#######################################################################

data_FILGEP
_chemical_formula_moiety         
'C504 H324 Cd12 N84 O48 Rh12 24+,12(C6 H6),24(C1 F3 O3 S1 1-)'
_chemical_name_systematic        
'tetracosakis(\m-4-{[(1,10-phenanthrolin-2-yl)methylidene]amino}benzoato)-dodecakis(acetonitrile)-dodeca-cadmium-dodeca-rhodium tetracosakis(trifluoromethanesulfonate) benzene solvate'
_symmetry_cell_setting           cubic
_symmetry_space_group_name_H-M   'P n -3'
_symmetry_Int_Tables_number      201
_space_group_name_Hall           '-P 2ab 2bc 3'
loop_
_symmetry_equiv_pos_site_id
_symmetry_equiv_pos_as_xyz
1 x,y,z
2 z,x,y
3 y,z,x
4 1/2-y,1/2-z,x
5 z,1/2-x,1/2-y
6 1/2-y,z,1/2-x
7 1/2-z,1/2-x,y
8 1/2-z,x,1/2-y
9 y,1/2-z,1/2-x
10 1/2-x,1/2-y,z
11 x,1/2-y,1/2-z
12 1/2-x,y,1/2-z
13 -x,-y,-z
14 -z,-x,-y
15 -y,-z,-x
16 1/2+y,1/2+z,-x
17 -z,1/2+x,1/2+y
18 1/2+y,-z,1/2+x
19 1/2+z,1/2+x,-y
20 1/2+z,-x,1/2+y
21 -y,1/2+z,1/2+x
22 1/2+x,1/2+y,-z
23 -x,1/2+y,1/2+z
24 1/2+x,-y,1/2+z
_cell_length_a                   37.6891(15)
_cell_length_b                   37.6891(15)
_cell_length_c                   37.6891(15)
_cell_angle_alpha                90
_cell_angle_beta                 90
_cell_angle_gamma                90
_cell_volume                     53536.2
_exptl_crystal_colour            yellow
_exptl_crystal_description       plate
_cell_formula_units_Z            2
loop_
_atom_site_label
_atom_site_type_symbol
_atom_site_fract_x
_atom_site_fract_y
_atom_site_fract_z
Rh1 Rh 0.250000 0.250000 0.45553(9)
Rh2 Rh 0.250000 0.250000 0.51864(9)
Cd1 Cd 0.24736(6) 0.50787(6) 0.51058(6)
O1 O 0.2596(4) 0.3037(4) 0.5164(4)
O2 O 0.2613(4) 0.3021(4) 0.4573(4)
N1 N 0.2377(5) 0.5707(4) 0.5181(5)
N2 N 0.2856(5) 0.5373(4) 0.4765(5)
N3 N 0.2865(6) 0.4665(4) 0.4810(6)
C1 C 0.2152(5) 0.5873(6) 0.5394(6)
H1 H 0.200559 0.573156 0.554277
C2 C 0.2115(6) 0.6235(6) 0.5413(6)
H2 H 0.195189 0.633834 0.557523
C3 C 0.2316(6) 0.6445(5) 0.5195(6)
H3 H 0.229418 0.669572 0.520452
C4 C 0.2559(5) 0.6284(4) 0.4955(5)
C5 C 0.2777(6) 0.6475(5) 0.4715(6)
H4 H 0.276352 0.672642 0.470810
C6 C 0.3006(6) 0.6304(5) 0.4497(6)
H5 H 0.314436 0.643844 0.433472
C7 C 0.3045(5) 0.5930(4) 0.4502(5)
C8 C 0.3294(6) 0.5740(5) 0.4293(7)
H6 H 0.344333 0.586207 0.413017
C9 C 0.3317(6) 0.5380(5) 0.4329(7)
H7 H 0.348427 0.524903 0.419284
C10 C 0.3093(5) 0.5206(4) 0.4565(5)
C11 C 0.2832(5) 0.5731(4) 0.4736(5)
C12 C 0.2579(4) 0.5910(4) 0.4964(5)
C13 C 0.3081(7) 0.4816(4) 0.4597(7)
H8 H 0.323606 0.467526 0.445642
C14 C 0.2828(5) 0.4291(4) 0.4820(6)
C15 C 0.2772(6) 0.4129(5) 0.5146(5)
H9 H 0.277351 0.426554 0.535748
C16 C 0.2713(6) 0.3766(5) 0.5161(5)
H10 H 0.267151 0.365434 0.538326
C17 C 0.2716(4) 0.3566(4) 0.4853(5)
C18 C 0.2777(5) 0.3728(4) 0.4525(5)
H11 H 0.277999 0.359084 0.431346
C19 C 0.2831(5) 0.4091(5) 0.4510(5)
H12 H 0.287137 0.420351 0.428811
C20 C 0.2645(4) 0.3174(4) 0.4869(5)
O3 O 0.1989(4) 0.2593(4) 0.5160(4)
O4 O 0.1974(4) 0.2599(4) 0.4562(4)
N4 N -0.0739(4) 0.2436(5) 0.5056(5)
N5 N -0.0358(4) 0.2987(4) 0.4787(5)
N6 N 0.0347(4) 0.2942(5) 0.4853(6)
C21 C -0.0924(6) 0.2165(5) 0.5178(6)
H13 H -0.079744 0.197510 0.528558
C22 C -0.1289(6) 0.2138(6) 0.5160(7)
H14 H -0.140640 0.193497 0.525172
C23 C -0.1479(5) 0.2408(6) 0.5009(6)
H15 H -0.173015 0.239668 0.499616
C24 C -0.1292(4) 0.2707(5) 0.4871(5)
C25 C -0.1461(5) 0.2992(6) 0.4694(6)
H16 H -0.171267 0.299435 0.467665
C26 C -0.1272(5) 0.3260(6) 0.4548(6)
H17 H -0.139316 0.344621 0.442931
C27 C -0.0895(4) 0.3270(4) 0.4569(5)
C28 C -0.0682(5) 0.3540(5) 0.4420(6)
H18 H -0.078906 0.373240 0.429766
C29 C -0.0320(5) 0.3522(5) 0.4453(6)
H19 H -0.017477 0.369939 0.434791
C30 C -0.0167(4) 0.3244(4) 0.4639(5)
C31 C -0.0716(4) 0.2995(4) 0.4749(4)
C32 C -0.0919(4) 0.2706(4) 0.4902(5)
C33 C 0.0220(4) 0.3209(6) 0.4682(6)
H20 H 0.037499 0.338222 0.458404
C34 C 0.0719(4) 0.2877(5) 0.4869(6)
C35 C 0.0901(5) 0.2829(5) 0.5188(5)
H21 H 0.077763 0.284991 0.540650
C36 C 0.1260(5) 0.2750(6) 0.5188(5)
H22 H 0.138177 0.271696 0.540607
C37 C 0.1443(4) 0.2720(4) 0.4868(5)
C38 C 0.1261(4) 0.2767(5) 0.4550(5)
H23 H 0.138380 0.274468 0.433070
C39 C 0.0902(5) 0.2845(6) 0.4551(5)
H24 H 0.078055 0.287725 0.433223
C40 C 0.1835(4) 0.2635(4) 0.4865(5)
N7 N 0.250000 0.250000 0.5754(11)
C41 C 0.250000 0.250000 0.6065(12)
C42 C 0.264(2) 0.245(3) 0.6429(12)
N8 N 0.250000 0.250000 0.3979(10)
C43 C 0.250000 0.250000 0.3674(11)
C44 C 0.250000 0.250000 0.3286(10)
C42I C 0.236(2) 0.255(3) 0.6429(12)
Rh1B Rh 0.250000 0.45553(9) 0.250000
Rh2B Rh 0.250000 0.51864(9) 0.250000
Cd1E Cd -0.00787(6) 0.51058(6) 0.25264(6)
O1E O 0.1963(4) 0.5164(4) 0.2404(4)
O2E O 0.1979(4) 0.4573(4) 0.2387(4)
N1E N -0.0707(4) 0.5181(5) 0.2623(5)
N2E N -0.0373(4) 0.4765(5) 0.2144(5)
N3E N 0.0335(4) 0.4810(6) 0.2135(6)
C1E C -0.0873(6) 0.5394(6) 0.2848(5)
H1E H -0.073156 0.554277 0.299441
C2E C -0.1235(6) 0.5413(6) 0.2885(6)
H2E H -0.133834 0.557523 0.304811
C3E C -0.1445(5) 0.5195(6) 0.2684(6)
H3E H -0.169572 0.520452 0.270582
C4E C -0.1284(4) 0.4955(5) 0.2441(5)
C5E C -0.1475(5) 0.4715(6) 0.2223(6)
H4E H -0.172642 0.470810 0.223648
C6E C -0.1304(5) 0.4497(6) 0.1994(6)
H5E H -0.143844 0.433472 0.185564
C7E C -0.0930(4) 0.4502(5) 0.1955(5)
C8E C -0.0740(5) 0.4293(7) 0.1706(6)
H6E H -0.086207 0.413017 0.155667
C9E C -0.0380(5) 0.4329(7) 0.1683(6)
H7E H -0.024903 0.419284 0.151573
C10E C -0.0206(4) 0.4565(5) 0.1907(5)
C11E C -0.0731(4) 0.4736(5) 0.2168(5)
C12E C -0.0910(4) 0.4964(5) 0.2421(4)
C13E C 0.0184(4) 0.4597(7) 0.1919(7)
H8E H 0.032474 0.445642 0.176394
C14E C 0.0709(4) 0.4820(6) 0.2172(5)
C15E C 0.0871(5) 0.5146(5) 0.2228(6)
H9E H 0.073446 0.535748 0.222649
C16E C 0.1234(5) 0.5161(5) 0.2287(6)
H10E H 0.134566 0.538326 0.232849
C17E C 0.1434(4) 0.4853(5) 0.2284(4)
C18E C 0.1272(4) 0.4525(5) 0.2223(5)
H11E H 0.140916 0.431346 0.222001
C19E C 0.0909(5) 0.4510(5) 0.2169(5)
H12E H 0.079649 0.428811 0.212863
C20E C 0.1826(4) 0.4869(5) 0.2355(4)
O3E O 0.2407(4) 0.5160(4) 0.3011(4)
O4E O 0.2401(4) 0.4562(4) 0.3026(4)
N4E N 0.2564(5) 0.5056(5) 0.5739(4)
N5E N 0.2013(4) 0.4787(5) 0.5358(4)
N6E N 0.2058(5) 0.4853(6) 0.4653(4)
C21E C 0.2835(5) 0.5178(6) 0.5924(6)
H13E H 0.302490 0.528558 0.579744
C22E C 0.2862(6) 0.5160(7) 0.6289(6)
H14E H 0.306503 0.525172 0.640640
C23E C 0.2592(6) 0.5009(6) 0.6479(5)
H15E H 0.260332 0.499616 0.673015
C24E C 0.2293(5) 0.4871(5) 0.6292(4)
C25E C 0.2008(6) 0.4694(6) 0.6461(5)
H16E H 0.200565 0.467665 0.671267
C26E C 0.1740(6) 0.4548(6) 0.6272(5)
H17E H 0.155379 0.442931 0.639316
C27E C 0.1730(4) 0.4569(5) 0.5895(4)
C28E C 0.1460(5) 0.4420(6) 0.5682(5)
H18E H 0.126760 0.429766 0.578906
C29E C 0.1478(5) 0.4453(6) 0.5320(5)
H19E H 0.130061 0.434791 0.517477
C30E C 0.1756(4) 0.4639(5) 0.5167(4)
C31E C 0.2005(4) 0.4749(4) 0.5716(4)
C32E C 0.2294(4) 0.4902(5) 0.5919(4)
C33E C 0.1791(6) 0.4682(6) 0.4780(4)
H20E H 0.161778 0.458404 0.462501
C34E C 0.2123(5) 0.4869(6) 0.4281(4)
C35E C 0.2171(5) 0.5188(5) 0.4099(5)
H21E H 0.215009 0.540650 0.422237
C36E C 0.2250(6) 0.5188(5) 0.3740(5)
H22E H 0.228304 0.540607 0.361823
C37E C 0.2280(4) 0.4868(5) 0.3557(4)
C38E C 0.2233(5) 0.4550(5) 0.3739(4)
H23E H 0.225532 0.433070 0.361620
C39E C 0.2155(6) 0.4551(5) 0.4098(5)
H24E H 0.212275 0.433223 0.421945
C40E C 0.2365(4) 0.4865(5) 0.3165(4)
N7B N 0.250000 0.5754(11) 0.250000
C41B C 0.250000 0.6065(12) 0.250000
C42E C 0.255(3) 0.6429(12) 0.236(2)
N8B N 0.250000 0.3979(10) 0.250000
C43B C 0.250000 0.3674(11) 0.250000
C44B C 0.250000 0.3286(10) 0.250000
C42B C 0.245(3) 0.6429(12) 0.264(2)
Rh1F Rh 0.04447(9) 0.250000 0.250000
Rh2F Rh -0.01864(9) 0.250000 0.250000
Cd1F Cd -0.01058(6) 0.25264(6) 0.50787(6)
O1F O -0.0164(4) 0.2404(4) 0.3037(4)
O2F O 0.0427(4) 0.2387(4) 0.3021(4)
N1F N -0.0181(5) 0.2623(5) 0.5707(4)
N2F N 0.0235(5) 0.2144(5) 0.5373(4)
N3F N 0.0190(6) 0.2135(6) 0.4665(4)
C1F C -0.0394(6) 0.2848(5) 0.5873(6)
H1F H -0.054277 0.299441 0.573156
C2F C -0.0413(6) 0.2885(6) 0.6235(6)
H2F H -0.057523 0.304811 0.633834
C3F C -0.0195(6) 0.2684(6) 0.6445(5)
H3F H -0.020452 0.270582 0.669572
C4F C 0.0045(5) 0.2441(5) 0.6284(4)
C5F C 0.0285(6) 0.2223(6) 0.6475(5)
H4F H 0.029190 0.223648 0.672642
C6F C 0.0503(6) 0.1994(6) 0.6304(5)
H5F H 0.066528 0.185564 0.643844
C7F C 0.0498(5) 0.1955(5) 0.5930(4)
C8F C 0.0707(7) 0.1706(6) 0.5740(5)
H6F H 0.086983 0.155667 0.586207
C9F C 0.0671(7) 0.1683(6) 0.5380(5)
H7F H 0.080716 0.151573 0.524903
C10F C 0.0435(5) 0.1907(5) 0.5206(4)
C11F C 0.0264(5) 0.2168(5) 0.5731(4)
C12F C 0.0036(5) 0.2421(4) 0.5910(4)
C13F C 0.0403(7) 0.1919(7) 0.4816(4)
H8F H 0.054358 0.176394 0.467526
C14F C 0.0180(6) 0.2172(5) 0.4291(4)
C15F C -0.0146(5) 0.2228(6) 0.4129(5)
H9F H -0.035748 0.222649 0.426554
C16F C -0.0161(5) 0.2287(6) 0.3766(5)
H10F H -0.038326 0.232849 0.365434
C17F C 0.0147(5) 0.2284(4) 0.3566(4)
C18F C 0.0475(5) 0.2223(5) 0.3728(4)
H11F H 0.068654 0.222001 0.359084
C19F C 0.0490(5) 0.2169(5) 0.4091(5)
H12F H 0.071189 0.212863 0.420351
C20F C 0.0131(5) 0.2355(4) 0.3174(4)
O3F O -0.0160(4) 0.3011(4) 0.2593(4)
O4F O 0.0438(4) 0.3026(4) 0.2599(4)
N4F N -0.0056(5) 0.5739(4) 0.2436(5)
N5F N 0.0213(5) 0.5358(4) 0.2987(4)
N6F N 0.0147(6) 0.4653(4) 0.2942(5)
C21F C -0.0178(6) 0.5924(6) 0.2165(5)
H13F H -0.028558 0.579744 0.197510
C22F C -0.0160(7) 0.6289(6) 0.2138(6)
H14F H -0.025172 0.640640 0.193497
C23F C -0.0009(6) 0.6479(5) 0.2408(6)
H15F H 0.000384 0.673015 0.239668
C24F C 0.0129(5) 0.6292(4) 0.2707(5)
C25F C 0.0306(6) 0.6461(5) 0.2992(6)
H16F H 0.032335 0.671267 0.299435
C26F C 0.0452(6) 0.6272(5) 0.3260(6)
H17F H 0.057069 0.639316 0.344621
C27F C 0.0431(5) 0.5895(4) 0.3270(4)
C28F C 0.0580(6) 0.5682(5) 0.3540(5)
H18F H 0.070234 0.578906 0.373240
C29F C 0.0547(6) 0.5320(5) 0.3522(5)
H19F H 0.065209 0.517477 0.369939
C30F C 0.0361(5) 0.5167(4) 0.3244(4)
C31F C 0.0251(4) 0.5716(4) 0.2995(4)
C32F C 0.0098(5) 0.5919(4) 0.2706(4)
C33F C 0.0318(6) 0.4780(4) 0.3209(6)
H20F H 0.041596 0.462501 0.338222
C34F C 0.0131(6) 0.4281(4) 0.2877(5)
C35F C -0.0188(5) 0.4099(5) 0.2829(5)
H21F H -0.040650 0.422237 0.284991
C36F C -0.0188(5) 0.3740(5) 0.2750(6)
H22F H -0.040607 0.361823 0.271696
C37F C 0.0132(5) 0.3557(4) 0.2720(4)
C38F C 0.0450(5) 0.3739(4) 0.2767(5)
H23F H 0.066930 0.361620 0.274468
C39F C 0.0449(5) 0.4098(5) 0.2845(6)
H24F H 0.066777 0.421945 0.287725
C40F C 0.0135(5) 0.3165(4) 0.2635(4)
N7F N -0.0754(11) 0.250000 0.250000
C41F C -0.1065(12) 0.250000 0.250000
C42F C -0.1429(12) 0.236(2) 0.245(3)
N8F N 0.1021(10) 0.250000 0.250000
C43F C 0.1326(11) 0.250000 0.250000
C44F C 0.1714(10) 0.250000 0.250000
C42G C -0.1429(12) 0.264(2) 0.255(3)
Cd1G Cd -0.01058(6) 0.24736(6) -0.00787(6)
O1G O -0.0164(4) 0.2596(4) 0.1963(4)
O2G O 0.0427(4) 0.2613(4) 0.1979(4)
N1G N -0.0181(5) 0.2377(5) -0.0707(4)
N2G N 0.0235(5) 0.2856(5) -0.0373(4)
N3G N 0.0190(6) 0.2865(6) 0.0335(4)
C1G C -0.0394(6) 0.2152(5) -0.0873(6)
H1G H -0.054277 0.200559 -0.073156
C2G C -0.0413(6) 0.2115(6) -0.1235(6)
H2G H -0.057523 0.195189 -0.133834
C3G C -0.0195(6) 0.2316(6) -0.1445(5)
H3G H -0.020452 0.229418 -0.169572
C4G C 0.0045(5) 0.2559(5) -0.1284(4)
C5G C 0.0285(6) 0.2777(6) -0.1475(5)
H4G H 0.029190 0.276352 -0.172642
C6G C 0.0503(6) 0.3006(6) -0.1304(5)
H5G H 0.066528 0.314436 -0.143844
C7G C 0.0498(5) 0.3045(5) -0.0930(4)
C8G C 0.0707(7) 0.3294(6) -0.0740(5)
H6G H 0.086983 0.344333 -0.086207
C9G C 0.0671(7) 0.3317(6) -0.0380(5)
H7G H 0.080716 0.348427 -0.024903
C10G C 0.0435(5) 0.3093(5) -0.0206(4)
C11G C 0.0264(5) 0.2832(5) -0.0731(4)
C12G C 0.0036(5) 0.2579(4) -0.0910(4)
C13G C 0.0403(7) 0.3081(7) 0.0184(4)
H8G H 0.054358 0.323606 0.032474
C14G C 0.0180(6) 0.2828(5) 0.0709(4)
C15G C -0.0146(5) 0.2772(6) 0.0871(5)
H9G H -0.035748 0.277351 0.073446
C16G C -0.0161(5) 0.2713(6) 0.1234(5)
H10G H -0.038326 0.267151 0.134566
C17G C 0.0147(5) 0.2716(4) 0.1434(4)
C18G C 0.0475(5) 0.2777(5) 0.1272(4)
H11G H 0.068654 0.277999 0.140916
C19G C 0.0490(5) 0.2831(5) 0.0909(5)
H12G H 0.071189 0.287137 0.079649
C20G C 0.0131(5) 0.2645(4) 0.1826(4)
O3G O -0.0160(4) 0.1989(4) 0.2407(4)
O4G O 0.0438(4) 0.1974(4) 0.2401(4)
N4G N -0.0056(5) -0.0739(4) 0.2564(5)
N5G N 0.0213(5) -0.0358(4) 0.2013(4)
N6G N 0.0147(6) 0.0347(4) 0.2058(5)
C21G C -0.0178(6) -0.0924(6) 0.2835(5)
H13G H -0.028558 -0.079744 0.302490
C22G C -0.0160(7) -0.1289(6) 0.2862(6)
H14G H -0.025172 -0.140640 0.306503
C23G C -0.0009(6) -0.1479(5) 0.2592(6)
H15G H 0.000384 -0.173015 0.260332
C24G C 0.0129(5) -0.1292(4) 0.2293(5)
C25G C 0.0306(6) -0.1461(5) 0.2008(6)
H16G H 0.032335 -0.171267 0.200565
C26G C 0.0452(6) -0.1272(5) 0.1740(6)
H17G H 0.057069 -0.139316 0.155379
C27G C 0.0431(5) -0.0895(4) 0.1730(4)
C28G C 0.0580(6) -0.0682(5) 0.1460(5)
H18G H 0.070234 -0.078906 0.126760
C29G C 0.0547(6) -0.0320(5) 0.1478(5)
H19G H 0.065209 -0.017477 0.130061
C30G C 0.0361(5) -0.0167(4) 0.1756(4)
C31G C 0.0251(4) -0.0716(4) 0.2005(4)
C32G C 0.0098(5) -0.0919(4) 0.2294(4)
C33G C 0.0318(6) 0.0220(4) 0.1791(6)
H20G H 0.041596 0.037499 0.161778
C34G C 0.0131(6) 0.0719(4) 0.2123(5)
C35G C -0.0188(5) 0.0901(5) 0.2171(5)
H21G H -0.040650 0.077763 0.215009
C36G C -0.0188(5) 0.1260(5) 0.2250(6)
H22G H -0.040607 0.138177 0.228304
C37G C 0.0132(5) 0.1443(4) 0.2280(4)
C38G C 0.0450(5) 0.1261(4) 0.2233(5)
H23G H 0.066930 0.138380 0.225532
C39G C 0.0449(5) 0.0902(5) 0.2155(6)
H24G H 0.066777 0.078055 0.212275
C40G C 0.0135(5) 0.1835(4) 0.2365(4)
Cd1I Cd 0.25264(6) -0.00787(6) 0.51058(6)
O1I O 0.2404(4) 0.1963(4) 0.5164(4)
O2I O 0.2387(4) 0.1979(4) 0.4573(4)
N1I N 0.2623(5) -0.0707(4) 0.5181(5)
N2I N 0.2144(5) -0.0373(4) 0.4765(5)
N3I N 0.2135(6) 0.0335(4) 0.4810(6)
C1I C 0.2848(5) -0.0873(6) 0.5394(6)
H1I H 0.299441 -0.073156 0.554277
C2I C 0.2885(6) -0.1235(6) 0.5413(6)
H2I H 0.304811 -0.133834 0.557523
C3I C 0.2684(6) -0.1445(5) 0.5195(6)
H3I H 0.270582 -0.169572 0.520452
C4I C 0.2441(5) -0.1284(4) 0.4955(5)
C5I C 0.2223(6) -0.1475(5) 0.4715(6)
H4I H 0.223648 -0.172642 0.470810
C6I C 0.1994(6) -0.1304(5) 0.4497(6)
H5I H 0.185564 -0.143844 0.433472
C7I C 0.1955(5) -0.0930(4) 0.4502(5)
C8I C 0.1706(6) -0.0740(5) 0.4293(7)
H6I H 0.155667 -0.086207 0.413017
C9I C 0.1683(6) -0.0380(5) 0.4329(7)
H7I H 0.151573 -0.024903 0.419284
C10I C 0.1907(5) -0.0206(4) 0.4565(5)
C11I C 0.2168(5) -0.0731(4) 0.4736(5)
C12I C 0.2421(4) -0.0910(4) 0.4964(5)
C13I C 0.1919(7) 0.0184(4) 0.4597(7)
H8I H 0.176394 0.032474 0.445642
C14I C 0.2172(5) 0.0709(4) 0.4820(6)
C15I C 0.2228(6) 0.0871(5) 0.5146(5)
H9I H 0.222649 0.073446 0.535748
C16I C 0.2287(6) 0.1234(5) 0.5161(5)
H10I H 0.232849 0.134566 0.538326
C17I C 0.2284(4) 0.1434(4) 0.4853(5)
C18I C 0.2223(5) 0.1272(4) 0.4525(5)
H11I H 0.222001 0.140916 0.431346
C19I C 0.2169(5) 0.0909(5) 0.4510(5)
H12I H 0.212863 0.079649 0.428811
C20I C 0.2355(4) 0.1826(4) 0.4869(5)
O3I O 0.3011(4) 0.2407(4) 0.5160(4)
O4I O 0.3026(4) 0.2401(4) 0.4562(4)
N4I N 0.5739(4) 0.2564(5) 0.5056(5)
N5I N 0.5358(4) 0.2013(4) 0.4787(5)
N6I N 0.4653(4) 0.2058(5) 0.4853(6)
C21I C 0.5924(6) 0.2835(5) 0.5178(6)
H13I H 0.579744 0.302490 0.528558
C22I C 0.6289(6) 0.2862(6) 0.5160(7)
H14I H 0.640640 0.306503 0.525172
C23I C 0.6479(5) 0.2592(6) 0.5009(6)
H15I H 0.673015 0.260332 0.499616
C24I C 0.6292(4) 0.2293(5) 0.4871(5)
C25I C 0.6461(5) 0.2008(6) 0.4694(6)
H16I H 0.671267 0.200565 0.467665
C26I C 0.6272(5) 0.1740(6) 0.4548(6)
H17I H 0.639316 0.155379 0.442931
C27I C 0.5895(4) 0.1730(4) 0.4569(5)
C28I C 0.5682(5) 0.1460(5) 0.4420(6)
H18I H 0.578906 0.126760 0.429766
C29I C 0.5320(5) 0.1478(5) 0.4453(6)
H19I H 0.517477 0.130061 0.434791
C30I C 0.5167(4) 0.1756(4) 0.4639(5)
C31I C 0.5716(4) 0.2005(4) 0.4749(4)
C32I C 0.5919(4) 0.2294(4) 0.4902(5)
C33I C 0.4780(4) 0.1791(6) 0.4682(6)
H20I H 0.462501 0.161778 0.458404
C34I C 0.4281(4) 0.2123(5) 0.4869(6)
C35I C 0.4099(5) 0.2171(5) 0.5188(5)
H21I H 0.422237 0.215009 0.540650
C36I C 0.3740(5) 0.2250(6) 0.5188(5)
H22I H 0.361823 0.228304 0.540607
C37I C 0.3557(4) 0.2280(4) 0.4868(5)
C38I C 0.3739(4) 0.2233(5) 0.4550(5)
H23I H 0.361620 0.225532 0.433070
C39I C 0.4098(5) 0.2155(6) 0.4551(5)
H24I H 0.421945 0.212275 0.433223
C40I C 0.3165(4) 0.2365(4) 0.4865(5)
Rh1A Rh 0.45553(9) 0.250000 0.250000
Rh2A Rh 0.51864(9) 0.250000 0.250000
Cd1A Cd 0.51058(6) 0.24736(6) 0.50787(6)
O1A O 0.5164(4) 0.2596(4) 0.3037(4)
O2A O 0.4573(4) 0.2613(4) 0.3021(4)
N1A N 0.5181(5) 0.2377(5) 0.5707(4)
N2A N 0.4765(5) 0.2856(5) 0.5373(4)
N3A N 0.4810(6) 0.2865(6) 0.4665(4)
C1A C 0.5394(6) 0.2152(5) 0.5873(6)
H1A H 0.554277 0.200559 0.573156
C2A C 0.5413(6) 0.2115(6) 0.6235(6)
H2A H 0.557523 0.195189 0.633834
C3A C 0.5195(6) 0.2316(6) 0.6445(5)
H3A H 0.520452 0.229418 0.669572
C4A C 0.4955(5) 0.2559(5) 0.6284(4)
C5A C 0.4715(6) 0.2777(6) 0.6475(5)
H4A H 0.470810 0.276352 0.672642
C6A C 0.4497(6) 0.3006(6) 0.6304(5)
H5A H 0.433472 0.314436 0.643844
C7A C 0.4502(5) 0.3045(5) 0.5930(4)
C8A C 0.4293(7) 0.3294(6) 0.5740(5)
H6A H 0.413017 0.344333 0.586207
C9A C 0.4329(7) 0.3317(6) 0.5380(5)
H7A H 0.419284 0.348427 0.524903
C10A C 0.4565(5) 0.3093(5) 0.5206(4)
C11A C 0.4736(5) 0.2832(5) 0.5731(4)
C12A C 0.4964(5) 0.2579(4) 0.5910(4)
C13A C 0.4597(7) 0.3081(7) 0.4816(4)
H8A H 0.445642 0.323606 0.467526
C14A C 0.4820(6) 0.2828(5) 0.4291(4)
C15A C 0.5146(5) 0.2772(6) 0.4129(5)
H9A H 0.535748 0.277351 0.426554
C16A C 0.5161(5) 0.2713(6) 0.3766(5)
H10A H 0.538326 0.267151 0.365434
C17A C 0.4853(5) 0.2716(4) 0.3566(4)
C18A C 0.4525(5) 0.2777(5) 0.3728(4)
H11A H 0.431346 0.277999 0.359084
C19A C 0.4510(5) 0.2831(5) 0.4091(5)
H12A H 0.428811 0.287137 0.420351
C20A C 0.4869(5) 0.2645(4) 0.3174(4)
O3A O 0.5160(4) 0.1989(4) 0.2593(4)
O4A O 0.4562(4) 0.1974(4) 0.2599(4)
N4A N 0.5056(5) -0.0739(4) 0.2436(5)
N5A N 0.4787(5) -0.0358(4) 0.2987(4)
N6A N 0.4853(6) 0.0347(4) 0.2942(5)
C21A C 0.5178(6) -0.0924(6) 0.2165(5)
H13A H 0.528558 -0.079744 0.197510
C22A C 0.5160(7) -0.1289(6) 0.2138(6)
H14A H 0.525172 -0.140640 0.193497
C23A C 0.5009(6) -0.1479(5) 0.2408(6)
H15A H 0.499616 -0.173015 0.239668
C24A C 0.4871(5) -0.1292(4) 0.2707(5)
C25A C 0.4694(6) -0.1461(5) 0.2992(6)
H16A H 0.467665 -0.171267 0.299435
C26A C 0.4548(6) -0.1272(5) 0.3260(6)
H17A H 0.442931 -0.139316 0.344621
C27A C 0.4569(5) -0.0895(4) 0.3270(4)
C28A C 0.4420(6) -0.0682(5) 0.3540(5)
H18A H 0.429766 -0.078906 0.373240
C29A C 0.4453(6) -0.0320(5) 0.3522(5)
H19A H 0.434791 -0.017477 0.369939
C30A C 0.4639(5) -0.0167(4) 0.3244(4)
C31A C 0.4749(4) -0.0716(4) 0.2995(4)
C32A C 0.4902(5) -0.0919(4) 0.2706(4)
C33A C 0.4682(6) 0.0220(4) 0.3209(6)
H20A H 0.458404 0.037499 0.338222
C34A C 0.4869(6) 0.0719(4) 0.2877(5)
C35A C 0.5188(5) 0.0901(5) 0.2829(5)
H21A H 0.540650 0.077763 0.284991
C36A C 0.5188(5) 0.1260(5) 0.2750(6)
H22A H 0.540607 0.138177 0.271696
C37A C 0.4868(5) 0.1443(4) 0.2720(4)
C38A C 0.4550(5) 0.1261(4) 0.2767(5)
H23A H 0.433070 0.138380 0.274468
C39A C 0.4551(5) 0.0902(5) 0.2845(6)
H24A H 0.433223 0.078055 0.287725
C40A C 0.4865(5) 0.1835(4) 0.2635(4)
N7A N 0.5754(11) 0.250000 0.250000
C41A C 0.6065(12) 0.250000 0.250000
C42A C 0.6429(12) 0.264(2) 0.245(3)
N8A N 0.3979(10) 0.250000 0.250000
C43A C 0.3674(11) 0.250000 0.250000
C44A C 0.3286(10) 0.250000 0.250000
C42D C 0.6429(12) 0.236(2) 0.255(3)
Cd1B Cd 0.50787(6) 0.51058(6) 0.24736(6)
O1B O 0.3037(4) 0.5164(4) 0.2596(4)
O2B O 0.3021(4) 0.4573(4) 0.2613(4)
N1B N 0.5707(4) 0.5181(5) 0.2377(5)
N2B N 0.5373(4) 0.4765(5) 0.2856(5)
N3B N 0.4665(4) 0.4810(6) 0.2865(6)
C1B C 0.5873(6) 0.5394(6) 0.2152(5)
H1B H 0.573156 0.554277 0.200559
C2B C 0.6235(6) 0.5413(6) 0.2115(6)
H2B H 0.633834 0.557523 0.195189
C3B C 0.6445(5) 0.5195(6) 0.2316(6)
H3B H 0.669572 0.520452 0.229418
C4B C 0.6284(4) 0.4955(5) 0.2559(5)
C5B C 0.6475(5) 0.4715(6) 0.2777(6)
H4B H 0.672642 0.470810 0.276352
C6B C 0.6304(5) 0.4497(6) 0.3006(6)
H5B H 0.643844 0.433472 0.314436
C7B C 0.5930(4) 0.4502(5) 0.3045(5)
C8B C 0.5740(5) 0.4293(7) 0.3294(6)
H6B H 0.586207 0.413017 0.344333
C9B C 0.5380(5) 0.4329(7) 0.3317(6)
H7B H 0.524903 0.419284 0.348427
C10B C 0.5206(4) 0.4565(5) 0.3093(5)
C11B C 0.5731(4) 0.4736(5) 0.2832(5)
C12B C 0.5910(4) 0.4964(5) 0.2579(4)
C13B C 0.4816(4) 0.4597(7) 0.3081(7)
H8B H 0.467526 0.445642 0.323606
C14B C 0.4291(4) 0.4820(6) 0.2828(5)
C15B C 0.4129(5) 0.5146(5) 0.2772(6)
H9B H 0.426554 0.535748 0.277351
C16B C 0.3766(5) 0.5161(5) 0.2713(6)
H10B H 0.365434 0.538326 0.267151
C17B C 0.3566(4) 0.4853(5) 0.2716(4)
C18B C 0.3728(4) 0.4525(5) 0.2777(5)
H11B H 0.359084 0.431346 0.277999
C19B C 0.4091(5) 0.4510(5) 0.2831(5)
H12B H 0.420351 0.428811 0.287137
C20B C 0.3174(4) 0.4869(5) 0.2645(4)
O3B O 0.2593(4) 0.5160(4) 0.1989(4)
O4B O 0.2599(4) 0.4562(4) 0.1974(4)
N4B N 0.2436(5) 0.5056(5) -0.0739(4)
N5B N 0.2987(4) 0.4787(5) -0.0358(4)
N6B N 0.2942(5) 0.4853(6) 0.0347(4)
C21B C 0.2165(5) 0.5178(6) -0.0924(6)
H13B H 0.197510 0.528558 -0.079744
C22B C 0.2138(6) 0.5160(7) -0.1289(6)
H14B H 0.193497 0.525172 -0.140640
C23B C 0.2408(6) 0.5009(6) -0.1479(5)
H15B H 0.239668 0.499616 -0.173015
C24B C 0.2707(5) 0.4871(5) -0.1292(4)
C25B C 0.2992(6) 0.4694(6) -0.1461(5)
H16B H 0.299435 0.467665 -0.171267
C26B C 0.3260(6) 0.4548(6) -0.1272(5)
H17B H 0.344621 0.442931 -0.139316
C27B C 0.3270(4) 0.4569(5) -0.0895(4)
C28B C 0.3540(5) 0.4420(6) -0.0682(5)
H18B H 0.373240 0.429766 -0.078906
C29B C 0.3522(5) 0.4453(6) -0.0320(5)
H19B H 0.369939 0.434791 -0.017477
C30B C 0.3244(4) 0.4639(5) -0.0167(4)
C31B C 0.2995(4) 0.4749(4) -0.0716(4)
C32B C 0.2706(4) 0.4902(5) -0.0919(4)
C33B C 0.3209(6) 0.4682(6) 0.0220(4)
H20B H 0.338222 0.458404 0.037499
C34B C 0.2877(5) 0.4869(6) 0.0719(4)
C35B C 0.2829(5) 0.5188(5) 0.0901(5)
H21B H 0.284991 0.540650 0.077763
C36B C 0.2750(6) 0.5188(5) 0.1260(5)
H22B H 0.271696 0.540607 0.138177
C37B C 0.2720(4) 0.4868(5) 0.1443(4)
C38B C 0.2767(5) 0.4550(5) 0.1261(4)
H23B H 0.274468 0.433070 0.138380
C39B C 0.2845(6) 0.4551(5) 0.0902(5)
H24B H 0.287725 0.433223 0.078055
C40B C 0.2635(4) 0.4865(5) 0.1835(4)
Rh1C Rh 0.250000 0.04447(9) 0.250000
Rh2C Rh 0.250000 -0.01864(9) 0.250000
Cd1C Cd -0.00787(6) -0.01058(6) 0.24736(6)
O1C O 0.1963(4) -0.0164(4) 0.2596(4)
O2C O 0.1979(4) 0.0427(4) 0.2613(4)
N1C N -0.0707(4) -0.0181(5) 0.2377(5)
N2C N -0.0373(4) 0.0235(5) 0.2856(5)
N3C N 0.0335(4) 0.0190(6) 0.2865(6)
C1C C -0.0873(6) -0.0394(6) 0.2152(5)
H1C H -0.073156 -0.054277 0.200559
C2C C -0.1235(6) -0.0413(6) 0.2115(6)
H2C H -0.133834 -0.057523 0.195189
C3C C -0.1445(5) -0.0195(6) 0.2316(6)
H3C H -0.169572 -0.020452 0.229418
C4C C -0.1284(4) 0.0045(5) 0.2559(5)
C5C C -0.1475(5) 0.0285(6) 0.2777(6)
H4C H -0.172642 0.029190 0.276352
C6C C -0.1304(5) 0.0503(6) 0.3006(6)
H5C H -0.143844 0.066528 0.314436
C7C C -0.0930(4) 0.0498(5) 0.3045(5)
C8C C -0.0740(5) 0.0707(7) 0.3294(6)
H6C H -0.086207 0.086983 0.344333
C9C C -0.0380(5) 0.0671(7) 0.3317(6)
H7C H -0.024903 0.080716 0.348427
C10C C -0.0206(4) 0.0435(5) 0.3093(5)
C11C C -0.0731(4) 0.0264(5) 0.2832(5)
C12C C -0.0910(4) 0.0036(5) 0.2579(4)
C13C C 0.0184(4) 0.0403(7) 0.3081(7)
H8C H 0.032474 0.054358 0.323606
C14C C 0.0709(4) 0.0180(6) 0.2828(5)
C15C C 0.0871(5) -0.0146(5) 0.2772(6)
H9C H 0.073446 -0.035748 0.277351
C16C C 0.1234(5) -0.0161(5) 0.2713(6)
H10C H 0.134566 -0.038326 0.267151
C17C C 0.1434(4) 0.0147(5) 0.2716(4)
C18C C 0.1272(4) 0.0475(5) 0.2777(5)
H11C H 0.140916 0.068654 0.277999
C19C C 0.0909(5) 0.0490(5) 0.2831(5)
H12C H 0.079649 0.071189 0.287137
C20C C 0.1826(4) 0.0131(5) 0.2645(4)
O3C O 0.2407(4) -0.0160(4) 0.1989(4)
O4C O 0.2401(4) 0.0438(4) 0.1974(4)
N4C N 0.2564(5) -0.0056(5) -0.0739(4)
N5C N 0.2013(4) 0.0213(5) -0.0358(4)
N6C N 0.2058(5) 0.0147(6) 0.0347(4)
C21C C 0.2835(5) -0.0178(6) -0.0924(6)
H13C H 0.302490 -0.028558 -0.079744
C22C C 0.2862(6) -0.0160(7) -0.1289(6)
H14C H 0.306503 -0.025172 -0.140640
C23C C 0.2592(6) -0.0009(6) -0.1479(5)
H15C H 0.260332 0.000384 -0.173015
C24C C 0.2293(5) 0.0129(5) -0.1292(4)
C25C C 0.2008(6) 0.0306(6) -0.1461(5)
H16C H 0.200565 0.032335 -0.171267
C26C C 0.1740(6) 0.0452(6) -0.1272(5)
H17C H 0.155379 0.057069 -0.139316
C27C C 0.1730(4) 0.0431(5) -0.0895(4)
C28C C 0.1460(5) 0.0580(6) -0.0682(5)
H18C H 0.126760 0.070234 -0.078906
C29C C 0.1478(5) 0.0547(6) -0.0320(5)
H19C H 0.130061 0.065209 -0.017477
C30C C 0.1756(4) 0.0361(5) -0.0167(4)
C31C C 0.2005(4) 0.0251(4) -0.0716(4)
C32C C 0.2294(4) 0.0098(5) -0.0919(4)
C33C C 0.1791(6) 0.0318(6) 0.0220(4)
H20C H 0.161778 0.041596 0.037499
C34C C 0.2123(5) 0.0131(6) 0.0719(4)
C35C C 0.2171(5) -0.0188(5) 0.0901(5)
H21C H 0.215009 -0.040650 0.077763
C36C C 0.2250(6) -0.0188(5) 0.1260(5)
H22C H 0.228304 -0.040607 0.138177
C37C C 0.2280(4) 0.0132(5) 0.1443(4)
C38C C 0.2233(5) 0.0450(5) 0.1261(4)
H23C H 0.225532 0.066930 0.138380
C39C C 0.2155(6) 0.0449(5) 0.0902(5)
H24C H 0.212275 0.066777 0.078055
C40C C 0.2365(4) 0.0135(5) 0.1835(4)
N7C N 0.250000 -0.0754(11) 0.250000
C41C C 0.250000 -0.1065(12) 0.250000
C42C C 0.255(3) -0.1429(12) 0.264(2)
N8C N 0.250000 0.1021(10) 0.250000
C43C C 0.250000 0.1326(11) 0.250000
C44C C 0.250000 0.1714(10) 0.250000
C42H C 0.245(3) -0.1429(12) 0.236(2)
Cd1D Cd 0.51058(6) 0.25264(6) -0.00787(6)
O1D O 0.5164(4) 0.2404(4) 0.1963(4)
O2D O 0.4573(4) 0.2387(4) 0.1979(4)
N1D N 0.5181(5) 0.2623(5) -0.0707(4)
N2D N 0.4765(5) 0.2144(5) -0.0373(4)
N3D N 0.4810(6) 0.2135(6) 0.0335(4)
C1D C 0.5394(6) 0.2848(5) -0.0873(6)
H1D H 0.554277 0.299441 -0.073156
C2D C 0.5413(6) 0.2885(6) -0.1235(6)
H2D H 0.557523 0.304811 -0.133834
C3D C 0.5195(6) 0.2684(6) -0.1445(5)
H3D H 0.520452 0.270582 -0.169572
C4D C 0.4955(5) 0.2441(5) -0.1284(4)
C5D C 0.4715(6) 0.2223(6) -0.1475(5)
H4D H 0.470810 0.223648 -0.172642
C6D C 0.4497(6) 0.1994(6) -0.1304(5)
H5D H 0.433472 0.185564 -0.143844
C7D C 0.4502(5) 0.1955(5) -0.0930(4)
C8D C 0.4293(7) 0.1706(6) -0.0740(5)
H6D H 0.413017 0.155667 -0.086207
C9D C 0.4329(7) 0.1683(6) -0.0380(5)
H7D H 0.419284 0.151573 -0.024903
C10D C 0.4565(5) 0.1907(5) -0.0206(4)
C11D C 0.4736(5) 0.2168(5) -0.0731(4)
C12D C 0.4964(5) 0.2421(4) -0.0910(4)
C13D C 0.4597(7) 0.1919(7) 0.0184(4)
H8D H 0.445642 0.176394 0.032474
C14D C 0.4820(6) 0.2172(5) 0.0709(4)
C15D C 0.5146(5) 0.2228(6) 0.0871(5)
H9D H 0.535748 0.222649 0.073446
C16D C 0.5161(5) 0.2287(6) 0.1234(5)
H10D H 0.538326 0.232849 0.134566
C17D C 0.4853(5) 0.2284(4) 0.1434(4)
C18D C 0.4525(5) 0.2223(5) 0.1272(4)
H11D H 0.431346 0.222001 0.140916
C19D C 0.4510(5) 0.2169(5) 0.0909(5)
H12D H 0.428811 0.212863 0.079649
C20D C 0.4869(5) 0.2355(4) 0.1826(4)
O3D O 0.5160(4) 0.3011(4) 0.2407(4)
O4D O 0.4562(4) 0.3026(4) 0.2401(4)
N4D N 0.5056(5) 0.5739(4) 0.2564(5)
N5D N 0.4787(5) 0.5358(4) 0.2013(4)
N6D N 0.4853(6) 0.4653(4) 0.2058(5)
C21D C 0.5178(6) 0.5924(6) 0.2835(5)
H13D H 0.528558 0.579744 0.302490
C22D C 0.5160(7) 0.6289(6) 0.2862(6)
H14D H 0.525172 0.640640 0.306503
C23D C 0.5009(6) 0.6479(5) 0.2592(6)
H15D H 0.499616 0.673015 0.260332
C24D C 0.4871(5) 0.6292(4) 0.2293(5)
C25D C 0.4694(6) 0.6461(5) 0.2008(6)
H16D H 0.467665 0.671267 0.200565
C26D C 0.4548(6) 0.6272(5) 0.1740(6)
H17D H 0.442931 0.639316 0.155379
C27D C 0.4569(5) 0.5895(4) 0.1730(4)
C28D C 0.4420(6) 0.5682(5) 0.1460(5)
H18D H 0.429766 0.578906 0.126760
C29D C 0.4453(6) 0.5320(5) 0.1478(5)
H19D H 0.434791 0.517477 0.130061
C30D C 0.4639(5) 0.5167(4) 0.1756(4)
C31D C 0.4749(4) 0.5716(4) 0.2005(4)
C32D C 0.4902(5) 0.5919(4) 0.2294(4)
C33D C 0.4682(6) 0.4780(4) 0.1791(6)
H20D H 0.458404 0.462501 0.161778
C34D C 0.4869(6) 0.4281(4) 0.2123(5)
C35D C 0.5188(5) 0.4099(5) 0.2171(5)
H21D H 0.540650 0.422237 0.215009
C36D C 0.5188(5) 0.3740(5) 0.2250(6)
H22D H 0.540607 0.361823 0.228304
C37D C 0.4868(5) 0.3557(4) 0.2280(4)
C38D C 0.4550(5) 0.3739(4) 0.2233(5)
H23D H 0.433070 0.361620 0.225532
C39D C 0.4551(5) 0.4098(5) 0.2155(6)
H24D H 0.433223 0.421945 0.212275
C40D C 0.4865(5) 0.3165(4) 0.2365(4)
Cd1H Cd 0.50787(6) -0.01058(6) 0.25264(6)
O1H O 0.3037(4) -0.0164(4) 0.2404(4)
O2H O 0.3021(4) 0.0427(4) 0.2387(4)
N1H N 0.5707(4) -0.0181(5) 0.2623(5)
N2H N 0.5373(4) 0.0235(5) 0.2144(5)
N3H N 0.4665(4) 0.0190(6) 0.2135(6)
C1H C 0.5873(6) -0.0394(6) 0.2848(5)
H1H H 0.573156 -0.054277 0.299441
C2H C 0.6235(6) -0.0413(6) 0.2885(6)
H2H H 0.633834 -0.057523 0.304811
C3H C 0.6445(5) -0.0195(6) 0.2684(6)
H3H H 0.669572 -0.020452 0.270582
C4H C 0.6284(4) 0.0045(5) 0.2441(5)
C5H C 0.6475(5) 0.0285(6) 0.2223(6)
H4H H 0.672642 0.029190 0.223648
C6H C 0.6304(5) 0.0503(6) 0.1994(6)
H5H H 0.643844 0.066528 0.185564
C7H C 0.5930(4) 0.0498(5) 0.1955(5)
C8H C 0.5740(5) 0.0707(7) 0.1706(6)
H6H H 0.586207 0.086983 0.155667
C9H C 0.5380(5) 0.0671(7) 0.1683(6)
H7H H 0.524903 0.080716 0.151573
C10H C 0.5206(4) 0.0435(5) 0.1907(5)
C11H C 0.5731(4) 0.0264(5) 0.2168(5)
C12H C 0.5910(4) 0.0036(5) 0.2421(4)
C13H C 0.4816(4) 0.0403(7) 0.1919(7)
H8H H 0.467526 0.054358 0.176394
C14H C 0.4291(4) 0.0180(6) 0.2172(5)
C15H C 0.4129(5) -0.0146(5) 0.2228(6)
H9H H 0.426554 -0.035748 0.222649
C16H C 0.3766(5) -0.0161(5) 0.2287(6)
H10H H 0.365434 -0.038326 0.232849
C17H C 0.3566(4) 0.0147(5) 0.2284(4)
C18H C 0.3728(4) 0.0475(5) 0.2223(5)
H11H H 0.359084 0.068654 0.222001
C19H C 0.4091(5) 0.0490(5) 0.2169(5)
H12H H 0.420351 0.071189 0.212863
C20H C 0.3174(4) 0.0131(5) 0.2355(4)
O3H O 0.2593(4) -0.0160(4) 0.3011(4)
O4H O 0.2599(4) 0.0438(4) 0.3026(4)
N4H N 0.2436(5) -0.0056(5) 0.5739(4)
N5H N 0.2987(4) 0.0213(5) 0.5358(4)
N6H N 0.2942(5) 0.0147(6) 0.4653(4)
C21H C 0.2165(5) -0.0178(6) 0.5924(6)
H13H H 0.197510 -0.028558 0.579744
C22H C 0.2138(6) -0.0160(7) 0.6289(6)
H14H H 0.193497 -0.025172 0.640640
C23H C 0.2408(6) -0.0009(6) 0.6479(5)
H15H H 0.239668 0.000384 0.673015
C24H C 0.2707(5) 0.0129(5) 0.6292(4)
C25H C 0.2992(6) 0.0306(6) 0.6461(5)
H16H H 0.299435 0.032335 0.671267
C26H C 0.3260(6) 0.0452(6) 0.6272(5)
H17H H 0.344621 0.057069 0.639316
C27H C 0.3270(4) 0.0431(5) 0.5895(4)
C28H C 0.3540(5) 0.0580(6) 0.5682(5)
H18H H 0.373240 0.070234 0.578906
C29H C 0.3522(5) 0.0547(6) 0.5320(5)
H19H H 0.369939 0.065209 0.517477
C30H C 0.3244(4) 0.0361(5) 0.5167(4)
C31H C 0.2995(4) 0.0251(4) 0.5716(4)
C32H C 0.2706(4) 0.0098(5) 0.5919(4)
C33H C 0.3209(6) 0.0318(6) 0.4780(4)
H20H H 0.338222 0.041596 0.462501
C34H C 0.2877(5) 0.0131(6) 0.4281(4)
C35H C 0.2829(5) -0.0188(5) 0.4099(5)
H21H H 0.284991 -0.040650 0.422237
C36H C 0.2750(6) -0.0188(5) 0.3740(5)
H22H H 0.271696 -0.040607 0.361823
C37H C 0.2720(4) 0.0132(5) 0.3557(4)
C38H C 0.2767(5) 0.0450(5) 0.3739(4)
H23H H 0.274468 0.066930 0.361620
C39H C 0.2845(6) 0.0449(5) 0.4098(5)
H24H H 0.287725 0.066777 0.421945
C40H C 0.2635(4) 0.0135(5) 0.3165(4)
Rh1J Rh 0.250000 0.250000 0.04447(9)
Rh2J Rh 0.250000 0.250000 -0.01864(9)
Cd1J Cd 0.24736(6) -0.00787(6) -0.01058(6)
O1J O 0.2596(4) 0.1963(4) -0.0164(4)
O2J O 0.2613(4) 0.1979(4) 0.0427(4)
N1J N 0.2377(5) -0.0707(4) -0.0181(5)
N2J N 0.2856(5) -0.0373(4) 0.0235(5)
N3J N 0.2865(6) 0.0335(4) 0.0190(6)
C1J C 0.2152(5) -0.0873(6) -0.0394(6)
H1J H 0.200559 -0.073156 -0.054277
C2J C 0.2115(6) -0.1235(6) -0.0413(6)
H2J H 0.195189 -0.133834 -0.057523
C3J C 0.2316(6) -0.1445(5) -0.0195(6)
H3J H 0.229418 -0.169572 -0.020452
C4J C 0.2559(5) -0.1284(4) 0.0045(5)
C5J C 0.2777(6) -0.1475(5) 0.0285(6)
H4J H 0.276352 -0.172642 0.029190
C6J C 0.3006(6) -0.1304(5) 0.0503(6)
H5J H 0.314436 -0.143844 0.066528
C7J C 0.3045(5) -0.0930(4) 0.0498(5)
C8J C 0.3294(6) -0.0740(5) 0.0707(7)
H6J H 0.344333 -0.086207 0.086983
C9J C 0.3317(6) -0.0380(5) 0.0671(7)
H7J H 0.348427 -0.024903 0.080716
C10J C 0.3093(5) -0.0206(4) 0.0435(5)
C11J C 0.2832(5) -0.0731(4) 0.0264(5)
C12J C 0.2579(4) -0.0910(4) 0.0036(5)
C13J C 0.3081(7) 0.0184(4) 0.0403(7)
H8J H 0.323606 0.032474 0.054358
C14J C 0.2828(5) 0.0709(4) 0.0180(6)
C15J C 0.2772(6) 0.0871(5) -0.0146(5)
H9J H 0.277351 0.073446 -0.035748
C16J C 0.2713(6) 0.1234(5) -0.0161(5)
H10J H 0.267151 0.134566 -0.038326
C17J C 0.2716(4) 0.1434(4) 0.0147(5)
C18J C 0.2777(5) 0.1272(4) 0.0475(5)
H11J H 0.277999 0.140916 0.068654
C19J C 0.2831(5) 0.0909(5) 0.0490(5)
H12J H 0.287137 0.079649 0.071189
C20J C 0.2645(4) 0.1826(4) 0.0131(5)
O3J O 0.1989(4) 0.2407(4) -0.0160(4)
O4J O 0.1974(4) 0.2401(4) 0.0438(4)
N4J N -0.0739(4) 0.2564(5) -0.0056(5)
N5J N -0.0358(4) 0.2013(4) 0.0213(5)
N6J N 0.0347(4) 0.2058(5) 0.0147(6)
C21J C -0.0924(6) 0.2835(5) -0.0178(6)
H13J H -0.079744 0.302490 -0.028558
C22J C -0.1289(6) 0.2862(6) -0.0160(7)
H14J H -0.140640 0.306503 -0.025172
C23J C -0.1479(5) 0.2592(6) -0.0009(6)
H15J H -0.173015 0.260332 0.000384
C24J C -0.1292(4) 0.2293(5) 0.0129(5)
C25J C -0.1461(5) 0.2008(6) 0.0306(6)
H16J H -0.171267 0.200565 0.032335
C26J C -0.1272(5) 0.1740(6) 0.0452(6)
H17J H -0.139316 0.155379 0.057069
C27J C -0.0895(4) 0.1730(4) 0.0431(5)
C28J C -0.0682(5) 0.1460(5) 0.0580(6)
H18J H -0.078906 0.126760 0.070234
C29J C -0.0320(5) 0.1478(5) 0.0547(6)
H19J H -0.017477 0.130061 0.065209
C30J C -0.0167(4) 0.1756(4) 0.0361(5)
C31J C -0.0716(4) 0.2005(4) 0.0251(4)
C32J C -0.0919(4) 0.2294(4) 0.0098(5)
C33J C 0.0220(4) 0.1791(6) 0.0318(6)
H20J H 0.037499 0.161778 0.041596
C34J C 0.0719(4) 0.2123(5) 0.0131(6)
C35J C 0.0901(5) 0.2171(5) -0.0188(5)
H21J H 0.077763 0.215009 -0.040650
C36J C 0.1260(5) 0.2250(6) -0.0188(5)
H22J H 0.138177 0.228304 -0.040607
C37J C 0.1443(4) 0.2280(4) 0.0132(5)
C38J C 0.1261(4) 0.2233(5) 0.0450(5)
H23J H 0.138380 0.225532 0.066930
C39J C 0.0902(5) 0.2155(6) 0.0449(5)
H24J H 0.078055 0.212275 0.066777
C40J C 0.1835(4) 0.2365(4) 0.0135(5)
N7J N 0.250000 0.250000 -0.0754(11)
C41J C 0.250000 0.250000 -0.1065(12)
C42J C 0.264(2) 0.255(3) -0.1429(12)
N8J N 0.250000 0.250000 0.1021(10)
C43J C 0.250000 0.250000 0.1326(11)
C44J C 0.250000 0.250000 0.1714(10)
C42K C 0.236(2) 0.245(3) -0.1429(12)
Cd1K Cd 0.25264(6) 0.50787(6) -0.01058(6)
O1K O 0.2404(4) 0.3037(4) -0.0164(4)
O2K O 0.2387(4) 0.3021(4) 0.0427(4)
N1K N 0.2623(5) 0.5707(4) -0.0181(5)
N2K N 0.2144(5) 0.5373(4) 0.0235(5)
N3K N 0.2135(6) 0.4665(4) 0.0190(6)
C1K C 0.2848(5) 0.5873(6) -0.0394(6)
H1K H 0.299441 0.573156 -0.054277
C2K C 0.2885(6) 0.6235(6) -0.0413(6)
H2K H 0.304811 0.633834 -0.057523
C3K C 0.2684(6) 0.6445(5) -0.0195(6)
H3K H 0.270582 0.669572 -0.020452
C4K C 0.2441(5) 0.6284(4) 0.0045(5)
C5K C 0.2223(6) 0.6475(5) 0.0285(6)
H4K H 0.223648 0.672642 0.029190
C6K C 0.1994(6) 0.6304(5) 0.0503(6)
H5K H 0.185564 0.643844 0.066528
C7K C 0.1955(5) 0.5930(4) 0.0498(5)
C8K C 0.1706(6) 0.5740(5) 0.0707(7)
H6K H 0.155667 0.586207 0.086983
C9K C 0.1683(6) 0.5380(5) 0.0671(7)
H7K H 0.151573 0.524903 0.080716
C10K C 0.1907(5) 0.5206(4) 0.0435(5)
C11K C 0.2168(5) 0.5731(4) 0.0264(5)
C12K C 0.2421(4) 0.5910(4) 0.0036(5)
C13K C 0.1919(7) 0.4816(4) 0.0403(7)
H8K H 0.176394 0.467526 0.054358
C14K C 0.2172(5) 0.4291(4) 0.0180(6)
C15K C 0.2228(6) 0.4129(5) -0.0146(5)
H9K H 0.222649 0.426554 -0.035748
C16K C 0.2287(6) 0.3766(5) -0.0161(5)
H10K H 0.232849 0.365434 -0.038326
C17K C 0.2284(4) 0.3566(4) 0.0147(5)
C18K C 0.2223(5) 0.3728(4) 0.0475(5)
H11K H 0.222001 0.359084 0.068654
C19K C 0.2169(5) 0.4091(5) 0.0490(5)
H12K H 0.212863 0.420351 0.071189
C20K C 0.2355(4) 0.3174(4) 0.0131(5)
O3K O 0.3011(4) 0.2593(4) -0.0160(4)
O4K O 0.3026(4) 0.2599(4) 0.0438(4)
N4K N 0.5739(4) 0.2436(5) -0.0056(5)
N5K N 0.5358(4) 0.2987(4) 0.0213(5)
N6K N 0.4653(4) 0.2942(5) 0.0147(6)
C21K C 0.5924(6) 0.2165(5) -0.0178(6)
H13K H 0.579744 0.197510 -0.028558
C22K C 0.6289(6) 0.2138(6) -0.0160(7)
H14K H 0.640640 0.193497 -0.025172
C23K C 0.6479(5) 0.2408(6) -0.0009(6)
H15K H 0.673015 0.239668 0.000384
C24K C 0.6292(4) 0.2707(5) 0.0129(5)
C25K C 0.6461(5) 0.2992(6) 0.0306(6)
H16K H 0.671267 0.299435 0.032335
C26K C 0.6272(5) 0.3260(6) 0.0452(6)
H17K H 0.639316 0.344621 0.057069
C27K C 0.5895(4) 0.3270(4) 0.0431(5)
C28K C 0.5682(5) 0.3540(5) 0.0580(6)
H18K H 0.578906 0.373240 0.070234
C29K C 0.5320(5) 0.3522(5) 0.0547(6)
H19K H 0.517477 0.369939 0.065209
C30K C 0.5167(4) 0.3244(4) 0.0361(5)
C31K C 0.5716(4) 0.2995(4) 0.0251(4)
C32K C 0.5919(4) 0.2706(4) 0.0098(5)
C33K C 0.4780(4) 0.3209(6) 0.0318(6)
H20K H 0.462501 0.338222 0.041596
C34K C 0.4281(4) 0.2877(5) 0.0131(6)
C35K C 0.4099(5) 0.2829(5) -0.0188(5)
H21K H 0.422237 0.284991 -0.040650
C36K C 0.3740(5) 0.2750(6) -0.0188(5)
H22K H 0.361823 0.271696 -0.040607
C37K C 0.3557(4) 0.2720(4) 0.0132(5)
C38K C 0.3739(4) 0.2767(5) 0.0450(5)
H23K H 0.361620 0.274468 0.066930
C39K C 0.4098(5) 0.2845(6) 0.0449(5)
H24K H 0.421945 0.287725 0.066777
C40K C 0.3165(4) 0.2635(4) 0.0135(5)
C45 C 0.1117(11) 0.5327(11) 0.4688(7)
H25 H 0.115634 0.535249 0.444060
C46 C 0.1328(8) 0.5511(9) 0.4928(13)
H26 H 0.151181 0.566215 0.484462
C47 C 0.1271(10) 0.5474(9) 0.5291(11)
H27 H 0.141506 0.559963 0.545471
C48 C 0.1002(11) 0.5253(11) 0.5413(7)
H28 H 0.096284 0.522747 0.566078
C49 C 0.0791(8) 0.5069(8) 0.5173(12)
H29 H 0.060736 0.491781 0.525677
C50 C 0.0848(10) 0.5106(9) 0.4811(10)
H30 H 0.070411 0.498032 0.464668
loop_
_geom_bond_atom_site_label_1
_geom_bond_atom_site_label_2
_geom_bond_site_symmetry_1
_geom_bond_site_symmetry_2
Rh1 O2 1_555 1_555
Rh2 O1 1_555 1_555
Cd1 N1 1_555 1_555
O1 C20 1_555 1_555
O2 C20 1_555 1_555
N1 C1 1_555 1_555
N2 Cd1 1_555 1_555
N3 Cd1 1_555 1_555
C1 H1 1_555 1_555
C2 C1 1_555 1_555
H2 C2 1_555 1_555
C3 C2 1_555 1_555
H3 C3 1_555 1_555
C4 C3 1_555 1_555
C5 C4 1_555 1_555
H4 C5 1_555 1_555
C6 C5 1_555 1_555
H5 C6 1_555 1_555
C7 C6 1_555 1_555
C8 C7 1_555 1_555
H6 C8 1_555 1_555
C9 C8 1_555 1_555
H7 C9 1_555 1_555
C10 N2 1_555 1_555
C11 N2 1_555 1_555
C12 N1 1_555 1_555
C13 N3 1_555 1_555
H8 C13 1_555 1_555
C14 N3 1_555 1_555
C15 C14 1_555 1_555
H9 C15 1_555 1_555
C16 C15 1_555 1_555
H10 C16 1_555 1_555
C17 C16 1_555 1_555
C18 C17 1_555 1_555
H11 C18 1_555 1_555
C19 C14 1_555 1_555
H12 C19 1_555 1_555
C20 C17 1_555 1_555
O3 Rh2 1_555 1_555
O4 Rh1 1_555 1_555
N4 C21 1_555 1_555
N5 C30 1_555 1_555
N6 C33 1_555 1_555
C21 H13 1_555 1_555
C22 C21 1_555 1_555
H14 C22 1_555 1_555
C23 C22 1_555 1_555
H15 C23 1_555 1_555
C24 C23 1_555 1_555
C25 C24 1_555 1_555
H16 C25 1_555 1_555
C26 C25 1_555 1_555
H17 C26 1_555 1_555
C27 C26 1_555 1_555
C28 C27 1_555 1_555
H18 C28 1_555 1_555
C29 C28 1_555 1_555
H19 C29 1_555 1_555
C30 C29 1_555 1_555
C31 N5 1_555 1_555
C32 N4 1_555 1_555
C33 C30 1_555 1_555
H20 C33 1_555 1_555
C34 N6 1_555 1_555
C35 C34 1_555 1_555
H21 C35 1_555 1_555
C36 C35 1_555 1_555
H22 C36 1_555 1_555
C37 C36 1_555 1_555
C38 C37 1_555 1_555
H23 C38 1_555 1_555
C39 C34 1_555 1_555
H24 C39 1_555 1_555
C40 O3 1_555 1_555
N7 Rh2 1_555 1_555
C41 N7 1_555 1_555
C42 C41 1_555 1_555
N8 Rh1 1_555 1_555
C43 N8 1_555 1_555
C44 C43 1_555 1_555
C45 H25 1_555 1_555
C46 C45 1_555 1_555
H26 C46 1_555 1_555
C47 C46 1_555 1_555
H27 C47 1_555 1_555
C48 C47 1_555 1_555
H28 C48 1_555 1_555
C49 C48 1_555 1_555
H29 C49 1_555 1_555
C50 C45 1_555 1_555
H30 C50 1_555 1_555
C42I C41 1_555 1_555
Rh1B O2E 1_555 1_555
Rh2B O1E 1_555 1_555
Cd1E N1E 1_555 1_555
O1E C20E 1_555 1_555
O2E C20E 1_555 1_555
N1E C1E 1_555 1_555
N2E Cd1E 1_555 1_555
N3E Cd1E 1_555 1_555
C1E H1E 1_555 1_555
C2E C1E 1_555 1_555
H2E C2E 1_555 1_555
C3E C2E 1_555 1_555
H3E C3E 1_555 1_555
C4E C3E 1_555 1_555
C5E C4E 1_555 1_555
H4E C5E 1_555 1_555
C6E C5E 1_555 1_555
H5E C6E 1_555 1_555
C7E C6E 1_555 1_555
C8E C7E 1_555 1_555
H6E C8E 1_555 1_555
C9E C8E 1_555 1_555
H7E C9E 1_555 1_555
C10E N2E 1_555 1_555
C11E N2E 1_555 1_555
C12E N1E 1_555 1_555
C13E N3E 1_555 1_555
H8E C13E 1_555 1_555
C14E N3E 1_555 1_555
C15E C14E 1_555 1_555
H9E C15E 1_555 1_555
C16E C15E 1_555 1_555
H10E C16E 1_555 1_555
C17E C16E 1_555 1_555
C18E C17E 1_555 1_555
H11E C18E 1_555 1_555
C19E C14E 1_555 1_555
H12E C19E 1_555 1_555
C20E C17E 1_555 1_555
O3E Rh2B 1_555 1_555
O4E Rh1B 1_555 1_555
N4E Cd1 1_555 1_555
N5E Cd1 1_555 1_555
N6E Cd1 1_555 1_555
C21E N4E 1_555 1_555
H13E C21E 1_555 1_555
C22E C21E 1_555 1_555
H14E C22E 1_555 1_555
C23E C22E 1_555 1_555
H15E C23E 1_555 1_555
C24E C23E 1_555 1_555
C25E C24E 1_555 1_555
H16E C25E 1_555 1_555
C26E C25E 1_555 1_555
H17E C26E 1_555 1_555
C27E C26E 1_555 1_555
C28E C27E 1_555 1_555
H18E C28E 1_555 1_555
C29E C28E 1_555 1_555
H19E C29E 1_555 1_555
C30E N5E 1_555 1_555
C31E N5E 1_555 1_555
C32E N4E 1_555 1_555
C33E N6E 1_555 1_555
H20E C33E 1_555 1_555
C34E N6E 1_555 1_555
C35E C34E 1_555 1_555
H21E C35E 1_555 1_555
C36E C35E 1_555 1_555
H22E C36E 1_555 1_555
C37E C36E 1_555 1_555
C38E C37E 1_555 1_555
H23E C38E 1_555 1_555
C39E C34E 1_555 1_555
H24E C39E 1_555 1_555
C40E O3E 1_555 1_555
N7B Rh2B 1_555 1_555
C41B N7B 1_555 1_555
C42E C41B 1_555 1_555
N8B Rh1B 1_555 1_555
C43B N8B 1_555 1_555
C44B C43B 1_555 1_555
C42B C41B 1_555 1_555
Rh1F O2F 1_555 1_555
Rh2F O1F 1_555 1_555
Cd1F N4 1_555 1_555
O1F C20F 1_555 1_555
O2F C20F 1_555 1_555
N1F Cd1F 1_555 1_555
N2F Cd1F 1_555 1_555
N3F Cd1F 1_555 1_555
C1F N1F 1_555 1_555
H1F C1F 1_555 1_555
C2F C1F 1_555 1_555
H2F C2F 1_555 1_555
C3F C2F 1_555 1_555
H3F C3F 1_555 1_555
C4F C3F 1_555 1_555
C5F C4F 1_555 1_555
H4F C5F 1_555 1_555
C6F C5F 1_555 1_555
H5F C6F 1_555 1_555
C7F C6F 1_555 1_555
C8F C7F 1_555 1_555
H6F C8F 1_555 1_555
C9F C8F 1_555 1_555
H7F C9F 1_555 1_555
C10F N2F 1_555 1_555
C11F N2F 1_555 1_555
C12F N1F 1_555 1_555
C13F N3F 1_555 1_555
H8F C13F 1_555 1_555
C14F N3F 1_555 1_555
C15F C14F 1_555 1_555
H9F C15F 1_555 1_555
C16F C15F 1_555 1_555
H10F C16F 1_555 1_555
C17F C16F 1_555 1_555
C18F C17F 1_555 1_555
H11F C18F 1_555 1_555
C19F C14F 1_555 1_555
H12F C19F 1_555 1_555
C20F C17F 1_555 1_555
O3F Rh2F 1_555 1_555
O4F Rh1F 1_555 1_555
N4F Cd1E 1_555 1_555
N5F Cd1E 1_555 1_555
N6F Cd1E 1_555 1_555
C21F N4F 1_555 1_555
H13F C21F 1_555 1_555
C22F C21F 1_555 1_555
H14F C22F 1_555 1_555
C23F C22F 1_555 1_555
H15F C23F 1_555 1_555
C24F C23F 1_555 1_555
C25F C24F 1_555 1_555
H16F C25F 1_555 1_555
C26F C25F 1_555 1_555
H17F C26F 1_555 1_555
C27F C26F 1_555 1_555
C28F C27F 1_555 1_555
H18F C28F 1_555 1_555
C29F C28F 1_555 1_555
H19F C29F 1_555 1_555
C30F N5F 1_555 1_555
C31F N5F 1_555 1_555
C32F N4F 1_555 1_555
C33F N6F 1_555 1_555
H20F C33F 1_555 1_555
C34F N6F 1_555 1_555
C35F C34F 1_555 1_555
H21F C35F 1_555 1_555
C36F C35F 1_555 1_555
H22F C36F 1_555 1_555
C37F C36F 1_555 1_555
C38F C37F 1_555 1_555
H23F C38F 1_555 1_555
C39F C34F 1_555 1_555
H24F C39F 1_555 1_555
C40F O3F 1_555 1_555
N7F Rh2F 1_555 1_555
C41F N7F 1_555 1_555
C42F C41F 1_555 1_555
N8F Rh1F 1_555 1_555
C43F N8F 1_555 1_555
C44F C43F 1_555 1_555
C42G C41F 1_555 1_555
Cd1G N1G 1_555 1_555
O1G Rh2F 1_555 1_555
O2G Rh1F 1_555 1_555
N1G C1G 1_555 1_555
N2G Cd1G 1_555 1_555
N3G Cd1G 1_555 1_555
C1G H1G 1_555 1_555
C2G C1G 1_555 1_555
H2G C2G 1_555 1_555
C3G C2G 1_555 1_555
H3G C3G 1_555 1_555
C4G C3G 1_555 1_555
C5G C4G 1_555 1_555
H4G C5G 1_555 1_555
C6G C5G 1_555 1_555
H5G C6G 1_555 1_555
C7G C6G 1_555 1_555
C8G C7G 1_555 1_555
H6G C8G 1_555 1_555
C9G C8G 1_555 1_555
H7G C9G 1_555 1_555
C10G N2G 1_555 1_555
C11G N2G 1_555 1_555
C12G N1G 1_555 1_555
C13G N3G 1_555 1_555
H8G C13G 1_555 1_555
C14G N3G 1_555 1_555
C15G C14G 1_555 1_555
H9G C15G 1_555 1_555
C16G C15G 1_555 1_555
H10G C16G 1_555 1_555
C17G C16G 1_555 1_555
C18G C17G 1_555 1_555
H11G C18G 1_555 1_555
C19G C14G 1_555 1_555
H12G C19G 1_555 1_555
C20G O1G 1_555 1_555
O3G Rh2F 1_555 1_555
O4G Rh1F 1_555 1_555
N4G C21G 1_555 1_555
N5G C30G 1_555 1_555
N6G C33G 1_555 1_555
C21G H13G 1_555 1_555
C22G C21G 1_555 1_555
H14G C22G 1_555 1_555
C23G C22G 1_555 1_555
H15G C23G 1_555 1_555
C24G C23G 1_555 1_555
C25G C24G 1_555 1_555
H16G C25G 1_555 1_555
C26G C25G 1_555 1_555
H17G C26G 1_555 1_555
C27G C26G 1_555 1_555
C28G C27G 1_555 1_555
H18G C28G 1_555 1_555
C29G C28G 1_555 1_555
H19G C29G 1_555 1_555
C30G C29G 1_555 1_555
C31G N5G 1_555 1_555
C32G N4G 1_555 1_555
C33G C30G 1_555 1_555
H20G C33G 1_555 1_555
C34G N6G 1_555 1_555
C35G C34G 1_555 1_555
H21G C35G 1_555 1_555
C36G C35G 1_555 1_555
H22G C36G 1_555 1_555
C37G C36G 1_555 1_555
C38G C37G 1_555 1_555
H23G C38G 1_555 1_555
C39G C34G 1_555 1_555
H24G C39G 1_555 1_555
C40G O3G 1_555 1_555
Cd1I N1I 1_555 1_555
O1I Rh2 1_555 1_555
O2I Rh1 1_555 1_555
N1I C1I 1_555 1_555
N2I Cd1I 1_555 1_555
N3I Cd1I 1_555 1_555
C1I H1I 1_555 1_555
C2I C1I 1_555 1_555
H2I C2I 1_555 1_555
C3I C2I 1_555 1_555
H3I C3I 1_555 1_555
C4I C3I 1_555 1_555
C5I C4I 1_555 1_555
H4I C5I 1_555 1_555
C6I C5I 1_555 1_555
H5I C6I 1_555 1_555
C7I C6I 1_555 1_555
C8I C7I 1_555 1_555
H6I C8I 1_555 1_555
C9I C8I 1_555 1_555
H7I C9I 1_555 1_555
C10I N2I 1_555 1_555
C11I N2I 1_555 1_555
C12I N1I 1_555 1_555
C13I N3I 1_555 1_555
H8I C13I 1_555 1_555
C14I N3I 1_555 1_555
C15I C14I 1_555 1_555
H9I C15I 1_555 1_555
C16I C15I 1_555 1_555
H10I C16I 1_555 1_555
C17I C16I 1_555 1_555
C18I C17I 1_555 1_555
H11I C18I 1_555 1_555
C19I C14I 1_555 1_555
H12I C19I 1_555 1_555
C20I O1I 1_555 1_555
O3I Rh2 1_555 1_555
O4I Rh1 1_555 1_555
N4I C21I 1_555 1_555
N5I C30I 1_555 1_555
N6I C33I 1_555 1_555
C21I H13I 1_555 1_555
C22I C21I 1_555 1_555
H14I C22I 1_555 1_555
C23I C22I 1_555 1_555
H15I C23I 1_555 1_555
C24I C23I 1_555 1_555
C25I C24I 1_555 1_555
H16I C25I 1_555 1_555
C26I C25I 1_555 1_555
H17I C26I 1_555 1_555
C27I C26I 1_555 1_555
C28I C27I 1_555 1_555
H18I C28I 1_555 1_555
C29I C28I 1_555 1_555
H19I C29I 1_555 1_555
C30I C29I 1_555 1_555
C31I N5I 1_555 1_555
C32I N4I 1_555 1_555
C33I C30I 1_555 1_555
H20I C33I 1_555 1_555
C34I N6I 1_555 1_555
C35I C34I 1_555 1_555
H21I C35I 1_555 1_555
C36I C35I 1_555 1_555
H22I C36I 1_555 1_555
C37I C36I 1_555 1_555
C38I C37I 1_555 1_555
H23I C38I 1_555 1_555
C39I C34I 1_555 1_555
H24I C39I 1_555 1_555
C40I O3I 1_555 1_555
Rh1A O2A 1_555 1_555
Rh2A O1A 1_555 1_555
Cd1A N4I 1_555 1_555
O1A C20A 1_555 1_555
O2A C20A 1_555 1_555
N1A Cd1A 1_555 1_555
N2A Cd1A 1_555 1_555
N3A Cd1A 1_555 1_555
C1A N1A 1_555 1_555
H1A C1A 1_555 1_555
C2A C1A 1_555 1_555
H2A C2A 1_555 1_555
C3A C2A 1_555 1_555
H3A C3A 1_555 1_555
C4A C3A 1_555 1_555
C5A C4A 1_555 1_555
H4A C5A 1_555 1_555
C6A C5A 1_555 1_555
H5A C6A 1_555 1_555
C7A C6A 1_555 1_555
C8A C7A 1_555 1_555
H6A C8A 1_555 1_555
C9A C8A 1_555 1_555
H7A C9A 1_555 1_555
C10A N2A 1_555 1_555
C11A N2A 1_555 1_555
C12A N1A 1_555 1_555
C13A N3A 1_555 1_555
H8A C13A 1_555 1_555
C14A N3A 1_555 1_555
C15A C14A 1_555 1_555
H9A C15A 1_555 1_555
C16A C15A 1_555 1_555
H10A C16A 1_555 1_555
C17A C16A 1_555 1_555
C18A C17A 1_555 1_555
H11A C18A 1_555 1_555
C19A C14A 1_555 1_555
H12A C19A 1_555 1_555
C20A C17A 1_555 1_555
O3A Rh2A 1_555 1_555
O4A Rh1A 1_555 1_555
N4A C21A 1_555 1_555
N5A C30A 1_555 1_555
N6A C33A 1_555 1_555
C21A H13A 1_555 1_555
C22A C21A 1_555 1_555
H14A C22A 1_555 1_555
C23A C22A 1_555 1_555
H15A C23A 1_555 1_555
C24A C23A 1_555 1_555
C25A C24A 1_555 1_555
H16A C25A 1_555 1_555
C26A C25A 1_555 1_555
H17A C26A 1_555 1_555
C27A C26A 1_555 1_555
C28A C27A 1_555 1_555
H18A C28A 1_555 1_555
C29A C28A 1_555 1_555
H19A C29A 1_555 1_555
C30A C29A 1_555 1_555
C31A N5A 1_555 1_555
C32A N4A 1_555 1_555
C33A C30A 1_555 1_555
H20A C33A 1_555 1_555
C34A N6A 1_555 1_555
C35A C34A 1_555 1_555
H21A C35A 1_555 1_555
C36A C35A 1_555 1_555
H22A C36A 1_555 1_555
C37A C36A 1_555 1_555
C38A C37A 1_555 1_555
H23A C38A 1_555 1_555
C39A C34A 1_555 1_555
H24A C39A 1_555 1_555
C40A O3A 1_555 1_555
N7A Rh2A 1_555 1_555
C41A N7A 1_555 1_555
C42A C41A 1_555 1_555
N8A Rh1A 1_555 1_555
C43A N8A 1_555 1_555
C44A C43A 1_555 1_555
C42D C41A 1_555 1_555
Cd1B N1B 1_555 1_555
O1B Rh2B 1_555 1_555
O2B Rh1B 1_555 1_555
N1B C1B 1_555 1_555
N2B Cd1B 1_555 1_555
N3B Cd1B 1_555 1_555
C1B H1B 1_555 1_555
C2B C1B 1_555 1_555
H2B C2B 1_555 1_555
C3B C2B 1_555 1_555
H3B C3B 1_555 1_555
C4B C3B 1_555 1_555
C5B C4B 1_555 1_555
H4B C5B 1_555 1_555
C6B C5B 1_555 1_555
H5B C6B 1_555 1_555
C7B C6B 1_555 1_555
C8B C7B 1_555 1_555
H6B C8B 1_555 1_555
C9B C8B 1_555 1_555
H7B C9B 1_555 1_555
C10B N2B 1_555 1_555
C11B N2B 1_555 1_555
C12B N1B 1_555 1_555
C13B N3B 1_555 1_555
H8B C13B 1_555 1_555
C14B N3B 1_555 1_555
C15B C14B 1_555 1_555
H9B C15B 1_555 1_555
C16B C15B 1_555 1_555
H10B C16B 1_555 1_555
C17B C16B 1_555 1_555
C18B C17B 1_555 1_555
H11B C18B 1_555 1_555
C19B C14B 1_555 1_555
H12B C19B 1_555 1_555
C20B O1B 1_555 1_555
O3B Rh2B 1_555 1_555
O4B Rh1B 1_555 1_555
N4B C21B 1_555 1_555
N5B C30B 1_555 1_555
N6B C33B 1_555 1_555
C21B H13B 1_555 1_555
C22B C21B 1_555 1_555
H14B C22B 1_555 1_555
C23B C22B 1_555 1_555
H15B C23B 1_555 1_555
C24B C23B 1_555 1_555
C25B C24B 1_555 1_555
H16B C25B 1_555 1_555
C26B C25B 1_555 1_555
H17B C26B 1_555 1_555
C27B C26B 1_555 1_555
C28B C27B 1_555 1_555
H18B C28B 1_555 1_555
C29B C28B 1_555 1_555
H19B C29B 1_555 1_555
C30B C29B 1_555 1_555
C31B N5B 1_555 1_555
C32B N4B 1_555 1_555
C33B C30B 1_555 1_555
H20B C33B 1_555 1_555
C34B N6B 1_555 1_555
C35B C34B 1_555 1_555
H21B C35B 1_555 1_555
C36B C35B 1_555 1_555
H22B C36B 1_555 1_555
C37B C36B 1_555 1_555
C38B C37B 1_555 1_555
H23B C38B 1_555 1_555
C39B C34B 1_555 1_555
H24B C39B 1_555 1_555
C40B O3B 1_555 1_555
Rh1C O2C 1_555 1_555
Rh2C O1C 1_555 1_555
Cd1C N4G 1_555 1_555
O1C C20C 1_555 1_555
O2C C20C 1_555 1_555
N1C Cd1C 1_555 1_555
N2C Cd1C 1_555 1_555
N3C Cd1C 1_555 1_555
C1C N1C 1_555 1_555
H1C C1C 1_555 1_555
C2C C1C 1_555 1_555
H2C C2C 1_555 1_555
C3C C2C 1_555 1_555
H3C C3C 1_555 1_555
C4C C3C 1_555 1_555
C5C C4C 1_555 1_555
H4C C5C 1_555 1_555
C6C C5C 1_555 1_555
H5C C6C 1_555 1_555
C7C C6C 1_555 1_555
C8C C7C 1_555 1_555
H6C C8C 1_555 1_555
C9C C8C 1_555 1_555
H7C C9C 1_555 1_555
C10C N2C 1_555 1_555
C11C N2C 1_555 1_555
C12C N1C 1_555 1_555
C13C N3C 1_555 1_555
H8C C13C 1_555 1_555
C14C N3C 1_555 1_555
C15C C14C 1_555 1_555
H9C C15C 1_555 1_555
C16C C15C 1_555 1_555
H10C C16C 1_555 1_555
C17C C16C 1_555 1_555
C18C C17C 1_555 1_555
H11C C18C 1_555 1_555
C19C C14C 1_555 1_555
H12C C19C 1_555 1_555
C20C C17C 1_555 1_555
O3C Rh2C 1_555 1_555
O4C Rh1C 1_555 1_555
N4C C21C 1_555 1_555
N5C C30C 1_555 1_555
N6C C33C 1_555 1_555
C21C H13C 1_555 1_555
C22C C21C 1_555 1_555
H14C C22C 1_555 1_555
C23C C22C 1_555 1_555
H15C C23C 1_555 1_555
C24C C23C 1_555 1_555
C25C C24C 1_555 1_555
H16C C25C 1_555 1_555
C26C C25C 1_555 1_555
H17C C26C 1_555 1_555
C27C C26C 1_555 1_555
C28C C27C 1_555 1_555
H18C C28C 1_555 1_555
C29C C28C 1_555 1_555
H19C C29C 1_555 1_555
C30C C29C 1_555 1_555
C31C N5C 1_555 1_555
C32C N4C 1_555 1_555
C33C C30C 1_555 1_555
H20C C33C 1_555 1_555
C34C N6C 1_555 1_555
C35C C34C 1_555 1_555
H21C C35C 1_555 1_555
C36C C35C 1_555 1_555
H22C C36C 1_555 1_555
C37C C36C 1_555 1_555
C38C C37C 1_555 1_555
H23C C38C 1_555 1_555
C39C C34C 1_555 1_555
H24C C39C 1_555 1_555
C40C O3C 1_555 1_555
N7C Rh2C 1_555 1_555
C41C N7C 1_555 1_555
C42C C41C 1_555 1_555
N8C Rh1C 1_555 1_555
C43C N8C 1_555 1_555
C44C C43C 1_555 1_555
C42H C41C 1_555 1_555
Cd1D N1D 1_555 1_555
O1D Rh2A 1_555 1_555
O2D Rh1A 1_555 1_555
N1D C1D 1_555 1_555
N2D Cd1D 1_555 1_555
N3D Cd1D 1_555 1_555
C1D H1D 1_555 1_555
C2D C1D 1_555 1_555
H2D C2D 1_555 1_555
C3D C2D 1_555 1_555
H3D C3D 1_555 1_555
C4D C3D 1_555 1_555
C5D C4D 1_555 1_555
H4D C5D 1_555 1_555
C6D C5D 1_555 1_555
H5D C6D 1_555 1_555
C7D C6D 1_555 1_555
C8D C7D 1_555 1_555
H6D C8D 1_555 1_555
C9D C8D 1_555 1_555
H7D C9D 1_555 1_555
C10D N2D 1_555 1_555
C11D N2D 1_555 1_555
C12D N1D 1_555 1_555
C13D N3D 1_555 1_555
H8D C13D 1_555 1_555
C14D N3D 1_555 1_555
C15D C14D 1_555 1_555
H9D C15D 1_555 1_555
C16D C15D 1_555 1_555
H10D C16D 1_555 1_555
C17D C16D 1_555 1_555
C18D C17D 1_555 1_555
H11D C18D 1_555 1_555
C19D C14D 1_555 1_555
H12D C19D 1_555 1_555
C20D O1D 1_555 1_555
O3D Rh2A 1_555 1_555
O4D Rh1A 1_555 1_555
N4D Cd1B 1_555 1_555
N5D Cd1B 1_555 1_555
N6D Cd1B 1_555 1_555
C21D N4D 1_555 1_555
H13D C21D 1_555 1_555
C22D C21D 1_555 1_555
H14D C22D 1_555 1_555
C23D C22D 1_555 1_555
H15D C23D 1_555 1_555
C24D C23D 1_555 1_555
C25D C24D 1_555 1_555
H16D C25D 1_555 1_555
C26D C25D 1_555 1_555
H17D C26D 1_555 1_555
C27D C26D 1_555 1_555
C28D C27D 1_555 1_555
H18D C28D 1_555 1_555
C29D C28D 1_555 1_555
H19D C29D 1_555 1_555
C30D N5D 1_555 1_555
C31D N5D 1_555 1_555
C32D N4D 1_555 1_555
C33D N6D 1_555 1_555
H20D C33D 1_555 1_555
C34D N6D 1_555 1_555
C35D C34D 1_555 1_555
H21D C35D 1_555 1_555
C36D C35D 1_555 1_555
H22D C36D 1_555 1_555
C37D C36D 1_555 1_555
C38D C37D 1_555 1_555
H23D C38D 1_555 1_555
C39D C34D 1_555 1_555
H24D C39D 1_555 1_555
C40D O3D 1_555 1_555
Cd1H N4A 1_555 1_555
O1H Rh2C 1_555 1_555
O2H Rh1C 1_555 1_555
N1H Cd1H 1_555 1_555
N2H Cd1H 1_555 1_555
N3H Cd1H 1_555 1_555
C1H N1H 1_555 1_555
H1H C1H 1_555 1_555
C2H C1H 1_555 1_555
H2H C2H 1_555 1_555
C3H C2H 1_555 1_555
H3H C3H 1_555 1_555
C4H C3H 1_555 1_555
C5H C4H 1_555 1_555
H4H C5H 1_555 1_555
C6H C5H 1_555 1_555
H5H C6H 1_555 1_555
C7H C6H 1_555 1_555
C8H C7H 1_555 1_555
H6H C8H 1_555 1_555
C9H C8H 1_555 1_555
H7H C9H 1_555 1_555
C10H N2H 1_555 1_555
C11H N2H 1_555 1_555
C12H N1H 1_555 1_555
C13H N3H 1_555 1_555
H8H C13H 1_555 1_555
C14H N3H 1_555 1_555
C15H C14H 1_555 1_555
H9H C15H 1_555 1_555
C16H C15H 1_555 1_555
H10H C16H 1_555 1_555
C17H C16H 1_555 1_555
C18H C17H 1_555 1_555
H11H C18H 1_555 1_555
C19H C14H 1_555 1_555
H12H C19H 1_555 1_555
C20H O1H 1_555 1_555
O3H Rh2C 1_555 1_555
O4H Rh1C 1_555 1_555
N4H Cd1I 1_555 1_555
N5H Cd1I 1_555 1_555
N6H Cd1I 1_555 1_555
C21H N4H 1_555 1_555
H13H C21H 1_555 1_555
C22H C21H 1_555 1_555
H14H C22H 1_555 1_555
C23H C22H 1_555 1_555
H15H C23H 1_555 1_555
C24H C23H 1_555 1_555
C25H C24H 1_555 1_555
H16H C25H 1_555 1_555
C26H C25H 1_555 1_555
H17H C26H 1_555 1_555
C27H C26H 1_555 1_555
C28H C27H 1_555 1_555
H18H C28H 1_555 1_555
C29H C28H 1_555 1_555
H19H C29H 1_555 1_555
C30H N5H 1_555 1_555
C31H N5H 1_555 1_555
C32H N4H 1_555 1_555
C33H N6H 1_555 1_555
H20H C33H 1_555 1_555
C34H N6H 1_555 1_555
C35H C34H 1_555 1_555
H21H C35H 1_555 1_555
C36H C35H 1_555 1_555
H22H C36H 1_555 1_555
C37H C36H 1_555 1_555
C38H C37H 1_555 1_555
H23H C38H 1_555 1_555
C39H C34H 1_555 1_555
H24H C39H 1_555 1_555
C40H O3H 1_555 1_555
Rh1J O2J 1_555 1_555
Rh2J O1J 1_555 1_555
Cd1J N4C 1_555 1_555
O1J C20J 1_555 1_555
O2J C20J 1_555 1_555
N1J Cd1J 1_555 1_555
N2J Cd1J 1_555 1_555
N3J Cd1J 1_555 1_555
C1J N1J 1_555 1_555
H1J C1J 1_555 1_555
C2J C1J 1_555 1_555
H2J C2J 1_555 1_555
C3J C2J 1_555 1_555
H3J C3J 1_555 1_555
C4J C3J 1_555 1_555
C5J C4J 1_555 1_555
H4J C5J 1_555 1_555
C6J C5J 1_555 1_555
H5J C6J 1_555 1_555
C7J C6J 1_555 1_555
C8J C7J 1_555 1_555
H6J C8J 1_555 1_555
C9J C8J 1_555 1_555
H7J C9J 1_555 1_555
C10J N2J 1_555 1_555
C11J N2J 1_555 1_555
C12J N1J 1_555 1_555
C13J N3J 1_555 1_555
H8J C13J 1_555 1_555
C14J N3J 1_555 1_555
C15J C14J 1_555 1_555
H9J C15J 1_555 1_555
C16J C15J 1_555 1_555
H10J C16J 1_555 1_555
C17J C16J 1_555 1_555
C18J C17J 1_555 1_555
H11J C18J 1_555 1_555
C19J C14J 1_555 1_555
H12J C19J 1_555 1_555
C20J C17J 1_555 1_555
O3J Rh2J 1_555 1_555
O4J Rh1J 1_555 1_555
N4J Cd1G 1_555 1_555
N5J Cd1G 1_555 1_555
N6J Cd1G 1_555 1_555
C21J N4J 1_555 1_555
H13J C21J 1_555 1_555
C22J C21J 1_555 1_555
H14J C22J 1_555 1_555
C23J C22J 1_555 1_555
H15J C23J 1_555 1_555
C24J C23J 1_555 1_555
C25J C24J 1_555 1_555
H16J C25J 1_555 1_555
C26J C25J 1_555 1_555
H17J C26J 1_555 1_555
C27J C26J 1_555 1_555
C28J C27J 1_555 1_555
H18J C28J 1_555 1_555
C29J C28J 1_555 1_555
H19J C29J 1_555 1_555
C30J N5J 1_555 1_555
C31J N5J 1_555 1_555
C32J N4J 1_555 1_555
C33J N6J 1_555 1_555
H20J C33J 1_555 1_555
C34J N6J 1_555 1_555
C35J C34J 1_555 1_555
H21J C35J 1_555 1_555
C36J C35J 1_555 1_555
H22J C36J 1_555 1_555
C37J C36J 1_555 1_555
C38J C37J 1_555 1_555
H23J C38J 1_555 1_555
C39J C34J 1_555 1_555
H24J C39J 1_555 1_555
C40J O3J 1_555 1_555
N7J Rh2J 1_555 1_555
C41J N7J 1_555 1_555
C42J C41J 1_555 1_555
N8J Rh1J 1_555 1_555
C43J N8J 1_555 1_555
C44J C43J 1_555 1_555
C42K C41J 1_555 1_555
Cd1K N4B 1_555 1_555
O1K Rh2J 1_555 1_555
O2K Rh1J 1_555 1_555
N1K Cd1K 1_555 1_555
N2K Cd1K 1_555 1_555
N3K Cd1K 1_555 1_555
C1K N1K 1_555 1_555
H1K C1K 1_555 1_555
C2K C1K 1_555 1_555
H2K C2K 1_555 1_555
C3K C2K 1_555 1_555
H3K C3K 1_555 1_555
C4K C3K 1_555 1_555
C5K C4K 1_555 1_555
H4K C5K 1_555 1_555
C6K C5K 1_555 1_555
H5K C6K 1_555 1_555
C7K C6K 1_555 1_555
C8K C7K 1_555 1_555
H6K C8K 1_555 1_555
C9K C8K 1_555 1_555
H7K C9K 1_555 1_555
C10K N2K 1_555 1_555
C11K N2K 1_555 1_555
C12K N1K 1_555 1_555
C13K N3K 1_555 1_555
H8K C13K 1_555 1_555
C14K N3K 1_555 1_555
C15K C14K 1_555 1_555
H9K C15K 1_555 1_555
C16K C15K 1_555 1_555
H10K C16K 1_555 1_555
C17K C16K 1_555 1_555
C18K C17K 1_555 1_555
H11K C18K 1_555 1_555
C19K C14K 1_555 1_555
H12K C19K 1_555 1_555
C20K O1K 1_555 1_555
O3K Rh2J 1_555 1_555
O4K Rh1J 1_555 1_555
N4K Cd1D 1_555 1_555
N5K Cd1D 1_555 1_555
N6K Cd1D 1_555 1_555
C21K N4K 1_555 1_555
H13K C21K 1_555 1_555
C22K C21K 1_555 1_555
H14K C22K 1_555 1_555
C23K C22K 1_555 1_555
H15K C23K 1_555 1_555
C24K C23K 1_555 1_555
C25K C24K 1_555 1_555
H16K C25K 1_555 1_555
C26K C25K 1_555 1_555
H17K C26K 1_555 1_555
C27K C26K 1_555 1_555
C28K C27K 1_555 1_555
H18K C28K 1_555 1_555
C29K C28K 1_555 1_555
H19K C29K 1_555 1_555
C30K N5K 1_555 1_555
C31K N5K 1_555 1_555
C32K N4K 1_555 1_555
C33K N6K 1_555 1_555
H20K C33K 1_555 1_555
C34K N6K 1_555 1_555
C35K C34K 1_555 1_555
H21K C35K 1_555 1_555
C36K C35K 1_555 1_555
H22K C36K 1_555 1_555
C37K C36K 1_555 1_555
C38K C37K 1_555 1_555
H23K C38K 1_555 1_555
C39K C34K 1_555 1_555
H24K C39K 1_555 1_555
C40K O3K 1_555 1_555
C4 C12 1_555 1_555
C7 C11 1_555 1_555
C9 C10 1_555 1_555
C10 C13 1_555 1_555
C11 C12 1_555 1_555
C18 C19 1_555 1_555
O4 C40 1_555 1_555
N5 Cd1F 1_555 1_555
N6 Cd1F 1_555 1_555
C24 C32 1_555 1_555
C27 C31 1_555 1_555
C31 C32 1_555 1_555
C37 C40 1_555 1_555
C38 C39 1_555 1_555
C42 C42I 1_555 1_555
C49 C50 1_555 1_555
C4E C12E 1_555 1_555
C7E C11E 1_555 1_555
C9E C10E 1_555 1_555
C10E C13E 1_555 1_555
C11E C12E 1_555 1_555
C18E C19E 1_555 1_555
O4E C40E 1_555 1_555
C24E C32E 1_555 1_555
C27E C31E 1_555 1_555
C29E C30E 1_555 1_555
C30E C33E 1_555 1_555
C31E C32E 1_555 1_555
C37E C40E 1_555 1_555
C38E C39E 1_555 1_555
C42E C42B 1_555 1_555
C4F C12F 1_555 1_555
C7F C11F 1_555 1_555
C9F C10F 1_555 1_555
C10F C13F 1_555 1_555
C11F C12F 1_555 1_555
C18F C19F 1_555 1_555
O4F C40F 1_555 1_555
C24F C32F 1_555 1_555
C27F C31F 1_555 1_555
C29F C30F 1_555 1_555
C30F C33F 1_555 1_555
C31F C32F 1_555 1_555
C37F C40F 1_555 1_555
C38F C39F 1_555 1_555
C42F C42G 1_555 1_555
O2G C20G 1_555 1_555
C4G C12G 1_555 1_555
C7G C11G 1_555 1_555
C9G C10G 1_555 1_555
C10G C13G 1_555 1_555
C11G C12G 1_555 1_555
C17G C20G 1_555 1_555
C18G C19G 1_555 1_555
O4G C40G 1_555 1_555
N5G Cd1C 1_555 1_555
N6G Cd1C 1_555 1_555
C24G C32G 1_555 1_555
C27G C31G 1_555 1_555
C31G C32G 1_555 1_555
C37G C40G 1_555 1_555
C38G C39G 1_555 1_555
O2I C20I 1_555 1_555
C4I C12I 1_555 1_555
C7I C11I 1_555 1_555
C9I C10I 1_555 1_555
C10I C13I 1_555 1_555
C11I C12I 1_555 1_555
C17I C20I 1_555 1_555
C18I C19I 1_555 1_555
O4I C40I 1_555 1_555
N5I Cd1A 1_555 1_555
N6I Cd1A 1_555 1_555
C24I C32I 1_555 1_555
C27I C31I 1_555 1_555
C31I C32I 1_555 1_555
C37I C40I 1_555 1_555
C38I C39I 1_555 1_555
C4A C12A 1_555 1_555
C7A C11A 1_555 1_555
C9A C10A 1_555 1_555
C10A C13A 1_555 1_555
C11A C12A 1_555 1_555
C18A C19A 1_555 1_555
O4A C40A 1_555 1_555
N5A Cd1H 1_555 1_555
N6A Cd1H 1_555 1_555
C24A C32A 1_555 1_555
C27A C31A 1_555 1_555
C31A C32A 1_555 1_555
C37A C40A 1_555 1_555
C38A C39A 1_555 1_555
C42A C42D 1_555 1_555
O2B C20B 1_555 1_555
C4B C12B 1_555 1_555
C7B C11B 1_555 1_555
C9B C10B 1_555 1_555
C10B C13B 1_555 1_555
C11B C12B 1_555 1_555
C17B C20B 1_555 1_555
C18B C19B 1_555 1_555
O4B C40B 1_555 1_555
N5B Cd1K 1_555 1_555
N6B Cd1K 1_555 1_555
C24B C32B 1_555 1_555
C27B C31B 1_555 1_555
C31B C32B 1_555 1_555
C37B C40B 1_555 1_555
C38B C39B 1_555 1_555
C4C C12C 1_555 1_555
C7C C11C 1_555 1_555
C9C C10C 1_555 1_555
C10C C13C 1_555 1_555
C11C C12C 1_555 1_555
C18C C19C 1_555 1_555
O4C C40C 1_555 1_555
N5C Cd1J 1_555 1_555
N6C Cd1J 1_555 1_555
C24C C32C 1_555 1_555
C27C C31C 1_555 1_555
C31C C32C 1_555 1_555
C37C C40C 1_555 1_555
C38C C39C 1_555 1_555
C42C C42H 1_555 1_555
O2D C20D 1_555 1_555
C4D C12D 1_555 1_555
C7D C11D 1_555 1_555
C9D C10D 1_555 1_555
C10D C13D 1_555 1_555
C11D C12D 1_555 1_555
C17D C20D 1_555 1_555
C18D C19D 1_555 1_555
O4D C40D 1_555 1_555
C24D C32D 1_555 1_555
C27D C31D 1_555 1_555
C29D C30D 1_555 1_555
C30D C33D 1_555 1_555
C31D C32D 1_555 1_555
C37D C40D 1_555 1_555
C38D C39D 1_555 1_555
O2H C20H 1_555 1_555
C4H C12H 1_555 1_555
C7H C11H 1_555 1_555
C9H C10H 1_555 1_555
C10H C13H 1_555 1_555
C11H C12H 1_555 1_555
C17H C20H 1_555 1_555
C18H C19H 1_555 1_555
O4H C40H 1_555 1_555
C24H C32H 1_555 1_555
C27H C31H 1_555 1_555
C29H C30H 1_555 1_555
C30H C33H 1_555 1_555
C31H C32H 1_555 1_555
C37H C40H 1_555 1_555
C38H C39H 1_555 1_555
C4J C12J 1_555 1_555
C7J C11J 1_555 1_555
C9J C10J 1_555 1_555
C10J C13J 1_555 1_555
C11J C12J 1_555 1_555
C18J C19J 1_555 1_555
O4J C40J 1_555 1_555
C24J C32J 1_555 1_555
C27J C31J 1_555 1_555
C29J C30J 1_555 1_555
C30J C33J 1_555 1_555
C31J C32J 1_555 1_555
C37J C40J 1_555 1_555
C38J C39J 1_555 1_555
C42J C42K 1_555 1_555
O2K C20K 1_555 1_555
C4K C12K 1_555 1_555
C7K C11K 1_555 1_555
C9K C10K 1_555 1_555
C10K C13K 1_555 1_555
C11K C12K 1_555 1_555
C17K C20K 1_555 1_555
C18K C19K 1_555 1_555
O4K C40K 1_555 1_555
C24K C32K 1_555 1_555
C27K C31K 1_555 1_555
C29K C30K 1_555 1_555
C30K C33K 1_555 1_555
C31K C32K 1_555 1_555
C37K C40K 1_555 1_555
C38K C39K 1_555 1_555

#END
