
#######################################################################
#
#                 Cambridge Crystallographic Data Centre
#                                CCDC 
#
#######################################################################
#
# If this CIF has been generated from an entry in the Cambridge 
# Structural Database, then it will include bibliographic, chemical, 
# crystal, experimental, refinement or atomic coordinate data resulting 
# from the CCDC's data processing and validation procedures.
#
#######################################################################

data_FINHOB
_chemical_formula_moiety         
'C57 H49 N12 O13 P1 Pd3 3+,H3 F3 O3 P1,15(H2 O1),3(F1 1-)'
_chemical_name_systematic        
"(\m~3~-(2,4,6-Trioxo-1,3,5-triazinane-1,3,5-triyl)triethane-2,1-diyl trinicotinato)-(\m~3~-hydrogen phosphato)-tris(2,2'-bipyridine)-tri-palladium trifluoride trifluoro(trihydroxy)phosphate pentadecahydrate"
_symmetry_cell_setting           trigonal
_symmetry_space_group_name_H-M   'P -3'
_symmetry_Int_Tables_number      147
_space_group_name_Hall           '-P 3'
loop_
_symmetry_equiv_pos_site_id
_symmetry_equiv_pos_as_xyz
1 x,y,z
2 -y,x-y,z
3 -x+y,-x,z
4 -x,-y,-z
5 y,-x+y,-z
6 x-y,x,-z
_cell_length_a                   18.5062(10)
_cell_length_b                   18.5062(10)
_cell_length_c                   15.7254(10)
_cell_angle_alpha                90
_cell_angle_beta                 90
_cell_angle_gamma                120
_cell_volume                     4664.09
_exptl_crystal_colour            yellow
_exptl_crystal_description       BLOCK
_cell_formula_units_Z            2
loop_
_atom_site_label
_atom_site_type_symbol
_atom_site_fract_x
_atom_site_fract_y
_atom_site_fract_z
Pd1 Pd 0.83611(6) 0.49970(7) 0.82181(7)
P1 P 0.6667 0.3333 0.8470(4)
O1 O 0.5656(8) 0.5413(8) 0.5892(8)
O2 O 0.5712(6) 0.4270(6) 0.6189(6)
O3 O 0.7155(7) 0.4922(6) 0.4792(7)
O4 O 0.7342(5) 0.4175(5) 0.8868(5)
O5 O 0.6667 0.3333 0.7527(9)
N1 N 0.7703(7) 0.5524(7) 0.7769(7)
N2 N 0.6091(7) 0.3575(7) 0.4756(7)
N3 N 0.9089(8) 0.4588(8) 0.8715(8)
N4 N 0.9428(8) 0.5792(8) 0.7629(8)
C1 C 0.7076(7) 0.5120(8) 0.7187(8)
H1 H 0.6944 0.4587 0.6973
C2 C 0.6648(9) 0.5500(9) 0.6922(9)
C3 C 0.6797(10) 0.6264(10) 0.7237(10)
H2 H 0.6479 0.6506 0.7044
C4 C 0.7416(12) 0.6663(11) 0.7837(10)
H3 H 0.7535 0.7183 0.8075
C5 C 0.7868(10) 0.6267(10) 0.8082(10)
H4 H 0.8306 0.6536 0.8485
C6 C 0.5944(10) 0.5079(10) 0.6270(9)
C7 C 0.5075(9) 0.3806(10) 0.5546(10)
H5 H 0.4698 0.4040 0.5496
H6 H 0.4737 0.3215 0.5720
C8 C 0.5475(9) 0.3861(9) 0.4715(9)
H7 H 0.5038 0.3517 0.4295
H8 H 0.5757 0.4447 0.4515
C9 C 0.6933(9) 0.4192(9) 0.4765(8)
C10 C 0.9906(9) 0.5045(10) 0.8434(10)
C11 C 1.0507(10) 0.4897(11) 0.8763(12)
H9 H 1.1073 0.5226 0.8591
C12 C 1.0276(11) 0.4259(13) 0.9351(13)
H10 H 1.0679 0.4129 0.9564
C13 C 0.9427(12) 0.3795(12) 0.9638(14)
H11 H 0.9254 0.3372 1.0058
C14 C 0.8862(10) 0.4006(11) 0.9256(11)
H12 H 0.8290 0.3700 0.9414
C15 C 1.0079(9) 0.5685(10) 0.7825(11)
C16 C 1.0862(10) 0.6182(12) 0.7401(13)
H13 H 1.1323 0.6108 0.7525
C17 C 1.0940(13) 0.6765(12) 0.6815(13)
H14 H 1.1457 0.7093 0.6531
C18 C 1.0268(12) 0.6881(11) 0.6630(12)
H15 H 1.0304 0.7279 0.6225
C19 C 0.9538(11) 0.6369(11) 0.7085(11)
H16 H 0.9077 0.6450 0.6987
O4A O 0.5825(5) 0.3167(7) 0.8868(5)
O4B O 0.6833(7) 0.2658(5) 0.8868(5)
O1A O 0.4587(8) 0.0243(11) 0.5892(8)
O2A O 0.5730(6) 0.1442(8) 0.6189(6)
O3A O 0.5078(6) 0.2233(9) 0.4792(7)
N1A N 0.4476(7) 0.2179(10) 0.7769(7)
N2A N 0.6425(7) 0.2516(10) 0.4756(7)
C1A C 0.4880(8) 0.1956(11) 0.7187(8)
H1A H 0.5413 0.2357 0.6973
C2A C 0.4500(9) 0.1148(13) 0.6922(9)
C3A C 0.3736(10) 0.0533(14) 0.7237(10)
H2A H 0.3494 -0.0027 0.7044
C4A C 0.3337(11) 0.0753(16) 0.7837(10)
H3A H 0.2817 0.0352 0.8075
C5A C 0.3733(10) 0.1601(14) 0.8082(10)
H4A H 0.3464 0.1770 0.8485
C6A C 0.4921(10) 0.0865(14) 0.6270(9)
C7A C 0.6194(10) 0.1269(13) 0.5546(10)
H5A H 0.5960 0.0658 0.5496
H6A H 0.6785 0.1522 0.5720
C8A C 0.6139(9) 0.1614(13) 0.4715(9)
H7A H 0.6483 0.1521 0.4295
H8A H 0.5553 0.1310 0.4515
C9A C 0.5808(9) 0.2741(13) 0.4765(8)
O1B O 0.9757(11) 0.4344(8) 0.5892(8)
O2B O 0.8558(8) 0.4288(6) 0.6189(6)
O3B O 0.7767(9) 0.2845(7) 0.4792(7)
N1B N 0.7821(10) 0.2297(7) 0.7769(7)
N2B N 0.7484(10) 0.3909(7) 0.4756(7)
C1B C 0.8044(11) 0.2924(7) 0.7187(8)
H1B H 0.7643 0.3056 0.6973
C2B C 0.8852(13) 0.3352(9) 0.6922(9)
C3B C 0.9467(14) 0.3203(10) 0.7237(10)
H2B H 1.0027 0.3521 0.7044
C4B C 0.9247(16) 0.2584(12) 0.7837(10)
H3B H 0.9648 0.2465 0.8075
C5B C 0.8399(14) 0.2132(10) 0.8082(10)
H4B H 0.8230 0.1694 0.8485
C6B C 0.9135(14) 0.4056(10) 0.6270(9)
C7B C 0.8731(13) 0.4925(9) 0.5546(10)
H5B H 0.9342 0.5302 0.5496
H6B H 0.8478 0.5263 0.5720
C8B C 0.8386(13) 0.4525(9) 0.4715(9)
H7B H 0.8479 0.4962 0.4295
H8B H 0.8690 0.4243 0.4515
C9B C 0.7259(13) 0.3067(9) 0.4765(8)
Pd1A Pd 0.50030(7) 0.33641(9) 0.82181(7)
N3A N 0.5412(8) 0.4501(11) 0.8715(8)
N4A N 0.4208(8) 0.3636(11) 0.7629(8)
C10A C 0.4955(10) 0.4861(13) 0.8434(10)
C11A C 0.5103(11) 0.5610(15) 0.8763(12)
H9A H 0.4774 0.5847 0.8591
C12A C 0.5741(13) 0.6017(17) 0.9351(13)
H10A H 0.5871 0.6550 0.9564
C13A C 0.6205(12) 0.5632(17) 0.9638(14)
H11A H 0.6628 0.5882 1.0058
C14A C 0.5994(11) 0.4856(15) 0.9256(11)
H12A H 0.6300 0.4590 0.9414
C15A C 0.4315(10) 0.4394(13) 0.7825(11)
C16A C 0.3818(12) 0.4680(16) 0.7401(13)
H13A H 0.3892 0.5215 0.7525
C17A C 0.3235(12) 0.4175(18) 0.6815(13)
H14A H 0.2907 0.4364 0.6531
C18A C 0.3119(11) 0.3387(16) 0.6630(12)
H15A H 0.2721 0.3025 0.6225
C19A C 0.3631(11) 0.3169(16) 0.7085(11)
H16A H 0.3550 0.2627 0.6987
Pd1B Pd 0.66359(9) 0.16389(6) 0.82181(7)
N3B N 0.5499(11) 0.0911(8) 0.8715(8)
N4B N 0.6364(11) 0.0572(8) 0.7629(8)
C10B C 0.5139(13) 0.0094(9) 0.8434(10)
C11B C 0.4390(15) -0.0507(10) 0.8763(12)
H9B H 0.4153 -0.1073 0.8591
C12B C 0.3983(17) -0.0276(11) 0.9351(13)
H10B H 0.3450 -0.0679 0.9564
C13B C 0.4368(17) 0.0573(12) 0.9638(14)
H11B H 0.4118 0.0746 1.0058
C14B C 0.5144(15) 0.1138(10) 0.9256(11)
H12B H 0.5410 0.1710 0.9414
C15B C 0.5606(13) -0.0079(9) 0.7825(11)
C16B C 0.5320(16) -0.0862(10) 0.7401(13)
H13B H 0.4785 -0.1323 0.7525
C17B C 0.5825(18) -0.0940(13) 0.6815(13)
H14B H 0.5636 -0.1457 0.6531
C18B C 0.6613(16) -0.0268(12) 0.6630(12)
H15B H 0.6975 -0.0304 0.6225
C19B C 0.6831(16) 0.0462(11) 0.7085(11)
H16B H 0.7373 0.0923 0.6987
P2 P 0.6667 0.3333 0.2360(5)
F1 F 0.6238(8) 0.2501(7) 0.1734(7)
O6 O 0.7115(9) 0.2937(8) 0.2976(7)
H17 H 0.6796 0.2676 0.3382
F1A F 0.7499(7) 0.3737(11) 0.1734(7)
O6A O 0.7063(8) 0.4178(12) 0.2976(7)
H17A H 0.7324 0.4120 0.3382
F1B F 0.6263(11) 0.3762(8) 0.1734(7)
O6B O 0.5822(12) 0.2885(9) 0.2976(7)
H17B H 0.5880 0.3204 0.3382
F2 F 0.7736(17) 0.8105(19) 0.9631(17)
O7 O 1.0056(13) 0.7395(13) 0.8855(13)
H18 H 1.0598 0.7586 0.9098
H19 H 1.0101 0.7422 0.8246
O8 O 0.3515(12) 0.1793(10) 0.1090(13)
H20 H 0.3943 0.2312 0.0858
H21 H 0.3260 0.1902 0.1568
O9 O 0.834(2) 0.667(2) 0.535(2)
H22 H 0.8008 0.6899 0.5125
H23 H 0.8013 0.6235 0.5742
O10 O 0.7293(9) 0.2420(9) 0.0430(7)
H24 H 0.7114 0.2656 0.0869
H25 H 0.7886 0.2651 0.0466
O11 O 0.4248(9) 0.2714(9) 0.2664(8)
H26 H 0.4394 0.2285 0.2631
H27 H 0.4646 0.3194 0.2349
loop_
_geom_bond_atom_site_label_1
_geom_bond_atom_site_label_2
_geom_bond_site_symmetry_1
_geom_bond_site_symmetry_2
Pd1 O4 1_555 1_555
P1 O4 1_555 1_555
O1 C6 1_555 1_555
O2 C6 1_555 1_555
O3 C9 1_555 1_555
O5 P1 1_555 1_555
N1 Pd1 1_555 1_555
N2 C8 1_555 1_555
N3 Pd1 1_555 1_555
N4 Pd1 1_555 1_555
C1 N1 1_555 1_555
H1 C1 1_555 1_555
C2 C1 1_555 1_555
C3 C2 1_555 1_555
H2 C3 1_555 1_555
C4 C3 1_555 1_555
H3 C4 1_555 1_555
C5 N1 1_555 1_555
H4 C5 1_555 1_555
C6 C2 1_555 1_555
C7 O2 1_555 1_555
H5 C7 1_555 1_555
H6 C7 1_555 1_555
C8 C7 1_555 1_555
H7 C8 1_555 1_555
H8 C8 1_555 1_555
C9 N2 1_555 1_555
C10 N3 1_555 1_555
C11 C10 1_555 1_555
H9 C11 1_555 1_555
C12 C11 1_555 1_555
H10 C12 1_555 1_555
C13 C12 1_555 1_555
H11 C13 1_555 1_555
C14 N3 1_555 1_555
H12 C14 1_555 1_555
C15 N4 1_555 1_555
C16 C15 1_555 1_555
H13 C16 1_555 1_555
C17 C16 1_555 1_555
H14 C17 1_555 1_555
C18 C17 1_555 1_555
H15 C18 1_555 1_555
C19 N4 1_555 1_555
H16 C19 1_555 1_555
P2 F1 1_555 1_555
O6 P2 1_555 1_555
H17 O6 1_555 1_555
O7 H18 1_555 1_555
H19 O7 1_555 1_555
O8 H20 1_555 1_555
H21 O8 1_555 1_555
O9 H22 1_555 1_555
H23 O9 1_555 1_555
O10 H24 1_555 1_555
H25 O10 1_555 1_555
O11 H26 1_555 1_555
H27 O11 1_555 1_555
O4A P1 1_555 1_555
O4B P1 1_555 1_555
O1A C6A 1_555 1_555
O2A C6A 1_555 1_555
O3A C9A 1_555 1_555
N1A C1A 1_555 1_555
N2A C8A 1_555 1_555
C1A H1A 1_555 1_555
C2A C1A 1_555 1_555
C3A C2A 1_555 1_555
H2A C3A 1_555 1_555
C4A C3A 1_555 1_555
H3A C4A 1_555 1_555
C5A N1A 1_555 1_555
H4A C5A 1_555 1_555
C6A C2A 1_555 1_555
C7A O2A 1_555 1_555
H5A C7A 1_555 1_555
H6A C7A 1_555 1_555
C8A C7A 1_555 1_555
H7A C8A 1_555 1_555
H8A C8A 1_555 1_555
C9A N2 1_555 1_555
O1B C6B 1_555 1_555
O2B C6B 1_555 1_555
O3B C9B 1_555 1_555
N1B C1B 1_555 1_555
N2B C9 1_555 1_555
C1B H1B 1_555 1_555
C2B C1B 1_555 1_555
C3B C2B 1_555 1_555
H2B C3B 1_555 1_555
C4B C3B 1_555 1_555
H3B C4B 1_555 1_555
C5B N1B 1_555 1_555
H4B C5B 1_555 1_555
C6B C2B 1_555 1_555
C7B O2B 1_555 1_555
H5B C7B 1_555 1_555
H6B C7B 1_555 1_555
C8B N2B 1_555 1_555
H7B C8B 1_555 1_555
H8B C8B 1_555 1_555
C9B N2A 1_555 1_555
Pd1A O4A 1_555 1_555
N3A Pd1A 1_555 1_555
N4A Pd1A 1_555 1_555
C10A N3A 1_555 1_555
C11A C10A 1_555 1_555
H9A C11A 1_555 1_555
C12A C11A 1_555 1_555
H10A C12A 1_555 1_555
C13A C12A 1_555 1_555
H11A C13A 1_555 1_555
C14A N3A 1_555 1_555
H12A C14A 1_555 1_555
C15A N4A 1_555 1_555
C16A C15A 1_555 1_555
H13A C16A 1_555 1_555
C17A C16A 1_555 1_555
H14A C17A 1_555 1_555
C18A C17A 1_555 1_555
H15A C18A 1_555 1_555
C19A N4A 1_555 1_555
H16A C19A 1_555 1_555
Pd1B O4B 1_555 1_555
N3B Pd1B 1_555 1_555
N4B Pd1B 1_555 1_555
C10B N3B 1_555 1_555
C11B C10B 1_555 1_555
H9B C11B 1_555 1_555
C12B C11B 1_555 1_555
H10B C12B 1_555 1_555
C13B C12B 1_555 1_555
H11B C13B 1_555 1_555
C14B N3B 1_555 1_555
H12B C14B 1_555 1_555
C15B N4B 1_555 1_555
C16B C15B 1_555 1_555
H13B C16B 1_555 1_555
C17B C16B 1_555 1_555
H14B C17B 1_555 1_555
C18B C17B 1_555 1_555
H15B C18B 1_555 1_555
C19B N4B 1_555 1_555
H16B C19B 1_555 1_555
F1A P2 1_555 1_555
O6A P2 1_555 1_555
H17A O6A 1_555 1_555
F1B P2 1_555 1_555
O6B P2 1_555 1_555
H17B O6B 1_555 1_555
C4 C5 1_555 1_555
C10 C15 1_555 1_555
C13 C14 1_555 1_555
C18 C19 1_555 1_555
N1A Pd1A 1_555 1_555
N2A C9A 1_555 1_555
C4A C5A 1_555 1_555
N1B Pd1B 1_555 1_555
N2B C9B 1_555 1_555
C4B C5B 1_555 1_555
C7B C8B 1_555 1_555
C10A C15A 1_555 1_555
C13A C14A 1_555 1_555
C18A C19A 1_555 1_555
C10B C15B 1_555 1_555
C13B C14B 1_555 1_555
C18B C19B 1_555 1_555

#END
