
#######################################################################
#
#                 Cambridge Crystallographic Data Centre
#                                CCDC 
#
#######################################################################
#
# If this CIF has been generated from an entry in the Cambridge 
# Structural Database, then it will include bibliographic, chemical, 
# crystal, experimental, refinement or atomic coordinate data resulting 
# from the CCDC's data processing and validation procedures.
#
#######################################################################

data_FINHIV
_chemical_formula_moiety         
'C57 H49 As1 N12 O13 Pd3 3+,H3 F3 O3 P1,3(C3 H6 O1),18(H2 O1),3(F1 1-)'
_chemical_name_systematic        
"(\m~3~-(2,4,6-Trioxo-1,3,5-triazinane-1,3,5-triyl)triethane-2,1-diyl trinicotinato)-(\m~3~-hydrogen arsenato)-tris(2,2'-bipyridine)-tri-palladium trifluoride trifluoro(trihydroxy)phosphate acetone solvate octadecahydrate"
_symmetry_cell_setting           trigonal
_symmetry_space_group_name_H-M   'P -3'
_symmetry_Int_Tables_number      147
_space_group_name_Hall           '-P 3'
loop_
_symmetry_equiv_pos_site_id
_symmetry_equiv_pos_as_xyz
1 x,y,z
2 -y,x-y,z
3 -x+y,-x,z
4 -x,-y,-z
5 y,-x+y,-z
6 x-y,x,-z
_cell_length_a                   18.551(3)
_cell_length_b                   18.551(3)
_cell_length_c                   15.740(3)
_cell_angle_alpha                90
_cell_angle_beta                 90
_cell_angle_gamma                120
_cell_volume                     4691.05
_exptl_crystal_colour            yellow
_exptl_crystal_description       BLOCK
_cell_formula_units_Z            2
loop_
_atom_site_label
_atom_site_type_symbol
_atom_site_fract_x
_atom_site_fract_y
_atom_site_fract_z
Pd1 Pd 0.66412(5) 0.50101(5) 0.67910(5)
As1 As 0.6667 0.3333 0.65420(19)
O1 O 0.9764(5) 0.5420(6) 0.9105(6)
O2 O 0.8556(4) 0.4267(4) 0.8812(4)
O3 O 0.7163(5) 0.2235(5) 1.0202(5)
O4 O 0.6831(4) 0.4189(4) 0.6132(4)
O5 O 0.6667 0.3333 0.7512(7)
N1 N 0.7817(5) 0.5519(5) 0.7244(5)
N2 N 0.7484(6) 0.3583(6) 1.0232(5)
N3 N 0.5504(6) 0.4612(6) 0.6307(5)
N4 N 0.6395(6) 0.5812(6) 0.7383(5)
C1 C 0.8043(6) 0.5130(6) 0.7820(6)
H1 H 0.7644 0.4620 0.8043
C2 C 0.8848(7) 0.5476(7) 0.8078(6)
C3 C 0.9479(7) 0.6271(7) 0.7737(7)
H2 H 1.0032 0.6509 0.7904
C4 C 0.9239(8) 0.6647(8) 0.7179(9)
H3 H 0.9629 0.7162 0.6957
C5 C 0.8385(7) 0.6270(7) 0.6915(7)
H4 H 0.8223 0.6536 0.6522
C6 C 0.9112(7) 0.5060(8) 0.8711(7)
C7 C 0.8701(10) 0.3792(10) 0.9478(10)
H5 H 0.8437 0.3212 0.9312
H6 H 0.9294 0.4001 0.9530
C8 C 0.8379(6) 0.3855(7) 1.0277(6)
H7 H 0.8683 0.4428 1.0470
H8 H 0.8463 0.3515 1.0689
C9 C 0.6934(7) 0.2742(7) 1.0229(7)
C10 C 0.5119(7) 0.5041(7) 0.6549(6)
C11 C 0.4387(7) 0.4891(8) 0.6257(8)
H9 H 0.4146 0.5193 0.6460
C12 C 0.3994(8) 0.4293(9) 0.5659(9)
H10 H 0.3490 0.4190 0.5429
C13 C 0.4387(8) 0.3812(9) 0.5383(9)
H11 H 0.4136 0.3393 0.4978
C14 C 0.5136(7) 0.4002(7) 0.5743(7)
H12 H 0.5390 0.3698 0.5589
C15 C 0.5626(7) 0.5711(8) 0.7203(8)
C16 C 0.5342(9) 0.6201(8) 0.7609(9)
H13 H 0.4811 0.6109 0.7491
C17 C 0.5832(11) 0.6805(9) 0.8168(9)
H14 H 0.5664 0.7155 0.8406
C18 C 0.6597(10) 0.6880(9) 0.8370(8)
H15 H 0.6934 0.7254 0.8785
C19 C 0.6856(9) 0.6377(8) 0.7936(8)
H16 H 0.7382 0.6456 0.8053
O4A O 0.5811(4) 0.2642(6) 0.6132(4)
O4B O 0.7358(6) 0.3169(4) 0.6132(4)
O1A O 0.4580(6) 0.4344(8) 0.9105(6)
O2A O 0.5733(4) 0.4289(6) 0.8812(4)
O3A O 0.7765(5) 0.4928(7) 1.0202(5)
N1A N 0.4481(5) 0.2298(7) 0.7244(5)
N2A N 0.6417(6) 0.3901(8) 1.0232(5)
C1A C 0.4870(6) 0.2913(8) 0.7820(6)
H1A H 0.5380 0.3024 0.8043
C2A C 0.4524(7) 0.3372(10) 0.8078(6)
C3A C 0.3729(7) 0.3208(10) 0.7737(7)
H2A H 0.3491 0.3523 0.7904
C4A C 0.3353(8) 0.2592(11) 0.7179(9)
H3A H 0.2838 0.2467 0.6957
C5A C 0.3730(7) 0.2115(10) 0.6915(7)
H4A H 0.3464 0.1687 0.6522
C6A C 0.4940(8) 0.4052(11) 0.8711(7)
C7A C 0.6208(10) 0.4909(14) 0.9478(10)
H5A H 0.6788 0.5225 0.9312
H6A H 0.5999 0.5293 0.9530
C8A C 0.6145(7) 0.4524(9) 1.0277(6)
H7A H 0.5572 0.4255 1.0470
H8A H 0.6485 0.4948 1.0689
C9A C 0.7258(7) 0.4192(10) 1.0229(7)
O1B O 0.5656(8) 0.0236(5) 0.9105(6)
O2B O 0.5711(6) 0.1444(4) 0.8812(4)
O3B O 0.5072(7) 0.2837(5) 1.0202(5)
N1B N 0.7702(7) 0.2183(5) 0.7244(5)
N2B N 0.6099(8) 0.2516(6) 1.0232(5)
C1B C 0.7087(8) 0.1957(6) 0.7820(6)
H1B H 0.6976 0.2356 0.8043
C2B C 0.6628(10) 0.1152(7) 0.8078(6)
C3B C 0.6792(10) 0.0521(7) 0.7737(7)
H2B H 0.6477 -0.0032 0.7904
C4B C 0.7408(11) 0.0761(8) 0.7179(9)
H3B H 0.7533 0.0371 0.6957
C5B C 0.7885(10) 0.1615(7) 0.6915(7)
H4B H 0.8313 0.1777 0.6522
C6B C 0.5948(11) 0.0888(7) 0.8711(7)
C7B C 0.5091(14) 0.1299(10) 0.9478(10)
H5B H 0.4775 0.1563 0.9312
H6B H 0.4707 0.0706 0.9530
C8B C 0.5476(9) 0.1621(6) 1.0277(6)
H7B H 0.5745 0.1317 1.0470
H8B H 0.5052 0.1537 1.0689
C9B C 0.5808(10) 0.3066(7) 1.0229(7)
Pd1A Pd 0.49899(5) 0.16311(7) 0.67910(5)
N3A N 0.5388(6) 0.0892(8) 0.6307(5)
N4A N 0.4188(6) 0.0583(8) 0.7383(5)
C10A C 0.4959(7) 0.0078(10) 0.6549(6)
C11A C 0.5109(8) -0.0504(11) 0.6257(8)
H9A H 0.4807 -0.1047 0.6460
C12A C 0.5707(9) -0.0299(12) 0.5659(9)
H10A H 0.5810 -0.0700 0.5429
C13A C 0.6188(9) 0.0575(12) 0.5383(9)
H11A H 0.6607 0.0743 0.4978
C14A C 0.5998(7) 0.1134(10) 0.5743(7)
H12A H 0.6302 0.1692 0.5589
C15A C 0.4289(8) -0.0085(11) 0.7203(8)
C16A C 0.3799(8) -0.0859(12) 0.7609(9)
H13A H 0.3891 -0.1298 0.7491
C17A C 0.3195(9) -0.0973(14) 0.8168(9)
H14A H 0.2845 -0.1491 0.8406
C18A C 0.3120(9) -0.0283(13) 0.8370(8)
H15A H 0.2746 -0.0320 0.8785
C19A C 0.3623(8) 0.0479(12) 0.7936(8)
H16A H 0.3544 0.0926 0.8053
Pd1B Pd 0.83689(7) 0.33588(5) 0.67910(5)
N3B N 0.9108(8) 0.4496(6) 0.6307(5)
N4B N 0.9417(8) 0.3605(6) 0.7383(5)
C10B C 0.9922(10) 0.4881(7) 0.6549(6)
C11B C 1.0504(11) 0.5613(7) 0.6257(8)
H9B H 1.1047 0.5854 0.6460
C12B C 1.0299(12) 0.6006(8) 0.5659(9)
H10B H 1.0700 0.6510 0.5429
C13B C 0.9425(12) 0.5613(8) 0.5383(9)
H11B H 0.9257 0.5864 0.4978
C14B C 0.8866(10) 0.4864(7) 0.5743(7)
H12B H 0.8308 0.4610 0.5589
C15B C 1.0085(11) 0.4374(7) 0.7203(8)
C16B C 1.0859(12) 0.4658(9) 0.7609(9)
H13B H 1.1298 0.5189 0.7491
C17B C 1.0973(14) 0.4168(11) 0.8168(9)
H14B H 1.1491 0.4336 0.8406
C18B C 1.0283(13) 0.3403(10) 0.8370(8)
H15B H 1.0320 0.3066 0.8785
C19B C 0.9521(12) 0.3144(9) 0.7936(8)
H16B H 0.9074 0.2618 0.8053
P1 P 0.3333 0.6667 0.7375(3)
F1 F 0.3743(5) 0.6226(5) 0.6745(4)
O6 O 0.4190(4) 0.7066(5) 0.7987(4)
H17 H 0.4070 0.6842 0.8455
F1A F 0.3774(5) 0.7517(7) 0.6745(4)
O6A O 0.2934(5) 0.7124(6) 0.7987(4)
H17A H 0.3158 0.7228 0.8455
F1B F 0.2483(7) 0.6257(5) 0.6745(4)
O6B O 0.2876(6) 0.5810(4) 0.7987(4)
H17B H 0.2772 0.5930 0.8455
F2 F 0.7558(6) 0.2688(6) 0.4578(5)
O7 O 0.9580(11) 0.1898(13) 0.4569(9)
C20 C 1.0094(12) 0.2687(10) 0.6208(11)
H18 H 0.9690 0.2866 0.6177
H19 H 1.0643 0.3161 0.6153
H20 H 1.0046 0.2420 0.6744
C21 C 0.9915(8) 0.1969(8) 0.5366(10)
C22 C 1.0330(12) 0.1407(10) 0.5393(11)
H21 H 1.0075 0.0975 0.4974
H22 H 1.0254 0.1161 0.5946
H23 H 1.0915 0.1742 0.5275
O8 O 0.8451(5) 0.2725(6) 0.2311(6)
H24 H 0.8675 0.2533 0.2611
H25 H 0.8648 0.3221 0.2416
O9 O 0.8224(10) 0.1757(9) 0.3910(8)
H26 H 0.7868 0.1404 0.3599
H27 H 0.8404 0.2219 0.3695
O10 O 1.1635(15) 0.024(2) 0.7521(18)
H28 H 1.1500 -0.0193 0.7774
H29 H 1.1219 0.0226 0.7320
O11 O 0.6587(11) 0.8308(11) 1.0417(10)
H30 H 0.6842 0.8240 1.0029
H31 H 0.6916 0.8601 1.0786
O12 O 0.8052(13) 0.6976(11) 1.1153(16)
H32 H 0.8383 0.7268 1.1521
H33 H 0.7825 0.7219 1.0950
O13 O 0.7850(17) 0.850(2) 1.1218(17)
H34 H 0.8085 0.8996 1.1339
H35 H 0.8004 0.8441 1.0747
H36? H 0.7119 0.3702 0.7686
loop_
_geom_bond_atom_site_label_1
_geom_bond_atom_site_label_2
_geom_bond_site_symmetry_1
_geom_bond_site_symmetry_2
Pd1 O4 1_555 1_555
As1 O4 1_555 1_555
O1 C6 1_555 1_555
O2 C6 1_555 1_555
O3 C9 1_555 1_555
O5 As1 1_555 1_555
N1 Pd1 1_555 1_555
N2 C8 1_555 1_555
N3 Pd1 1_555 1_555
N4 Pd1 1_555 1_555
C1 N1 1_555 1_555
H1 C1 1_555 1_555
C2 C1 1_555 1_555
C3 C2 1_555 1_555
H2 C3 1_555 1_555
C4 C3 1_555 1_555
H3 C4 1_555 1_555
C5 N1 1_555 1_555
H4 C5 1_555 1_555
C6 C2 1_555 1_555
C7 O2 1_555 1_555
H5 C7 1_555 1_555
H6 C7 1_555 1_555
C8 C7 1_555 1_555
H7 C8 1_555 1_555
H8 C8 1_555 1_555
C9 N2 1_555 1_555
C10 N3 1_555 1_555
C11 C10 1_555 1_555
H9 C11 1_555 1_555
C12 C11 1_555 1_555
H10 C12 1_555 1_555
C13 C12 1_555 1_555
H11 C13 1_555 1_555
C14 N3 1_555 1_555
H12 C14 1_555 1_555
C15 N4 1_555 1_555
C16 C15 1_555 1_555
H13 C16 1_555 1_555
C17 C16 1_555 1_555
H14 C17 1_555 1_555
C18 C17 1_555 1_555
H15 C18 1_555 1_555
C19 N4 1_555 1_555
H16 C19 1_555 1_555
P1 F1 1_555 1_555
O6 P1 1_555 1_555
H17 O6 1_555 1_555
O7 C21 1_555 1_555
C20 H18 1_555 1_555
H19 C20 1_555 1_555
H20 C20 1_555 1_555
C21 C20 1_555 1_555
C22 C21 1_555 1_555
H21 C22 1_555 1_555
H22 C22 1_555 1_555
H23 C22 1_555 1_555
O8 H24 1_555 1_555
H25 O8 1_555 1_555
O9 H26 1_555 1_555
H27 O9 1_555 1_555
O10 H28 1_555 1_555
H29 O10 1_555 1_555
O11 H30 1_555 1_555
H31 O11 1_555 1_555
O12 H32 1_555 1_555
H33 O12 1_555 1_555
O13 H34 1_555 1_555
H35 O13 1_555 1_555
O4A As1 1_555 1_555
O4B As1 1_555 1_555
O1A C6A 1_555 1_555
O2A C6A 1_555 1_555
O3A C9A 1_555 1_555
N1A C1A 1_555 1_555
N2A C8A 1_555 1_555
C1A H1A 1_555 1_555
C2A C1A 1_555 1_555
C3A C2A 1_555 1_555
H2A C3A 1_555 1_555
C4A C3A 1_555 1_555
H3A C4A 1_555 1_555
C5A N1A 1_555 1_555
H4A C5A 1_555 1_555
C6A C2A 1_555 1_555
C7A O2A 1_555 1_555
H5A C7A 1_555 1_555
H6A C7A 1_555 1_555
C8A C7A 1_555 1_555
H7A C8A 1_555 1_555
H8A C8A 1_555 1_555
C9A N2 1_555 1_555
O1B C6B 1_555 1_555
O2B C6B 1_555 1_555
O3B C9B 1_555 1_555
N1B C1B 1_555 1_555
N2B C9 1_555 1_555
C1B H1B 1_555 1_555
C2B C1B 1_555 1_555
C3B C2B 1_555 1_555
H2B C3B 1_555 1_555
C4B C3B 1_555 1_555
H3B C4B 1_555 1_555
C5B N1B 1_555 1_555
H4B C5B 1_555 1_555
C6B C2B 1_555 1_555
C7B O2B 1_555 1_555
H5B C7B 1_555 1_555
H6B C7B 1_555 1_555
C8B N2B 1_555 1_555
H7B C8B 1_555 1_555
H8B C8B 1_555 1_555
C9B N2A 1_555 1_555
Pd1A O4A 1_555 1_555
N3A Pd1A 1_555 1_555
N4A Pd1A 1_555 1_555
C10A N3A 1_555 1_555
C11A C10A 1_555 1_555
H9A C11A 1_555 1_555
C12A C11A 1_555 1_555
H10A C12A 1_555 1_555
C13A C12A 1_555 1_555
H11A C13A 1_555 1_555
C14A N3A 1_555 1_555
H12A C14A 1_555 1_555
C15A N4A 1_555 1_555
C16A C15A 1_555 1_555
H13A C16A 1_555 1_555
C17A C16A 1_555 1_555
H14A C17A 1_555 1_555
C18A C17A 1_555 1_555
H15A C18A 1_555 1_555
C19A N4A 1_555 1_555
H16A C19A 1_555 1_555
Pd1B O4B 1_555 1_555
N3B Pd1B 1_555 1_555
N4B Pd1B 1_555 1_555
C10B N3B 1_555 1_555
C11B C10B 1_555 1_555
H9B C11B 1_555 1_555
C12B C11B 1_555 1_555
H10B C12B 1_555 1_555
C13B C12B 1_555 1_555
H11B C13B 1_555 1_555
C14B N3B 1_555 1_555
H12B C14B 1_555 1_555
C15B N4B 1_555 1_555
C16B C15B 1_555 1_555
H13B C16B 1_555 1_555
C17B C16B 1_555 1_555
H14B C17B 1_555 1_555
C18B C17B 1_555 1_555
H15B C18B 1_555 1_555
C19B N4B 1_555 1_555
H16B C19B 1_555 1_555
F1A P1 1_555 1_555
O6A P1 1_555 1_555
H17A O6A 1_555 1_555
F1B P1 1_555 1_555
O6B P1 1_555 1_555
H17B O6B 1_555 1_555
C4 C5 1_555 1_555
C10 C15 1_555 1_555
C13 C14 1_555 1_555
C18 C19 1_555 1_555
N1A Pd1A 1_555 1_555
N2A C9A 1_555 1_555
C4A C5A 1_555 1_555
N1B Pd1B 1_555 1_555
N2B C9B 1_555 1_555
C4B C5B 1_555 1_555
C7B C8B 1_555 1_555
C10A C15A 1_555 1_555
C13A C14A 1_555 1_555
C18A C19A 1_555 1_555
C10B C15B 1_555 1_555
C13B C14B 1_555 1_555
C18B C19B 1_555 1_555

#END
