
#######################################################################
#
#                 Cambridge Crystallographic Data Centre
#                                CCDC 
#
#######################################################################
#
# If this CIF has been generated from an entry in the Cambridge 
# Structural Database, then it will include bibliographic, chemical, 
# crystal, experimental, refinement or atomic coordinate data resulting 
# from the CCDC's data processing and validation procedures.
#
#######################################################################

data_FIVFOG
_chemical_formula_moiety         'C52 H40 Co2 N8 O4,3(C3 H7 N1 O1)'
_chemical_name_systematic        
'bis(\m~2~1,4-bis(3-(2-Oxyphenyl)pyrazol-1-ylmethyl)benzene)-di-cobalt(ii) dimethylformamide solvate'
_symmetry_cell_setting           monoclinic
_symmetry_space_group_name_H-M   'P 21/c'
_symmetry_Int_Tables_number      14
_space_group_name_Hall           '-P 2ybc'
loop_
_symmetry_equiv_pos_site_id
_symmetry_equiv_pos_as_xyz
1 x,y,z
2 -x,1/2+y,1/2-z
3 -x,-y,-z
4 x,1/2-y,1/2+z
_cell_length_a                   21.814(3)
_cell_length_b                   16.1302(19)
_cell_length_c                   15.9517(19)
_cell_angle_alpha                90
_cell_angle_beta                 96.576(2)
_cell_angle_gamma                90
_cell_volume                     5575.9
_exptl_crystal_colour            red
_exptl_crystal_description       prismatic
_cell_formula_units_Z            4
_exptl_crystal_recrystallization_method 'diethyl ether/dimethylformamide'
loop_
_atom_site_label
_atom_site_type_symbol
_atom_site_fract_x
_atom_site_fract_y
_atom_site_fract_z
Co1 Co 0.16915(3) 0.45671(4) 0.29066(4)
Co2 Co 0.36772(3) 0.68062(4) 0.76746(4)
N1 N 0.10777(15) 0.5131(2) 0.3547(2)
N2 N 0.09714(15) 0.5019(2) 0.4372(2)
N3 N 0.40061(16) 0.5448(2) 0.6489(2)
N4 N 0.40668(15) 0.6251(2) 0.6768(2)
N5 N 0.26057(16) 0.4534(2) 0.3231(2)
N6 N 0.30147(17) 0.5175(2) 0.3351(2)
N7 N 0.23430(16) 0.7248(2) 0.7122(2)
N8 N 0.27748(15) 0.6878(2) 0.7695(2)
O1 O 0.15255(14) 0.5268(2) 0.19601(19)
O2 O 0.40297(15) 0.78525(19) 0.7499(2)
O3 O 0.16080(14) 0.3409(2) 0.2991(2)
O4 O 0.38009(14) 0.6169(2) 0.8665(2)
C1 C 0.2981(2) 0.4732(3) 0.6309(3)
C2 C 0.2925(2) 0.4190(3) 0.5638(3)
H1 H 0.3272 0.3917 0.5491
C3 C 0.2356(2) 0.4047(3) 0.5177(3)
H2 H 0.2327 0.3670 0.4733
C4 C 0.1834(2) 0.4453(3) 0.5364(3)
C5 C 0.1888(2) 0.4986(3) 0.6044(3)
H3 H 0.1540 0.5259 0.6189
C6 C 0.2452(2) 0.5120(3) 0.6511(3)
H4 H 0.2477 0.5479 0.6970
C7 C 0.1216(2) 0.4291(3) 0.4856(3)
H5 H 0.1259 0.3836 0.4469
H6 H 0.0923 0.4123 0.5236
C8 C 0.0602(2) 0.5611(3) 0.4613(3)
H7 H 0.0466 0.5658 0.5143
C9 C 0.0456(2) 0.6133(3) 0.3950(3)
H8 H 0.0209 0.6604 0.3940
C10 C 0.07540(18) 0.5818(3) 0.3282(3)
C11 C 0.07179(18) 0.6135(3) 0.2418(3)
C12 C 0.0284(2) 0.6759(3) 0.2182(3)
H9 H 0.0042 0.6959 0.2582
C13 C 0.0205(2) 0.7085(3) 0.1381(3)
H10 H -0.0086 0.7500 0.1243
C14 C 0.0561(2) 0.6793(3) 0.0781(3)
H11 H 0.0508 0.7006 0.0236
C15 C 0.0991(2) 0.6191(3) 0.0994(3)
H12 H 0.1229 0.6003 0.0585
C16 C 0.10891(19) 0.5844(3) 0.1808(3)
C17 C 0.35917(19) 0.4861(3) 0.6842(3)
H13 H 0.3513 0.5057 0.7394
H14 H 0.3799 0.4330 0.6919
C18 C 0.4373(2) 0.5307(3) 0.5890(3)
H15 H 0.4410 0.4807 0.5610
C19 C 0.4686(2) 0.6021(3) 0.5756(3)
H16 H 0.4969 0.6104 0.5370
C20 C 0.44914(19) 0.6604(3) 0.6324(3)
C21 C 0.46978(18) 0.7467(3) 0.6442(3)
C22 C 0.5152(2) 0.7754(3) 0.5958(3)
H17 H 0.5309 0.7387 0.5586
C23 C 0.5377(2) 0.8549(3) 0.6007(3)
H18 H 0.5672 0.8718 0.5666
C24 C 0.5159(2) 0.9097(3) 0.6568(3)
H19 H 0.5314 0.9634 0.6619
C25 C 0.4714(2) 0.8842(3) 0.7050(3)
H20 H 0.4568 0.9221 0.7419
C26 C 0.4467(2) 0.8034(3) 0.7013(3)
C27 C 0.2610(2) 0.7275(3) 0.5633(3)
C28 C 0.2111(2) 0.6894(3) 0.5175(3)
H21 H 0.1726 0.6909 0.5371
C29 C 0.2181(2) 0.6491(3) 0.4429(3)
H22 H 0.1841 0.6237 0.4130
C30 C 0.2746(2) 0.6458(3) 0.4118(3)
C31 C 0.3242(2) 0.6852(3) 0.4566(3)
H23 H 0.3625 0.6845 0.4364
C32 C 0.3171(2) 0.7259(3) 0.5316(3)
H24 H 0.3508 0.7525 0.5610
C33 C 0.2814(2) 0.6042(3) 0.3284(3)
H25 H 0.2421 0.6067 0.2934
H26 H 0.3110 0.6353 0.3000
C34 C 0.3588(2) 0.4894(3) 0.3538(3)
H27 H 0.3941 0.5218 0.3645
C35 C 0.3568(2) 0.4048(3) 0.3544(3)
H28 H 0.3901 0.3688 0.3653
C36 C 0.2943(2) 0.3830(3) 0.3350(3)
C37 C 0.2673(2) 0.2995(3) 0.3304(3)
C38 C 0.3075(3) 0.2317(3) 0.3464(4)
H29 H 0.3497 0.2416 0.3574
C39 C 0.2866(3) 0.1514(4) 0.3463(4)
H30 H 0.3143 0.1078 0.3570
C40 C 0.2251(3) 0.1362(3) 0.3306(4)
H31 H 0.2107 0.0819 0.3299
C41 C 0.1846(3) 0.1997(3) 0.3160(3)
H32 H 0.1426 0.1878 0.3065
C42 C 0.2039(2) 0.2839(3) 0.3145(3)
C43 C 0.2530(2) 0.7748(3) 0.6429(3)
H33 H 0.2917 0.8020 0.6623
H34 H 0.2224 0.8178 0.6294
C44 C 0.1777(2) 0.7116(3) 0.7336(3)
H35 H 0.1410 0.7305 0.7042
C45 C 0.1828(2) 0.6660(3) 0.8055(3)
H36 H 0.1507 0.6480 0.8346
C46 C 0.24558(19) 0.6513(3) 0.8275(3)
C47 C 0.27541(19) 0.6067(3) 0.9016(3)
C48 C 0.2381(2) 0.5781(3) 0.9614(3)
H37 H 0.1956 0.5847 0.9502
C49 C 0.2611(3) 0.5413(3) 1.0352(3)
H38 H 0.2348 0.5233 1.0735
C50 C 0.3240(3) 0.5314(3) 1.0520(3)
H39 H 0.3404 0.5070 1.1025
C51 C 0.3626(2) 0.5568(3) 0.9954(3)
H40 H 0.4049 0.5491 1.0080
C52 C 0.3398(2) 0.5944(3) 0.9182(3)
O5 O 0.5540(2) 0.8344(2) 0.9144(3)
N9 N 0.56343(19) 0.7033(3) 0.8688(3)
C53 C 0.5326(3) 0.7669(4) 0.8915(3)
H41 H 0.4901 0.7604 0.8902
C54 C 0.6325(4) 0.7018(7) 0.8865(9)
H42 H 0.6492 0.7516 0.8653
H43 H 0.6483 0.6546 0.8592
H44 H 0.6441 0.6981 0.9462
C56 C 0.5355(2) 0.6239(3) 0.8475(4)
H48 H 0.4927 0.6255 0.8564
H49 H 0.5562 0.5818 0.8826
H50 H 0.5390 0.6116 0.7894
O6 O 0.0613(2) 0.2478(3) 0.0948(4)
N10 N 0.1496(2) 0.3103(3) 0.0717(3)
C57 C 0.1172(3) 0.2531(4) 0.1053(4)
H51 H 0.1387 0.2137 0.1396
C58 C 0.2159(3) 0.3141(4) 0.0906(4)
H52 H 0.2270 0.3635 0.1223
H53 H 0.2345 0.3149 0.0390
H54 H 0.2301 0.2664 0.1233
C59 C 0.1206(3) 0.3762(4) 0.0210(4)
H55 H 0.0793 0.3603 -0.0001
H56 H 0.1437 0.3869 -0.0256
H57 H 0.1195 0.4254 0.0547
N11 N 0.03698(19) 0.5467(3) 0.7915(3)
O7 O 0.0393(2) 0.5728(3) 0.6553(3)
C60 C 0.0174(4) 0.5880(6) 0.7236(6)
H58 H -0.0126 0.6287 0.7254
C61 C 0.0826(5) 0.4804(6) 0.7862(7)
H59 H 0.0761 0.4376 0.8261
H60 H 0.1234 0.5028 0.7989
H61 H 0.0781 0.4577 0.7303
C62 C 0.0169(5) 0.5610(7) 0.8702(6)
H62 H 0.0053 0.5094 0.8938
H63 H -0.0180 0.5976 0.8638
H64 H 0.0496 0.5859 0.9071
C55? C 0.6194(8) 0.7232(12) 0.8331(16)
H45? H 0.6093 0.7458 0.7775
H46? H 0.6436 0.6739 0.8297
H47? H 0.6426 0.7632 0.8682
C63? C -0.0111(8) 0.6136(11) 0.8011(11)
H65? H -0.0452 0.5899 0.8259
H66? H -0.0256 0.6359 0.7466
H67? H 0.0071 0.6571 0.8367
C64? C 0.0507(8) 0.5055(12) 0.8734(11)
H68? H 0.0141 0.4789 0.8883
H69? H 0.0646 0.5458 0.9155
H70? H 0.0824 0.4647 0.8699
C65? C 0.0587(8) 0.5255(11) 0.7217(11)
H71? H 0.0856 0.4811 0.7185
loop_
_geom_bond_atom_site_label_1
_geom_bond_atom_site_label_2
_geom_bond_site_symmetry_1
_geom_bond_site_symmetry_2
Co1 N1 1_555 1_555
Co2 N4 1_555 1_555
N1 N2 1_555 1_555
N2 C7 1_555 1_555
N3 N4 1_555 1_555
N4 C20 1_555 1_555
N5 Co1 1_555 1_555
N6 N5 1_555 1_555
N7 N8 1_555 1_555
N8 Co2 1_555 1_555
O1 Co1 1_555 1_555
O2 Co2 1_555 1_555
O3 Co1 1_555 1_555
O4 Co2 1_555 1_555
C1 C2 1_555 1_555
C2 H1 1_555 1_555
C3 C2 1_555 1_555
H2 C3 1_555 1_555
C4 C3 1_555 1_555
C5 C4 1_555 1_555
H3 C5 1_555 1_555
C6 C1 1_555 1_555
H4 C6 1_555 1_555
C7 C4 1_555 1_555
H5 C7 1_555 1_555
H6 C7 1_555 1_555
C8 N2 1_555 1_555
H7 C8 1_555 1_555
C9 C8 1_555 1_555
H8 C9 1_555 1_555
C10 N1 1_555 1_555
C11 C10 1_555 1_555
C12 C11 1_555 1_555
H9 C12 1_555 1_555
C13 C12 1_555 1_555
H10 C13 1_555 1_555
C14 C13 1_555 1_555
H11 C14 1_555 1_555
C15 C14 1_555 1_555
H12 C15 1_555 1_555
C16 O1 1_555 1_555
C17 N3 1_555 1_555
H13 C17 1_555 1_555
H14 C17 1_555 1_555
C18 N3 1_555 1_555
H15 C18 1_555 1_555
C19 C18 1_555 1_555
H16 C19 1_555 1_555
C20 C19 1_555 1_555
C21 C20 1_555 1_555
C22 C21 1_555 1_555
H17 C22 1_555 1_555
C23 C22 1_555 1_555
H18 C23 1_555 1_555
C24 C23 1_555 1_555
H19 C24 1_555 1_555
C25 C24 1_555 1_555
H20 C25 1_555 1_555
C26 O2 1_555 1_555
C27 C28 1_555 1_555
C28 H21 1_555 1_555
C29 C28 1_555 1_555
H22 C29 1_555 1_555
C30 C29 1_555 1_555
C31 C30 1_555 1_555
H23 C31 1_555 1_555
C32 C27 1_555 1_555
H24 C32 1_555 1_555
C33 N6 1_555 1_555
H25 C33 1_555 1_555
H26 C33 1_555 1_555
C34 N6 1_555 1_555
H27 C34 1_555 1_555
C35 C34 1_555 1_555
H28 C35 1_555 1_555
C36 N5 1_555 1_555
C37 C36 1_555 1_555
C38 C37 1_555 1_555
H29 C38 1_555 1_555
C39 C38 1_555 1_555
H30 C39 1_555 1_555
C40 C39 1_555 1_555
H31 C40 1_555 1_555
C41 C40 1_555 1_555
H32 C41 1_555 1_555
C42 O3 1_555 1_555
C43 N7 1_555 1_555
H33 C43 1_555 1_555
H34 C43 1_555 1_555
C44 N7 1_555 1_555
H35 C44 1_555 1_555
C45 C44 1_555 1_555
H36 C45 1_555 1_555
C46 N8 1_555 1_555
C47 C46 1_555 1_555
C48 C47 1_555 1_555
H37 C48 1_555 1_555
C49 C48 1_555 1_555
H38 C49 1_555 1_555
C50 C49 1_555 1_555
H39 C50 1_555 1_555
C51 C50 1_555 1_555
H40 C51 1_555 1_555
C52 O4 1_555 1_555
O5 C53 1_555 1_555
N9 C53 1_555 1_555
C53 H41 1_555 1_555
C54 N9 1_555 1_555
H42 C54 1_555 1_555
H43 C54 1_555 1_555
H44 C54 1_555 1_555
C56 N9 1_555 1_555
H48 C56 1_555 1_555
H49 C56 1_555 1_555
H50 C56 1_555 1_555
O6 C57 1_555 1_555
N10 C57 1_555 1_555
C57 H51 1_555 1_555
C58 N10 1_555 1_555
H52 C58 1_555 1_555
H53 C58 1_555 1_555
H54 C58 1_555 1_555
C59 N10 1_555 1_555
H55 C59 1_555 1_555
H56 C59 1_555 1_555
H57 C59 1_555 1_555
N11 C60 1_555 1_555
O7 C60 1_555 1_555
C60 H58 1_555 1_555
C61 N11 1_555 1_555
H59 C61 1_555 1_555
H60 C61 1_555 1_555
H61 C61 1_555 1_555
C62 N11 1_555 1_555
H62 C62 1_555 1_555
H63 C62 1_555 1_555
H64 C62 1_555 1_555
C1 C17 1_555 1_555
C5 C6 1_555 1_555
C9 C10 1_555 1_555
C11 C16 1_555 1_555
C15 C16 1_555 1_555
C21 C26 1_555 1_555
C25 C26 1_555 1_555
C27 C43 1_555 1_555
C30 C33 1_555 1_555
C31 C32 1_555 1_555
C35 C36 1_555 1_555
C37 C42 1_555 1_555
C41 C42 1_555 1_555
C45 C46 1_555 1_555
C47 C52 1_555 1_555
C51 C52 1_555 1_555

#END
