
#######################################################################
#
#                 Cambridge Crystallographic Data Centre
#                                CCDC 
#
#######################################################################
#
# If this CIF has been generated from an entry in the Cambridge 
# Structural Database, then it will include bibliographic, chemical, 
# crystal, experimental, refinement or atomic coordinate data resulting 
# from the CCDC's data processing and validation procedures.
#
#######################################################################

data_FIVFUM
_chemical_formula_moiety         'C52 H40 Cu2 N8 O4,C1 H2 Cl2'
_chemical_name_systematic        
'bis(\m~2~1,4-bis(3-(2-Oxyphenyl)pyrazol-1-ylmethyl)benzene)-di-copper(ii) dichloromethane solvate'
_symmetry_cell_setting           triclinic
_symmetry_space_group_name_H-M   'P -1'
_symmetry_Int_Tables_number      2
_space_group_name_Hall           '-P 1'
loop_
_symmetry_equiv_pos_site_id
_symmetry_equiv_pos_as_xyz
1 x,y,z
2 -x,-y,-z
_cell_length_a                   14.720(3)
_cell_length_b                   14.768(3)
_cell_length_c                   21.860(4)
_cell_angle_alpha                97.513(3)
_cell_angle_beta                 104.208(3)
_cell_angle_gamma                90.130(3)
_cell_volume                     4564.21
_exptl_crystal_colour            purple
_exptl_crystal_description       plate
_cell_formula_units_Z            4
_exptl_crystal_recrystallization_method 'di-isopropyl ether/dichloromethane'
loop_
_atom_site_label
_atom_site_type_symbol
_atom_site_fract_x
_atom_site_fract_y
_atom_site_fract_z
Cu1 Cu -0.14304(4) 0.21894(4) 0.21895(3)
Cu2 Cu 0.20563(4) 0.55761(4) 0.21821(3)
O1 O -0.1213(2) 0.2111(2) 0.30577(17)
O2 O -0.2195(2) 0.1633(2) 0.14057(16)
O3 O 0.2209(3) 0.5970(2) 0.14331(16)
N1 N -0.0210(3) 0.1713(3) 0.2118(2)
N2 N 0.0148(3) 0.1562(3) 0.1595(2)
N3 N -0.2182(3) 0.3291(3) 0.2203(2)
N4 N -0.1895(3) 0.4118(3) 0.2565(2)
N5 N 0.2908(3) 0.3770(3) 0.24261(19)
N6 N 0.2819(3) 0.4489(3) 0.20854(19)
C1 C -0.0082(4) 0.4638(4) 0.0891(3)
C2 C 0.0647(4) 0.4067(4) 0.0828(3)
H1 H 0.1221 0.4318 0.0788
C3 C 0.0543(4) 0.3129(4) 0.0825(2)
H2 H 0.1047 0.2744 0.0782
C4 C -0.0295(4) 0.2750(3) 0.0883(2)
C5 C -0.1047(4) 0.3319(4) 0.0891(2)
H3 H -0.1639 0.3069 0.0897
C6 C -0.0929(4) 0.4246(4) 0.0892(2)
H4 H -0.1450 0.4624 0.0893
C7 C -0.0373(4) 0.1758(4) 0.0966(3)
H5 H -0.1042 0.1582 0.0902
H6 H -0.0133 0.1380 0.0635
C8 C 0.1049(4) 0.1327(4) 0.1777(3)
H7 H 0.1451 0.1192 0.1500
C9 C 0.1289(4) 0.1313(4) 0.2404(3)
H8 H 0.1882 0.1166 0.2653
C10 C 0.0494(4) 0.1556(4) 0.2624(3)
C11 C 0.0395(4) 0.1640(4) 0.3280(3)
C12 C 0.1175(5) 0.1471(5) 0.3761(3)
H9 H 0.1745 0.1320 0.3648
C13 C 0.1148(5) 0.1516(7) 0.4389(3)
H10 H 0.1688 0.1385 0.4701
C14 C 0.0351(5) 0.1746(6) 0.4559(3)
H11 H 0.0322 0.1765 0.4990
C15 C -0.0427(5) 0.1955(5) 0.4103(3)
H12 H -0.0976 0.2140 0.4233
C16 C -0.0434(4) 0.1902(4) 0.3455(3)
C17 C 0.1681(4) 0.3901(3) 0.3057(2)
C18 C 0.1450(4) 0.4010(4) 0.3631(3)
H13 H 0.1928 0.4030 0.4014
C19 C 0.0526(4) 0.4090(4) 0.3656(3)
H14 H 0.0377 0.4152 0.4058
C20 C -0.0189(4) 0.4083(3) 0.3108(2)
C21 C 0.0053(3) 0.3978(3) 0.2538(2)
H15 H -0.0421 0.3974 0.2154
C22 C 0.0975(3) 0.3878(3) 0.2513(2)
H16 H 0.1124 0.3791 0.2110
C23 C -0.1184(4) 0.4196(4) 0.3174(3)
H17 H -0.1330 0.3727 0.3424
H18 H -0.1224 0.4803 0.3417
C24 C -0.2411(4) 0.4788(4) 0.2314(3)
H19 H -0.2337 0.5419 0.2479
C25 C -0.3062(4) 0.4410(4) 0.1782(3)
H20 H -0.3524 0.4717 0.1507
C26 C -0.2901(3) 0.3456(3) 0.1726(2)
C27 C -0.3432(3) 0.2722(3) 0.1257(2)
C28 C -0.4356(4) 0.2887(4) 0.0931(2)
H21 H -0.4603 0.3471 0.1015
C29 C -0.4909(4) 0.2230(4) 0.0498(2)
H22 H -0.5532 0.2356 0.0288
C30 C -0.4547(4) 0.1376(4) 0.0370(2)
H23 H -0.4923 0.0915 0.0071
C31 C -0.3640(3) 0.1199(3) 0.0677(2)
H24 H -0.3401 0.0614 0.0583
C32 C -0.3065(3) 0.1856(3) 0.1122(2)
C33 C 0.2714(4) 0.3837(4) 0.3054(3)
H25 H 0.3059 0.4383 0.3322
H26 H 0.2964 0.3295 0.3253
C34 C 0.3253(4) 0.3049(4) 0.2127(3)
H27 H 0.3372 0.2472 0.2273
C35 C 0.3402(4) 0.3288(4) 0.1581(3)
H28 H 0.3643 0.2917 0.1273
C36 C 0.3128(3) 0.4192(3) 0.1562(2)
C37 C 0.3172(3) 0.4781(3) 0.1077(2)
C38 C 0.3682(4) 0.4497(4) 0.0627(3)
H29 H 0.3984 0.3930 0.0648
C39 C 0.3764(4) 0.4997(5) 0.0161(3)
H30 H 0.4116 0.4781 -0.0136
C40 C 0.3322(5) 0.5832(5) 0.0126(3)
H31 H 0.3379 0.6195 -0.0192
C41 C 0.2810(5) 0.6122(4) 0.0551(3)
H32 H 0.2501 0.6684 0.0517
C42 C 0.2720(4) 0.5619(3) 0.1040(2)
N15 N 0.0801(3) 0.6049(3) 0.2142(2)
O8 O 0.2429(6) 0.5978(6) 0.3047(4)
N16 N -0.0056(5) 0.5983(6) 0.1713(4)
C95 C -0.0023(8) 0.5701(7) 0.1087(5)
H73 H 0.0569 0.5943 0.1022
H74 H -0.0547 0.5972 0.0800
C96 C -0.0723(8) 0.6279(8) 0.1976(6)
H75 H -0.1354 0.6326 0.1745
C97 C -0.0411(8) 0.6519(7) 0.2628(6)
H76 H -0.0747 0.6729 0.2936
C98 C 0.0601(11) 0.6351(10) 0.2706(5)
C99 C 0.1234(9) 0.6557(7) 0.3383(5)
C100 C 0.0972(10) 0.7133(9) 0.3874(6)
H77 H 0.0357 0.7362 0.3801
C101 C 0.1609(11) 0.7371(11) 0.4472(7)
H78 H 0.1411 0.7747 0.4799
C102 C 0.2477(10) 0.7081(9) 0.4588(6)
H79 H 0.2892 0.7243 0.4996
C103 C 0.2775(9) 0.6554(7) 0.4122(5)
H80 H 0.3403 0.6361 0.4214
C104 C 0.2184(9) 0.6277(7) 0.3503(5)
Cu3 Cu 0.38455(4) 1.08171(4) 0.29144(3)
Cu4 Cu 0.71880(5) 0.73198(4) 0.27110(3)
O4 O 0.3596(2) 1.1403(2) 0.36640(16)
O5 O 0.7847(3) 0.7033(2) 0.35148(18)
O6 O 0.3352(2) 1.0764(2) 0.20363(15)
O7 O 0.7130(3) 0.7042(2) 0.18421(17)
N7 N 0.4955(3) 1.1605(2) 0.29934(17)
N8 N 0.5612(3) 1.1475(3) 0.2638(2)
N9 N 0.5207(3) 0.6570(3) 0.2296(2)
N10 N 0.6094(3) 0.6526(3) 0.2680(2)
N11 N 0.3373(3) 0.9584(3) 0.29482(17)
N12 N 0.3418(3) 0.9145(3) 0.3466(2)
N13 N 0.7853(3) 0.9253(3) 0.3286(2)
N14 N 0.7662(3) 0.8586(3) 0.2777(2)
C43 C 0.5119(3) 0.8027(3) 0.1829(2)
C44 C 0.5017(4) 0.8480(4) 0.1301(2)
H33 H 0.4887 0.8140 0.0887
C45 C 0.5102(4) 0.9418(3) 0.1370(2)
H34 H 0.5020 0.9721 0.1004
C46 C 0.5307(3) 0.9928(3) 0.1971(2)
C47 C 0.5407(3) 0.9477(3) 0.2494(2)
H35 H 0.5552 0.9816 0.2908
C48 C 0.5297(4) 0.8531(3) 0.2423(2)
H36 H 0.5347 0.8231 0.2788
C49 C 0.5390(4) 1.0960(3) 0.2004(2)
H37 H 0.5881 1.1106 0.1790
H38 H 0.4789 1.1173 0.1759
C50 C 0.6395(4) 1.1969(3) 0.2929(3)
H39 H 0.6946 1.1986 0.2778
C51 C 0.6271(4) 1.2449(3) 0.3485(3)
H40 H 0.6709 1.2857 0.3788
C52 C 0.5357(3) 1.2206(3) 0.3510(2)
C53 C 0.4861(4) 1.2543(3) 0.3999(2)
C54 C 0.5235(5) 1.3313(4) 0.4437(3)
H41 H 0.5808 1.3588 0.4415
C55 C 0.4807(5) 1.3682(4) 0.4893(3)
H42 H 0.5083 1.4199 0.5187
C56 C 0.3973(4) 1.3295(4) 0.4925(2)
H43 H 0.3662 1.3555 0.5235
C57 C 0.3592(4) 1.2548(4) 0.4518(2)
H44 H 0.3020 1.2286 0.4553
C58 C 0.4019(3) 1.2146(3) 0.4043(2)
C59 C 0.5027(4) 0.6979(4) 0.1724(3)
H45 H 0.4384 0.6792 0.1470
H46 H 0.5469 0.6739 0.1471
C60 C 0.4588(5) 0.6134(4) 0.2521(3)
H47 H 0.3931 0.6078 0.2341
C61 C 0.5056(6) 0.5787(4) 0.3049(4)
H48 H 0.4792 0.5447 0.3307
C62 C 0.6017(5) 0.6031(3) 0.3142(3)
C63 C 0.6832(5) 0.5807(3) 0.3626(3)
C64 C 0.6754(6) 0.5060(4) 0.3944(3)
H49 H 0.6188 0.4698 0.3819
C65 C 0.7453(7) 0.4831(4) 0.4424(3)
H50 H 0.7376 0.4319 0.4631
C66 C 0.8277(7) 0.5351(4) 0.4607(3)
H51 H 0.8765 0.5202 0.4948
C67 C 0.8407(6) 0.6094(4) 0.4300(3)
H52 H 0.8982 0.6441 0.4428
C68 C 0.7678(5) 0.6327(3) 0.3797(2)
C69 C 0.6881(4) 0.9208(3) 0.4059(2)
C70 C 0.6327(4) 0.8458(3) 0.4050(3)
H53 H 0.6578 0.7867 0.4013
C71 C 0.5400(4) 0.8547(4) 0.4094(2)
H54 H 0.5028 0.8017 0.4087
C72 C 0.5014(4) 0.9411(3) 0.4148(2)
C73 C 0.5592(4) 1.0177(3) 0.4200(2)
H55 H 0.5354 1.0769 0.4266
C74 C 0.6516(4) 1.0084(3) 0.4157(2)
H56 H 0.6903 1.0613 0.4194
C75 C 0.3984(4) 0.9506(4) 0.4105(2)
H57 H 0.3807 0.9171 0.4424
H58 H 0.3853 1.0158 0.4203
C76 C 0.3054(5) 0.8290(4) 0.3281(3)
H59 H 0.3024 0.7847 0.3554
C77 C 0.2734(5) 0.8166(4) 0.2634(3)
H60 H 0.2430 0.7632 0.2372
C78 C 0.2947(4) 0.8986(3) 0.2435(2)
C79 C 0.2778(4) 0.9195(3) 0.1781(2)
C80 C 0.2416(5) 0.8493(4) 0.1277(3)
H61 H 0.2301 0.7903 0.1378
C81 C 0.2224(5) 0.8619(4) 0.0654(3)
H62 H 0.1994 0.8122 0.0329
C82 C 0.2366(4) 0.9471(4) 0.0496(3)
H63 H 0.2196 0.9572 0.0063
C83 C 0.2752(4) 1.0178(3) 0.0966(2)
H64 H 0.2873 1.0757 0.0852
C84 C 0.2974(3) 1.0051(3) 0.1618(2)
C85 C 0.7839(4) 0.9091(4) 0.3936(3)
H65 H 0.8293 0.9522 0.4249
H66 H 0.8040 0.8463 0.3997
C86 C 0.8005(4) 1.0055(4) 0.3096(3)
H67 H 0.8146 1.0624 0.3363
C87 C 0.7924(4) 0.9920(3) 0.2463(3)
H68 H 0.7997 1.0367 0.2202
C88 C 0.7711(4) 0.8984(3) 0.2267(3)
C89 C 0.7580(4) 0.8515(4) 0.1621(3)
C90 C 0.7732(5) 0.8992(5) 0.1140(3)
H69 H 0.7893 0.9626 0.1243
C91 C 0.7662(5) 0.8594(6) 0.0532(3)
H70 H 0.7774 0.8947 0.0223
C92 C 0.7429(4) 0.7682(5) 0.0370(3)
H71 H 0.7390 0.7393 -0.0051
C93 C 0.7253(4) 0.7189(4) 0.0822(3)
H72 H 0.7078 0.6559 0.0702
C94 C 0.7318(4) 0.7574(3) 0.1453(3)
C115 C 0.9764(13) 0.0751(9) 0.8546(7)
H89 H 1.0177 0.0433 0.8298
H90 H 0.9103 0.0547 0.8350
Cl1 Cl 0.9925(4) 0.1970(4) 0.8640(3)
Cl2 Cl 1.0130(2) 0.06111(18) 0.94062(15)
C117 C 0.8857(10) 0.0947(13) 0.6211(6)
H93 H 0.8582 0.1548 0.6143
H94 H 0.8349 0.0496 0.6190
Cl5 Cl 0.9736(5) 0.1026(5) 0.6975(3)
Cl6 Cl 0.9546(4) 0.0562(4) 0.5602(3)
loop_
_geom_bond_atom_site_label_1
_geom_bond_atom_site_label_2
_geom_bond_site_symmetry_1
_geom_bond_site_symmetry_2
Cu1 O1 1_555 1_555
Cu2 O3 1_555 1_555
Cu3 O4 1_555 1_555
Cu4 O5 1_555 1_555
O1 C16 1_555 1_555
O2 Cu1 1_555 1_555
O3 C42 1_555 1_555
O4 C58 1_555 1_555
O5 C68 1_555 1_555
O6 Cu3 1_555 1_555
O7 Cu4 1_555 1_555
N1 Cu1 1_555 1_555
N2 N1 1_555 1_555
N3 Cu1 1_555 1_555
N4 N3 1_555 1_555
N5 N6 1_555 1_555
N6 Cu2 1_555 1_555
N7 Cu3 1_555 1_555
N8 N7 1_555 1_555
N9 N10 1_555 1_555
N10 Cu4 1_555 1_555
N11 Cu3 1_555 1_555
N12 N11 1_555 1_555
N13 N14 1_555 1_555
N14 Cu4 1_555 1_555
C1 C2 1_555 1_555
C2 H1 1_555 1_555
C3 C2 1_555 1_555
H2 C3 1_555 1_555
C4 C3 1_555 1_555
C5 C4 1_555 1_555
H3 C5 1_555 1_555
C6 C1 1_555 1_555
H4 C6 1_555 1_555
C7 N2 1_555 1_555
H5 C7 1_555 1_555
H6 C7 1_555 1_555
C8 N2 1_555 1_555
H7 C8 1_555 1_555
C9 C8 1_555 1_555
H8 C9 1_555 1_555
C10 N1 1_555 1_555
C11 C10 1_555 1_555
C12 C11 1_555 1_555
H9 C12 1_555 1_555
C13 C12 1_555 1_555
H10 C13 1_555 1_555
C14 C13 1_555 1_555
H11 C14 1_555 1_555
C15 C14 1_555 1_555
H12 C15 1_555 1_555
C16 C11 1_555 1_555
C17 C18 1_555 1_555
C18 H13 1_555 1_555
C19 C18 1_555 1_555
H14 C19 1_555 1_555
C20 C19 1_555 1_555
C21 C20 1_555 1_555
H15 C21 1_555 1_555
C22 C17 1_555 1_555
H16 C22 1_555 1_555
C23 N4 1_555 1_555
H17 C23 1_555 1_555
H18 C23 1_555 1_555
C24 N4 1_555 1_555
H19 C24 1_555 1_555
C25 C24 1_555 1_555
H20 C25 1_555 1_555
C26 N3 1_555 1_555
C27 C26 1_555 1_555
C28 C27 1_555 1_555
H21 C28 1_555 1_555
C29 C28 1_555 1_555
H22 C29 1_555 1_555
C30 C29 1_555 1_555
H23 C30 1_555 1_555
C31 C30 1_555 1_555
H24 C31 1_555 1_555
C32 O2 1_555 1_555
C33 N5 1_555 1_555
H25 C33 1_555 1_555
H26 C33 1_555 1_555
C34 N5 1_555 1_555
H27 C34 1_555 1_555
C35 C34 1_555 1_555
H28 C35 1_555 1_555
C36 N6 1_555 1_555
C37 C36 1_555 1_555
C38 C37 1_555 1_555
H29 C38 1_555 1_555
C39 C38 1_555 1_555
H30 C39 1_555 1_555
C40 C39 1_555 1_555
H31 C40 1_555 1_555
C41 C40 1_555 1_555
H32 C41 1_555 1_555
C42 C37 1_555 1_555
C43 C44 1_555 1_555
C44 H33 1_555 1_555
C45 C44 1_555 1_555
H34 C45 1_555 1_555
C46 C45 1_555 1_555
C47 C46 1_555 1_555
H35 C47 1_555 1_555
C48 C43 1_555 1_555
H36 C48 1_555 1_555
C49 N8 1_555 1_555
H37 C49 1_555 1_555
H38 C49 1_555 1_555
C50 N8 1_555 1_555
H39 C50 1_555 1_555
C51 C50 1_555 1_555
H40 C51 1_555 1_555
C52 N7 1_555 1_555
C53 C52 1_555 1_555
C54 C53 1_555 1_555
H41 C54 1_555 1_555
C55 C54 1_555 1_555
H42 C55 1_555 1_555
C56 C55 1_555 1_555
H43 C56 1_555 1_555
C57 C56 1_555 1_555
H44 C57 1_555 1_555
C58 C53 1_555 1_555
C59 N9 1_555 1_555
H45 C59 1_555 1_555
H46 C59 1_555 1_555
C60 N9 1_555 1_555
H47 C60 1_555 1_555
C61 C60 1_555 1_555
H48 C61 1_555 1_555
C62 N10 1_555 1_555
C63 C62 1_555 1_555
C64 C63 1_555 1_555
H49 C64 1_555 1_555
C65 C64 1_555 1_555
H50 C65 1_555 1_555
C66 C65 1_555 1_555
H51 C66 1_555 1_555
C67 C66 1_555 1_555
H52 C67 1_555 1_555
C68 C63 1_555 1_555
C69 C70 1_555 1_555
C70 H53 1_555 1_555
C71 C70 1_555 1_555
H54 C71 1_555 1_555
C72 C71 1_555 1_555
C73 C72 1_555 1_555
H55 C73 1_555 1_555
C74 C69 1_555 1_555
H56 C74 1_555 1_555
C75 N12 1_555 1_555
H57 C75 1_555 1_555
H58 C75 1_555 1_555
C76 N12 1_555 1_555
H59 C76 1_555 1_555
C77 C76 1_555 1_555
H60 C77 1_555 1_555
C78 N11 1_555 1_555
C79 C78 1_555 1_555
C80 C79 1_555 1_555
H61 C80 1_555 1_555
C81 C80 1_555 1_555
H62 C81 1_555 1_555
C82 C81 1_555 1_555
H63 C82 1_555 1_555
C83 C82 1_555 1_555
H64 C83 1_555 1_555
C84 O6 1_555 1_555
C85 N13 1_555 1_555
H65 C85 1_555 1_555
H66 C85 1_555 1_555
C86 N13 1_555 1_555
H67 C86 1_555 1_555
C87 C86 1_555 1_555
H68 C87 1_555 1_555
C88 N14 1_555 1_555
C89 C88 1_555 1_555
C90 C89 1_555 1_555
H69 C90 1_555 1_555
C91 C90 1_555 1_555
H70 C91 1_555 1_555
C92 C91 1_555 1_555
H71 C92 1_555 1_555
C93 C92 1_555 1_555
H72 C93 1_555 1_555
C94 O7 1_555 1_555
N15 Cu2 1_555 1_555
O8 Cu2 1_555 1_555
N16 N15 1_555 1_555
C95 C1 1_555 1_555
H73 C95 1_555 1_555
H74 C95 1_555 1_555
C96 N16 1_555 1_555
H75 C96 1_555 1_555
C97 C96 1_555 1_555
H76 C97 1_555 1_555
C98 N15 1_555 1_555
C99 C98 1_555 1_555
C100 C99 1_555 1_555
H77 C100 1_555 1_555
C101 C100 1_555 1_555
H78 C101 1_555 1_555
C102 C101 1_555 1_555
H79 C102 1_555 1_555
C103 C102 1_555 1_555
H80 C103 1_555 1_555
C104 O8 1_555 1_555
C115 H89 1_555 1_555
H90 C115 1_555 1_555
Cl1 C115 1_555 1_555
Cl2 C115 1_555 1_555
C117 H93 1_555 1_555
H94 C117 1_555 1_555
Cl5 C117 1_555 1_555
Cl6 C117 1_555 1_555
C4 C7 1_555 1_555
C5 C6 1_555 1_555
C9 C10 1_555 1_555
C15 C16 1_555 1_555
C17 C33 1_555 1_555
C20 C23 1_555 1_555
C21 C22 1_555 1_555
C25 C26 1_555 1_555
C27 C32 1_555 1_555
C31 C32 1_555 1_555
C35 C36 1_555 1_555
C41 C42 1_555 1_555
C43 C59 1_555 1_555
C46 C49 1_555 1_555
C47 C48 1_555 1_555
C51 C52 1_555 1_555
C57 C58 1_555 1_555
C61 C62 1_555 1_555
C67 C68 1_555 1_555
C69 C85 1_555 1_555
C72 C75 1_555 1_555
C73 C74 1_555 1_555
C77 C78 1_555 1_555
C79 C84 1_555 1_555
C83 C84 1_555 1_555
C87 C88 1_555 1_555
C89 C94 1_555 1_555
C93 C94 1_555 1_555
N16 C95 1_555 1_555
C97 C98 1_555 1_555
C99 C104 1_555 1_555
C103 C104 1_555 1_555

#END
