
#######################################################################
#
#                 Cambridge Crystallographic Data Centre
#                                CCDC 
#
#######################################################################
#
# If this CIF has been generated from an entry in the Cambridge 
# Structural Database, then it will include bibliographic, chemical, 
# crystal, experimental, refinement or atomic coordinate data resulting 
# from the CCDC's data processing and validation procedures.
#
#######################################################################

data_FIVGOH
_chemical_formula_moiety         'C64 H48 N8 O4 Zn2,2(C1 H2 Cl2)'
_chemical_name_systematic        
"bis(\m~2~-3,3'-bis(3-(2-Oxyphenyl)pyrazol-1-ylmethyl)biphenyl)-di-zinc(ii) dichloromethane solvate"
_symmetry_cell_setting           orthorhombic
_symmetry_space_group_name_H-M   'P c c n'
_symmetry_Int_Tables_number      56
_space_group_name_Hall           '-P 2ab 2ac'
loop_
_symmetry_equiv_pos_site_id
_symmetry_equiv_pos_as_xyz
1 x,y,z
2 1/2-x,1/2-y,z
3 -x,1/2+y,1/2-z
4 1/2+x,-y,1/2-z
5 -x,-y,-z
6 1/2+x,1/2+y,-z
7 x,1/2-y,1/2+z
8 1/2-x,y,1/2+z
_cell_length_a                   13.021(2)
_cell_length_b                   19.704(3)
_cell_length_c                   21.655(3)
_cell_angle_alpha                90
_cell_angle_beta                 90
_cell_angle_gamma                90
_cell_volume                     5555.93
_exptl_crystal_colour            colorless
_exptl_crystal_description       block
_cell_formula_units_Z            4
_exptl_crystal_recrystallization_method dimethylformamide/dichloromethane
loop_
_atom_site_label
_atom_site_type_symbol
_atom_site_fract_x
_atom_site_fract_y
_atom_site_fract_z
Zn1 Zn 0.90537(7) 0.11030(5) 0.24780(5)
O1 O 0.8765(4) 0.0774(3) 0.1683(3)
O2 O 0.8129(4) 0.0988(3) 0.3148(3)
N1 N 0.9113(5) 0.2076(4) 0.2234(3)
N2 N 0.8874(5) 0.2630(4) 0.2585(3)
N3 N 1.0215(5) 0.0642(3) 0.2881(3)
N4 N 1.1073(6) 0.0325(4) 0.2633(4)
C1 C 1.2053(7) 0.2729(4) 0.3446(4)
C2 C 1.1059(7) 0.2484(4) 0.3357(4)
H1 H 1.0955 0.2011 0.3302
C3 C 1.0204(7) 0.2922(5) 0.3347(4)
C4 C 1.0348(7) 0.3621(4) 0.3412(4)
H2 H 0.9781 0.3924 0.3392
C5 C 1.1333(8) 0.3863(5) 0.3507(4)
H3 H 1.1434 0.4336 0.3564
C6 C 1.2169(8) 0.3437(5) 0.3521(4)
H4 H 1.2835 0.3622 0.3581
C7 C 0.9143(7) 0.2648(5) 0.3233(5)
H5 H 0.9098 0.2183 0.3404
H6 H 0.8639 0.2934 0.3455
C8 C 0.8571(7) 0.3148(5) 0.2229(5)
H7 H 0.8373 0.3584 0.2373
C9 C 0.8592(7) 0.2951(4) 0.1630(5)
H8 H 0.8419 0.3215 0.1278
C10 C 0.8924(6) 0.2272(4) 0.1637(4)
C11 C 0.9104(6) 0.1812(4) 0.1114(4)
C12 C 0.9379(7) 0.2101(5) 0.0543(4)
H9 H 0.9426 0.2581 0.0513
C13 C 0.9576(7) 0.1725(5) 0.0037(4)
H10 H 0.9754 0.1935 -0.0343
C14 C 0.9514(7) 0.1018(5) 0.0083(5)
H11 H 0.9661 0.0742 -0.0266
C15 C 0.9238(7) 0.0719(5) 0.0638(4)
H12 H 0.9192 0.0238 0.0660
C16 C 0.9026(7) 0.1098(4) 0.1164(4)
C17 C 1.2636(7) 0.2129(4) 0.1827(4)
C18 C 1.1888(7) 0.1631(4) 0.1920(4)
H13 H 1.1197 0.1760 0.1997
C19 C 1.2151(6) 0.0947(4) 0.1902(4)
C20 C 1.3159(6) 0.0753(5) 0.1795(4)
H14 H 1.3338 0.0286 0.1780
C21 C 1.3894(7) 0.1244(5) 0.1712(5)
H15 H 1.4589 0.1113 0.1650
C22 C 1.3641(6) 0.1922(4) 0.1718(4)
H16 H 1.4159 0.2253 0.1648
C23 C 1.1336(7) 0.0405(4) 0.1994(4)
H17 H 1.0713 0.0530 0.1758
H18 H 1.1593 -0.0032 0.1830
C24 C 1.1602(7) 0.0009(4) 0.3093(4)
H19 H 1.2218 -0.0243 0.3042
C25 C 1.1108(7) 0.0113(4) 0.3635(4)
H20 H 1.1310 -0.0046 0.4031
C26 C 1.0232(6) 0.0506(4) 0.3492(4)
C27 C 0.9462(7) 0.0754(4) 0.3921(4)
C28 C 0.9720(7) 0.0780(4) 0.4549(4)
H21 H 1.0383 0.0632 0.4673
C29 C 0.9055(7) 0.1011(4) 0.4992(4)
H22 H 0.9266 0.1037 0.5411
C30 C 0.8079(8) 0.1206(4) 0.4823(5)
H23 H 0.7606 0.1356 0.5128
C31 C 0.7786(7) 0.1183(4) 0.4206(4)
H24 H 0.7104 0.1308 0.4100
C32 C 0.8461(7) 0.0981(4) 0.3733(4)
Zn1A Zn 1.59463(7) 0.38970(5) 0.24780(5)
O1A O 1.6235(4) 0.4226(3) 0.1683(3)
O2A O 1.6871(4) 0.4012(3) 0.3148(3)
N1A N 1.5887(5) 0.2924(4) 0.2234(3)
N2A N 1.6126(5) 0.2370(4) 0.2585(3)
N3A N 1.4785(5) 0.4358(3) 0.2881(3)
N4A N 1.3927(6) 0.4675(4) 0.2633(4)
C1A C 1.2947(7) 0.2271(4) 0.3446(4)
C2A C 1.3941(7) 0.2516(4) 0.3357(4)
H1A H 1.4045 0.2989 0.3302
C3A C 1.4796(7) 0.2078(5) 0.3347(4)
C4A C 1.4652(7) 0.1379(4) 0.3412(4)
H2A H 1.5219 0.1076 0.3392
C5A C 1.3667(8) 0.1137(5) 0.3507(4)
H3A H 1.3566 0.0664 0.3564
C6A C 1.2831(8) 0.1563(5) 0.3521(4)
H4A H 1.2165 0.1378 0.3581
C7A C 1.5857(7) 0.2352(5) 0.3233(5)
H5A H 1.5902 0.2817 0.3404
H6A H 1.6361 0.2066 0.3455
C8A C 1.6429(7) 0.1852(5) 0.2229(5)
H7A H 1.6627 0.1416 0.2373
C9A C 1.6408(7) 0.2049(4) 0.1630(5)
H8A H 1.6581 0.1785 0.1278
C10A C 1.6076(6) 0.2728(4) 0.1637(4)
C11A C 1.5896(6) 0.3188(4) 0.1114(4)
C12A C 1.5621(7) 0.2899(5) 0.0543(4)
H9A H 1.5574 0.2419 0.0513
C13A C 1.5424(7) 0.3275(5) 0.0037(4)
H10A H 1.5246 0.3065 -0.0343
C14A C 1.5486(7) 0.3982(5) 0.0083(5)
H11A H 1.5339 0.4258 -0.0266
C15A C 1.5762(7) 0.4281(5) 0.0638(4)
H12A H 1.5808 0.4762 0.0660
C16A C 1.5974(7) 0.3902(4) 0.1164(4)
C17A C 1.2364(7) 0.2871(4) 0.1827(4)
C18A C 1.3112(7) 0.3369(4) 0.1920(4)
H13A H 1.3803 0.3240 0.1997
C19A C 1.2849(6) 0.4053(4) 0.1902(4)
C20A C 1.1841(6) 0.4247(5) 0.1795(4)
H14A H 1.1662 0.4714 0.1780
C21A C 1.1106(7) 0.3756(5) 0.1712(5)
H15A H 1.0411 0.3887 0.1650
C22A C 1.1359(6) 0.3078(4) 0.1718(4)
H16A H 1.0841 0.2747 0.1648
C23A C 1.3664(7) 0.4595(4) 0.1994(4)
H17A H 1.4287 0.4470 0.1758
H18A H 1.3407 0.5032 0.1830
C24A C 1.3398(7) 0.4991(4) 0.3093(4)
H19A H 1.2782 0.5243 0.3042
C25A C 1.3892(7) 0.4887(4) 0.3635(4)
H20A H 1.3690 0.5046 0.4031
C26A C 1.4768(6) 0.4494(4) 0.3492(4)
C27A C 1.5538(7) 0.4246(4) 0.3921(4)
C28A C 1.5280(7) 0.4220(4) 0.4549(4)
H21A H 1.4617 0.4368 0.4673
C29A C 1.5945(7) 0.3989(4) 0.4992(4)
H22A H 1.5734 0.3963 0.5411
C30A C 1.6921(8) 0.3794(4) 0.4823(5)
H23A H 1.7394 0.3644 0.5128
C31A C 1.7214(7) 0.3817(4) 0.4206(4)
H24A H 1.7896 0.3692 0.4100
C32A C 1.6539(7) 0.4019(4) 0.3733(4)
C33 C 0.2281(7) 0.1444(4) 0.0207(5)
H25 H 0.1754 0.1594 -0.0092
H26 H 0.2047 0.1578 0.0625
Cl1 Cl 0.2385(2) 0.05537(13) 0.01753(14)
Cl2 Cl 0.3431(2) 0.18498(13) 0.00455(14)
loop_
_geom_bond_atom_site_label_1
_geom_bond_atom_site_label_2
_geom_bond_site_symmetry_1
_geom_bond_site_symmetry_2
Zn1 O1 1_555 1_555
O1 C16 1_555 1_555
O2 Zn1 1_555 1_555
N1 Zn1 1_555 1_555
N2 N1 1_555 1_555
N3 Zn1 1_555 1_555
N4 N3 1_555 1_555
C1 C2 1_555 1_555
C2 H1 1_555 1_555
C3 C2 1_555 1_555
C4 C3 1_555 1_555
H2 C4 1_555 1_555
C5 C4 1_555 1_555
H3 C5 1_555 1_555
C6 C1 1_555 1_555
H4 C6 1_555 1_555
C7 N2 1_555 1_555
H5 C7 1_555 1_555
H6 C7 1_555 1_555
C8 N2 1_555 1_555
H7 C8 1_555 1_555
C9 C8 1_555 1_555
H8 C9 1_555 1_555
C10 N1 1_555 1_555
C11 C10 1_555 1_555
C12 C11 1_555 1_555
H9 C12 1_555 1_555
C13 C12 1_555 1_555
H10 C13 1_555 1_555
C14 C13 1_555 1_555
H11 C14 1_555 1_555
C15 C14 1_555 1_555
H12 C15 1_555 1_555
C16 C11 1_555 1_555
C17 C18 1_555 1_555
C18 H13 1_555 1_555
C19 C18 1_555 1_555
C20 C19 1_555 1_555
H14 C20 1_555 1_555
C21 C20 1_555 1_555
H15 C21 1_555 1_555
C22 C17 1_555 1_555
H16 C22 1_555 1_555
C23 N4 1_555 1_555
H17 C23 1_555 1_555
H18 C23 1_555 1_555
C24 N4 1_555 1_555
H19 C24 1_555 1_555
C25 C24 1_555 1_555
H20 C25 1_555 1_555
C26 N3 1_555 1_555
C27 C26 1_555 1_555
C28 C27 1_555 1_555
H21 C28 1_555 1_555
C29 C28 1_555 1_555
H22 C29 1_555 1_555
C30 C29 1_555 1_555
H23 C30 1_555 1_555
C31 C30 1_555 1_555
H24 C31 1_555 1_555
C32 O2 1_555 1_555
C33 H25 1_555 1_555
H26 C33 1_555 1_555
Cl1 C33 1_555 1_555
Cl2 C33 1_555 1_555
Zn1A O1A 1_555 1_555
O1A C16A 1_555 1_555
O2A Zn1A 1_555 1_555
N1A Zn1A 1_555 1_555
N2A N1A 1_555 1_555
N3A Zn1A 1_555 1_555
N4A N3A 1_555 1_555
C1A C1 1_555 1_555
C2A C1A 1_555 1_555
H1A C2A 1_555 1_555
C3A C2A 1_555 1_555
C4A C3A 1_555 1_555
H2A C4A 1_555 1_555
C5A C4A 1_555 1_555
H3A C5A 1_555 1_555
C6A C1A 1_555 1_555
H4A C6A 1_555 1_555
C7A N2A 1_555 1_555
H5A C7A 1_555 1_555
H6A C7A 1_555 1_555
C8A N2A 1_555 1_555
H7A C8A 1_555 1_555
C9A C8A 1_555 1_555
H8A C9A 1_555 1_555
C10A N1A 1_555 1_555
C11A C10A 1_555 1_555
C12A C11A 1_555 1_555
H9A C12A 1_555 1_555
C13A C12A 1_555 1_555
H10A C13A 1_555 1_555
C14A C13A 1_555 1_555
H11A C14A 1_555 1_555
C15A C14A 1_555 1_555
H12A C15A 1_555 1_555
C16A C11A 1_555 1_555
C17A C17 1_555 1_555
C18A C17A 1_555 1_555
H13A C18A 1_555 1_555
C19A C18A 1_555 1_555
C20A C19A 1_555 1_555
H14A C20A 1_555 1_555
C21A C20A 1_555 1_555
H15A C21A 1_555 1_555
C22A C17A 1_555 1_555
H16A C22A 1_555 1_555
C23A N4A 1_555 1_555
H17A C23A 1_555 1_555
H18A C23A 1_555 1_555
C24A N4A 1_555 1_555
H19A C24A 1_555 1_555
C25A C24A 1_555 1_555
H20A C25A 1_555 1_555
C26A N3A 1_555 1_555
C27A C26A 1_555 1_555
C28A C27A 1_555 1_555
H21A C28A 1_555 1_555
C29A C28A 1_555 1_555
H22A C29A 1_555 1_555
C30A C29A 1_555 1_555
H23A C30A 1_555 1_555
C31A C30A 1_555 1_555
H24A C31A 1_555 1_555
C32A O2A 1_555 1_555
C3 C7 1_555 1_555
C5 C6 1_555 1_555
C9 C10 1_555 1_555
C15 C16 1_555 1_555
C19 C23 1_555 1_555
C21 C22 1_555 1_555
C25 C26 1_555 1_555
C27 C32 1_555 1_555
C31 C32 1_555 1_555
C3A C7A 1_555 1_555
C5A C6A 1_555 1_555
C9A C10A 1_555 1_555
C15A C16A 1_555 1_555
C19A C23A 1_555 1_555
C21A C22A 1_555 1_555
C25A C26A 1_555 1_555
C27A C32A 1_555 1_555
C31A C32A 1_555 1_555

#END
