
#######################################################################
#
#                 Cambridge Crystallographic Data Centre
#                                CCDC 
#
#######################################################################
#
# If this CIF has been generated from an entry in the Cambridge 
# Structural Database, then it will include bibliographic, chemical, 
# crystal, experimental, refinement or atomic coordinate data resulting 
# from the CCDC's data processing and validation procedures.
#
#######################################################################

data_FIVGAT
_chemical_formula_moiety         'C52 H40 N8 O4 Zn2,3(C3 H7 N1 O1)'
_chemical_name_systematic        
'bis(\m~2~1,4-bis(3-(2-Oxyphenyl)pyrazol-1-ylmethyl)benzene)-di-zinc(ii) dimethylformamide solvate'
_symmetry_cell_setting           monoclinic
_symmetry_space_group_name_H-M   'P 21/c'
_symmetry_Int_Tables_number      14
_space_group_name_Hall           '-P 2ybc'
loop_
_symmetry_equiv_pos_site_id
_symmetry_equiv_pos_as_xyz
1 x,y,z
2 -x,1/2+y,1/2-z
3 -x,-y,-z
4 x,1/2-y,1/2+z
_cell_length_a                   21.555(2)
_cell_length_b                   15.9930(16)
_cell_length_c                   15.8234(16)
_cell_angle_alpha                90
_cell_angle_beta                 96.439(2)
_cell_angle_gamma                90
_cell_volume                     5420.38
_exptl_crystal_colour            colorless
_exptl_crystal_description       block
_cell_formula_units_Z            4
_exptl_crystal_recrystallization_method 'diethyl ether/dimethylformamide'
loop_
_atom_site_label
_atom_site_type_symbol
_atom_site_fract_x
_atom_site_fract_y
_atom_site_fract_z
Zn1 Zn 0.331552(10) 0.453567(13) 1.211375(13)
Zn2 Zn 0.132410(9) 0.683788(14) 0.733628(13)
O1 O 0.34832(6) 0.52353(9) 1.30865(8)
O2 O 0.09542(6) 0.78976(8) 0.74938(9)
O3 O 0.33997(6) 0.33610(9) 1.20762(10)
O4 O 0.11743(6) 0.62229(10) 0.63100(8)
N1 N 0.39421(6) 0.50962(9) 1.14629(9)
N2 N 0.40478(7) 0.49780(10) 1.06381(9)
N3 N 0.09938(7) 0.54584(9) 0.85278(10)
N4 N 0.09262(7) 0.62608(9) 0.82500(9)
N5 N 0.23864(7) 0.45128(9) 1.17715(10)
N6 N 0.19750(7) 0.51603(10) 1.16529(10)
N7 N 0.26751(7) 0.72699(10) 0.78816(9)
N8 N 0.22391(7) 0.68982(9) 0.73146(9)
C1 C 0.20252(8) 0.47199(11) 0.86882(11)
C2 C 0.25633(9) 0.51214(12) 0.84945(12)
H1 H 0.2539 0.5504 0.8032
C3 C 0.31324(9) 0.49742(13) 0.89619(12)
H2 H 0.3494 0.5258 0.8821
C4 C 0.31802(8) 0.44139(11) 0.96369(11)
C5 C 0.26472(9) 0.40025(12) 0.98211(11)
H3 H 0.2675 0.3607 1.0272
C6 C 0.20726(9) 0.41573(12) 0.93582(12)
H4 H 0.1710 0.3876 0.9502
C7 C 0.38021(9) 0.42488(12) 1.01525(12)
H5 H 0.3754 0.3782 1.0550
H6 H 0.4107 0.4073 0.9764
C8 C 0.44117(8) 0.55883(12) 1.03830(12)
H7 H 0.4545 0.5641 0.9833
C9 C 0.45573(8) 0.61212(12) 1.10502(11)
H8 H 0.4808 0.6610 1.1057
C10 C 0.42592(8) 0.57948(11) 1.17260(11)
C11 C 0.42907(8) 0.61181(11) 1.25996(11)
C12 C 0.47264(9) 0.67569(12) 1.28285(12)
H9 H 0.4975 0.6960 1.2414
C13 C 0.48046(9) 0.70975(13) 1.36327(13)
H10 H 0.5104 0.7526 1.3769
C14 C 0.44421(9) 0.68086(13) 1.42409(12)
H11 H 0.4492 0.7039 1.4798
C15 C 0.40086(9) 0.61850(12) 1.40369(11)
H12 H 0.3764 0.5994 1.4461
C16 C 0.39162(8) 0.58211(11) 1.32185(11)
C17 C 0.14058(8) 0.48634(12) 0.81510(12)
H13 H 0.1488 0.5074 0.7586
H14 H 0.1186 0.4321 0.8064
C18 C 0.06306(9) 0.53126(13) 0.91441(13)
H15 H 0.0597 0.4798 0.9434
C19 C 0.03160(9) 0.60356(12) 0.92839(13)
H16 H 0.0028 0.6122 0.9689
C20 C 0.05075(8) 0.66242(11) 0.87034(11)
C21 C 0.03000(8) 0.74976(11) 0.85870(11)
C22 C -0.01515(9) 0.77789(12) 0.90960(12)
H17 H -0.0303 0.7399 0.9487
C23 C -0.03836(9) 0.85797(13) 0.90534(13)
H18 H -0.0683 0.8751 0.9415
C24 C -0.01735(9) 0.91344(12) 0.84739(13)
H19 H -0.0334 0.9688 0.8429
C25 C 0.02669(9) 0.88815(12) 0.79666(12)
H20 H 0.0406 0.9269 0.7574
C26 C 0.05220(8) 0.80693(12) 0.80050(12)
C27 C 0.24095(8) 0.72891(11) 0.93831(11)
C28 C 0.18331(8) 0.72741(11) 0.96972(11)
H21 H 0.1487 0.7553 0.9395
C29 C 0.17571(9) 0.68579(12) 1.04451(12)
H22 H 0.1359 0.6850 1.0650
C30 C 0.22559(9) 0.64532(11) 1.08977(11)
C31 C 0.28338(9) 0.64810(13) 1.05888(12)
H23 H 0.3182 0.6215 1.0898
C32 C 0.29092(9) 0.68908(13) 0.98375(12)
H24 H 0.3307 0.6899 0.9633
C33 C 0.21793(9) 0.60307(12) 1.17373(11)
H25 H 0.2583 0.6052 1.2103
H26 H 0.1871 0.6349 1.2027
C34 C 0.13926(9) 0.48776(14) 1.14560(13)
H27 H 0.1028 0.5211 1.1343
C35 C 0.14162(9) 0.40241(14) 1.14472(14)
H28 H 0.1074 0.3652 1.1329
C36 C 0.20446(9) 0.38050(12) 1.16471(12)
C37 C 0.23182(9) 0.29621(12) 1.16896(13)
C38 C 0.19102(11) 0.22859(14) 1.14985(16)
H29 H 0.1477 0.2395 1.1371
C39 C 0.21149(12) 0.14719(14) 1.14885(16)
H30 H 0.1827 0.1029 1.1355
C40 C 0.27369(12) 0.13085(14) 1.16723(15)
H31 H 0.2882 0.0748 1.1668
C41 C 0.31580(11) 0.19508(13) 1.18652(14)
H32 H 0.3589 0.1823 1.1989
C42 C 0.29615(9) 0.27927(12) 1.18816(12)
C43 C 0.24891(9) 0.77772(12) 0.85840(11)
H33 H 0.2090 0.8061 0.8390
H34 H 0.2808 0.8216 0.8724
C44 C 0.32502(9) 0.71294(12) 0.76679(12)
H35 H 0.3629 0.7324 0.7967
C45 C 0.31950(8) 0.66560(13) 0.69440(12)
H36 H 0.3525 0.6458 0.6647
C46 C 0.25516(8) 0.65196(11) 0.67256(11)
C47 C 0.22445(8) 0.60677(11) 0.59861(11)
C48 C 0.26241(9) 0.57547(12) 0.53968(11)
H37 H 0.3064 0.5803 0.5522
C49 C 0.23899(10) 0.53808(12) 0.46454(12)
H38 H 0.2662 0.5178 0.4259
C50 C 0.17480(10) 0.53062(13) 0.44661(13)
H39 H 0.1577 0.5058 0.3946
C51 C 0.13568(10) 0.55893(13) 0.50341(12)
H40 H 0.0919 0.5525 0.4900
C52 C 0.15868(9) 0.59711(12) 0.58081(11)
O5 O 0.55885(9) 0.75189(13) 1.09692(14)
N9 N 0.64937(8) 0.81250(11) 1.07142(11)
C53 C 0.61577(12) 0.75542(15) 1.10637(16)
H41 H 0.6375 0.7142 1.1413
C54 C 0.62002(11) 0.87949(16) 1.01986(14)
H42 H 0.5764 0.8649 1.0017
H43 H 0.6422 0.8877 0.9697
H44 H 0.6216 0.9312 1.0533
C55 C 0.71637(11) 0.81573(17) 1.09079(17)
H45 H 0.7280 0.8660 1.1243
H46 H 0.7358 0.8174 1.0377
H47 H 0.7308 0.7660 1.1235
O6 O -0.05416(8) 0.83610(9) 0.58985(10)
N10 N -0.06375(8) 0.70336(11) 0.63635(12)
C56 C -0.03203(10) 0.76790(13) 0.61245(13)
H48 H 0.0118 0.7611 0.6127
C57 C -0.03544(10) 0.62305(13) 0.65560(15)
H49 H 0.0088 0.6252 0.6465
H50 H -0.0567 0.5805 0.6183
H51 H -0.0391 0.6088 0.7151
C59 C -0.13302(17) 0.7053(3) 0.6273(4)
H55 H -0.1473 0.7625 0.6361
H56 H -0.1483 0.6681 0.6697
H57 H -0.1492 0.6864 0.5702
N11 N 0.46314(8) 0.54613(11) 0.70777(10)
O7 O 0.46333(9) 0.57854(12) 0.84645(10)
C60 C 0.48297(14) 0.59040(19) 0.77670(18)
H58 H 0.5133 0.6327 0.7723
C61 C 0.41744(15) 0.4785(2) 0.7187(2)
H59 H 0.4254 0.4554 0.7763
H60 H 0.4218 0.4342 0.6770
H61 H 0.3750 0.5014 0.7101
C62 C 0.48070(18) 0.5591(3) 0.6259(2)
H62 H 0.5010 0.5087 0.6071
H63 H 0.5098 0.6063 0.6272
H64 H 0.4435 0.5715 0.5864
loop_
_geom_bond_atom_site_label_1
_geom_bond_atom_site_label_2
_geom_bond_site_symmetry_1
_geom_bond_site_symmetry_2
Zn1 O1 1_555 1_555
Zn2 O2 1_555 1_555
O1 C16 1_555 1_555
O2 C26 1_555 1_555
O3 Zn1 1_555 1_555
O4 Zn2 1_555 1_555
N1 Zn1 1_555 1_555
N2 N1 1_555 1_555
N3 N4 1_555 1_555
N4 Zn2 1_555 1_555
N5 Zn1 1_555 1_555
N6 N5 1_555 1_555
N7 N8 1_555 1_555
N8 Zn2 1_555 1_555
C1 C2 1_555 1_555
C2 H1 1_555 1_555
C3 C2 1_555 1_555
H2 C3 1_555 1_555
C4 C3 1_555 1_555
C5 C4 1_555 1_555
H3 C5 1_555 1_555
C6 C1 1_555 1_555
H4 C6 1_555 1_555
C7 N2 1_555 1_555
H5 C7 1_555 1_555
H6 C7 1_555 1_555
C8 N2 1_555 1_555
H7 C8 1_555 1_555
C9 C8 1_555 1_555
H8 C9 1_555 1_555
C10 N1 1_555 1_555
C11 C10 1_555 1_555
C12 C11 1_555 1_555
H9 C12 1_555 1_555
C13 C12 1_555 1_555
H10 C13 1_555 1_555
C14 C13 1_555 1_555
H11 C14 1_555 1_555
C15 C14 1_555 1_555
H12 C15 1_555 1_555
C16 C11 1_555 1_555
C17 N3 1_555 1_555
H13 C17 1_555 1_555
H14 C17 1_555 1_555
C18 N3 1_555 1_555
H15 C18 1_555 1_555
C19 C18 1_555 1_555
H16 C19 1_555 1_555
C20 N4 1_555 1_555
C21 C20 1_555 1_555
C22 C21 1_555 1_555
H17 C22 1_555 1_555
C23 C22 1_555 1_555
H18 C23 1_555 1_555
C24 C23 1_555 1_555
H19 C24 1_555 1_555
C25 C24 1_555 1_555
H20 C25 1_555 1_555
C26 C21 1_555 1_555
C27 C28 1_555 1_555
C28 H21 1_555 1_555
C29 C28 1_555 1_555
H22 C29 1_555 1_555
C30 C29 1_555 1_555
C31 C30 1_555 1_555
H23 C31 1_555 1_555
C32 C27 1_555 1_555
H24 C32 1_555 1_555
C33 N6 1_555 1_555
H25 C33 1_555 1_555
H26 C33 1_555 1_555
C34 N6 1_555 1_555
H27 C34 1_555 1_555
C35 C34 1_555 1_555
H28 C35 1_555 1_555
C36 N5 1_555 1_555
C37 C36 1_555 1_555
C38 C37 1_555 1_555
H29 C38 1_555 1_555
C39 C38 1_555 1_555
H30 C39 1_555 1_555
C40 C39 1_555 1_555
H31 C40 1_555 1_555
C41 C40 1_555 1_555
H32 C41 1_555 1_555
C42 O3 1_555 1_555
C43 N7 1_555 1_555
H33 C43 1_555 1_555
H34 C43 1_555 1_555
C44 N7 1_555 1_555
H35 C44 1_555 1_555
C45 C44 1_555 1_555
H36 C45 1_555 1_555
C46 N8 1_555 1_555
C47 C46 1_555 1_555
C48 C47 1_555 1_555
H37 C48 1_555 1_555
C49 C48 1_555 1_555
H38 C49 1_555 1_555
C50 C49 1_555 1_555
H39 C50 1_555 1_555
C51 C50 1_555 1_555
H40 C51 1_555 1_555
C52 O4 1_555 1_555
O5 C53 1_555 1_555
N9 C53 1_555 1_555
C53 H41 1_555 1_555
C54 N9 1_555 1_555
H42 C54 1_555 1_555
H43 C54 1_555 1_555
H44 C54 1_555 1_555
C55 N9 1_555 1_555
H45 C55 1_555 1_555
H46 C55 1_555 1_555
H47 C55 1_555 1_555
O6 C56 1_555 1_555
N10 C56 1_555 1_555
C56 H48 1_555 1_555
C57 N10 1_555 1_555
H49 C57 1_555 1_555
H50 C57 1_555 1_555
H51 C57 1_555 1_555
C59 N10 1_555 1_555
H55 C59 1_555 1_555
H56 C59 1_555 1_555
H57 C59 1_555 1_555
N11 C60 1_555 1_555
O7 C60 1_555 1_555
C60 H58 1_555 1_555
C61 N11 1_555 1_555
H59 C61 1_555 1_555
H60 C61 1_555 1_555
H61 C61 1_555 1_555
C62 N11 1_555 1_555
H62 C62 1_555 1_555
H63 C62 1_555 1_555
H64 C62 1_555 1_555
C1 C17 1_555 1_555
C4 C7 1_555 1_555
C5 C6 1_555 1_555
C9 C10 1_555 1_555
C15 C16 1_555 1_555
C19 C20 1_555 1_555
C25 C26 1_555 1_555
C27 C43 1_555 1_555
C30 C33 1_555 1_555
C31 C32 1_555 1_555
C35 C36 1_555 1_555
C37 C42 1_555 1_555
C41 C42 1_555 1_555
C45 C46 1_555 1_555
C47 C52 1_555 1_555
C51 C52 1_555 1_555

#END
