
#######################################################################
#
#                 Cambridge Crystallographic Data Centre
#                                CCDC 
#
#######################################################################
#
# If this CIF has been generated from an entry in the Cambridge 
# Structural Database, then it will include bibliographic, chemical, 
# crystal, experimental, refinement or atomic coordinate data resulting 
# from the CCDC's data processing and validation procedures.
#
#######################################################################

data_FIVGEX
_chemical_formula_moiety         'C64 H48 Co2 N8 O4,2(C1 H2 Cl2),5(H2 O1)'
_chemical_name_systematic        
"bis(\m~2~-3,3'-bis(3-(2-Oxyphenyl)pyrazol-1-ylmethyl)biphenyl)-di-cobalt(ii) dichloromethane solvate pentahydrate"
_symmetry_cell_setting           triclinic
_symmetry_space_group_name_H-M   'P -1'
_symmetry_Int_Tables_number      2
_space_group_name_Hall           '-P 1'
loop_
_symmetry_equiv_pos_site_id
_symmetry_equiv_pos_as_xyz
1 x,y,z
2 -x,-y,-z
_cell_length_a                   14.206(5)
_cell_length_b                   15.594(5)
_cell_length_c                   17.062(5)
_cell_angle_alpha                90.380(6)
_cell_angle_beta                 108.265(5)
_cell_angle_gamma                91.172(5)
_cell_volume                     3588.19
_exptl_crystal_colour            red
_exptl_crystal_description       block
_cell_formula_units_Z            2
_exptl_crystal_recrystallization_method 'di-isopropyl ether/dichloromethane'
loop_
_atom_site_label
_atom_site_type_symbol
_atom_site_fract_x
_atom_site_fract_y
_atom_site_fract_z
Co1 Co 0.17449(10) 0.58403(10) 0.14815(8)
Co2 Co 0.44431(10) 1.20175(9) 0.43578(8)
N1 N 0.2621(6) 0.6619(5) 0.2333(5)
N2 N 0.2364(6) 0.7036(6) 0.2939(5)
N3 N 0.2952(7) 1.3149(6) 0.3183(5)
N4 N 0.3931(6) 1.2890(6) 0.3504(5)
N5 N 0.0484(7) 0.6082(6) 0.0574(5)
N6 N 0.0382(7) 0.6421(5) -0.0166(5)
N7 N 0.4308(6) 1.0205(6) 0.3714(5)
N8 N 0.4023(6) 1.0800(6) 0.4177(5)
O1 O 0.2797(5) 0.5538(5) 0.1074(4)
O2 O 0.5784(5) 1.2216(4) 0.4400(4)
O3 O 0.1082(5) 0.5121(5) 0.2041(4)
O4 O 0.3966(6) 1.2141(5) 0.5271(4)
C1 C 0.1131(7) 0.9546(7) 0.3093(6)
C2 C 0.1327(8) 0.8749(8) 0.2840(6)
H1 H 0.1603 0.8719 0.2413
C3 C 0.1131(8) 0.7970(7) 0.3192(7)
C4 C 0.0714(8) 0.8022(8) 0.3824(6)
H2 H 0.0579 0.7527 0.4074
C5 C 0.0501(9) 0.8816(10) 0.4078(8)
H3 H 0.0225 0.8845 0.4504
C6 C 0.0681(8) 0.9566(8) 0.3725(7)
H4 H 0.0508 1.0087 0.3902
C7 C 0.1337(9) 0.7100(7) 0.2858(7)
H5 H 0.1142 0.6641 0.3160
H6 H 0.0946 0.7037 0.2281
C8 C 0.3170(8) 0.7277(7) 0.3544(6)
H7 H 0.3169 0.7559 0.4026
C9 C 0.4015(8) 0.7048(7) 0.3357(6)
H8 H 0.4676 0.7144 0.3666
C10 C 0.3621(8) 0.6635(7) 0.2579(6)
C11 C 0.4185(8) 0.6264(7) 0.2082(6)
C12 C 0.5202(8) 0.6419(8) 0.2324(7)
H9 H 0.5496 0.6743 0.2801
C13 C 0.5771(9) 0.6124(9) 0.1906(7)
H10 H 0.6444 0.6265 0.2081
C14 C 0.5376(9) 0.5601(10) 0.1201(7)
H11 H 0.5779 0.5387 0.0912
C15 C 0.4375(8) 0.5416(8) 0.0952(7)
H12 H 0.4105 0.5068 0.0487
C16 C 0.3743(8) 0.5729(7) 0.1370(6)
C17 C 0.1359(7) 1.0347(7) 0.2708(6)
C18 C 0.1623(8) 1.1104(7) 0.3169(7)
H13 H 0.1611 1.1128 0.3710
C19 C 0.1901(8) 1.1820(8) 0.2815(7)
C20 C 0.1857(8) 1.1833(8) 0.2000(7)
H14 H 0.1997 1.2330 0.1756
C21 C 0.1594(9) 1.1069(8) 0.1558(7)
H15 H 0.1607 1.1043 0.1016
C22 C 0.1322(8) 1.0365(8) 0.1889(7)
H16 H 0.1102 0.9878 0.1559
C23 C 0.2175(8) 1.2672(8) 0.3340(7)
H17 H 0.1592 1.3023 0.3220
H18 H 0.2370 1.2532 0.3921
C24 C 0.2919(10) 1.3849(8) 0.2729(7)
H19 H 0.2347 1.4126 0.2430
C25 C 0.3828(11) 1.4082(9) 0.2773(7)
H20 H 0.4009 1.4558 0.2522
C26 C 0.4479(8) 1.3488(7) 0.3266(6)
C27 C 0.5553(9) 1.3480(8) 0.3522(7)
C28 C 0.6027(11) 1.4127(9) 0.3244(7)
H21 H 0.5644 1.4521 0.2880
C29 C 0.7080(10) 1.4225(10) 0.3484(8)
H22 H 0.7387 1.4677 0.3297
C30 C 0.7626(11) 1.3606(9) 0.4013(9)
H23 H 0.8315 1.3641 0.4178
C31 C 0.7173(8) 1.2956(9) 0.4293(8)
H24 H 0.7560 1.2558 0.4648
C32 C 0.6168(8) 1.2870(7) 0.4066(6)
C33 C 0.2728(8) 0.8689(7) 0.0692(6)
C34 C 0.2441(8) 0.7852(7) 0.0462(6)
H25 H 0.2864 0.7413 0.0704
C35 C 0.1547(8) 0.7651(8) -0.0114(6)
C36 C 0.0925(8) 0.8308(7) -0.0490(6)
H26 H 0.0311 0.8183 -0.0877
C37 C 0.1219(10) 0.9120(8) -0.0289(8)
H27 H 0.0818 0.9560 -0.0560
C38 C 0.2108(9) 0.9323(8) 0.0313(7)
H28 H 0.2282 0.9894 0.0459
C39 C 0.1215(10) 0.6735(7) -0.0368(6)
H29 H 0.1070 0.6683 -0.0961
H30 H 0.1767 0.6366 -0.0116
C40 C -0.0557(9) 0.6372(7) -0.0658(7)
H31 H -0.0795 0.6550 -0.1202
C41 C -0.1098(8) 0.6011(8) -0.0207(7)
H32 H -0.1780 0.5909 -0.0387
C42 C -0.0446(8) 0.5819(7) 0.0576(6)
C43 C -0.0625(8) 0.5368(7) 0.1252(6)
C44 C -0.1617(8) 0.5221(8) 0.1215(7)
H33 H -0.2119 0.5449 0.0781
C45 C -0.1863(9) 0.4759(9) 0.1791(8)
H34 H -0.2528 0.4680 0.1748
C46 C -0.1155(10) 0.4407(12) 0.2434(8)
H35 H -0.1329 0.4090 0.2830
C47 C -0.0164(9) 0.4533(9) 0.2486(7)
H36 H 0.0321 0.4284 0.2918
C48 C 0.0131(8) 0.5016(8) 0.1915(6)
C49 C 0.3727(8) 0.8888(7) 0.1335(6)
C50 C 0.3791(8) 0.9591(7) 0.1882(6)
H37 H 0.3241 0.9920 0.1849
C51 C 0.4709(8) 0.9772(7) 0.2475(6)
C52 C 0.5521(8) 0.9305(8) 0.2518(6)
H38 H 0.6124 0.9440 0.2916
C53 C 0.5453(9) 0.8619(8) 0.1962(7)
H39 H 0.6009 0.8304 0.1983
C54 C 0.4547(8) 0.8421(8) 0.1385(7)
H40 H 0.4493 0.7960 0.1023
C55 C 0.4749(8) 1.0478(7) 0.3101(6)
H41 H 0.5434 1.0651 0.3372
H42 H 0.4402 1.0972 0.2818
C56 C 0.4057(7) 0.9404(7) 0.3900(6)
H43 H 0.4150 0.8898 0.3645
C57 C 0.3652(8) 0.9463(7) 0.4515(6)
H44 H 0.3444 0.9011 0.4778
C58 C 0.3607(7) 1.0345(7) 0.4677(6)
C59 C 0.3156(8) 1.0756(7) 0.5232(6)
C60 C 0.2501(8) 1.0284(8) 0.5510(6)
H45 H 0.2381 0.9711 0.5347
C61 C 0.2021(9) 1.0617(10) 0.6013(7)
H46 H 0.1597 1.0271 0.6199
C62 C 0.2171(8) 1.1494(9) 0.6251(7)
H47 H 0.1842 1.1736 0.6588
C63 C 0.2812(8) 1.1974(9) 0.5973(6)
H48 H 0.2907 1.2552 0.6120
C64 C 0.3334(8) 1.1634(7) 0.5476(6)
Cl1 Cl 0.2270(3) 0.5196(2) 0.4032(2)
Cl2 Cl 0.3839(3) 0.4176(2) 0.51092(19)
C65 C 0.3532(8) 0.5197(7) 0.4655(7)
H49 H 0.3647 0.5633 0.5084
H50 H 0.3953 0.5333 0.4319
Cl3 Cl 0.0606(5) 1.1690(4) 0.9148(3)
Cl4 Cl 0.1528(6) 1.2619(6) 0.8123(5)
C66 C 0.1775(19) 1.198(3) 0.903(3)
H51 H 0.2123 1.1465 0.8962
H52 H 0.2182 1.2296 0.9505
O5 O 0.9061(12) 1.1692(13) 1.2728(10)
O8 O 0.6464(18) 1.2841(15) 1.0989(13)
O9 O 0.3893(19) 1.0815(18) 0.9954(15)
O11 O 0.366(2) 1.289(2) 1.0683(18)
O12 O 0.714(3) 1.125(2) 1.253(2)
O6? O 0.931(4) 1.233(4) 1.259(3)
O7? O 0.5628(18) 1.3034(15) 1.0738(13)
O10? O 0.425(2) 0.983(2) 0.9560(19)
O13? O 0.645(4) 1.175(4) 1.209(3)
loop_
_geom_bond_atom_site_label_1
_geom_bond_atom_site_label_2
_geom_bond_site_symmetry_1
_geom_bond_site_symmetry_2
Co1 N1 1_555 1_555
Co2 N4 1_555 1_555
N1 N2 1_555 1_555
N2 C7 1_555 1_555
N3 N4 1_555 1_555
N4 C26 1_555 1_555
N5 Co1 1_555 1_555
N6 N5 1_555 1_555
N7 N8 1_555 1_555
N8 Co2 1_555 1_555
O1 Co1 1_555 1_555
O2 Co2 1_555 1_555
O3 Co1 1_555 1_555
O4 Co2 1_555 1_555
C1 C2 1_555 1_555
C2 H1 1_555 1_555
C3 C2 1_555 1_555
C4 C3 1_555 1_555
H2 C4 1_555 1_555
C5 C4 1_555 1_555
H3 C5 1_555 1_555
C6 C1 1_555 1_555
H4 C6 1_555 1_555
C7 C3 1_555 1_555
H5 C7 1_555 1_555
H6 C7 1_555 1_555
C8 N2 1_555 1_555
H7 C8 1_555 1_555
C9 C8 1_555 1_555
H8 C9 1_555 1_555
C10 N1 1_555 1_555
C11 C10 1_555 1_555
C12 C11 1_555 1_555
H9 C12 1_555 1_555
C13 C12 1_555 1_555
H10 C13 1_555 1_555
C14 C13 1_555 1_555
H11 C14 1_555 1_555
C15 C14 1_555 1_555
H12 C15 1_555 1_555
C16 O1 1_555 1_555
C17 C1 1_555 1_555
C18 C17 1_555 1_555
H13 C18 1_555 1_555
C19 C18 1_555 1_555
C20 C19 1_555 1_555
H14 C20 1_555 1_555
C21 C20 1_555 1_555
H15 C21 1_555 1_555
C22 C17 1_555 1_555
H16 C22 1_555 1_555
C23 N3 1_555 1_555
H17 C23 1_555 1_555
H18 C23 1_555 1_555
C24 N3 1_555 1_555
H19 C24 1_555 1_555
C25 C24 1_555 1_555
H20 C25 1_555 1_555
C26 C25 1_555 1_555
C27 C26 1_555 1_555
C28 C27 1_555 1_555
H21 C28 1_555 1_555
C29 C28 1_555 1_555
H22 C29 1_555 1_555
C30 C29 1_555 1_555
H23 C30 1_555 1_555
C31 C30 1_555 1_555
H24 C31 1_555 1_555
C32 O2 1_555 1_555
C33 C34 1_555 1_555
C34 H25 1_555 1_555
C35 C34 1_555 1_555
C36 C35 1_555 1_555
H26 C36 1_555 1_555
C37 C36 1_555 1_555
H27 C37 1_555 1_555
C38 C33 1_555 1_555
H28 C38 1_555 1_555
C39 N6 1_555 1_555
H29 C39 1_555 1_555
H30 C39 1_555 1_555
C40 N6 1_555 1_555
H31 C40 1_555 1_555
C41 C40 1_555 1_555
H32 C41 1_555 1_555
C42 N5 1_555 1_555
C43 C42 1_555 1_555
C44 C43 1_555 1_555
H33 C44 1_555 1_555
C45 C44 1_555 1_555
H34 C45 1_555 1_555
C46 C45 1_555 1_555
H35 C46 1_555 1_555
C47 C46 1_555 1_555
H36 C47 1_555 1_555
C48 O3 1_555 1_555
C49 C33 1_555 1_555
C50 C49 1_555 1_555
H37 C50 1_555 1_555
C51 C50 1_555 1_555
C52 C51 1_555 1_555
H38 C52 1_555 1_555
C53 C52 1_555 1_555
H39 C53 1_555 1_555
C54 C49 1_555 1_555
H40 C54 1_555 1_555
C55 N7 1_555 1_555
H41 C55 1_555 1_555
H42 C55 1_555 1_555
C56 N7 1_555 1_555
H43 C56 1_555 1_555
C57 C56 1_555 1_555
H44 C57 1_555 1_555
C58 N8 1_555 1_555
C59 C58 1_555 1_555
C60 C59 1_555 1_555
H45 C60 1_555 1_555
C61 C60 1_555 1_555
H46 C61 1_555 1_555
C62 C61 1_555 1_555
H47 C62 1_555 1_555
C63 C62 1_555 1_555
H48 C63 1_555 1_555
C64 O4 1_555 1_555
Cl1 C65 1_555 1_555
Cl2 C65 1_555 1_555
C65 H49 1_555 1_555
H50 C65 1_555 1_555
Cl3 C66 1_555 1_555
Cl4 C66 1_555 1_555
C66 H51 1_555 1_555
H52 C66 1_555 1_555
C5 C6 1_555 1_555
C9 C10 1_555 1_555
C11 C16 1_555 1_555
C15 C16 1_555 1_555
C19 C23 1_555 1_555
C21 C22 1_555 1_555
C27 C32 1_555 1_555
C31 C32 1_555 1_555
C35 C39 1_555 1_555
C37 C38 1_555 1_555
C41 C42 1_555 1_555
C43 C48 1_555 1_555
C47 C48 1_555 1_555
C51 C55 1_555 1_555
C53 C54 1_555 1_555
C57 C58 1_555 1_555
C59 C64 1_555 1_555
C63 C64 1_555 1_555

#END
