
#######################################################################
#
#                 Cambridge Crystallographic Data Centre
#                                CCDC 
#
#######################################################################
#
# If this CIF has been generated from an entry in the Cambridge 
# Structural Database, then it will include bibliographic, chemical, 
# crystal, experimental, refinement or atomic coordinate data resulting 
# from the CCDC's data processing and validation procedures.
#
#######################################################################

data_FOCVUP
_chemical_formula_moiety         'C64 H48 Cl4 N4 O4 Pd2,1.5(H2 O1)'
_chemical_name_systematic        
"bis(\m~2~-(S)-2,2'-bis(4-Pyridylmethoxy)-1,1'-binaphthalene)-tetrachloro-di-palladium(ii) sesquihydrate"
_symmetry_cell_setting           monoclinic
_symmetry_space_group_name_H-M   'P 21'
_symmetry_Int_Tables_number      4
_space_group_name_Hall           'P 2yb'
loop_
_symmetry_equiv_pos_site_id
_symmetry_equiv_pos_as_xyz
1 x,y,z
2 -x,1/2+y,-z
_cell_length_a                   16.177(5)
_cell_length_b                   9.248(3)
_cell_length_c                   20.061(6)
_cell_angle_alpha                90
_cell_angle_beta                 96.901(6)
_cell_angle_gamma                90
_cell_volume                     2979.48
_exptl_crystal_colour            golden
_exptl_crystal_description       needle
_cell_formula_units_Z            2
_exptl_crystal_recrystallization_method hexane
loop_
_atom_site_label
_atom_site_type_symbol
_atom_site_fract_x
_atom_site_fract_y
_atom_site_fract_z
Pd1 Pd 0.13870(3) -0.84109(7) 0.44367(2)
Pd2 Pd 0.32279(3) -1.18752(8) 0.54190(3)
Cl1 Cl 0.01147(11) -0.8981(2) 0.38681(9)
Cl2 Cl 0.26076(13) -0.7647(3) 0.50579(11)
Cl3 Cl 0.21408(13) -1.2337(3) 0.45967(11)
Cl4 Cl 0.42524(12) -1.1202(3) 0.62503(9)
O1 O 0.35015(14) -0.9606(2) 0.1608(2)
O2 O 0.50594(16) -1.0095(6) 0.26934(9)
O3 O 0.13494(15) -1.3520(3) 0.82291(11)
O4 O 0.00412(15) -1.0150(3) 0.75493(13)
N1 N 0.18634(13) -0.8432(3) 0.35505(13)
N2 N 0.3967(2) -1.1281(2) 0.47373(14)
N3 N 0.2588(3) -1.2648(2) 0.61346(13)
N4 N 0.0852(2) -0.86387(18) 0.52966(15)
C1 C 0.1503(2) -0.7692(4) 0.30200(10)
H1 H 0.1075 -0.7044 0.3069
C2 C 0.17779(14) -0.7907(4) 0.23869(12)
H2 H 0.1472 -0.7507 0.2009
C3 C 0.24901(13) -0.8695(3) 0.23075(9)
C4 C 0.2936(2) -0.9231(6) 0.28916(9)
H3 H 0.3445 -0.9693 0.2880
C5 C 0.25946(14) -0.9056(5) 0.34998(13)
H4 H 0.2899 -0.9398 0.3891
C6 C 0.27470(16) -0.8892(5) 0.16272(13)
H5 H 0.2315 -0.9429 0.1356
H6 H 0.2784 -0.7947 0.1423
C7 C 0.35270(15) -1.1102(2) 0.1728(3)
C8 C 0.2806(4) -1.1880(2) 0.1834(3)
H7 H 0.2282 -1.1452 0.1781
C9 C 0.29143(15) -1.3290(2) 0.2016(3)
H8 H 0.2464 -1.3795 0.2148
C10 C 0.36936(16) -1.4036(2) 0.2013(3)
C11 C 0.37544(15) -1.5540(2) 0.2191(3)
H9 H 0.3302 -1.6065 0.2305
C12 C 0.45179(16) -1.6143(6) 0.2181(5)
H10 H 0.4575 -1.7110 0.2306
C13 C 0.5276(5) -1.5403(2) 0.1989(3)
H11 H 0.5780 -1.5879 0.1979
C14 C 0.51708(15) -1.3982(2) 0.1831(3)
H12 H 0.5625 -1.3458 0.1719
C15 C 0.43858(16) -1.3256(2) 0.1831(3)
C16 C 0.42712(15) -1.1745(2) 0.1675(2)
C17 C 0.5031(2) -1.0872(4) 0.15746(9)
C18 C 0.5352(2) -1.0769(4) 0.09376(9)
C19 C 0.5015(2) -1.1706(4) 0.04015(10)
H13 H 0.4596 -1.2360 0.0469
C20 C 0.5311(3) -1.1635(10) -0.02040(13)
H14 H 0.5071 -1.2210 -0.0556
C21 C 0.6002(3) -1.0667(4) -0.03128(15)
H15 H 0.6176 -1.0571 -0.0736
C22 C 0.6380(2) -0.9918(4) 0.02198(10)
H16 H 0.6854 -0.9381 0.0169
C23 C 0.6066(2) -0.9931(4) 0.08604(9)
C24 C 0.6420(2) -0.9140(4) 0.14449(10)
H17 H 0.6903 -0.8608 0.1417
C25 C 0.6085(3) -0.9134(9) 0.20341(14)
H18 H 0.6289 -0.8527 0.2386
C26 C 0.5420(2) -1.0079(5) 0.20912(11)
C27 C 0.55672(18) -1.0074(6) 0.33054(12)
H19 H 0.5753 -0.9098 0.3419
H20 H 0.6051 -1.0686 0.3288
C28 C 0.50401(18) -1.0634(2) 0.38032(12)
C29 C 0.48348(18) -0.9620(3) 0.42703(12)
H21 H 0.5043 -0.8684 0.4255
C30 C 0.43197(18) -0.9975(3) 0.47649(15)
H22 H 0.4229 -0.9320 0.5100
C31 C 0.40469(17) -1.2216(4) 0.42412(12)
H23 H 0.3708 -1.3029 0.4188
C32 C 0.46446(16) -1.1970(3) 0.37985(17)
H24 H 0.4774 -1.2694 0.3506
C33 C 0.2324(2) -1.4014(3) 0.60878(14)
H25 H 0.2394 -1.4555 0.5708
C34 C 0.1940(2) -1.4641(3) 0.66096(11)
H26 H 0.1820 -1.5625 0.6595
C35 C 0.17350(19) -1.3826(2) 0.71470(11)
C36 C 0.20245(19) -1.2413(2) 0.72078(14)
H27 H 0.1956 -1.1843 0.7579
C37 C 0.2428(2) -1.1899(4) 0.66725(11)
H28 H 0.2600 -1.0939 0.6695
C38 C 0.1280(2) -1.4451(3) 0.76800(12)
H29 H 0.0698 -1.4584 0.7510
H30 H 0.1513 -1.5387 0.7815
C39 C 0.06465(14) -1.3266(2) 0.85586(16)
C40 C 0.01956(14) -1.4495(3) 0.87891(16)
H31 H 0.0348 -1.5439 0.8699
C41 C -0.04438(17) -1.4224(3) 0.91337(19)
H32 H -0.0744 -1.5000 0.9277
C42 C -0.06862(15) -1.2790(3) 0.92919(15)
C43 C -0.13379(17) -1.2682(3) 0.97099(17)
H33 H -0.1572 -1.3489 0.9891
C44 C -0.1586(2) -1.1336(2) 0.9821(3)
H34 H -0.2041 -1.1202 1.0057
C45 C -0.11720(16) -1.0069(3) 0.95863(17)
H35 H -0.1327 -0.9139 0.9697
C46 C -0.05616(18) -1.0294(3) 0.92065(18)
H36 H -0.0323 -0.9497 0.9021
C47 C -0.02572(14) -1.1699(3) 0.90705(15)
C48 C 0.04262(16) -1.1914(3) 0.86906(16)
C49 C 0.09660(16) -1.0719(4) 0.85178(12)
C50 C 0.17086(16) -1.0408(4) 0.89540(12)
C51 C 0.20113(18) -1.1264(4) 0.95252(13)
H37 H 0.1720 -1.2096 0.9614
C52 C 0.27004(16) -1.0919(3) 0.9940(2)
H38 H 0.2859 -1.1496 1.0313
C53 C 0.3202(2) -0.9665(3) 0.98187(15)
H39 H 0.3662 -0.9404 1.0118
C54 C 0.29752(17) -0.8894(4) 0.92567(13)
H40 H 0.3297 -0.8104 0.9161
C55 C 0.22555(18) -0.9254(4) 0.88035(12)
C56 C 0.19869(18) -0.8407(4) 0.82214(13)
H41 H 0.2324 -0.7643 0.8119
C57 C 0.12775(17) -0.8645(3) 0.7811(2)
H42 H 0.1116 -0.8054 0.7444
C58 C 0.07786(16) -0.9874(3) 0.79735(13)
C59 C -0.0295(2) -0.9119(4) 0.70885(12)
H43 H -0.0283 -0.8193 0.7316
H44 H -0.0875 -0.9362 0.6958
C60 C 0.01064(19) -0.89344(19) 0.64671(12)
C61 C 0.0096(2) -0.7614(3) 0.61352(12)
H45 H -0.0169 -0.6819 0.6299
C62 C 0.0489(2) -0.7495(3) 0.55492(13)
H46 H 0.0497 -0.6606 0.5333
C63 C 0.0884(2) -0.9914(3) 0.56128(12)
H47 H 0.1162 -1.0686 0.5443
C64 C 0.0500(2) -1.0099(3) 0.61986(13)
H48 H 0.0509 -1.0998 0.6407
O5 O 0.3076(7) -0.8017(9) 0.6625(5)
H49 H 0.2725 -0.7604 0.6315
H50 H 0.2903 -0.7739 0.7003
O6 O 0.2209(7) -0.4787(17) 0.3490(6)
H51 H 0.2715 -0.4802 0.3629
H52 H 0.1918 -0.5119 0.3766
loop_
_geom_bond_atom_site_label_1
_geom_bond_atom_site_label_2
_geom_bond_site_symmetry_1
_geom_bond_site_symmetry_2
Pd1 Cl1 1_555 1_555
Pd2 Cl3 1_555 1_555
Cl2 Pd1 1_555 1_555
Cl4 Pd2 1_555 1_555
O1 C6 1_555 1_555
O2 C26 1_555 1_555
O3 C38 1_555 1_555
O4 C58 1_555 1_555
N1 Pd1 1_555 1_555
N2 Pd2 1_555 1_555
N3 Pd2 1_555 1_555
N4 Pd1 1_555 1_555
C1 N1 1_555 1_555
H1 C1 1_555 1_555
C2 C1 1_555 1_555
H2 C2 1_555 1_555
C3 C2 1_555 1_555
C4 C3 1_555 1_555
H3 C4 1_555 1_555
C5 N1 1_555 1_555
H4 C5 1_555 1_555
C6 C3 1_555 1_555
H5 C6 1_555 1_555
H6 C6 1_555 1_555
C7 O1 1_555 1_555
C8 C7 1_555 1_555
H7 C8 1_555 1_555
C9 C8 1_555 1_555
H8 C9 1_555 1_555
C10 C9 1_555 1_555
C11 C10 1_555 1_555
H9 C11 1_555 1_555
C12 C11 1_555 1_555
H10 C12 1_555 1_555
C13 C12 1_555 1_555
H11 C13 1_555 1_555
C14 C13 1_555 1_555
H12 C14 1_555 1_555
C15 C10 1_555 1_555
C16 C7 1_555 1_555
C17 C16 1_555 1_555
C18 C17 1_555 1_555
C19 C18 1_555 1_555
H13 C19 1_555 1_555
C20 C19 1_555 1_555
H14 C20 1_555 1_555
C21 C20 1_555 1_555
H15 C21 1_555 1_555
C22 C21 1_555 1_555
H16 C22 1_555 1_555
C23 C18 1_555 1_555
C24 C23 1_555 1_555
H17 C24 1_555 1_555
C25 C24 1_555 1_555
H18 C25 1_555 1_555
C26 C17 1_555 1_555
C27 O2 1_555 1_555
H19 C27 1_555 1_555
H20 C27 1_555 1_555
C28 C27 1_555 1_555
C29 C28 1_555 1_555
H21 C29 1_555 1_555
C30 N2 1_555 1_555
H22 C30 1_555 1_555
C31 N2 1_555 1_555
H23 C31 1_555 1_555
C32 C28 1_555 1_555
H24 C32 1_555 1_555
C33 N3 1_555 1_555
H25 C33 1_555 1_555
C34 C33 1_555 1_555
H26 C34 1_555 1_555
C35 C34 1_555 1_555
C36 C35 1_555 1_555
H27 C36 1_555 1_555
C37 N3 1_555 1_555
H28 C37 1_555 1_555
C38 C35 1_555 1_555
H29 C38 1_555 1_555
H30 C38 1_555 1_555
C39 O3 1_555 1_555
C40 C39 1_555 1_555
H31 C40 1_555 1_555
C41 C40 1_555 1_555
H32 C41 1_555 1_555
C42 C41 1_555 1_555
C43 C42 1_555 1_555
H33 C43 1_555 1_555
C44 C43 1_555 1_555
H34 C44 1_555 1_555
C45 C44 1_555 1_555
H35 C45 1_555 1_555
C46 C45 1_555 1_555
H36 C46 1_555 1_555
C47 C42 1_555 1_555
C48 C39 1_555 1_555
C49 C48 1_555 1_555
C50 C49 1_555 1_555
C51 C50 1_555 1_555
H37 C51 1_555 1_555
C52 C51 1_555 1_555
H38 C52 1_555 1_555
C53 C52 1_555 1_555
H39 C53 1_555 1_555
C54 C53 1_555 1_555
H40 C54 1_555 1_555
C55 C50 1_555 1_555
C56 C55 1_555 1_555
H41 C56 1_555 1_555
C57 C56 1_555 1_555
H42 C57 1_555 1_555
C58 C49 1_555 1_555
C59 O4 1_555 1_555
H43 C59 1_555 1_555
H44 C59 1_555 1_555
C60 C59 1_555 1_555
C61 C60 1_555 1_555
H45 C61 1_555 1_555
C62 N4 1_555 1_555
H46 C62 1_555 1_555
C63 N4 1_555 1_555
H47 C63 1_555 1_555
C64 C60 1_555 1_555
H48 C64 1_555 1_555
O5 H49 1_555 1_555
H50 O5 1_555 1_555
O6 H51 1_555 1_555
H52 O6 1_555 1_555
C4 C5 1_555 1_555
C14 C15 1_555 1_555
C15 C16 1_555 1_555
C22 C23 1_555 1_555
C25 C26 1_555 1_555
C29 C30 1_555 1_555
C31 C32 1_555 1_555
C36 C37 1_555 1_555
C46 C47 1_555 1_555
C47 C48 1_555 1_555
C54 C55 1_555 1_555
C57 C58 1_555 1_555
C61 C62 1_555 1_555
C63 C64 1_555 1_555

#END
