# generated using pymatgen
data_Zn12B3H216C288(N9F2)8
_symmetry_space_group_name_H-M   'P 1'
_cell_length_a   19.88650000
_cell_length_b   19.88650000
_cell_length_c   48.23600000
_cell_angle_alpha   90.00000000
_cell_angle_beta   90.00000000
_cell_angle_gamma   120.00000000
_symmetry_Int_Tables_number   1
_chemical_formula_structural   Zn12B3H216C288(N9F2)8
_chemical_formula_sum   'Zn36 B9 H648 C864 N216 F48'
_cell_volume   16520.32653850
_cell_formula_units_Z   3
loop_
 _symmetry_equiv_pos_site_id
 _symmetry_equiv_pos_as_xyz
  1  'x, y, z'
loop_
 _atom_site_type_symbol
 _atom_site_label
 _atom_site_symmetry_multiplicity
 _atom_site_fract_x
 _atom_site_fract_y
 _atom_site_fract_z
 _atom_site_occupancy
  Zn  Zn1  1  0.666667  0.333667  0.955670  1.0
  Zn  Zn2  1  0.667000  0.333333  0.955670  1.0
  Zn  Zn3  1  0.666333  0.333000  0.955670  1.0
  Zn  Zn4  1  1.000000  0.000333  0.622337  1.0
  Zn  Zn5  1  0.000333  0.000000  0.622337  1.0
  Zn  Zn6  1  0.999667  0.999667  0.622337  1.0
  Zn  Zn7  1  0.333333  0.667000  0.289003  1.0
  Zn  Zn8  1  0.333667  0.666667  0.289003  1.0
  Zn  Zn9  1  0.333000  0.666333  0.289003  1.0
  Zn  Zn10  1  0.333333  0.666333  0.044330  1.0
  Zn  Zn11  1  0.333000  0.666667  0.044330  1.0
  Zn  Zn12  1  0.333667  0.667000  0.044330  1.0
  Zn  Zn13  1  1.000000  0.999667  0.377663  1.0
  Zn  Zn14  1  0.999667  0.000000  0.377663  1.0
  Zn  Zn15  1  0.000333  0.000333  0.377663  1.0
  Zn  Zn16  1  0.666667  0.333000  0.710997  1.0
  Zn  Zn17  1  0.666333  0.333333  0.710997  1.0
  Zn  Zn18  1  0.667000  0.333667  0.710997  1.0
  Zn  Zn19  1  0.439230  0.016330  0.875380  1.0
  Zn  Zn20  1  0.577100  0.560770  0.875380  1.0
  Zn  Zn21  1  0.983670  0.422900  0.875380  1.0
  Zn  Zn22  1  0.772563  0.682997  0.542047  1.0
  Zn  Zn23  1  0.910433  0.227437  0.542047  1.0
  Zn  Zn24  1  0.317003  0.089567  0.542047  1.0
  Zn  Zn25  1  0.105897  0.349663  0.208713  1.0
  Zn  Zn26  1  0.243767  0.894103  0.208713  1.0
  Zn  Zn27  1  0.650337  0.756233  0.208713  1.0
  Zn  Zn28  1  0.560770  0.983670  0.124620  1.0
  Zn  Zn29  1  0.422900  0.439230  0.124620  1.0
  Zn  Zn30  1  0.016330  0.577100  0.124620  1.0
  Zn  Zn31  1  0.227437  0.317003  0.457953  1.0
  Zn  Zn32  1  0.089567  0.772563  0.457953  1.0
  Zn  Zn33  1  0.682997  0.910433  0.457953  1.0
  Zn  Zn34  1  0.894103  0.650337  0.791287  1.0
  Zn  Zn35  1  0.756233  0.105897  0.791287  1.0
  Zn  Zn36  1  0.349663  0.243767  0.791287  1.0
  B  B37  1  0.000000  0.000000  0.876350  1
  B  B38  1  0.333333  0.666667  0.543017  1
  B  B39  1  0.666667  0.333333  0.209683  1
  B  B40  1  0.000000  0.000000  0.123650  1
  B  B41  1  0.666667  0.333333  0.456983  1
  B  B42  1  0.333333  0.666667  0.790317  1
  B  B43  1  0.666667  0.333333  0.833330  1
  B  B44  1  0.000000  0.000000  0.499997  1
  B  B45  1  0.333333  0.666667  0.166663  1
  H  H46  1  0.360500  0.109900  0.960400  1
  H  H47  1  0.749400  0.639500  0.960400  1
  H  H48  1  0.890100  0.250600  0.960400  1
  H  H49  1  0.693833  0.776567  0.627067  1
  H  H50  1  0.082733  0.306167  0.627067  1
  H  H51  1  0.223433  0.917267  0.627067  1
  H  H52  1  0.027167  0.443233  0.293733  1
  H  H53  1  0.416067  0.972833  0.293733  1
  H  H54  1  0.556767  0.583933  0.293733  1
  H  H55  1  0.639500  0.890100  0.039600  1
  H  H56  1  0.250600  0.360500  0.039600  1
  H  H57  1  0.109900  0.749400  0.039600  1
  H  H58  1  0.306167  0.223433  0.372933  1
  H  H59  1  0.917267  0.693833  0.372933  1
  H  H60  1  0.776567  0.082733  0.372933  1
  H  H61  1  0.972833  0.556767  0.706267  1
  H  H62  1  0.583933  0.027167  0.706267  1
  H  H63  1  0.443233  0.416067  0.706267  1
  H  H64  1  0.646300  0.252900  0.941600  1
  H  H65  1  0.606600  0.353700  0.941600  1
  H  H66  1  0.747100  0.393400  0.941600  1
  H  H67  1  0.979633  0.919567  0.608267  1
  H  H68  1  0.939933  0.020367  0.608267  1
  H  H69  1  0.080433  0.060067  0.608267  1
  H  H70  1  0.312967  0.586233  0.274933  1
  H  H71  1  0.273267  0.687033  0.274933  1
  H  H72  1  0.413767  0.726733  0.274933  1
  H  H73  1  0.353700  0.747100  0.058400  1
  H  H74  1  0.393400  0.646300  0.058400  1
  H  H75  1  0.252900  0.606600  0.058400  1
  H  H76  1  0.020367  0.080433  0.391733  1
  H  H77  1  0.060067  0.979633  0.391733  1
  H  H78  1  0.919567  0.939933  0.391733  1
  H  H79  1  0.687033  0.413767  0.725067  1
  H  H80  1  0.726733  0.312967  0.725067  1
  H  H81  1  0.586233  0.273267  0.725067  1
  H  H82  1  0.511100  0.195600  0.962100  1
  H  H83  1  0.684500  0.488900  0.962100  1
  H  H84  1  0.804400  0.315500  0.962100  1
  H  H85  1  0.844433  0.862267  0.628767  1
  H  H86  1  0.017833  0.155567  0.628767  1
  H  H87  1  0.137733  0.982167  0.628767  1
  H  H88  1  0.177767  0.528933  0.295433  1
  H  H89  1  0.351167  0.822233  0.295433  1
  H  H90  1  0.471067  0.648833  0.295433  1
  H  H91  1  0.488900  0.804400  0.037900  1
  H  H92  1  0.315500  0.511100  0.037900  1
  H  H93  1  0.195600  0.684500  0.037900  1
  H  H94  1  0.155567  0.137733  0.371233  1
  H  H95  1  0.982167  0.844433  0.371233  1
  H  H96  1  0.862267  0.017833  0.371233  1
  H  H97  1  0.822233  0.471067  0.704567  1
  H  H98  1  0.648833  0.177767  0.704567  1
  H  H99  1  0.528933  0.351167  0.704567  1
  H  H100  1  0.826100  0.156900  0.814000  1
  H  H101  1  0.330800  0.173900  0.814000  1
  H  H102  1  0.843100  0.669200  0.814000  1
  H  H103  1  0.159433  0.823567  0.480667  1
  H  H104  1  0.664133  0.840567  0.480667  1
  H  H105  1  0.176433  0.335867  0.480667  1
  H  H106  1  0.492767  0.490233  0.147333  1
  H  H107  1  0.997467  0.507233  0.147333  1
  H  H108  1  0.509767  0.002533  0.147333  1
  H  H109  1  0.173900  0.843100  0.186000  1
  H  H110  1  0.669200  0.826100  0.186000  1
  H  H111  1  0.156900  0.330800  0.186000  1
  H  H112  1  0.840567  0.176433  0.519333  1
  H  H113  1  0.335867  0.159433  0.519333  1
  H  H114  1  0.823567  0.664133  0.519333  1
  H  H115  1  0.507233  0.509767  0.852667  1
  H  H116  1  0.002533  0.492767  0.852667  1
  H  H117  1  0.490233  0.997467  0.852667  1
  H  H118  1  0.967300  0.233800  0.799200  1
  H  H119  1  0.266500  0.032700  0.799200  1
  H  H120  1  0.766200  0.733500  0.799200  1
  H  H121  1  0.300633  0.900467  0.465867  1
  H  H122  1  0.599833  0.699367  0.465867  1
  H  H123  1  0.099533  0.400167  0.465867  1
  H  H124  1  0.633967  0.567133  0.132533  1
  H  H125  1  0.933167  0.366033  0.132533  1
  H  H126  1  0.432867  0.066833  0.132533  1
  H  H127  1  0.032700  0.766200  0.200800  1
  H  H128  1  0.733500  0.967300  0.200800  1
  H  H129  1  0.233800  0.266500  0.200800  1
  H  H130  1  0.699367  0.099533  0.534133  1
  H  H131  1  0.400167  0.300633  0.534133  1
  H  H132  1  0.900467  0.599833  0.534133  1
  H  H133  1  0.366033  0.432867  0.867467  1
  H  H134  1  0.066833  0.633967  0.867467  1
  H  H135  1  0.567133  0.933167  0.867467  1
  H  H136  1  0.381400  0.145000  0.970900  1
  H  H137  1  0.763600  0.618600  0.970900  1
  H  H138  1  0.855000  0.236400  0.970900  1
  H  H139  1  0.714733  0.811667  0.637567  1
  H  H140  1  0.096933  0.285267  0.637567  1
  H  H141  1  0.188333  0.903067  0.637567  1
  H  H142  1  0.048067  0.478333  0.304233  1
  H  H143  1  0.430267  0.951933  0.304233  1
  H  H144  1  0.521667  0.569733  0.304233  1
  H  H145  1  0.618600  0.855000  0.029100  1
  H  H146  1  0.236400  0.381400  0.029100  1
  H  H147  1  0.145000  0.763600  0.029100  1
  H  H148  1  0.285267  0.188333  0.362433  1
  H  H149  1  0.903067  0.714733  0.362433  1
  H  H150  1  0.811667  0.096933  0.362433  1
  H  H151  1  0.951933  0.521667  0.695767  1
  H  H152  1  0.569733  0.048067  0.695767  1
  H  H153  1  0.478333  0.430267  0.695767  1
  H  H154  1  0.415000  0.072000  0.933000  1
  H  H155  1  0.657000  0.585000  0.933000  1
  H  H156  1  0.928000  0.343000  0.933000  1
  H  H157  1  0.748333  0.738667  0.599667  1
  H  H158  1  0.990333  0.251667  0.599667  1
  H  H159  1  0.261333  0.009667  0.599667  1
  H  H160  1  0.081667  0.405333  0.266333  1
  H  H161  1  0.323667  0.918333  0.266333  1
  H  H162  1  0.594667  0.676333  0.266333  1
  H  H163  1  0.585000  0.928000  0.067000  1
  H  H164  1  0.343000  0.415000  0.067000  1
  H  H165  1  0.072000  0.657000  0.067000  1
  H  H166  1  0.251667  0.261333  0.400333  1
  H  H167  1  0.009667  0.748333  0.400333  1
  H  H168  1  0.738667  0.990333  0.400333  1
  H  H169  1  0.918333  0.594667  0.733667  1
  H  H170  1  0.676333  0.081667  0.733667  1
  H  H171  1  0.405333  0.323667  0.733667  1
  H  H172  1  0.502600  0.066000  0.896100  1
  H  H173  1  0.563400  0.497400  0.896100  1
  H  H174  1  0.934000  0.436600  0.896100  1
  H  H175  1  0.835933  0.732667  0.562767  1
  H  H176  1  0.896733  0.164067  0.562767  1
  H  H177  1  0.267333  0.103267  0.562767  1
  H  H178  1  0.169267  0.399333  0.229433  1
  H  H179  1  0.230067  0.830733  0.229433  1
  H  H180  1  0.600667  0.769933  0.229433  1
  H  H181  1  0.497400  0.934000  0.103900  1
  H  H182  1  0.436600  0.502600  0.103900  1
  H  H183  1  0.066000  0.563400  0.103900  1
  H  H184  1  0.164067  0.267333  0.437233  1
  H  H185  1  0.103267  0.835933  0.437233  1
  H  H186  1  0.732667  0.896733  0.437233  1
  H  H187  1  0.830733  0.600667  0.770567  1
  H  H188  1  0.769933  0.169267  0.770567  1
  H  H189  1  0.399333  0.230067  0.770567  1
  H  H190  1  0.023700  0.320200  0.824700  1
  H  H191  1  0.296500  0.976300  0.824700  1
  H  H192  1  0.679800  0.703500  0.824700  1
  H  H193  1  0.357033  0.986867  0.491367  1
  H  H194  1  0.629833  0.642967  0.491367  1
  H  H195  1  0.013133  0.370167  0.491367  1
  H  H196  1  0.690367  0.653533  0.158033  1
  H  H197  1  0.963167  0.309633  0.158033  1
  H  H198  1  0.346467  0.036833  0.158033  1
  H  H199  1  0.976300  0.679800  0.175300  1
  H  H200  1  0.703500  0.023700  0.175300  1
  H  H201  1  0.320200  0.296500  0.175300  1
  H  H202  1  0.642967  0.013133  0.508633  1
  H  H203  1  0.370167  0.357033  0.508633  1
  H  H204  1  0.986867  0.629833  0.508633  1
  H  H205  1  0.309633  0.346467  0.841967  1
  H  H206  1  0.036833  0.690367  0.841967  1
  H  H207  1  0.653533  0.963167  0.841967  1
  H  H208  1  0.944900  0.328000  0.864600  1
  H  H209  1  0.383100  0.055100  0.864600  1
  H  H210  1  0.672000  0.616900  0.864600  1
  H  H211  1  0.278233  0.994667  0.531267  1
  H  H212  1  0.716433  0.721767  0.531267  1
  H  H213  1  0.005333  0.283567  0.531267  1
  H  H214  1  0.611567  0.661333  0.197933  1
  H  H215  1  0.049767  0.388433  0.197933  1
  H  H216  1  0.338667  0.950233  0.197933  1
  H  H217  1  0.055100  0.672000  0.135400  1
  H  H218  1  0.616900  0.944900  0.135400  1
  H  H219  1  0.328000  0.383100  0.135400  1
  H  H220  1  0.721767  0.005333  0.468733  1
  H  H221  1  0.283567  0.278233  0.468733  1
  H  H222  1  0.994667  0.716433  0.468733  1
  H  H223  1  0.388433  0.338667  0.802067  1
  H  H224  1  0.950233  0.611567  0.802067  1
  H  H225  1  0.661333  0.049767  0.802067  1
  H  H226  1  0.227400  0.019800  0.959400  1.0
  H  H227  1  0.792400  0.772600  0.959400  1.0
  H  H228  1  0.980200  0.207600  0.959400  1.0
  H  H229  1  0.560733  0.686467  0.626067  1.0
  H  H230  1  0.125733  0.439267  0.626067  1.0
  H  H231  1  0.313533  0.874267  0.626067  1.0
  H  H232  1  0.894067  0.353133  0.292733  1.0
  H  H233  1  0.459067  0.105933  0.292733  1.0
  H  H234  1  0.646867  0.540933  0.292733  1.0
  H  H235  1  0.772600  0.980200  0.040600  1.0
  H  H236  1  0.207600  0.227400  0.040600  1.0
  H  H237  1  0.019800  0.792400  0.040600  1.0
  H  H238  1  0.439267  0.313533  0.373933  1.0
  H  H239  1  0.874267  0.560733  0.373933  1.0
  H  H240  1  0.686467  0.125733  0.373933  1.0
  H  H241  1  0.105933  0.646867  0.707267  1.0
  H  H242  1  0.540933  0.894067  0.707267  1.0
  H  H243  1  0.353133  0.459067  0.707267  1.0
  H  H244  1  0.176500  0.923900  0.925100  1.0
  H  H245  1  0.747400  0.823500  0.925100  1.0
  H  H246  1  0.076100  0.252600  0.925100  1.0
  H  H247  1  0.509833  0.590567  0.591767  1.0
  H  H248  1  0.080733  0.490167  0.591767  1.0
  H  H249  1  0.409433  0.919267  0.591767  1.0
  H  H250  1  0.843167  0.257233  0.258433  1.0
  H  H251  1  0.414067  0.156833  0.258433  1.0
  H  H252  1  0.742767  0.585933  0.258433  1.0
  H  H253  1  0.823500  0.076100  0.074900  1.0
  H  H254  1  0.252600  0.176500  0.074900  1.0
  H  H255  1  0.923900  0.747400  0.074900  1.0
  H  H256  1  0.490167  0.409433  0.408233  1.0
  H  H257  1  0.919267  0.509833  0.408233  1.0
  H  H258  1  0.590567  0.080733  0.408233  1.0
  H  H259  1  0.156833  0.742767  0.741567  1.0
  H  H260  1  0.585933  0.843167  0.741567  1.0
  H  H261  1  0.257233  0.414067  0.741567  1.0
  H  H262  1  0.258800  0.918200  0.891600  1.0
  H  H263  1  0.659400  0.741200  0.891600  1.0
  H  H264  1  0.081800  0.340600  0.891600  1.0
  H  H265  1  0.592133  0.584867  0.558267  1.0
  H  H266  1  0.992733  0.407867  0.558267  1.0
  H  H267  1  0.415133  0.007267  0.558267  1.0
  H  H268  1  0.925467  0.251533  0.224933  1.0
  H  H269  1  0.326067  0.074533  0.224933  1.0
  H  H270  1  0.748467  0.673933  0.224933  1.0
  H  H271  1  0.741200  0.081800  0.108400  1.0
  H  H272  1  0.340600  0.258800  0.108400  1.0
  H  H273  1  0.918200  0.659400  0.108400  1.0
  H  H274  1  0.407867  0.415133  0.441733  1.0
  H  H275  1  0.007267  0.592133  0.441733  1.0
  H  H276  1  0.584867  0.992733  0.441733  1.0
  H  H277  1  0.074533  0.748467  0.775067  1.0
  H  H278  1  0.673933  0.925467  0.775067  1.0
  H  H279  1  0.251533  0.326067  0.775067  1.0
  H  H280  1  0.236100  0.894800  0.799000  1.0
  H  H281  1  0.658700  0.763900  0.799000  1.0
  H  H282  1  0.105200  0.341300  0.799000  1.0
  H  H283  1  0.569433  0.561467  0.465667  1.0
  H  H284  1  0.992033  0.430567  0.465667  1.0
  H  H285  1  0.438533  0.007967  0.465667  1.0
  H  H286  1  0.902767  0.228133  0.132333  1.0
  H  H287  1  0.325367  0.097233  0.132333  1.0
  H  H288  1  0.771867  0.674633  0.132333  1.0
  H  H289  1  0.763900  0.105200  0.201000  1.0
  H  H290  1  0.341300  0.236100  0.201000  1.0
  H  H291  1  0.894800  0.658700  0.201000  1.0
  H  H292  1  0.430567  0.438533  0.534333  1.0
  H  H293  1  0.007967  0.569433  0.534333  1.0
  H  H294  1  0.561467  0.992033  0.534333  1.0
  H  H295  1  0.097233  0.771867  0.867667  1.0
  H  H296  1  0.674633  0.902767  0.867667  1.0
  H  H297  1  0.228133  0.325367  0.867667  1.0
  H  H298  1  0.210400  0.766800  0.802800  1.0
  H  H299  1  0.556400  0.789600  0.802800  1.0
  H  H300  1  0.233200  0.443600  0.802800  1.0
  H  H301  1  0.543733  0.433467  0.469467  1.0
  H  H302  1  0.889733  0.456267  0.469467  1.0
  H  H303  1  0.566533  0.110267  0.469467  1.0
  H  H304  1  0.877067  0.100133  0.136133  1.0
  H  H305  1  0.223067  0.122933  0.136133  1.0
  H  H306  1  0.899867  0.776933  0.136133  1.0
  H  H307  1  0.789600  0.233200  0.197200  1.0
  H  H308  1  0.443600  0.210400  0.197200  1.0
  H  H309  1  0.766800  0.556400  0.197200  1.0
  H  H310  1  0.456267  0.566533  0.530533  1.0
  H  H311  1  0.110267  0.543733  0.530533  1.0
  H  H312  1  0.433467  0.889733  0.530533  1.0
  H  H313  1  0.122933  0.899867  0.863867  1.0
  H  H314  1  0.776933  0.877067  0.863867  1.0
  H  H315  1  0.100133  0.223067  0.863867  1.0
  H  H316  1  0.275400  0.734900  0.836100  1.0
  H  H317  1  0.459500  0.724600  0.836100  1.0
  H  H318  1  0.265100  0.540500  0.836100  1.0
  H  H319  1  0.608733  0.401567  0.502767  1.0
  H  H320  1  0.792833  0.391267  0.502767  1.0
  H  H321  1  0.598433  0.207167  0.502767  1.0
  H  H322  1  0.942067  0.068233  0.169433  1.0
  H  H323  1  0.126167  0.057933  0.169433  1.0
  H  H324  1  0.931767  0.873833  0.169433  1.0
  H  H325  1  0.724600  0.265100  0.163900  1.0
  H  H326  1  0.540500  0.275400  0.163900  1.0
  H  H327  1  0.734900  0.459500  0.163900  1.0
  H  H328  1  0.391267  0.598433  0.497233  1.0
  H  H329  1  0.207167  0.608733  0.497233  1.0
  H  H330  1  0.401567  0.792833  0.497233  1.0
  H  H331  1  0.057933  0.931767  0.830567  1.0
  H  H332  1  0.873833  0.942067  0.830567  1.0
  H  H333  1  0.068233  0.126167  0.830567  1.0
  H  H334  1  0.366000  0.830900  0.865600  1.0
  H  H335  1  0.464900  0.634000  0.865600  1.0
  H  H336  1  0.169100  0.535100  0.865600  1.0
  H  H337  1  0.699333  0.497567  0.532267  1.0
  H  H338  1  0.798233  0.300667  0.532267  1.0
  H  H339  1  0.502433  0.201767  0.532267  1.0
  H  H340  1  0.032667  0.164233  0.198933  1.0
  H  H341  1  0.131567  0.967333  0.198933  1.0
  H  H342  1  0.835767  0.868433  0.198933  1.0
  H  H343  1  0.634000  0.169100  0.134400  1.0
  H  H344  1  0.535100  0.366000  0.134400  1.0
  H  H345  1  0.830900  0.464900  0.134400  1.0
  H  H346  1  0.300667  0.502433  0.467733  1.0
  H  H347  1  0.201767  0.699333  0.467733  1.0
  H  H348  1  0.497567  0.798233  0.467733  1.0
  H  H349  1  0.967333  0.835767  0.801067  1.0
  H  H350  1  0.868433  0.032667  0.801067  1.0
  H  H351  1  0.164233  0.131567  0.801067  1.0
  H  H352  1  0.361000  0.208500  0.008100  1.0
  H  H353  1  0.847500  0.639000  0.008100  1.0
  H  H354  1  0.791500  0.152500  0.008100  1.0
  H  H355  1  0.694333  0.875167  0.674767  1.0
  H  H356  1  0.180833  0.305667  0.674767  1.0
  H  H357  1  0.124833  0.819167  0.674767  1.0
  H  H358  1  0.027667  0.541833  0.341433  1.0
  H  H359  1  0.514167  0.972333  0.341433  1.0
  H  H360  1  0.458167  0.485833  0.341433  1.0
  H  H361  1  0.639000  0.791500  0.991900  1.0
  H  H362  1  0.152500  0.361000  0.991900  1.0
  H  H363  1  0.208500  0.847500  0.991900  1.0
  H  H364  1  0.305667  0.124833  0.325233  1.0
  H  H365  1  0.819167  0.694333  0.325233  1.0
  H  H366  1  0.875167  0.180833  0.325233  1.0
  H  H367  1  0.972333  0.458167  0.658567  1.0
  H  H368  1  0.485833  0.027667  0.658567  1.0
  H  H369  1  0.541833  0.514167  0.658567  1.0
  H  H370  1  0.465000  0.321600  0.026400  1.0
  H  H371  1  0.856600  0.535000  0.026400  1.0
  H  H372  1  0.678400  0.143400  0.026400  1.0
  H  H373  1  0.798333  0.988267  0.693067  1.0
  H  H374  1  0.189933  0.201667  0.693067  1.0
  H  H375  1  0.011733  0.810067  0.693067  1.0
  H  H376  1  0.131667  0.654933  0.359733  1.0
  H  H377  1  0.523267  0.868333  0.359733  1.0
  H  H378  1  0.345067  0.476733  0.359733  1.0
  H  H379  1  0.535000  0.678400  0.973600  1.0
  H  H380  1  0.143400  0.465000  0.973600  1.0
  H  H381  1  0.321600  0.856600  0.973600  1.0
  H  H382  1  0.201667  0.011733  0.306933  1.0
  H  H383  1  0.810067  0.798333  0.306933  1.0
  H  H384  1  0.988267  0.189933  0.306933  1.0
  H  H385  1  0.868333  0.345067  0.640267  1.0
  H  H386  1  0.476733  0.131667  0.640267  1.0
  H  H387  1  0.654933  0.523267  0.640267  1.0
  H  H388  1  0.589400  0.371400  0.007600  1.0
  H  H389  1  0.782000  0.410600  0.007600  1.0
  H  H390  1  0.628600  0.218000  0.007600  1.0
  H  H391  1  0.922733  0.038067  0.674267  1.0
  H  H392  1  0.115333  0.077267  0.674267  1.0
  H  H393  1  0.961933  0.884667  0.674267  1.0
  H  H394  1  0.256067  0.704733  0.340933  1.0
  H  H395  1  0.448667  0.743933  0.340933  1.0
  H  H396  1  0.295267  0.551333  0.340933  1.0
  H  H397  1  0.410600  0.628600  0.992400  1.0
  H  H398  1  0.218000  0.589400  0.992400  1.0
  H  H399  1  0.371400  0.782000  0.992400  1.0
  H  H400  1  0.077267  0.961933  0.325733  1.0
  H  H401  1  0.884667  0.922733  0.325733  1.0
  H  H402  1  0.038067  0.115333  0.325733  1.0
  H  H403  1  0.743933  0.295267  0.659067  1.0
  H  H404  1  0.551333  0.256067  0.659067  1.0
  H  H405  1  0.704733  0.448667  0.659067  1.0
  H  H406  1  0.230000  0.954500  0.779300  1.0
  H  H407  1  0.724500  0.770000  0.779300  1.0
  H  H408  1  0.045500  0.275500  0.779300  1.0
  H  H409  1  0.563333  0.621167  0.445967  1.0
  H  H410  1  0.057833  0.436667  0.445967  1.0
  H  H411  1  0.378833  0.942167  0.445967  1.0
  H  H412  1  0.896667  0.287833  0.112633  1.0
  H  H413  1  0.391167  0.103333  0.112633  1.0
  H  H414  1  0.712167  0.608833  0.112633  1.0
  H  H415  1  0.770000  0.045500  0.220700  1.0
  H  H416  1  0.275500  0.230000  0.220700  1.0
  H  H417  1  0.954500  0.724500  0.220700  1.0
  H  H418  1  0.436667  0.378833  0.554033  1.0
  H  H419  1  0.942167  0.563333  0.554033  1.0
  H  H420  1  0.621167  0.057833  0.554033  1.0
  H  H421  1  0.103333  0.712167  0.887367  1.0
  H  H422  1  0.608833  0.896667  0.887367  1.0
  H  H423  1  0.287833  0.391167  0.887367  1.0
  H  H424  1  0.166800  0.938700  0.736800  1.0
  H  H425  1  0.771900  0.833200  0.736800  1.0
  H  H426  1  0.061300  0.228100  0.736800  1.0
  H  H427  1  0.500133  0.605367  0.403467  1.0
  H  H428  1  0.105233  0.499867  0.403467  1.0
  H  H429  1  0.394633  0.894767  0.403467  1.0
  H  H430  1  0.833467  0.272033  0.070133  1.0
  H  H431  1  0.438567  0.166533  0.070133  1.0
  H  H432  1  0.727967  0.561433  0.070133  1.0
  H  H433  1  0.833200  0.061300  0.263200  1.0
  H  H434  1  0.228100  0.166800  0.263200  1.0
  H  H435  1  0.938700  0.771900  0.263200  1.0
  H  H436  1  0.499867  0.394633  0.596533  1.0
  H  H437  1  0.894767  0.500133  0.596533  1.0
  H  H438  1  0.605367  0.105233  0.596533  1.0
  H  H439  1  0.166533  0.727967  0.929867  1.0
  H  H440  1  0.561433  0.833467  0.929867  1.0
  H  H441  1  0.272033  0.438567  0.929867  1.0
  H  H442  1  0.173900  0.046400  0.714400  1.0
  H  H443  1  0.872500  0.826100  0.714400  1.0
  H  H444  1  0.953600  0.127500  0.714400  1.0
  H  H445  1  0.507233  0.713067  0.381067  1.0
  H  H446  1  0.205833  0.492767  0.381067  1.0
  H  H447  1  0.286933  0.794167  0.381067  1.0
  H  H448  1  0.840567  0.379733  0.047733  1.0
  H  H449  1  0.539167  0.159433  0.047733  1.0
  H  H450  1  0.620267  0.460833  0.047733  1.0
  H  H451  1  0.826100  0.953600  0.285600  1.0
  H  H452  1  0.127500  0.173900  0.285600  1.0
  H  H453  1  0.046400  0.872500  0.285600  1.0
  H  H454  1  0.492767  0.286933  0.618933  1.0
  H  H455  1  0.794167  0.507233  0.618933  1.0
  H  H456  1  0.713067  0.205833  0.618933  1.0
  H  H457  1  0.159433  0.620267  0.952267  1.0
  H  H458  1  0.460833  0.840567  0.952267  1.0
  H  H459  1  0.379733  0.539167  0.952267  1.0
  H  H460  1  0.407600  0.910700  0.932400  1.0
  H  H461  1  0.503100  0.592400  0.932400  1.0
  H  H462  1  0.089300  0.496900  0.932400  1.0
  H  H463  1  0.740933  0.577367  0.599067  1.0
  H  H464  1  0.836433  0.259067  0.599067  1.0
  H  H465  1  0.422633  0.163567  0.599067  1.0
  H  H466  1  0.074267  0.244033  0.265733  1.0
  H  H467  1  0.169767  0.925733  0.265733  1.0
  H  H468  1  0.755967  0.830233  0.265733  1.0
  H  H469  1  0.592400  0.089300  0.067600  1.0
  H  H470  1  0.496900  0.407600  0.067600  1.0
  H  H471  1  0.910700  0.503100  0.067600  1.0
  H  H472  1  0.259067  0.422633  0.400933  1.0
  H  H473  1  0.163567  0.740933  0.400933  1.0
  H  H474  1  0.577367  0.836433  0.400933  1.0
  H  H475  1  0.925733  0.755967  0.734267  1.0
  H  H476  1  0.830233  0.074267  0.734267  1.0
  H  H477  1  0.244033  0.169767  0.734267  1.0
  H  H478  1  0.684400  0.249400  0.891800  1.0
  H  H479  1  0.565000  0.315600  0.891800  1.0
  H  H480  1  0.750600  0.435000  0.891800  1.0
  H  H481  1  0.017733  0.916067  0.558467  1.0
  H  H482  1  0.898333  0.982267  0.558467  1.0
  H  H483  1  0.083933  0.101667  0.558467  1.0
  H  H484  1  0.351067  0.582733  0.225133  1.0
  H  H485  1  0.231667  0.648933  0.225133  1.0
  H  H486  1  0.417267  0.768333  0.225133  1.0
  H  H487  1  0.315600  0.750600  0.108200  1.0
  H  H488  1  0.435000  0.684400  0.108200  1.0
  H  H489  1  0.249400  0.565000  0.108200  1.0
  H  H490  1  0.982267  0.083933  0.441533  1.0
  H  H491  1  0.101667  0.017733  0.441533  1.0
  H  H492  1  0.916067  0.898333  0.441533  1.0
  H  H493  1  0.648933  0.417267  0.774867  1.0
  H  H494  1  0.768333  0.351067  0.774867  1.0
  H  H495  1  0.582733  0.231667  0.774867  1.0
  H  H496  1  0.630700  0.175800  0.872900  1.0
  H  H497  1  0.545100  0.369300  0.872900  1.0
  H  H498  1  0.824200  0.454900  0.872900  1.0
  H  H499  1  0.964033  0.842467  0.539567  1.0
  H  H500  1  0.878433  0.035967  0.539567  1.0
  H  H501  1  0.157533  0.121567  0.539567  1.0
  H  H502  1  0.297367  0.509133  0.206233  1.0
  H  H503  1  0.211767  0.702633  0.206233  1.0
  H  H504  1  0.490867  0.788233  0.206233  1.0
  H  H505  1  0.369300  0.824200  0.127100  1.0
  H  H506  1  0.454900  0.630700  0.127100  1.0
  H  H507  1  0.175800  0.545100  0.127100  1.0
  H  H508  1  0.035967  0.157533  0.460433  1.0
  H  H509  1  0.121567  0.964033  0.460433  1.0
  H  H510  1  0.842467  0.878433  0.460433  1.0
  H  H511  1  0.702633  0.490867  0.793767  1.0
  H  H512  1  0.788233  0.297367  0.793767  1.0
  H  H513  1  0.509133  0.211767  0.793767  1.0
  H  H514  1  0.466900  0.260300  0.845400  1.0
  H  H515  1  0.793400  0.533100  0.845400  1.0
  H  H516  1  0.739700  0.206600  0.845400  1.0
  H  H517  1  0.800233  0.926967  0.512067  1.0
  H  H518  1  0.126733  0.199767  0.512067  1.0
  H  H519  1  0.073033  0.873267  0.512067  1.0
  H  H520  1  0.133567  0.593633  0.178733  1.0
  H  H521  1  0.460067  0.866433  0.178733  1.0
  H  H522  1  0.406367  0.539933  0.178733  1.0
  H  H523  1  0.533100  0.739700  0.154600  1.0
  H  H524  1  0.206600  0.466900  0.154600  1.0
  H  H525  1  0.260300  0.793400  0.154600  1.0
  H  H526  1  0.199767  0.073033  0.487933  1.0
  H  H527  1  0.873267  0.800233  0.487933  1.0
  H  H528  1  0.926967  0.126733  0.487933  1.0
  H  H529  1  0.866433  0.406367  0.821267  1.0
  H  H530  1  0.539933  0.133567  0.821267  1.0
  H  H531  1  0.593633  0.460067  0.821267  1.0
  H  H532  1  0.488200  0.209800  0.865400  1.0
  H  H533  1  0.721600  0.511800  0.865400  1.0
  H  H534  1  0.790200  0.278400  0.865400  1.0
  H  H535  1  0.821533  0.876467  0.532067  1.0
  H  H536  1  0.054933  0.178467  0.532067  1.0
  H  H537  1  0.123533  0.945067  0.532067  1.0
  H  H538  1  0.154867  0.543133  0.198733  1.0
  H  H539  1  0.388267  0.845133  0.198733  1.0
  H  H540  1  0.456867  0.611733  0.198733  1.0
  H  H541  1  0.511800  0.790200  0.134600  1.0
  H  H542  1  0.278400  0.488200  0.134600  1.0
  H  H543  1  0.209800  0.721600  0.134600  1.0
  H  H544  1  0.178467  0.123533  0.467933  1.0
  H  H545  1  0.945067  0.821533  0.467933  1.0
  H  H546  1  0.876467  0.054933  0.467933  1.0
  H  H547  1  0.845133  0.456867  0.801267  1.0
  H  H548  1  0.611733  0.154867  0.801267  1.0
  H  H549  1  0.543133  0.388267  0.801267  1.0
  H  H550  1  0.640900  0.095600  0.932900  1.0
  H  H551  1  0.454700  0.359100  0.932900  1.0
  H  H552  1  0.904400  0.545300  0.932900  1.0
  H  H553  1  0.974233  0.762267  0.599567  1.0
  H  H554  1  0.788033  0.025767  0.599567  1.0
  H  H555  1  0.237733  0.211967  0.599567  1.0
  H  H556  1  0.307567  0.428933  0.266233  1.0
  H  H557  1  0.121367  0.692433  0.266233  1.0
  H  H558  1  0.571067  0.878633  0.266233  1.0
  H  H559  1  0.359100  0.904400  0.067100  1.0
  H  H560  1  0.545300  0.640900  0.067100  1.0
  H  H561  1  0.095600  0.454700  0.067100  1.0
  H  H562  1  0.025767  0.237733  0.400433  1.0
  H  H563  1  0.211967  0.974233  0.400433  1.0
  H  H564  1  0.762267  0.788033  0.400433  1.0
  H  H565  1  0.692433  0.571067  0.733767  1.0
  H  H566  1  0.878633  0.307567  0.733767  1.0
  H  H567  1  0.428933  0.121367  0.733767  1.0
  H  H568  1  0.299400  0.148300  0.875900  1.0
  H  H569  1  0.848900  0.700600  0.875900  1.0
  H  H570  1  0.851700  0.151100  0.875900  1.0
  H  H571  1  0.632733  0.814967  0.542567  1.0
  H  H572  1  0.182233  0.367267  0.542567  1.0
  H  H573  1  0.185033  0.817767  0.542567  1.0
  H  H574  1  0.966067  0.481633  0.209233  1.0
  H  H575  1  0.515567  0.033933  0.209233  1.0
  H  H576  1  0.518367  0.484433  0.209233  1.0
  H  H577  1  0.700600  0.851700  0.124100  1.0
  H  H578  1  0.151100  0.299400  0.124100  1.0
  H  H579  1  0.148300  0.848900  0.124100  1.0
  H  H580  1  0.367267  0.185033  0.457433  1.0
  H  H581  1  0.817767  0.632733  0.457433  1.0
  H  H582  1  0.814967  0.182233  0.457433  1.0
  H  H583  1  0.033933  0.518367  0.790767  1.0
  H  H584  1  0.484433  0.966067  0.790767  1.0
  H  H585  1  0.481633  0.515567  0.790767  1.0
  H  H586  1  0.069100  0.082100  0.935800  1.0
  H  H587  1  0.013000  0.930900  0.935800  1.0
  H  H588  1  0.917900  0.987000  0.935800  1.0
  H  H589  1  0.402433  0.748767  0.602467  1.0
  H  H590  1  0.346333  0.597567  0.602467  1.0
  H  H591  1  0.251233  0.653667  0.602467  1.0
  H  H592  1  0.735767  0.415433  0.269133  1.0
  H  H593  1  0.679667  0.264233  0.269133  1.0
  H  H594  1  0.584567  0.320333  0.269133  1.0
  H  H595  1  0.930900  0.917900  0.064200  1.0
  H  H596  1  0.987000  0.069100  0.064200  1.0
  H  H597  1  0.082100  0.013000  0.064200  1.0
  H  H598  1  0.597567  0.251233  0.397533  1.0
  H  H599  1  0.653667  0.402433  0.397533  1.0
  H  H600  1  0.748767  0.346333  0.397533  1.0
  H  H601  1  0.264233  0.584567  0.730867  1.0
  H  H602  1  0.320333  0.735767  0.730867  1.0
  H  H603  1  0.415433  0.679667  0.730867  1.0
  H  H604  1  0.018300  0.108300  0.974400  1.0
  H  H605  1  0.090000  0.981700  0.974400  1.0
  H  H606  1  0.891700  0.910000  0.974400  1.0
  H  H607  1  0.351633  0.774967  0.641067  1.0
  H  H608  1  0.423333  0.648367  0.641067  1.0
  H  H609  1  0.225033  0.576667  0.641067  1.0
  H  H610  1  0.684967  0.441633  0.307733  1.0
  H  H611  1  0.756667  0.315033  0.307733  1.0
  H  H612  1  0.558367  0.243333  0.307733  1.0
  H  H613  1  0.981700  0.891700  0.025600  1.0
  H  H614  1  0.910000  0.018300  0.025600  1.0
  H  H615  1  0.108300  0.090000  0.025600  1.0
  H  H616  1  0.648367  0.225033  0.358933  1.0
  H  H617  1  0.576667  0.351633  0.358933  1.0
  H  H618  1  0.774967  0.423333  0.358933  1.0
  H  H619  1  0.315033  0.558367  0.692267  1.0
  H  H620  1  0.243333  0.684967  0.692267  1.0
  H  H621  1  0.441633  0.756667  0.692267  1.0
  H  H622  1  0.094700  0.217000  0.002600  1.0
  H  H623  1  0.122300  0.905300  0.002600  1.0
  H  H624  1  0.783000  0.877700  0.002600  1.0
  H  H625  1  0.428033  0.883667  0.669267  1.0
  H  H626  1  0.455633  0.571967  0.669267  1.0
  H  H627  1  0.116333  0.544367  0.669267  1.0
  H  H628  1  0.761367  0.550333  0.335933  1.0
  H  H629  1  0.788967  0.238633  0.335933  1.0
  H  H630  1  0.449667  0.211033  0.335933  1.0
  H  H631  1  0.905300  0.783000  0.997400  1.0
  H  H632  1  0.877700  0.094700  0.997400  1.0
  H  H633  1  0.217000  0.122300  0.997400  1.0
  H  H634  1  0.571967  0.116333  0.330733  1.0
  H  H635  1  0.544367  0.428033  0.330733  1.0
  H  H636  1  0.883667  0.455633  0.330733  1.0
  H  H637  1  0.238633  0.449667  0.664067  1.0
  H  H638  1  0.211033  0.761367  0.664067  1.0
  H  H639  1  0.550333  0.788967  0.664067  1.0
  H  H640  1  0.225900  0.294300  0.993500  1.0
  H  H641  1  0.068400  0.774100  0.993500  1.0
  H  H642  1  0.705700  0.931600  0.993500  1.0
  H  H643  1  0.559233  0.960967  0.660167  1.0
  H  H644  1  0.401733  0.440767  0.660167  1.0
  H  H645  1  0.039033  0.598267  0.660167  1.0
  H  H646  1  0.892567  0.627633  0.326833  1.0
  H  H647  1  0.735067  0.107433  0.326833  1.0
  H  H648  1  0.372367  0.264933  0.326833  1.0
  H  H649  1  0.774100  0.705700  0.006500  1.0
  H  H650  1  0.931600  0.225900  0.006500  1.0
  H  H651  1  0.294300  0.068400  0.006500  1.0
  H  H652  1  0.440767  0.039033  0.339833  1.0
  H  H653  1  0.598267  0.559233  0.339833  1.0
  H  H654  1  0.960967  0.401733  0.339833  1.0
  H  H655  1  0.107433  0.372367  0.673167  1.0
  H  H656  1  0.264933  0.892567  0.673167  1.0
  H  H657  1  0.627633  0.735067  0.673167  1.0
  H  H658  1  0.185300  0.118400  0.905000  1.0
  H  H659  1  0.933100  0.814700  0.905000  1.0
  H  H660  1  0.881600  0.066900  0.905000  1.0
  H  H661  1  0.518633  0.785067  0.571667  1.0
  H  H662  1  0.266433  0.481367  0.571667  1.0
  H  H663  1  0.214933  0.733567  0.571667  1.0
  H  H664  1  0.851967  0.451733  0.238333  1.0
  H  H665  1  0.599767  0.148033  0.238333  1.0
  H  H666  1  0.548267  0.400233  0.238333  1.0
  H  H667  1  0.814700  0.881600  0.095000  1.0
  H  H668  1  0.066900  0.185300  0.095000  1.0
  H  H669  1  0.118400  0.933100  0.095000  1.0
  H  H670  1  0.481367  0.214933  0.428333  1.0
  H  H671  1  0.733567  0.518633  0.428333  1.0
  H  H672  1  0.785067  0.266433  0.428333  1.0
  H  H673  1  0.148033  0.548267  0.761667  1.0
  H  H674  1  0.400233  0.851967  0.761667  1.0
  H  H675  1  0.451733  0.599767  0.761667  1.0
  H  H676  1  0.674500  0.016300  0.963900  1.0
  H  H677  1  0.341800  0.325500  0.963900  1.0
  H  H678  1  0.983700  0.658200  0.963900  1.0
  H  H679  1  0.007833  0.682967  0.630567  1.0
  H  H680  1  0.675133  0.992167  0.630567  1.0
  H  H681  1  0.317033  0.324867  0.630567  1.0
  H  H682  1  0.341167  0.349633  0.297233  1.0
  H  H683  1  0.008467  0.658833  0.297233  1.0
  H  H684  1  0.650367  0.991533  0.297233  1.0
  H  H685  1  0.325500  0.983700  0.036100  1.0
  H  H686  1  0.658200  0.674500  0.036100  1.0
  H  H687  1  0.016300  0.341800  0.036100  1.0
  H  H688  1  0.992167  0.317033  0.369433  1.0
  H  H689  1  0.324867  0.007833  0.369433  1.0
  H  H690  1  0.682967  0.675133  0.369433  1.0
  H  H691  1  0.658833  0.650367  0.702767  1.0
  H  H692  1  0.991533  0.341167  0.702767  1.0
  H  H693  1  0.349633  0.008467  0.702767  1.0
  C  C694  1  0.510900  0.181100  0.944400  1
  C  C695  1  0.670200  0.489100  0.944400  1
  C  C696  1  0.818900  0.329800  0.944400  1
  C  C697  1  0.844233  0.847767  0.611067  1
  C  C698  1  0.003533  0.155767  0.611067  1
  C  C699  1  0.152233  0.996467  0.611067  1
  C  C700  1  0.177567  0.514433  0.277733  1
  C  C701  1  0.336867  0.822433  0.277733  1
  C  C702  1  0.485567  0.663133  0.277733  1
  C  C703  1  0.489100  0.818900  0.055600  1
  C  C704  1  0.329800  0.510900  0.055600  1
  C  C705  1  0.181100  0.670200  0.055600  1
  C  C706  1  0.155767  0.152233  0.388933  1
  C  C707  1  0.996467  0.844233  0.388933  1
  C  C708  1  0.847767  0.003533  0.388933  1
  C  C709  1  0.822433  0.485567  0.722267  1
  C  C710  1  0.663133  0.177567  0.722267  1
  C  C711  1  0.514433  0.336867  0.722267  1
  C  C712  1  0.467600  0.110400  0.929700  1
  C  C713  1  0.642800  0.532400  0.929700  1
  C  C714  1  0.889600  0.357200  0.929700  1
  C  C715  1  0.800933  0.777067  0.596367  1
  C  C716  1  0.976133  0.199067  0.596367  1
  C  C717  1  0.222933  0.023867  0.596367  1
  C  C718  1  0.134267  0.443733  0.263033  1
  C  C719  1  0.309467  0.865733  0.263033  1
  C  C720  1  0.556267  0.690533  0.263033  1
  C  C721  1  0.532400  0.889600  0.070300  1
  C  C722  1  0.357200  0.467600  0.070300  1
  C  C723  1  0.110400  0.642800  0.070300  1
  C  C724  1  0.199067  0.222933  0.403633  1
  C  C725  1  0.023867  0.800933  0.403633  1
  C  C726  1  0.777067  0.976133  0.403633  1
  C  C727  1  0.865733  0.556267  0.736967  1
  C  C728  1  0.690533  0.134267  0.736967  1
  C  C729  1  0.443733  0.309467  0.736967  1
  C  C730  1  0.516600  0.107000  0.909000  1
  C  C731  1  0.590400  0.483400  0.909000  1
  C  C732  1  0.893000  0.409600  0.909000  1
  C  C733  1  0.849933  0.773667  0.575667  1
  C  C734  1  0.923733  0.150067  0.575667  1
  C  C735  1  0.226333  0.076267  0.575667  1
  C  C736  1  0.183267  0.440333  0.242333  1
  C  C737  1  0.257067  0.816733  0.242333  1
  C  C738  1  0.559667  0.742933  0.242333  1
  C  C739  1  0.483400  0.893000  0.091000  1
  C  C740  1  0.409600  0.516600  0.091000  1
  C  C741  1  0.107000  0.590400  0.091000  1
  C  C742  1  0.150067  0.226333  0.424333  1
  C  C743  1  0.076267  0.849933  0.424333  1
  C  C744  1  0.773667  0.923733  0.424333  1
  C  C745  1  0.816733  0.559667  0.757667  1
  C  C746  1  0.742933  0.183267  0.757667  1
  C  C747  1  0.440333  0.257067  0.757667  1
  C  C748  1  0.916700  0.233300  0.807800  1
  C  C749  1  0.316600  0.083300  0.807800  1
  C  C750  1  0.766700  0.683400  0.807800  1
  C  C751  1  0.250033  0.899967  0.474467  1
  C  C752  1  0.649933  0.749967  0.474467  1
  C  C753  1  0.100033  0.350067  0.474467  1
  C  C754  1  0.583367  0.566633  0.141133  1
  C  C755  1  0.983267  0.416633  0.141133  1
  C  C756  1  0.433367  0.016733  0.141133  1
  C  C757  1  0.083300  0.766700  0.192200  1
  C  C758  1  0.683400  0.916700  0.192200  1
  C  C759  1  0.233300  0.316600  0.192200  1
  C  C760  1  0.749967  0.100033  0.525533  1
  C  C761  1  0.350067  0.250033  0.525533  1
  C  C762  1  0.899967  0.649933  0.525533  1
  C  C763  1  0.416633  0.433367  0.858867  1
  C  C764  1  0.016733  0.583367  0.858867  1
  C  C765  1  0.566633  0.983267  0.858867  1
  C  C766  1  0.968800  0.290200  0.826700  1
  C  C767  1  0.321400  0.031200  0.826700  1
  C  C768  1  0.709800  0.678600  0.826700  1
  C  C769  1  0.302133  0.956867  0.493367  1
  C  C770  1  0.654733  0.697867  0.493367  1
  C  C771  1  0.043133  0.345267  0.493367  1
  C  C772  1  0.635467  0.623533  0.160033  1
  C  C773  1  0.988067  0.364533  0.160033  1
  C  C774  1  0.376467  0.011933  0.160033  1
  C  C775  1  0.031200  0.709800  0.173300  1
  C  C776  1  0.678600  0.968800  0.173300  1
  C  C777  1  0.290200  0.321400  0.173300  1
  C  C778  1  0.697867  0.043133  0.506633  1
  C  C779  1  0.345267  0.302133  0.506633  1
  C  C780  1  0.956867  0.654733  0.506633  1
  C  C781  1  0.364533  0.376467  0.839967  1
  C  C782  1  0.011933  0.635467  0.839967  1
  C  C783  1  0.623533  0.988067  0.839967  1
  C  C784  1  0.924800  0.294600  0.849000  1
  C  C785  1  0.369800  0.075200  0.849000  1
  C  C786  1  0.705400  0.630200  0.849000  1
  C  C787  1  0.258133  0.961267  0.515667  1
  C  C788  1  0.703133  0.741867  0.515667  1
  C  C789  1  0.038733  0.296867  0.515667  1
  C  C790  1  0.591467  0.627933  0.182333  1
  C  C791  1  0.036467  0.408533  0.182333  1
  C  C792  1  0.372067  0.963533  0.182333  1
  C  C793  1  0.075200  0.705400  0.151000  1
  C  C794  1  0.630200  0.924800  0.151000  1
  C  C795  1  0.294600  0.369800  0.151000  1
  C  C796  1  0.741867  0.038733  0.484333  1
  C  C797  1  0.296867  0.258133  0.484333  1
  C  C798  1  0.961267  0.703133  0.484333  1
  C  C799  1  0.408533  0.372067  0.817667  1
  C  C800  1  0.963533  0.591467  0.817667  1
  C  C801  1  0.627933  0.036467  0.817667  1
  C  C802  1  0.388700  0.067600  0.926600  1.0
  C  C803  1  0.678900  0.611300  0.926600  1.0
  C  C804  1  0.932400  0.321100  0.926600  1.0
  C  C805  1  0.722033  0.734267  0.593267  1.0
  C  C806  1  0.012233  0.277967  0.593267  1.0
  C  C807  1  0.265733  0.987767  0.593267  1.0
  C  C808  1  0.055367  0.400933  0.259933  1.0
  C  C809  1  0.345567  0.944633  0.259933  1.0
  C  C810  1  0.599067  0.654433  0.259933  1.0
  C  C811  1  0.611300  0.932400  0.073400  1.0
  C  C812  1  0.321100  0.388700  0.073400  1.0
  C  C813  1  0.067600  0.678900  0.073400  1.0
  C  C814  1  0.277967  0.265733  0.406733  1.0
  C  C815  1  0.987767  0.722033  0.406733  1.0
  C  C816  1  0.734267  0.012233  0.406733  1.0
  C  C817  1  0.944633  0.599067  0.740067  1.0
  C  C818  1  0.654433  0.055367  0.740067  1.0
  C  C819  1  0.400933  0.345567  0.740067  1.0
  C  C820  1  0.339800  0.070900  0.946400  1.0
  C  C821  1  0.731100  0.660200  0.946400  1.0
  C  C822  1  0.929100  0.268900  0.946400  1.0
  C  C823  1  0.673133  0.737567  0.613067  1.0
  C  C824  1  0.064433  0.326867  0.613067  1.0
  C  C825  1  0.262433  0.935567  0.613067  1.0
  C  C826  1  0.006467  0.404233  0.279733  1.0
  C  C827  1  0.397767  0.993533  0.279733  1.0
  C  C828  1  0.595767  0.602233  0.279733  1.0
  C  C829  1  0.660200  0.929100  0.053600  1.0
  C  C830  1  0.268900  0.339800  0.053600  1.0
  C  C831  1  0.070900  0.731100  0.053600  1.0
  C  C832  1  0.326867  0.262433  0.386933  1.0
  C  C833  1  0.935567  0.673133  0.386933  1.0
  C  C834  1  0.737567  0.064433  0.386933  1.0
  C  C835  1  0.993533  0.595767  0.720267  1.0
  C  C836  1  0.602233  0.006467  0.720267  1.0
  C  C837  1  0.404233  0.397767  0.720267  1.0
  C  C838  1  0.260800  0.017500  0.945900  1.0
  C  C839  1  0.756700  0.739200  0.945900  1.0
  C  C840  1  0.982500  0.243300  0.945900  1.0
  C  C841  1  0.594133  0.684167  0.612567  1.0
  C  C842  1  0.090033  0.405867  0.612567  1.0
  C  C843  1  0.315833  0.909967  0.612567  1.0
  C  C844  1  0.927467  0.350833  0.279233  1.0
  C  C845  1  0.423367  0.072533  0.279233  1.0
  C  C846  1  0.649167  0.576633  0.279233  1.0
  C  C847  1  0.739200  0.982500  0.054100  1.0
  C  C848  1  0.243300  0.260800  0.054100  1.0
  C  C849  1  0.017500  0.756700  0.054100  1.0
  C  C850  1  0.405867  0.315833  0.387433  1.0
  C  C851  1  0.909967  0.594133  0.387433  1.0
  C  C852  1  0.684167  0.090033  0.387433  1.0
  C  C853  1  0.072533  0.649167  0.720767  1.0
  C  C854  1  0.576633  0.927467  0.720767  1.0
  C  C855  1  0.350833  0.423367  0.720767  1.0
  C  C856  1  0.230600  0.960500  0.925400  1.0
  C  C857  1  0.729900  0.769400  0.925400  1.0
  C  C858  1  0.039500  0.270100  0.925400  1.0
  C  C859  1  0.563933  0.627167  0.592067  1.0
  C  C860  1  0.063233  0.436067  0.592067  1.0
  C  C861  1  0.372833  0.936767  0.592067  1.0
  C  C862  1  0.897267  0.293833  0.258733  1.0
  C  C863  1  0.396567  0.102733  0.258733  1.0
  C  C864  1  0.706167  0.603433  0.258733  1.0
  C  C865  1  0.769400  0.039500  0.074600  1.0
  C  C866  1  0.270100  0.230600  0.074600  1.0
  C  C867  1  0.960500  0.729900  0.074600  1.0
  C  C868  1  0.436067  0.372833  0.407933  1.0
  C  C869  1  0.936767  0.563933  0.407933  1.0
  C  C870  1  0.627167  0.063233  0.407933  1.0
  C  C871  1  0.102733  0.706167  0.741267  1.0
  C  C872  1  0.603433  0.897267  0.741267  1.0
  C  C873  1  0.293833  0.396567  0.741267  1.0
  C  C874  1  0.279400  0.957100  0.905600  1.0
  C  C875  1  0.677700  0.720600  0.905600  1.0
  C  C876  1  0.042900  0.322300  0.905600  1.0
  C  C877  1  0.612733  0.623767  0.572267  1.0
  C  C878  1  0.011033  0.387267  0.572267  1.0
  C  C879  1  0.376233  0.988967  0.572267  1.0
  C  C880  1  0.946067  0.290433  0.238933  1.0
  C  C881  1  0.344367  0.053933  0.238933  1.0
  C  C882  1  0.709567  0.655633  0.238933  1.0
  C  C883  1  0.720600  0.042900  0.094400  1.0
  C  C884  1  0.322300  0.279400  0.094400  1.0
  C  C885  1  0.957100  0.677700  0.094400  1.0
  C  C886  1  0.387267  0.376233  0.427733  1.0
  C  C887  1  0.988967  0.612733  0.427733  1.0
  C  C888  1  0.623767  0.011033  0.427733  1.0
  C  C889  1  0.053933  0.709567  0.761067  1.0
  C  C890  1  0.655633  0.946067  0.761067  1.0
  C  C891  1  0.290433  0.344367  0.761067  1.0
  C  C892  1  0.599800  0.212700  0.933700  1.0
  C  C893  1  0.612900  0.400200  0.933700  1.0
  C  C894  1  0.787300  0.387100  0.933700  1.0
  C  C895  1  0.933133  0.879367  0.600367  1.0
  C  C896  1  0.946233  0.066867  0.600367  1.0
  C  C897  1  0.120633  0.053767  0.600367  1.0
  C  C898  1  0.266467  0.546033  0.267033  1.0
  C  C899  1  0.279567  0.733533  0.267033  1.0
  C  C900  1  0.453967  0.720433  0.267033  1.0
  C  C901  1  0.400200  0.787300  0.066300  1.0
  C  C902  1  0.387100  0.599800  0.066300  1.0
  C  C903  1  0.212700  0.612900  0.066300  1.0
  C  C904  1  0.066867  0.120633  0.399633  1.0
  C  C905  1  0.053767  0.933133  0.399633  1.0
  C  C906  1  0.879367  0.946233  0.399633  1.0
  C  C907  1  0.733533  0.453967  0.732967  1.0
  C  C908  1  0.720433  0.266467  0.732967  1.0
  C  C909  1  0.546033  0.279567  0.732967  1.0
  C  C910  1  0.524100  0.180600  0.945100  1.0
  C  C911  1  0.656500  0.475900  0.945100  1.0
  C  C912  1  0.819400  0.343500  0.945100  1.0
  C  C913  1  0.857433  0.847267  0.611767  1.0
  C  C914  1  0.989833  0.142567  0.611767  1.0
  C  C915  1  0.152733  0.010167  0.611767  1.0
  C  C916  1  0.190767  0.513933  0.278433  1.0
  C  C917  1  0.323167  0.809233  0.278433  1.0
  C  C918  1  0.486067  0.676833  0.278433  1.0
  C  C919  1  0.475900  0.819400  0.054900  1.0
  C  C920  1  0.343500  0.524100  0.054900  1.0
  C  C921  1  0.180600  0.656500  0.054900  1.0
  C  C922  1  0.142567  0.152733  0.388233  1.0
  C  C923  1  0.010167  0.857433  0.388233  1.0
  C  C924  1  0.847267  0.989833  0.388233  1.0
  C  C925  1  0.809233  0.486067  0.721567  1.0
  C  C926  1  0.676833  0.190767  0.721567  1.0
  C  C927  1  0.513933  0.323167  0.721567  1.0
  C  C928  1  0.471300  0.122200  0.926700  1.0
  C  C929  1  0.650900  0.528700  0.926700  1.0
  C  C930  1  0.877800  0.349100  0.926700  1.0
  C  C931  1  0.804633  0.788867  0.593367  1.0
  C  C932  1  0.984233  0.195367  0.593367  1.0
  C  C933  1  0.211133  0.015767  0.593367  1.0
  C  C934  1  0.137967  0.455533  0.260033  1.0
  C  C935  1  0.317567  0.862033  0.260033  1.0
  C  C936  1  0.544467  0.682433  0.260033  1.0
  C  C937  1  0.528700  0.877800  0.073300  1.0
  C  C938  1  0.349100  0.471300  0.073300  1.0
  C  C939  1  0.122200  0.650900  0.073300  1.0
  C  C940  1  0.195367  0.211133  0.406633  1.0
  C  C941  1  0.015767  0.804633  0.406633  1.0
  C  C942  1  0.788867  0.984233  0.406633  1.0
  C  C943  1  0.862033  0.544467  0.739967  1.0
  C  C944  1  0.682433  0.137967  0.739967  1.0
  C  C945  1  0.455533  0.317567  0.739967  1.0
  C  C946  1  0.316300  0.938900  0.830000  1.0
  C  C947  1  0.622600  0.683700  0.830000  1.0
  C  C948  1  0.061100  0.377400  0.830000  1.0
  C  C949  1  0.649633  0.605567  0.496667  1.0
  C  C950  1  0.955933  0.350367  0.496667  1.0
  C  C951  1  0.394433  0.044067  0.496667  1.0
  C  C952  1  0.982967  0.272233  0.163333  1.0
  C  C953  1  0.289267  0.017033  0.163333  1.0
  C  C954  1  0.727767  0.710733  0.163333  1.0
  C  C955  1  0.683700  0.061100  0.170000  1.0
  C  C956  1  0.377400  0.316300  0.170000  1.0
  C  C957  1  0.938900  0.622600  0.170000  1.0
  C  C958  1  0.350367  0.394433  0.503333  1.0
  C  C959  1  0.044067  0.649633  0.503333  1.0
  C  C960  1  0.605567  0.955933  0.503333  1.0
  C  C961  1  0.017033  0.727767  0.836667  1.0
  C  C962  1  0.710733  0.982967  0.836667  1.0
  C  C963  1  0.272233  0.289267  0.836667  1.0
  C  C964  1  0.262500  0.881900  0.812500  1.0
  C  C965  1  0.619400  0.737500  0.812500  1.0
  C  C966  1  0.118100  0.380600  0.812500  1.0
  C  C967  1  0.595833  0.548567  0.479167  1.0
  C  C968  1  0.952733  0.404167  0.479167  1.0
  C  C969  1  0.451433  0.047267  0.479167  1.0
  C  C970  1  0.929167  0.215233  0.145833  1.0
  C  C971  1  0.286067  0.070833  0.145833  1.0
  C  C972  1  0.784767  0.713933  0.145833  1.0
  C  C973  1  0.737500  0.118100  0.187500  1.0
  C  C974  1  0.380600  0.262500  0.187500  1.0
  C  C975  1  0.881900  0.619400  0.187500  1.0
  C  C976  1  0.404167  0.451433  0.520833  1.0
  C  C977  1  0.047267  0.595833  0.520833  1.0
  C  C978  1  0.548567  0.952733  0.520833  1.0
  C  C979  1  0.070833  0.784767  0.854167  1.0
  C  C980  1  0.713933  0.929167  0.854167  1.0
  C  C981  1  0.215233  0.286067  0.854167  1.0
  C  C982  1  0.247200  0.805800  0.814800  1.0
  C  C983  1  0.558600  0.752800  0.814800  1.0
  C  C984  1  0.194200  0.441400  0.814800  1.0
  C  C985  1  0.580533  0.472467  0.481467  1.0
  C  C986  1  0.891933  0.419467  0.481467  1.0
  C  C987  1  0.527533  0.108067  0.481467  1.0
  C  C988  1  0.913867  0.139133  0.148133  1.0
  C  C989  1  0.225267  0.086133  0.148133  1.0
  C  C990  1  0.860867  0.774733  0.148133  1.0
  C  C991  1  0.752800  0.194200  0.185200  1.0
  C  C992  1  0.441400  0.247200  0.185200  1.0
  C  C993  1  0.805800  0.558600  0.185200  1.0
  C  C994  1  0.419467  0.527533  0.518533  1.0
  C  C995  1  0.108067  0.580533  0.518533  1.0
  C  C996  1  0.472467  0.891933  0.518533  1.0
  C  C997  1  0.086133  0.860867  0.851867  1.0
  C  C998  1  0.774733  0.913867  0.851867  1.0
  C  C999  1  0.139133  0.225267  0.851867  1.0
  C  C1000  1  0.285800  0.786800  0.834600  1.0
  C  C1001  1  0.501000  0.714200  0.834600  1.0
  C  C1002  1  0.213200  0.499000  0.834600  1.0
  C  C1003  1  0.619133  0.453467  0.501267  1.0
  C  C1004  1  0.834333  0.380867  0.501267  1.0
  C  C1005  1  0.546533  0.165667  0.501267  1.0
  C  C1006  1  0.952467  0.120133  0.167933  1.0
  C  C1007  1  0.167667  0.047533  0.167933  1.0
  C  C1008  1  0.879867  0.832333  0.167933  1.0
  C  C1009  1  0.714200  0.213200  0.165400  1.0
  C  C1010  1  0.499000  0.285800  0.165400  1.0
  C  C1011  1  0.786800  0.501000  0.165400  1.0
  C  C1012  1  0.380867  0.546533  0.498733  1.0
  C  C1013  1  0.165667  0.619133  0.498733  1.0
  C  C1014  1  0.453467  0.834333  0.498733  1.0
  C  C1015  1  0.047533  0.879867  0.832067  1.0
  C  C1016  1  0.832333  0.952467  0.832067  1.0
  C  C1017  1  0.120133  0.167667  0.832067  1.0
  C  C1018  1  0.339600  0.843800  0.852100  1.0
  C  C1019  1  0.504200  0.660400  0.852100  1.0
  C  C1020  1  0.156200  0.495800  0.852100  1.0
  C  C1021  1  0.672933  0.510467  0.518767  1.0
  C  C1022  1  0.837533  0.327067  0.518767  1.0
  C  C1023  1  0.489533  0.162467  0.518767  1.0
  C  C1024  1  0.006267  0.177133  0.185433  1.0
  C  C1025  1  0.170867  0.993733  0.185433  1.0
  C  C1026  1  0.822867  0.829133  0.185433  1.0
  C  C1027  1  0.660400  0.156200  0.147900  1.0
  C  C1028  1  0.495800  0.339600  0.147900  1.0
  C  C1029  1  0.843800  0.504200  0.147900  1.0
  C  C1030  1  0.327067  0.489533  0.481233  1.0
  C  C1031  1  0.162467  0.672933  0.481233  1.0
  C  C1032  1  0.510467  0.837533  0.481233  1.0
  C  C1033  1  0.993733  0.822867  0.814567  1.0
  C  C1034  1  0.829133  0.006267  0.814567  1.0
  C  C1035  1  0.177133  0.170867  0.814567  1.0
  C  C1036  1  0.341500  0.135900  0.821300  1.0
  C  C1037  1  0.794400  0.658500  0.821300  1.0
  C  C1038  1  0.864100  0.205600  0.821300  1.0
  C  C1039  1  0.674833  0.802567  0.487967  1.0
  C  C1040  1  0.127733  0.325167  0.487967  1.0
  C  C1041  1  0.197433  0.872267  0.487967  1.0
  C  C1042  1  0.008167  0.469233  0.154633  1.0
  C  C1043  1  0.461067  0.991833  0.154633  1.0
  C  C1044  1  0.530767  0.538933  0.154633  1.0
  C  C1045  1  0.658500  0.864100  0.178700  1.0
  C  C1046  1  0.205600  0.341500  0.178700  1.0
  C  C1047  1  0.135900  0.794400  0.178700  1.0
  C  C1048  1  0.325167  0.197433  0.512033  1.0
  C  C1049  1  0.872267  0.674833  0.512033  1.0
  C  C1050  1  0.802567  0.127733  0.512033  1.0
  C  C1051  1  0.991833  0.530767  0.845367  1.0
  C  C1052  1  0.538933  0.008167  0.845367  1.0
  C  C1053  1  0.469233  0.461067  0.845367  1.0
  C  C1054  1  0.305500  0.056800  0.813000  1.0
  C  C1055  1  0.751300  0.694500  0.813000  1.0
  C  C1056  1  0.943200  0.248700  0.813000  1.0
  C  C1057  1  0.638833  0.723467  0.479667  1.0
  C  C1058  1  0.084633  0.361167  0.479667  1.0
  C  C1059  1  0.276533  0.915367  0.479667  1.0
  C  C1060  1  0.972167  0.390133  0.146333  1.0
  C  C1061  1  0.417967  0.027833  0.146333  1.0
  C  C1062  1  0.609867  0.582033  0.146333  1.0
  C  C1063  1  0.694500  0.943200  0.187000  1.0
  C  C1064  1  0.248700  0.305500  0.187000  1.0
  C  C1065  1  0.056800  0.751300  0.187000  1.0
  C  C1066  1  0.361167  0.276533  0.520333  1.0
  C  C1067  1  0.915367  0.638833  0.520333  1.0
  C  C1068  1  0.723467  0.084633  0.520333  1.0
  C  C1069  1  0.027833  0.609867  0.853667  1.0
  C  C1070  1  0.582033  0.972167  0.853667  1.0
  C  C1071  1  0.390133  0.417967  0.853667  1.0
  C  C1072  1  0.338100  0.020200  0.829000  1.0
  C  C1073  1  0.682100  0.661900  0.829000  1.0
  C  C1074  1  0.979800  0.317900  0.829000  1.0
  C  C1075  1  0.671433  0.686867  0.495667  1.0
  C  C1076  1  0.015433  0.328567  0.495667  1.0
  C  C1077  1  0.313133  0.984567  0.495667  1.0
  C  C1078  1  0.004767  0.353533  0.162333  1.0
  C  C1079  1  0.348767  0.995233  0.162333  1.0
  C  C1080  1  0.646467  0.651233  0.162333  1.0
  C  C1081  1  0.661900  0.979800  0.171000  1.0
  C  C1082  1  0.317900  0.338100  0.171000  1.0
  C  C1083  1  0.020200  0.682100  0.171000  1.0
  C  C1084  1  0.328567  0.313133  0.504333  1.0
  C  C1085  1  0.984567  0.671433  0.504333  1.0
  C  C1086  1  0.686867  0.015433  0.504333  1.0
  C  C1087  1  0.995233  0.646467  0.837667  1.0
  C  C1088  1  0.651233  0.004767  0.837667  1.0
  C  C1089  1  0.353533  0.348767  0.837667  1.0
  C  C1090  1  0.497500  0.220500  0.967230  1.0
  C  C1091  1  0.723000  0.502500  0.967230  1.0
  C  C1092  1  0.779500  0.277000  0.967230  1.0
  C  C1093  1  0.830833  0.887167  0.633897  1.0
  C  C1094  1  0.056333  0.169167  0.633897  1.0
  C  C1095  1  0.112833  0.943667  0.633897  1.0
  C  C1096  1  0.164167  0.553833  0.300563  1.0
  C  C1097  1  0.389667  0.835833  0.300563  1.0
  C  C1098  1  0.446167  0.610333  0.300563  1.0
  C  C1099  1  0.502500  0.779500  0.032770  1.0
  C  C1100  1  0.277000  0.497500  0.032770  1.0
  C  C1101  1  0.220500  0.723000  0.032770  1.0
  C  C1102  1  0.169167  0.112833  0.366103  1.0
  C  C1103  1  0.943667  0.830833  0.366103  1.0
  C  C1104  1  0.887167  0.056333  0.366103  1.0
  C  C1105  1  0.835833  0.446167  0.699437  1.0
  C  C1106  1  0.610333  0.164167  0.699437  1.0
  C  C1107  1  0.553833  0.389667  0.699437  1.0
  C  C1108  1  0.423600  0.190900  0.978400  1.0
  C  C1109  1  0.767300  0.576400  0.978400  1.0
  C  C1110  1  0.809100  0.232700  0.978400  1.0
  C  C1111  1  0.756933  0.857567  0.645067  1.0
  C  C1112  1  0.100633  0.243067  0.645067  1.0
  C  C1113  1  0.142433  0.899367  0.645067  1.0
  C  C1114  1  0.090267  0.524233  0.311733  1.0
  C  C1115  1  0.433967  0.909733  0.311733  1.0
  C  C1116  1  0.475767  0.566033  0.311733  1.0
  C  C1117  1  0.576400  0.809100  0.021600  1.0
  C  C1118  1  0.232700  0.423600  0.021600  1.0
  C  C1119  1  0.190900  0.767300  0.021600  1.0
  C  C1120  1  0.243067  0.142433  0.354933  1.0
  C  C1121  1  0.899367  0.756933  0.354933  1.0
  C  C1122  1  0.857567  0.100633  0.354933  1.0
  C  C1123  1  0.909733  0.475767  0.688267  1.0
  C  C1124  1  0.566033  0.090267  0.688267  1.0
  C  C1125  1  0.524233  0.433967  0.688267  1.0
  C  C1126  1  0.411500  0.228600  0.000400  1.0
  C  C1127  1  0.817100  0.588500  0.000400  1.0
  C  C1128  1  0.771400  0.182900  0.000400  1.0
  C  C1129  1  0.744833  0.895267  0.667067  1.0
  C  C1130  1  0.150433  0.255167  0.667067  1.0
  C  C1131  1  0.104733  0.849567  0.667067  1.0
  C  C1132  1  0.078167  0.561933  0.333733  1.0
  C  C1133  1  0.483767  0.921833  0.333733  1.0
  C  C1134  1  0.438067  0.516233  0.333733  1.0
  C  C1135  1  0.588500  0.771400  0.999600  1.0
  C  C1136  1  0.182900  0.411500  0.999600  1.0
  C  C1137  1  0.228600  0.817100  0.999600  1.0
  C  C1138  1  0.255167  0.104733  0.332933  1.0
  C  C1139  1  0.849567  0.744833  0.332933  1.0
  C  C1140  1  0.895267  0.150433  0.332933  1.0
  C  C1141  1  0.921833  0.438067  0.666267  1.0
  C  C1142  1  0.516233  0.078167  0.666267  1.0
  C  C1143  1  0.561933  0.483767  0.666267  1.0
  C  C1144  1  0.473300  0.295900  0.011300  1.0
  C  C1145  1  0.822600  0.526700  0.011300  1.0
  C  C1146  1  0.704100  0.177400  0.011300  1.0
  C  C1147  1  0.806633  0.962567  0.677967  1.0
  C  C1148  1  0.155933  0.193367  0.677967  1.0
  C  C1149  1  0.037433  0.844067  0.677967  1.0
  C  C1150  1  0.139967  0.629233  0.344633  1.0
  C  C1151  1  0.489267  0.860033  0.344633  1.0
  C  C1152  1  0.370767  0.510733  0.344633  1.0
  C  C1153  1  0.526700  0.704100  0.988700  1.0
  C  C1154  1  0.177400  0.473300  0.988700  1.0
  C  C1155  1  0.295900  0.822600  0.988700  1.0
  C  C1156  1  0.193367  0.037433  0.322033  1.0
  C  C1157  1  0.844067  0.806633  0.322033  1.0
  C  C1158  1  0.962567  0.155933  0.322033  1.0
  C  C1159  1  0.860033  0.370767  0.655367  1.0
  C  C1160  1  0.510733  0.139967  0.655367  1.0
  C  C1161  1  0.629233  0.489267  0.655367  1.0
  C  C1162  1  0.547200  0.325500  0.000200  1.0
  C  C1163  1  0.778300  0.452800  0.000200  1.0
  C  C1164  1  0.674500  0.221700  0.000200  1.0
  C  C1165  1  0.880533  0.992167  0.666867  1.0
  C  C1166  1  0.111633  0.119467  0.666867  1.0
  C  C1167  1  0.007833  0.888367  0.666867  1.0
  C  C1168  1  0.213867  0.658833  0.333533  1.0
  C  C1169  1  0.444967  0.786133  0.333533  1.0
  C  C1170  1  0.341167  0.555033  0.333533  1.0
  C  C1171  1  0.452800  0.674500  0.999800  1.0
  C  C1172  1  0.221700  0.547200  0.999800  1.0
  C  C1173  1  0.325500  0.778300  0.999800  1.0
  C  C1174  1  0.119467  0.007833  0.333133  1.0
  C  C1175  1  0.888367  0.880533  0.333133  1.0
  C  C1176  1  0.992167  0.111633  0.333133  1.0
  C  C1177  1  0.786133  0.341167  0.666467  1.0
  C  C1178  1  0.555033  0.213867  0.666467  1.0
  C  C1179  1  0.658833  0.444967  0.666467  1.0
  C  C1180  1  0.274600  0.071500  0.782020  1.0
  C  C1181  1  0.796900  0.725400  0.782020  1.0
  C  C1182  1  0.928500  0.203100  0.782020  1.0
  C  C1183  1  0.607933  0.738167  0.448687  1.0
  C  C1184  1  0.130233  0.392067  0.448687  1.0
  C  C1185  1  0.261833  0.869767  0.448687  1.0
  C  C1186  1  0.941267  0.404833  0.115353  1.0
  C  C1187  1  0.463567  0.058733  0.115353  1.0
  C  C1188  1  0.595167  0.536433  0.115353  1.0
  C  C1189  1  0.725400  0.928500  0.217980  1.0
  C  C1190  1  0.203100  0.274600  0.217980  1.0
  C  C1191  1  0.071500  0.796900  0.217980  1.0
  C  C1192  1  0.392067  0.261833  0.551313  1.0
  C  C1193  1  0.869767  0.607933  0.551313  1.0
  C  C1194  1  0.738167  0.130233  0.551313  1.0
  C  C1195  1  0.058733  0.595167  0.884647  1.0
  C  C1196  1  0.536433  0.941267  0.884647  1.0
  C  C1197  1  0.404833  0.463567  0.884647  1.0
  C  C1198  1  0.232900  0.998300  0.770200  1.0
  C  C1199  1  0.765400  0.767100  0.770200  1.0
  C  C1200  1  0.001700  0.234600  0.770200  1.0
  C  C1201  1  0.566233  0.664967  0.436867  1.0
  C  C1202  1  0.098733  0.433767  0.436867  1.0
  C  C1203  1  0.335033  0.901267  0.436867  1.0
  C  C1204  1  0.899567  0.331633  0.103533  1.0
  C  C1205  1  0.432067  0.100433  0.103533  1.0
  C  C1206  1  0.668367  0.567933  0.103533  1.0
  C  C1207  1  0.767100  0.001700  0.229800  1.0
  C  C1208  1  0.234600  0.232900  0.229800  1.0
  C  C1209  1  0.998300  0.765400  0.229800  1.0
  C  C1210  1  0.433767  0.335033  0.563133  1.0
  C  C1211  1  0.901267  0.566233  0.563133  1.0
  C  C1212  1  0.664967  0.098733  0.563133  1.0
  C  C1213  1  0.100433  0.668367  0.896467  1.0
  C  C1214  1  0.567933  0.899567  0.896467  1.0
  C  C1215  1  0.331633  0.432067  0.896467  1.0
  C  C1216  1  0.195400  0.988900  0.745000  1.0
  C  C1217  1  0.793500  0.804600  0.745000  1.0
  C  C1218  1  0.011100  0.206500  0.745000  1.0
  C  C1219  1  0.528733  0.655567  0.411667  1.0
  C  C1220  1  0.126833  0.471267  0.411667  1.0
  C  C1221  1  0.344433  0.873167  0.411667  1.0
  C  C1222  1  0.862067  0.322233  0.078333  1.0
  C  C1223  1  0.460167  0.137933  0.078333  1.0
  C  C1224  1  0.677767  0.539833  0.078333  1.0
  C  C1225  1  0.804600  0.011100  0.255000  1.0
  C  C1226  1  0.206500  0.195400  0.255000  1.0
  C  C1227  1  0.988900  0.793500  0.255000  1.0
  C  C1228  1  0.471267  0.344433  0.588333  1.0
  C  C1229  1  0.873167  0.528733  0.588333  1.0
  C  C1230  1  0.655567  0.126833  0.588333  1.0
  C  C1231  1  0.137933  0.677767  0.921667  1.0
  C  C1232  1  0.539833  0.862067  0.921667  1.0
  C  C1233  1  0.322233  0.460167  0.921667  1.0
  C  C1234  1  0.199500  0.052700  0.731600  1.0
  C  C1235  1  0.853200  0.800500  0.731600  1.0
  C  C1236  1  0.947300  0.146800  0.731600  1.0
  C  C1237  1  0.532833  0.719367  0.398267  1.0
  C  C1238  1  0.186533  0.467167  0.398267  1.0
  C  C1239  1  0.280633  0.813467  0.398267  1.0
  C  C1240  1  0.866167  0.386033  0.064933  1.0
  C  C1241  1  0.519867  0.133833  0.064933  1.0
  C  C1242  1  0.613967  0.480133  0.064933  1.0
  C  C1243  1  0.800500  0.947300  0.268400  1.0
  C  C1244  1  0.146800  0.199500  0.268400  1.0
  C  C1245  1  0.052700  0.853200  0.268400  1.0
  C  C1246  1  0.467167  0.280633  0.601733  1.0
  C  C1247  1  0.813467  0.532833  0.601733  1.0
  C  C1248  1  0.719367  0.186533  0.601733  1.0
  C  C1249  1  0.133833  0.613967  0.935067  1.0
  C  C1250  1  0.480133  0.866167  0.935067  1.0
  C  C1251  1  0.386033  0.519867  0.935067  1.0
  C  C1252  1  0.448500  0.907900  0.923200  1.0
  C  C1253  1  0.459400  0.551500  0.923200  1.0
  C  C1254  1  0.092100  0.540600  0.923200  1.0
  C  C1255  1  0.781833  0.574567  0.589867  1.0
  C  C1256  1  0.792733  0.218167  0.589867  1.0
  C  C1257  1  0.425433  0.207267  0.589867  1.0
  C  C1258  1  0.115167  0.241233  0.256533  1.0
  C  C1259  1  0.126067  0.884833  0.256533  1.0
  C  C1260  1  0.758767  0.873933  0.256533  1.0
  C  C1261  1  0.551500  0.092100  0.076800  1.0
  C  C1262  1  0.540600  0.448500  0.076800  1.0
  C  C1263  1  0.907900  0.459400  0.076800  1.0
  C  C1264  1  0.218167  0.425433  0.410133  1.0
  C  C1265  1  0.207267  0.781833  0.410133  1.0
  C  C1266  1  0.574567  0.792733  0.410133  1.0
  C  C1267  1  0.884833  0.758767  0.743467  1.0
  C  C1268  1  0.873933  0.115167  0.743467  1.0
  C  C1269  1  0.241233  0.126067  0.743467  1.0
  C  C1270  1  0.651000  0.192200  0.891900  1.0
  C  C1271  1  0.541200  0.349000  0.891900  1.0
  C  C1272  1  0.807800  0.458800  0.891900  1.0
  C  C1273  1  0.984333  0.858867  0.558567  1.0
  C  C1274  1  0.874533  0.015667  0.558567  1.0
  C  C1275  1  0.141133  0.125467  0.558567  1.0
  C  C1276  1  0.317667  0.525533  0.225233  1.0
  C  C1277  1  0.207867  0.682333  0.225233  1.0
  C  C1278  1  0.474467  0.792133  0.225233  1.0
  C  C1279  1  0.349000  0.807800  0.108100  1.0
  C  C1280  1  0.458800  0.651000  0.108100  1.0
  C  C1281  1  0.192200  0.541200  0.108100  1.0
  C  C1282  1  0.015667  0.141133  0.441433  1.0
  C  C1283  1  0.125467  0.984333  0.441433  1.0
  C  C1284  1  0.858867  0.874533  0.441433  1.0
  C  C1285  1  0.682333  0.474467  0.774767  1.0
  C  C1286  1  0.792133  0.317667  0.774767  1.0
  C  C1287  1  0.525533  0.207867  0.774767  1.0
  C  C1288  1  0.444500  0.215000  0.858000  1.0
  C  C1289  1  0.770500  0.555500  0.858000  1.0
  C  C1290  1  0.785000  0.229500  0.858000  1.0
  C  C1291  1  0.777833  0.881667  0.524667  1.0
  C  C1292  1  0.103833  0.222167  0.524667  1.0
  C  C1293  1  0.118333  0.896167  0.524667  1.0
  C  C1294  1  0.111167  0.548333  0.191333  1.0
  C  C1295  1  0.437167  0.888833  0.191333  1.0
  C  C1296  1  0.451667  0.562833  0.191333  1.0
  C  C1297  1  0.555500  0.785000  0.142000  1.0
  C  C1298  1  0.229500  0.444500  0.142000  1.0
  C  C1299  1  0.215000  0.770500  0.142000  1.0
  C  C1300  1  0.222167  0.118333  0.475333  1.0
  C  C1301  1  0.896167  0.777833  0.475333  1.0
  C  C1302  1  0.881667  0.103833  0.475333  1.0
  C  C1303  1  0.888833  0.451667  0.808667  1.0
  C  C1304  1  0.562833  0.111167  0.808667  1.0
  C  C1305  1  0.548333  0.437167  0.808667  1.0
  C  C1306  1  0.684600  0.106700  0.921700  1.0
  C  C1307  1  0.422100  0.315400  0.921700  1.0
  C  C1308  1  0.893300  0.577900  0.921700  1.0
  C  C1309  1  0.017933  0.773367  0.588367  1.0
  C  C1310  1  0.755433  0.982067  0.588367  1.0
  C  C1311  1  0.226633  0.244567  0.588367  1.0
  C  C1312  1  0.351267  0.440033  0.255033  1.0
  C  C1313  1  0.088767  0.648733  0.255033  1.0
  C  C1314  1  0.559967  0.911233  0.255033  1.0
  C  C1315  1  0.315400  0.893300  0.078300  1.0
  C  C1316  1  0.577900  0.684600  0.078300  1.0
  C  C1317  1  0.106700  0.422100  0.078300  1.0
  C  C1318  1  0.982067  0.226633  0.411633  1.0
  C  C1319  1  0.244567  0.017933  0.411633  1.0
  C  C1320  1  0.773367  0.755433  0.411633  1.0
  C  C1321  1  0.648733  0.559967  0.744967  1.0
  C  C1322  1  0.911233  0.351267  0.744967  1.0
  C  C1323  1  0.440033  0.088767  0.744967  1.0
  C  C1324  1  0.702100  0.155600  0.899500  1.0
  C  C1325  1  0.453500  0.297900  0.899500  1.0
  C  C1326  1  0.844400  0.546500  0.899500  1.0
  C  C1327  1  0.035433  0.822267  0.566167  1.0
  C  C1328  1  0.786833  0.964567  0.566167  1.0
  C  C1329  1  0.177733  0.213167  0.566167  1.0
  C  C1330  1  0.368767  0.488933  0.232833  1.0
  C  C1331  1  0.120167  0.631233  0.232833  1.0
  C  C1332  1  0.511067  0.879833  0.232833  1.0
  C  C1333  1  0.297900  0.844400  0.100500  1.0
  C  C1334  1  0.546500  0.702100  0.100500  1.0
  C  C1335  1  0.155600  0.453500  0.100500  1.0
  C  C1336  1  0.964567  0.177733  0.433833  1.0
  C  C1337  1  0.213167  0.035433  0.433833  1.0
  C  C1338  1  0.822267  0.786833  0.433833  1.0
  C  C1339  1  0.631233  0.511067  0.767167  1.0
  C  C1340  1  0.879833  0.368767  0.767167  1.0
  C  C1341  1  0.488933  0.120167  0.767167  1.0
  C  C1342  1  0.405600  0.232600  0.882560  1.0
  C  C1343  1  0.827000  0.594400  0.882560  1.0
  C  C1344  1  0.767400  0.173000  0.882560  1.0
  C  C1345  1  0.738933  0.899267  0.549227  1.0
  C  C1346  1  0.160333  0.261067  0.549227  1.0
  C  C1347  1  0.100733  0.839667  0.549227  1.0
  C  C1348  1  0.072267  0.565933  0.215893  1.0
  C  C1349  1  0.493667  0.927733  0.215893  1.0
  C  C1350  1  0.434067  0.506333  0.215893  1.0
  C  C1351  1  0.594400  0.767400  0.117440  1.0
  C  C1352  1  0.173000  0.405600  0.117440  1.0
  C  C1353  1  0.232600  0.827000  0.117440  1.0
  C  C1354  1  0.261067  0.100733  0.450773  1.0
  C  C1355  1  0.839667  0.738933  0.450773  1.0
  C  C1356  1  0.899267  0.160333  0.450773  1.0
  C  C1357  1  0.927733  0.434067  0.784107  1.0
  C  C1358  1  0.506333  0.072267  0.784107  1.0
  C  C1359  1  0.565933  0.493667  0.784107  1.0
  C  C1360  1  0.330400  0.190400  0.887940  1.0
  C  C1361  1  0.860000  0.669600  0.887940  1.0
  C  C1362  1  0.809600  0.140000  0.887940  1.0
  C  C1363  1  0.663733  0.857067  0.554607  1.0
  C  C1364  1  0.193333  0.336267  0.554607  1.0
  C  C1365  1  0.142933  0.806667  0.554607  1.0
  C  C1366  1  0.997067  0.523733  0.221273  1.0
  C  C1367  1  0.526667  0.002933  0.221273  1.0
  C  C1368  1  0.476267  0.473333  0.221273  1.0
  C  C1369  1  0.669600  0.809600  0.112060  1.0
  C  C1370  1  0.140000  0.330400  0.112060  1.0
  C  C1371  1  0.190400  0.860000  0.112060  1.0
  C  C1372  1  0.336267  0.142933  0.445393  1.0
  C  C1373  1  0.806667  0.663733  0.445393  1.0
  C  C1374  1  0.857067  0.193333  0.445393  1.0
  C  C1375  1  0.002933  0.476267  0.778727  1.0
  C  C1376  1  0.473333  0.997067  0.778727  1.0
  C  C1377  1  0.523733  0.526667  0.778727  1.0
  C  C1378  1  0.293200  0.204000  0.910670  1.0
  C  C1379  1  0.910800  0.706800  0.910670  1.0
  C  C1380  1  0.796000  0.089200  0.910670  1.0
  C  C1381  1  0.626533  0.870667  0.577337  1.0
  C  C1382  1  0.244133  0.373467  0.577337  1.0
  C  C1383  1  0.129333  0.755867  0.577337  1.0
  C  C1384  1  0.959867  0.537333  0.244003  1.0
  C  C1385  1  0.577467  0.040133  0.244003  1.0
  C  C1386  1  0.462667  0.422533  0.244003  1.0
  C  C1387  1  0.706800  0.796000  0.089330  1.0
  C  C1388  1  0.089200  0.293200  0.089330  1.0
  C  C1389  1  0.204000  0.910800  0.089330  1.0
  C  C1390  1  0.373467  0.129333  0.422663  1.0
  C  C1391  1  0.755867  0.626533  0.422663  1.0
  C  C1392  1  0.870667  0.244133  0.422663  1.0
  C  C1393  1  0.040133  0.462667  0.755997  1.0
  C  C1394  1  0.422533  0.959867  0.755997  1.0
  C  C1395  1  0.537333  0.577467  0.755997  1.0
  C  C1396  1  0.729600  0.072600  0.928200  1.0
  C  C1397  1  0.343000  0.270400  0.928200  1.0
  C  C1398  1  0.927400  0.657000  0.928200  1.0
  C  C1399  1  0.062933  0.739267  0.594867  1.0
  C  C1400  1  0.676333  0.937067  0.594867  1.0
  C  C1401  1  0.260733  0.323667  0.594867  1.0
  C  C1402  1  0.396267  0.405933  0.261533  1.0
  C  C1403  1  0.009667  0.603733  0.261533  1.0
  C  C1404  1  0.594067  0.990333  0.261533  1.0
  C  C1405  1  0.270400  0.927400  0.071800  1.0
  C  C1406  1  0.657000  0.729600  0.071800  1.0
  C  C1407  1  0.072600  0.343000  0.071800  1.0
  C  C1408  1  0.937067  0.260733  0.405133  1.0
  C  C1409  1  0.323667  0.062933  0.405133  1.0
  C  C1410  1  0.739267  0.676333  0.405133  1.0
  C  C1411  1  0.603733  0.594067  0.738467  1.0
  C  C1412  1  0.990333  0.396267  0.738467  1.0
  C  C1413  1  0.405933  0.009667  0.738467  1.0
  C  C1414  1  0.101600  0.125300  0.947200  1.0
  C  C1415  1  0.023700  0.898400  0.947200  1.0
  C  C1416  1  0.874700  0.976300  0.947200  1.0
  C  C1417  1  0.434933  0.791967  0.613867  1.0
  C  C1418  1  0.357033  0.565067  0.613867  1.0
  C  C1419  1  0.208033  0.642967  0.613867  1.0
  C  C1420  1  0.768267  0.458633  0.280533  1.0
  C  C1421  1  0.690367  0.231733  0.280533  1.0
  C  C1422  1  0.541367  0.309633  0.280533  1.0
  C  C1423  1  0.898400  0.874700  0.052800  1.0
  C  C1424  1  0.976300  0.101600  0.052800  1.0
  C  C1425  1  0.125300  0.023700  0.052800  1.0
  C  C1426  1  0.565067  0.208033  0.386133  1.0
  C  C1427  1  0.642967  0.434933  0.386133  1.0
  C  C1428  1  0.791967  0.357033  0.386133  1.0
  C  C1429  1  0.231733  0.541367  0.719467  1.0
  C  C1430  1  0.309633  0.768267  0.719467  1.0
  C  C1431  1  0.458633  0.690367  0.719467  1.0
  C  C1432  1  0.071600  0.141400  0.970000  1.0
  C  C1433  1  0.069800  0.928400  0.970000  1.0
  C  C1434  1  0.858600  0.930200  0.970000  1.0
  C  C1435  1  0.404933  0.808067  0.636667  1.0
  C  C1436  1  0.403133  0.595067  0.636667  1.0
  C  C1437  1  0.191933  0.596867  0.636667  1.0
  C  C1438  1  0.738267  0.474733  0.303333  1.0
  C  C1439  1  0.736467  0.261733  0.303333  1.0
  C  C1440  1  0.525267  0.263533  0.303333  1.0
  C  C1441  1  0.928400  0.858600  0.030000  1.0
  C  C1442  1  0.930200  0.071600  0.030000  1.0
  C  C1443  1  0.141400  0.069800  0.030000  1.0
  C  C1444  1  0.595067  0.191933  0.363333  1.0
  C  C1445  1  0.596867  0.404933  0.363333  1.0
  C  C1446  1  0.808067  0.403133  0.363333  1.0
  C  C1447  1  0.261733  0.525267  0.696667  1.0
  C  C1448  1  0.263533  0.738267  0.696667  1.0
  C  C1449  1  0.474733  0.736467  0.696667  1.0
  C  C1450  1  0.117300  0.205900  0.987200  1.0
  C  C1451  1  0.088600  0.882700  0.987200  1.0
  C  C1452  1  0.794100  0.911400  0.987200  1.0
  C  C1453  1  0.450633  0.872567  0.653867  1.0
  C  C1454  1  0.421933  0.549367  0.653867  1.0
  C  C1455  1  0.127433  0.578067  0.653867  1.0
  C  C1456  1  0.783967  0.539233  0.320533  1.0
  C  C1457  1  0.755267  0.216033  0.320533  1.0
  C  C1458  1  0.460767  0.244733  0.320533  1.0
  C  C1459  1  0.882700  0.794100  0.012800  1.0
  C  C1460  1  0.911400  0.117300  0.012800  1.0
  C  C1461  1  0.205900  0.088600  0.012800  1.0
  C  C1462  1  0.549367  0.127433  0.346133  1.0
  C  C1463  1  0.578067  0.450633  0.346133  1.0
  C  C1464  1  0.872567  0.421933  0.346133  1.0
  C  C1465  1  0.216033  0.460767  0.679467  1.0
  C  C1466  1  0.244733  0.783967  0.679467  1.0
  C  C1467  1  0.539233  0.755267  0.679467  1.0
  C  C1468  1  0.194700  0.252100  0.981500  1.0
  C  C1469  1  0.057400  0.805300  0.981500  1.0
  C  C1470  1  0.747900  0.942600  0.981500  1.0
  C  C1471  1  0.528033  0.918767  0.648167  1.0
  C  C1472  1  0.390733  0.471967  0.648167  1.0
  C  C1473  1  0.081233  0.609267  0.648167  1.0
  C  C1474  1  0.861367  0.585433  0.314833  1.0
  C  C1475  1  0.724067  0.138633  0.314833  1.0
  C  C1476  1  0.414567  0.275933  0.314833  1.0
  C  C1477  1  0.805300  0.747900  0.018500  1.0
  C  C1478  1  0.942600  0.194700  0.018500  1.0
  C  C1479  1  0.252100  0.057400  0.018500  1.0
  C  C1480  1  0.471967  0.081233  0.351833  1.0
  C  C1481  1  0.609267  0.528033  0.351833  1.0
  C  C1482  1  0.918767  0.390733  0.351833  1.0
  C  C1483  1  0.138633  0.414567  0.685167  1.0
  C  C1484  1  0.275933  0.861367  0.685167  1.0
  C  C1485  1  0.585433  0.724067  0.685167  1.0
  C  C1486  1  0.230500  0.238000  0.957200  1.0
  C  C1487  1  0.007500  0.769500  0.957200  1.0
  C  C1488  1  0.762000  0.992500  0.957200  1.0
  C  C1489  1  0.563833  0.904667  0.623867  1.0
  C  C1490  1  0.340833  0.436167  0.623867  1.0
  C  C1491  1  0.095333  0.659167  0.623867  1.0
  C  C1492  1  0.897167  0.571333  0.290533  1.0
  C  C1493  1  0.674167  0.102833  0.290533  1.0
  C  C1494  1  0.428667  0.325833  0.290533  1.0
  C  C1495  1  0.769500  0.762000  0.042800  1.0
  C  C1496  1  0.992500  0.230500  0.042800  1.0
  C  C1497  1  0.238000  0.007500  0.042800  1.0
  C  C1498  1  0.436167  0.095333  0.376133  1.0
  C  C1499  1  0.659167  0.563833  0.376133  1.0
  C  C1500  1  0.904667  0.340833  0.376133  1.0
  C  C1501  1  0.102833  0.428667  0.709467  1.0
  C  C1502  1  0.325833  0.897167  0.709467  1.0
  C  C1503  1  0.571333  0.674167  0.709467  1.0
  C  C1504  1  0.183000  0.174000  0.940200  1.0
  C  C1505  1  0.991000  0.817000  0.940200  1.0
  C  C1506  1  0.826000  0.009000  0.940200  1.0
  C  C1507  1  0.516333  0.840667  0.606867  1.0
  C  C1508  1  0.324333  0.483667  0.606867  1.0
  C  C1509  1  0.159333  0.675667  0.606867  1.0
  C  C1510  1  0.849667  0.507333  0.273533  1.0
  C  C1511  1  0.657667  0.150333  0.273533  1.0
  C  C1512  1  0.492667  0.342333  0.273533  1.0
  C  C1513  1  0.817000  0.826000  0.059800  1.0
  C  C1514  1  0.009000  0.183000  0.059800  1.0
  C  C1515  1  0.174000  0.991000  0.059800  1.0
  C  C1516  1  0.483667  0.159333  0.393133  1.0
  C  C1517  1  0.675667  0.516333  0.393133  1.0
  C  C1518  1  0.840667  0.324333  0.393133  1.0
  C  C1519  1  0.150333  0.492667  0.726467  1.0
  C  C1520  1  0.342333  0.849667  0.726467  1.0
  C  C1521  1  0.507333  0.657667  0.726467  1.0
  C  C1522  1  0.217300  0.160400  0.916900  1.0
  C  C1523  1  0.943100  0.782700  0.916900  1.0
  C  C1524  1  0.839600  0.056900  0.916900  1.0
  C  C1525  1  0.550633  0.827067  0.583567  1.0
  C  C1526  1  0.276433  0.449367  0.583567  1.0
  C  C1527  1  0.172933  0.723567  0.583567  1.0
  C  C1528  1  0.883967  0.493733  0.250233  1.0
  C  C1529  1  0.609767  0.116033  0.250233  1.0
  C  C1530  1  0.506267  0.390233  0.250233  1.0
  C  C1531  1  0.782700  0.839600  0.083100  1.0
  C  C1532  1  0.056900  0.217300  0.083100  1.0
  C  C1533  1  0.160400  0.943100  0.083100  1.0
  C  C1534  1  0.449367  0.172933  0.416433  1.0
  C  C1535  1  0.723567  0.550633  0.416433  1.0
  C  C1536  1  0.827067  0.276433  0.416433  1.0
  C  C1537  1  0.116033  0.506267  0.749767  1.0
  C  C1538  1  0.390233  0.883967  0.749767  1.0
  C  C1539  1  0.493733  0.609767  0.749767  1.0
  C  C1540  1  0.715700  0.025700  0.951610  1.0
  C  C1541  1  0.310000  0.284300  0.951610  1.0
  C  C1542  1  0.974300  0.690000  0.951610  1.0
  C  C1543  1  0.049033  0.692367  0.618277  1.0
  C  C1544  1  0.643333  0.950967  0.618277  1.0
  C  C1545  1  0.307633  0.356667  0.618277  1.0
  C  C1546  1  0.382367  0.359033  0.284943  1.0
  C  C1547  1  0.976667  0.617633  0.284943  1.0
  C  C1548  1  0.640967  0.023333  0.284943  1.0
  C  C1549  1  0.284300  0.974300  0.048390  1.0
  C  C1550  1  0.690000  0.715700  0.048390  1.0
  C  C1551  1  0.025700  0.310000  0.048390  1.0
  C  C1552  1  0.950967  0.307633  0.381723  1.0
  C  C1553  1  0.356667  0.049033  0.381723  1.0
  C  C1554  1  0.692367  0.643333  0.381723  1.0
  C  C1555  1  0.617633  0.640967  0.715057  1.0
  C  C1556  1  0.023333  0.382367  0.715057  1.0
  C  C1557  1  0.359033  0.976667  0.715057  1.0
  N  N1558  1  0.590300  0.175600  0.911000  1
  N  N1559  1  0.585300  0.409700  0.911000  1
  N  N1560  1  0.824400  0.414700  0.911000  1
  N  N1561  1  0.923633  0.842267  0.577667  1
  N  N1562  1  0.918633  0.076367  0.577667  1
  N  N1563  1  0.157733  0.081367  0.577667  1
  N  N1564  1  0.256967  0.508933  0.244333  1
  N  N1565  1  0.251967  0.743033  0.244333  1
  N  N1566  1  0.491067  0.748033  0.244333  1
  N  N1567  1  0.409700  0.824400  0.089000  1
  N  N1568  1  0.414700  0.590300  0.089000  1
  N  N1569  1  0.175600  0.585300  0.089000  1
  N  N1570  1  0.076367  0.157733  0.422333  1
  N  N1571  1  0.081367  0.923633  0.422333  1
  N  N1572  1  0.842267  0.918633  0.422333  1
  N  N1573  1  0.743033  0.491067  0.755667  1
  N  N1574  1  0.748033  0.256967  0.755667  1
  N  N1575  1  0.508933  0.251967  0.755667  1
  N  N1576  1  0.586700  0.221400  0.932900  1
  N  N1577  1  0.634700  0.413300  0.932900  1
  N  N1578  1  0.778600  0.365300  0.932900  1
  N  N1579  1  0.920033  0.888067  0.599567  1
  N  N1580  1  0.968033  0.079967  0.599567  1
  N  N1581  1  0.111933  0.031967  0.599567  1
  N  N1582  1  0.253367  0.554733  0.266233  1
  N  N1583  1  0.301367  0.746633  0.266233  1
  N  N1584  1  0.445267  0.698633  0.266233  1
  N  N1585  1  0.413300  0.778600  0.067100  1
  N  N1586  1  0.365300  0.586700  0.067100  1
  N  N1587  1  0.221400  0.634700  0.067100  1
  N  N1588  1  0.079967  0.111933  0.400433  1
  N  N1589  1  0.031967  0.920033  0.400433  1
  N  N1590  1  0.888067  0.968033  0.400433  1
  N  N1591  1  0.746633  0.445267  0.733767  1
  N  N1592  1  0.698633  0.253367  0.733767  1
  N  N1593  1  0.554733  0.301367  0.733767  1
  N  N1594  1  0.845300  0.240300  0.844000  1
  N  N1595  1  0.395000  0.154700  0.844000  1
  N  N1596  1  0.759700  0.605000  0.844000  1
  N  N1597  1  0.178633  0.906967  0.510667  1
  N  N1598  1  0.728333  0.821367  0.510667  1
  N  N1599  1  0.093033  0.271667  0.510667  1
  N  N1600  1  0.511967  0.573633  0.177333  1
  N  N1601  1  0.061667  0.488033  0.177333  1
  N  N1602  1  0.426367  0.938333  0.177333  1
  N  N1603  1  0.154700  0.759700  0.156000  1
  N  N1604  1  0.605000  0.845300  0.156000  1
  N  N1605  1  0.240300  0.395000  0.156000  1
  N  N1606  1  0.821367  0.093033  0.489333  1
  N  N1607  1  0.271667  0.178633  0.489333  1
  N  N1608  1  0.906967  0.728333  0.489333  1
  N  N1609  1  0.488033  0.426367  0.822667  1
  N  N1610  1  0.938333  0.511967  0.822667  1
  N  N1611  1  0.573633  0.061667  0.822667  1
  N  N1612  1  0.840300  0.202400  0.818500  1
  N  N1613  1  0.362100  0.159700  0.818500  1
  N  N1614  1  0.797600  0.637900  0.818500  1
  N  N1615  1  0.173633  0.869067  0.485167  1
  N  N1616  1  0.695433  0.826367  0.485167  1
  N  N1617  1  0.130933  0.304567  0.485167  1
  N  N1618  1  0.506967  0.535733  0.151833  1
  N  N1619  1  0.028767  0.493033  0.151833  1
  N  N1620  1  0.464267  0.971233  0.151833  1
  N  N1621  1  0.159700  0.797600  0.181500  1
  N  N1622  1  0.637900  0.840300  0.181500  1
  N  N1623  1  0.202400  0.362100  0.181500  1
  N  N1624  1  0.826367  0.130933  0.514833  1
  N  N1625  1  0.304567  0.173633  0.514833  1
  N  N1626  1  0.869067  0.695433  0.514833  1
  N  N1627  1  0.493033  0.464267  0.848167  1
  N  N1628  1  0.971233  0.506967  0.848167  1
  N  N1629  1  0.535733  0.028767  0.848167  1
  N  N1630  1  0.358500  0.010600  0.906100  1.0
  N  N1631  1  0.652100  0.641500  0.906100  1.0
  N  N1632  1  0.989400  0.347900  0.906100  1.0
  N  N1633  1  0.691833  0.677267  0.572767  1.0
  N  N1634  1  0.985433  0.308167  0.572767  1.0
  N  N1635  1  0.322733  0.014567  0.572767  1.0
  N  N1636  1  0.025167  0.343933  0.239433  1.0
  N  N1637  1  0.318767  0.974833  0.239433  1.0
  N  N1638  1  0.656067  0.681233  0.239433  1.0
  N  N1639  1  0.641500  0.989400  0.093900  1.0
  N  N1640  1  0.347900  0.358500  0.093900  1.0
  N  N1641  1  0.010600  0.652100  0.093900  1.0
  N  N1642  1  0.308167  0.322733  0.427233  1.0
  N  N1643  1  0.014567  0.691833  0.427233  1.0
  N  N1644  1  0.677267  0.985433  0.427233  1.0
  N  N1645  1  0.974833  0.656067  0.760567  1.0
  N  N1646  1  0.681233  0.025167  0.760567  1.0
  N  N1647  1  0.343933  0.318767  0.760567  1.0
  N  N1648  1  0.593800  0.174200  0.908200  1.0
  N  N1649  1  0.580400  0.406200  0.908200  1.0
  N  N1650  1  0.825800  0.419600  0.908200  1.0
  N  N1651  1  0.927133  0.840867  0.574867  1.0
  N  N1652  1  0.913733  0.072867  0.574867  1.0
  N  N1653  1  0.159133  0.086267  0.574867  1.0
  N  N1654  1  0.260467  0.507533  0.241533  1.0
  N  N1655  1  0.247067  0.739533  0.241533  1.0
  N  N1656  1  0.492467  0.752933  0.241533  1.0
  N  N1657  1  0.406200  0.825800  0.091800  1.0
  N  N1658  1  0.419600  0.593800  0.091800  1.0
  N  N1659  1  0.174200  0.580400  0.091800  1.0
  N  N1660  1  0.072867  0.159133  0.425133  1.0
  N  N1661  1  0.086267  0.927133  0.425133  1.0
  N  N1662  1  0.840867  0.913733  0.425133  1.0
  N  N1663  1  0.739533  0.492467  0.758467  1.0
  N  N1664  1  0.752933  0.260467  0.758467  1.0
  N  N1665  1  0.507533  0.247067  0.758467  1.0
  N  N1666  1  0.514400  0.118300  0.904000  1.0
  N  N1667  1  0.603900  0.485600  0.904000  1.0
  N  N1668  1  0.881700  0.396100  0.904000  1.0
  N  N1669  1  0.847733  0.784967  0.570667  1.0
  N  N1670  1  0.937233  0.152267  0.570667  1.0
  N  N1671  1  0.215033  0.062767  0.570667  1.0
  N  N1672  1  0.181067  0.451633  0.237333  1.0
  N  N1673  1  0.270567  0.818933  0.237333  1.0
  N  N1674  1  0.548367  0.729433  0.237333  1.0
  N  N1675  1  0.485600  0.881700  0.096000  1.0
  N  N1676  1  0.396100  0.514400  0.096000  1.0
  N  N1677  1  0.118300  0.603900  0.096000  1.0
  N  N1678  1  0.152267  0.215033  0.429333  1.0
  N  N1679  1  0.062767  0.847733  0.429333  1.0
  N  N1680  1  0.784967  0.937233  0.429333  1.0
  N  N1681  1  0.818933  0.548367  0.762667  1.0
  N  N1682  1  0.729433  0.181067  0.762667  1.0
  N  N1683  1  0.451633  0.270567  0.762667  1.0
  N  N1684  1  0.354900  0.919900  0.849800  1.0
  N  N1685  1  0.565000  0.645100  0.849800  1.0
  N  N1686  1  0.080100  0.435000  0.849800  1.0
  N  N1687  1  0.688233  0.586567  0.516467  1.0
  N  N1688  1  0.898333  0.311767  0.516467  1.0
  N  N1689  1  0.413433  0.101667  0.516467  1.0
  N  N1690  1  0.021567  0.253233  0.183133  1.0
  N  N1691  1  0.231667  0.978433  0.183133  1.0
  N  N1692  1  0.746767  0.768333  0.183133  1.0
  N  N1693  1  0.645100  0.080100  0.150200  1.0
  N  N1694  1  0.435000  0.354900  0.150200  1.0
  N  N1695  1  0.919900  0.565000  0.150200  1.0
  N  N1696  1  0.311767  0.413433  0.483533  1.0
  N  N1697  1  0.101667  0.688233  0.483533  1.0
  N  N1698  1  0.586567  0.898333  0.483533  1.0
  N  N1699  1  0.978433  0.746767  0.816867  1.0
  N  N1700  1  0.768333  0.021567  0.816867  1.0
  N  N1701  1  0.253233  0.231667  0.816867  1.0
  N  N1702  1  0.396200  0.147900  0.842400  1.0
  N  N1703  1  0.751700  0.603800  0.842400  1.0
  N  N1704  1  0.852100  0.248300  0.842400  1.0
  N  N1705  1  0.729533  0.814567  0.509067  1.0
  N  N1706  1  0.085033  0.270467  0.509067  1.0
  N  N1707  1  0.185433  0.914967  0.509067  1.0
  N  N1708  1  0.062867  0.481233  0.175733  1.0
  N  N1709  1  0.418367  0.937133  0.175733  1.0
  N  N1710  1  0.518767  0.581633  0.175733  1.0
  N  N1711  1  0.603800  0.852100  0.157600  1.0
  N  N1712  1  0.248300  0.396200  0.157600  1.0
  N  N1713  1  0.147900  0.751700  0.157600  1.0
  N  N1714  1  0.270467  0.185433  0.490933  1.0
  N  N1715  1  0.914967  0.729533  0.490933  1.0
  N  N1716  1  0.814567  0.085033  0.490933  1.0
  N  N1717  1  0.937133  0.518767  0.824267  1.0
  N  N1718  1  0.581633  0.062867  0.824267  1.0
  N  N1719  1  0.481233  0.418367  0.824267  1.0
  N  N1720  1  0.394100  0.076500  0.847100  1.0
  N  N1721  1  0.682400  0.605900  0.847100  1.0
  N  N1722  1  0.923500  0.317600  0.847100  1.0
  N  N1723  1  0.727433  0.743167  0.513767  1.0
  N  N1724  1  0.015733  0.272567  0.513767  1.0
  N  N1725  1  0.256833  0.984267  0.513767  1.0
  N  N1726  1  0.060767  0.409833  0.180433  1.0
  N  N1727  1  0.349067  0.939233  0.180433  1.0
  N  N1728  1  0.590167  0.650933  0.180433  1.0
  N  N1729  1  0.605900  0.923500  0.152900  1.0
  N  N1730  1  0.317600  0.394100  0.152900  1.0
  N  N1731  1  0.076500  0.682400  0.152900  1.0
  N  N1732  1  0.272567  0.256833  0.486233  1.0
  N  N1733  1  0.984267  0.727433  0.486233  1.0
  N  N1734  1  0.743167  0.015733  0.486233  1.0
  N  N1735  1  0.939233  0.590167  0.819567  1.0
  N  N1736  1  0.650933  0.060767  0.819567  1.0
  N  N1737  1  0.409833  0.349067  0.819567  1.0
  N  N1738  1  0.559300  0.287700  0.978100  1.0
  N  N1739  1  0.728400  0.440700  0.978100  1.0
  N  N1740  1  0.712300  0.271600  0.978100  1.0
  N  N1741  1  0.892633  0.954367  0.644767  1.0
  N  N1742  1  0.061733  0.107367  0.644767  1.0
  N  N1743  1  0.045633  0.938267  0.644767  1.0
  N  N1744  1  0.225967  0.621033  0.311433  1.0
  N  N1745  1  0.395067  0.774033  0.311433  1.0
  N  N1746  1  0.378967  0.604933  0.311433  1.0
  N  N1747  1  0.440700  0.712300  0.021900  1.0
  N  N1748  1  0.271600  0.559300  0.021900  1.0
  N  N1749  1  0.287700  0.728400  0.021900  1.0
  N  N1750  1  0.107367  0.045633  0.355233  1.0
  N  N1751  1  0.938267  0.892633  0.355233  1.0
  N  N1752  1  0.954367  0.061733  0.355233  1.0
  N  N1753  1  0.774033  0.378967  0.688567  1.0
  N  N1754  1  0.604933  0.225967  0.688567  1.0
  N  N1755  1  0.621033  0.395067  0.688567  1.0
  N  N1756  1  0.476600  0.945400  0.898000  1.0
  N  N1757  1  0.468800  0.523400  0.898000  1.0
  N  N1758  1  0.054600  0.531200  0.898000  1.0
  N  N1759  1  0.809933  0.612067  0.564667  1.0
  N  N1760  1  0.802133  0.190067  0.564667  1.0
  N  N1761  1  0.387933  0.197867  0.564667  1.0
  N  N1762  1  0.143267  0.278733  0.231333  1.0
  N  N1763  1  0.135467  0.856733  0.231333  1.0
  N  N1764  1  0.721267  0.864533  0.231333  1.0
  N  N1765  1  0.523400  0.054600  0.102000  1.0
  N  N1766  1  0.531200  0.476600  0.102000  1.0
  N  N1767  1  0.945400  0.468800  0.102000  1.0
  N  N1768  1  0.190067  0.387933  0.435333  1.0
  N  N1769  1  0.197867  0.809933  0.435333  1.0
  N  N1770  1  0.612067  0.802133  0.435333  1.0
  N  N1771  1  0.856733  0.721267  0.768667  1.0
  N  N1772  1  0.864533  0.143267  0.768667  1.0
  N  N1773  1  0.278733  0.135467  0.768667  1.0
  F  F1774  1  0.000000  0.000000  0.847730  1
  F  F1775  1  0.333333  0.666667  0.514397  1
  F  F1776  1  0.666667  0.333333  0.181063  1
  F  F1777  1  0.000000  0.000000  0.152270  1
  F  F1778  1  0.666667  0.333333  0.485603  1
  F  F1779  1  0.333333  0.666667  0.818937  1
  F  F1780  1  0.649900  0.388300  0.844810  1
  F  F1781  1  0.738400  0.350100  0.844810  1
  F  F1782  1  0.611700  0.261600  0.844810  1
  F  F1783  1  0.983233  0.054967  0.511477  1
  F  F1784  1  0.071733  0.016767  0.511477  1
  F  F1785  1  0.945033  0.928267  0.511477  1
  F  F1786  1  0.316567  0.721633  0.178143  1
  F  F1787  1  0.405067  0.683433  0.178143  1
  F  F1788  1  0.278367  0.594933  0.178143  1
  F  F1789  1  0.350100  0.611700  0.155190  1
  F  F1790  1  0.261600  0.649900  0.155190  1
  F  F1791  1  0.388300  0.738400  0.155190  1
  F  F1792  1  0.016767  0.945033  0.488523  1
  F  F1793  1  0.928267  0.983233  0.488523  1
  F  F1794  1  0.054967  0.071733  0.488523  1
  F  F1795  1  0.683433  0.278367  0.821857  1
  F  F1796  1  0.594933  0.316567  0.821857  1
  F  F1797  1  0.721633  0.405067  0.821857  1
  F  F1798  1  0.666667  0.333333  0.861980  1
  F  F1799  1  0.000000  0.000000  0.528647  1
  F  F1800  1  0.333333  0.666667  0.195313  1
  F  F1801  1  0.333333  0.666667  0.138020  1
  F  F1802  1  0.000000  0.000000  0.471353  1
  F  F1803  1  0.666667  0.333333  0.804687  1
  F  F1804  1  0.062500  0.995800  0.886820  1.0
  F  F1805  1  0.933300  0.937500  0.886820  1.0
  F  F1806  1  0.004200  0.066700  0.886820  1.0
  F  F1807  1  0.395833  0.662467  0.553487  1.0
  F  F1808  1  0.266633  0.604167  0.553487  1.0
  F  F1809  1  0.337533  0.733367  0.553487  1.0
  F  F1810  1  0.729167  0.329133  0.220153  1.0
  F  F1811  1  0.599967  0.270833  0.220153  1.0
  F  F1812  1  0.670867  0.400033  0.220153  1.0
  F  F1813  1  0.937500  0.004200  0.113180  1.0
  F  F1814  1  0.066700  0.062500  0.113180  1.0
  F  F1815  1  0.995800  0.933300  0.113180  1.0
  F  F1816  1  0.604167  0.337533  0.446513  1.0
  F  F1817  1  0.733367  0.395833  0.446513  1.0
  F  F1818  1  0.662467  0.266633  0.446513  1.0
  F  F1819  1  0.270833  0.670867  0.779847  1.0
  F  F1820  1  0.400033  0.729167  0.779847  1.0
  F  F1821  1  0.329133  0.599967  0.779847  1.0
