
#######################################################################
#
#                 Cambridge Crystallographic Data Centre
#                                CCDC 
#
#######################################################################
#
# If this CIF has been generated from an entry in the Cambridge 
# Structural Database, then it will include bibliographic, chemical, 
# crystal, experimental, refinement or atomic coordinate data resulting 
# from the CCDC's data processing and validation procedures.
#
#######################################################################

data_FOPFOG
_chemical_formula_moiety         'C192 H144 N36 Zn4 8+,8(B1 F4 1-)'
_chemical_name_systematic        
"hexakis(\m~2~-2,2'-(2,3-anthracenediylbis(methylene-1H-pyrazole-1,3-diyl))dipyridine)-tetra-zinc(ii) tetrafluoroborate clathrate heptakis(tetrafluoroborate)"
_symmetry_cell_setting           rhombohedral
_symmetry_space_group_name_H-M   'R -3'
_symmetry_Int_Tables_number      148
_space_group_name_Hall           '-R 3'
loop_
_symmetry_equiv_pos_site_id
_symmetry_equiv_pos_as_xyz
1 x,y,z
2 -y,x-y,z
3 -x+y,-x,z
4 2/3+x,1/3+y,1/3+z
5 2/3-y,1/3+x-y,1/3+z
6 2/3-x+y,1/3-x,1/3+z
7 1/3+x,2/3+y,2/3+z
8 1/3-y,2/3+x-y,2/3+z
9 1/3-x+y,2/3-x,2/3+z
10 -x,-y,-z
11 y,-x+y,-z
12 x-y,x,-z
13 1/3-x,2/3-y,2/3-z
14 1/3+y,2/3-x+y,2/3-z
15 1/3+x-y,2/3+x,2/3-z
16 2/3-x,1/3-y,1/3-z
17 2/3+y,1/3-x+y,1/3-z
18 2/3+x-y,1/3+x,1/3-z
_cell_length_a                   19.8865(6)
_cell_length_b                   19.8865(6)
_cell_length_c                   48.236(3)
_cell_angle_alpha                90
_cell_angle_beta                 90
_cell_angle_gamma                120
_cell_volume                     16520.3
_exptl_crystal_colour            colorless
_exptl_crystal_description       block
_cell_formula_units_Z            3
_exptl_crystal_preparation       fluorescent
loop_
_atom_site_label
_atom_site_type_symbol
_atom_site_fract_x
_atom_site_fract_y
_atom_site_fract_z
F3 F 1.0000(4) 1.0000(3) 0.15227(11)
F4 F 0.9375(4) 0.9333(3) 0.11318(11)
B2 B 1.0000(4) 1.0000(3) 0.12365(11)
F4B F 0.9958(5) 1.0625(4) 0.11318(11)
F4A F 1.0667(3) 1.0042(5) 0.11318(11)
Zn1 Zn 0.56077(15) 0.57710(13) 0.12462(4)
N1 N 0.6415(6) 0.6521(6) 0.0939(2)
C1 C 0.6113(4) 0.6789(6) 0.0734(2)
C2 C 0.6602(6) 0.7311(7) 0.0536(2)
C3 C 0.7392(6) 0.7567(7) 0.0541(2)
H2 H 0.7726 0.7924 0.0406
C4 C 0.7694(4) 0.7299(8) 0.0746(3)
H3 H 0.8235 0.7474 0.0749
C5 C 0.7206(7) 0.6777(8) 0.0944(3)
H4 H 0.7412 0.6594 0.1084
N2 N 0.4062(7) 0.5804(12) 0.0918(4)
C6 C 0.4002(5) 0.6129(12) 0.0663(4)
C7 C 0.4759(8) 0.6565(10) 0.0549(3)
C8 C 0.5287(5) 0.6509(11) 0.0733(3)
N3 N 0.4856(9) 0.6039(10) 0.0960(3)
N4 N 0.6451(7) 0.5650(7) 0.1502(2)
C9 C 0.6837(7) 0.6226(6) 0.1700(3)
C10 C 0.7375(8) 0.6194(7) 0.1875(3)
H7 H 0.7639 0.6587 0.2010
C11 C 0.7528(8) 0.5586(9) 0.1852(3)
H8 H 0.7896 0.5564 0.1972
C12 C 0.7142(9) 0.5010(7) 0.1654(3)
H9 H 0.7246 0.4595 0.1639
C13 C 0.6604(9) 0.5042(7) 0.1479(3)
H10 H 0.6340 0.4649 0.1344
N5 N 0.6038(7) 0.7517(8) 0.1576(2)
C14 C 0.6585(9) 0.7944(7) 0.1787(3)
C15 C 0.6945(6) 0.7513(8) 0.1870(2)
C16 C 0.6619(9) 0.6821(8) 0.1710(3)
N6 N 0.6059(7) 0.6824(7) 0.1529(2)
Zn2 Zn 0.3333(16) 0.667(4) 0.04433(8)
N7 N 0.4407(5) 0.7284(6) 0.0219(2)
C17 C 0.5025(7) 0.7230(5) 0.03277(18)
C18 C 0.5764(6) 0.7673(7) 0.0216(2)
C19 C 0.5885(6) 0.8171(7) -0.0004(3)
H14 H 0.6390 0.8475 -0.0081
C20 C 0.5267(8) 0.8226(7) -0.0113(2)
H15 H 0.5350 0.8566 -0.0264
C21 C 0.4528(7) 0.7783(8) -0.0002(2)
H16 H 0.4106 0.7820 -0.0076
N10 N 0.5234(7) 0.4688(7) 0.1020(2)
C25 C 0.7254(6) 0.7969(7) 0.21798(18)
C26 C 0.7671(9) 0.7654(8) 0.2298(3)
H19 H 0.7700 0.7245 0.2207
C27 C 0.8046(9) 0.7935(10) 0.2550(3)
H20 H 0.8332 0.7719 0.2632
C28 C 0.8005(9) 0.8532(9) 0.2684(2)
H21 H 0.8261 0.8725 0.2856
C29 C 0.5515(9) 0.4594(8) 0.0768(3)
H22 H 0.5924 0.5031 0.0676
C33 C 0.3490(6) 0.5412(5) 0.1081(2)
H25 H 0.3156 0.5650 0.1082
H26 H 0.3693 0.5451 0.1271
C34 C 0.5555(6) 0.7705(6) 0.1420(2)
H27 H 0.5331 0.7934 0.1546
H28 H 0.5118 0.7216 0.1346
C35 C 0.3154(6) 0.4221(6) 0.0783(2)
H29 H 0.3591 0.4547 0.0671
C36 C 0.2979(5) 0.4535(5) 0.1005(2)
C37 C 0.5944(6) 0.8270(6) 0.11744(18)
C38 C 0.6696(6) 0.8600(5) 0.11206(19)
H30 H 0.7006 0.8489 0.1241
C39 C 0.7068(5) 0.9108(5) 0.08933(18)
C40 C 0.2704(5) 0.3430(5) 0.0718(2)
C41 C 0.8984(7) 1.0237(6) 0.0528(3)
H31 H 0.9309 1.0130 0.0642
C42 C 0.9284(7) 1.0698(7) 0.0300(2)
H32 H 0.9817 1.0900 0.0256
C43 C 0.8827(8) 1.0886(7) 0.0128(3)
H33 H 0.9053 1.1223 -0.0026
C44 C 0.8053(8) 1.0574(7) 0.0185(2)
H34 H 0.7741 1.0684 0.0065
C45 C 0.7695(6) 1.0075(6) 0.0428(2)
C46 C 0.8170(6) 0.9910(6) 0.0598(2)
C47 C 0.7827(6) 0.9431(6) 0.0831(2)
H35 H 0.8147 0.9331 0.0950
C48 C 0.2843(4) 0.3100(3) 0.04839(11)
H36 H 0.3255 0.3418 0.0361
Zn1P Zn 0.24377(13) 0.34966(20) 0.20871(4)
Zn1B Zn 0.01633(20) 0.43923(15) 0.12462(4)
Zn1O Zn 0.10590(15) 0.75623(13) 0.20871(4)
Zn1A Zn 0.42290(13) 0.98367(20) 0.12462(4)
Zn1Q Zn 0.65034(20) 0.89410(15) 0.20871(4)
N1P N 0.3188(6) 0.3439(8) 0.2394(2)
N1B N 0.0106(8) 0.3585(6) 0.0939(2)
N1O N 0.0252(6) 0.6812(6) 0.2394(2)
N1A N 0.3479(6) 0.9894(8) 0.0939(2)
N1Q N 0.6561(8) 0.9748(6) 0.2394(2)
C1P C 0.3456(6) 0.4009(7) 0.2599(2)
C1B C 0.0676(7) 0.3887(4) 0.0734(2)
C1O C 0.0554(4) 0.6544(6) 0.2599(2)
C1A C 0.3211(6) 0.9324(7) 0.0734(2)
C1Q C 0.5991(7) 0.9446(4) 0.2599(2)
C2P C 0.3978(7) 0.4042(9) 0.2797(2)
C2B C 0.0709(9) 0.3398(6) 0.0536(2)
C2O C 0.0065(6) 0.6022(7) 0.2797(2)
C2A C 0.2689(7) 0.9291(9) 0.0536(2)
C2Q C 0.5958(9) 0.9935(6) 0.2797(2)
C3P C 0.4234(7) 0.3508(9) 0.2792(2)
C3B C 0.0175(9) 0.2608(6) 0.0541(2)
C3O C -0.0725(6) 0.5766(7) 0.2792(2)
C3A C 0.2433(7) 0.9825(9) 0.0541(2)
C3Q C 0.6492(9) 1.0725(6) 0.2792(2)
H2P H 0.4591 0.3531 0.2927
H2B H 0.0198 0.2274 0.0406
H2O H -0.1059 0.5409 0.2927
H2A H 0.2076 0.9802 0.0406
H2Q H 0.6469 1.1059 0.2927
C4P C 0.3966(8) 0.2938(9) 0.2587(3)
C4B C -0.0395(9) 0.2306(4) 0.0746(3)
C4O C -0.1027(4) 0.6034(8) 0.2587(3)
C4A C 0.2701(8) 1.0395(9) 0.0746(3)
C4Q C 0.7062(9) 1.1027(4) 0.2587(3)
H3P H 0.4141 0.2572 0.2584
H3B H -0.0761 0.1765 0.0749
H3O H -0.1568 0.5859 0.2584
H3A H 0.2526 1.0761 0.0749
H3Q H 0.7428 1.1568 0.2584
C5P C 0.3444(8) 0.2904(11) 0.2389(3)
C5B C -0.0429(11) 0.2794(7) 0.0944(3)
C5O C -0.0539(7) 0.6556(8) 0.2389(3)
C5A C 0.3223(8) 1.0429(11) 0.0944(3)
C5Q C 0.7096(11) 1.0539(7) 0.2389(3)
H4P H 0.3261 0.2515 0.2249
H4B H -0.0818 0.2588 0.1084
H4O H -0.0745 0.6739 0.2249
H4A H 0.3406 1.0818 0.1084
H4Q H 0.7485 1.0745 0.2249
N2P N 0.2471(12) 0.5075(14) 0.2415(4)
N2B N 0.1742(14) 0.5938(7) 0.0918(4)
N2O N 0.2605(7) 0.7529(12) 0.2415(4)
N2A N 0.4196(12) 0.8258(14) 0.0918(4)
N2Q N 0.4925(14) 0.7395(7) 0.2415(4)
C6P C 0.2796(12) 0.5460(13) 0.2670(4)
C6B C 0.2127(13) 0.5998(5) 0.0663(4)
C6O C 0.2665(5) 0.7204(12) 0.2670(4)
C6A C 0.3871(12) 0.7873(13) 0.0663(4)
C6Q C 0.4540(13) 0.7335(5) 0.2670(4)
C7P C 0.3232(10) 0.5139(13) 0.2784(3)
C7B C 0.1806(13) 0.5241(8) 0.0549(3)
C7O C 0.1908(8) 0.6768(10) 0.2784(3)
C7A C 0.3435(10) 0.8194(13) 0.0549(3)
C7Q C 0.4861(13) 0.8092(8) 0.2784(3)
C8P C 0.3176(11) 0.4555(12) 0.2600(3)
C8B C 0.1222(12) 0.4713(5) 0.0733(3)
C8O C 0.1380(5) 0.6824(11) 0.2600(3)
C8A C 0.3491(11) 0.8778(12) 0.0733(3)
C8Q C 0.5445(12) 0.8620(5) 0.2600(3)
N3P N 0.2706(10) 0.4516(13) 0.2373(3)
N3B N 0.1183(13) 0.5144(9) 0.0960(3)
N3O N 0.1811(9) 0.7294(10) 0.2373(3)
N3A N 0.3961(10) 0.8817(13) 0.0960(3)
N3Q N 0.5484(13) 0.8189(9) 0.2373(3)
N4P N 0.2317(7) 0.2532(10) 0.1831(2)
N4B N -0.0801(10) 0.3549(7) 0.1502(2)
N4O N 0.0216(7) 0.7683(7) 0.1831(2)
N4A N 0.4350(7) 1.0801(10) 0.1502(2)
N4Q N 0.7468(10) 0.9784(7) 0.1831(2)
C9P C 0.2893(6) 0.2722(9) 0.1633(3)
C9B C -0.0611(9) 0.3163(7) 0.1700(3)
C9O C -0.0170(7) 0.7107(6) 0.1633(3)
C9A C 0.3774(6) 1.0611(9) 0.1700(3)
C9Q C 0.7278(9) 1.0170(7) 0.1633(3)
C10P C 0.2861(7) 0.2152(11) 0.1458(3)
C10B C -0.1181(11) 0.2625(8) 0.1875(3)
C10O C -0.0708(8) 0.7139(7) 0.1458(3)
C10A C 0.3806(7) 1.1181(11) 0.1875(3)
C10Q C 0.7848(11) 1.0708(8) 0.1458(3)
H7P H 0.3254 0.2281 0.1323
H7B H -0.1052 0.2361 0.2010
H7O H -0.0972 0.6746 0.1323
H7A H 0.3413 1.1052 0.2010
H7Q H 0.7719 1.0972 0.1323
C11P C 0.2253(9) 0.1391(12) 0.1481(3)
C11B C -0.1942(12) 0.2472(8) 0.1852(3)
C11O C -0.0861(8) 0.7747(9) 0.1481(3)
C11A C 0.4414(9) 1.1942(12) 0.1852(3)
C11Q C 0.8609(12) 1.0861(8) 0.1481(3)
H8P H 0.2231 0.1001 0.1361
H8B H -0.2332 0.2104 0.1972
H8O H -0.1229 0.7769 0.1361
H8A H 0.4436 1.2332 0.1972
H8Q H 0.8999 1.1229 0.1361
C12P C 0.1677(7) 0.1201(11) 0.1679(3)
C12B C -0.2132(11) 0.2858(9) 0.1654(3)
C12O C -0.0475(9) 0.8323(7) 0.1679(3)
C12A C 0.4990(7) 1.2132(11) 0.1654(3)
C12Q C 0.8799(11) 1.0475(9) 0.1679(3)
H9P H 0.1262 0.0682 0.1694
H9B H -0.2651 0.2754 0.1639
H9O H -0.0579 0.8738 0.1694
H9A H 0.5405 1.2651 0.1639
H9Q H 0.9318 1.0579 0.1694
C13P C 0.1709(7) 0.1771(11) 0.1854(3)
C13B C -0.1562(11) 0.3396(9) 0.1479(3)
C13O C 0.0063(9) 0.8291(7) 0.1854(3)
C13A C 0.4958(7) 1.1562(11) 0.1479(3)
C13Q C 0.8229(11) 0.9937(9) 0.1854(3)
H10P H 0.1316 0.1642 0.1989
H10B H -0.1691 0.3660 0.1344
H10O H 0.0327 0.8684 0.1989
H10A H 0.5351 1.1691 0.1344
H10Q H 0.8358 0.9673 0.1989
N5P N 0.4184(8) 0.4812(11) 0.1757(2)
N5B N 0.1479(11) 0.3962(7) 0.1576(2)
N5O N 0.0629(7) 0.5816(8) 0.1757(2)
N5A N 0.2483(8) 0.8521(11) 0.1576(2)
N5Q N 0.5188(11) 0.9371(7) 0.1757(2)
C14P C 0.4611(7) 0.4692(11) 0.1546(3)
C14B C 0.1359(11) 0.3415(9) 0.1787(3)
C14O C 0.0082(9) 0.5389(7) 0.1546(3)
C14A C 0.2056(7) 0.8641(11) 0.1787(3)
C14Q C 0.5308(11) 0.9918(9) 0.1546(3)
C15P C 0.4180(8) 0.3901(10) 0.1463(2)
C15B C 0.0568(10) 0.3055(6) 0.1870(2)
C15O C -0.0278(6) 0.5820(8) 0.1463(2)
C15A C 0.2487(8) 0.9432(10) 0.1870(2)
C15Q C 0.6099(10) 1.0278(6) 0.1463(2)
C16P C 0.3488(8) 0.3535(12) 0.1623(3)
C16B C 0.0202(12) 0.3381(9) 0.1710(3)
C16O C 0.0048(9) 0.6512(8) 0.1623(3)
C16A C 0.3179(8) 0.9798(12) 0.1710(3)
C16Q C 0.6465(12) 0.9952(9) 0.1623(3)
N6P N 0.3491(7) 0.4098(10) 0.1804(2)
N6B N 0.0765(10) 0.3941(7) 0.1529(2)
N6O N 0.0608(7) 0.6509(7) 0.1804(2)
N6A N 0.3176(7) 0.9235(10) 0.1529(2)
N6Q N 0.5902(10) 0.9392(7) 0.1804(2)
Zn2Q Zn 0.3330(43) 0.6666(16) 0.28900(8)
N7Q N 0.3790(8) 0.7740(5) 0.3114(2)
N7O N 0.2260(5) 0.6049(6) 0.3114(2)
N7P N 0.3951(6) 0.6210(8) 0.3114(2)
N7A N 0.2716(6) 0.7123(8) 0.0219(2)
N7B N 0.2877(8) 0.5593(5) 0.0219(2)
C17Q C 0.4462(9) 0.8358(7) 0.30056(18)
C17O C 0.1642(7) 0.6103(5) 0.30056(18)
C17P C 0.3897(5) 0.5538(9) 0.30056(18)
C17A C 0.2770(5) 0.7795(9) 0.03277(18)
C17B C 0.2205(9) 0.4975(7) 0.03277(18)
C18O C 0.0903(6) 0.5660(7) 0.3117(2)
C18P C 0.4340(7) 0.5242(9) 0.3117(2)
C18Q C 0.4758(9) 0.9097(6) 0.3117(2)
C18B C 0.1909(9) 0.4236(6) 0.0216(2)
C18A C 0.2327(7) 0.8091(9) 0.0216(2)
C19O C 0.0782(6) 0.5162(7) 0.3337(3)
C19P C 0.4838(7) 0.5619(9) 0.3337(3)
C19Q C 0.4381(9) 0.9218(6) 0.3337(3)
C19B C 0.2286(9) 0.4115(6) -0.0004(3)
C19A C 0.1829(7) 0.7714(9) -0.0004(3)
H14O H 0.0277 0.4858 0.3414
H14P H 0.5142 0.5418 0.3414
H14Q H 0.4582 0.9723 0.3414
H14B H 0.2085 0.3610 -0.0081
H14A H 0.1525 0.7915 -0.0081
C20O C 0.1400(8) 0.5107(7) 0.3446(2)
C20P C 0.4893(7) 0.6292(11) 0.3446(2)
C20Q C 0.3708(11) 0.8600(8) 0.3446(2)
C20B C 0.2959(11) 0.4733(8) -0.0113(2)
C20A C 0.1774(7) 0.7041(11) -0.0113(2)
H15O H 0.1317 0.4767 0.3597
H15P H 0.5233 0.6549 0.3597
H15Q H 0.3451 0.8683 0.3597
H15B H 0.3216 0.4650 -0.0264
H15A H 0.1434 0.6784 -0.0264
C21O C 0.2139(7) 0.5550(8) 0.3335(2)
C21P C 0.4450(8) 0.6588(11) 0.3335(2)
C21Q C 0.3412(11) 0.7861(7) 0.3335(2)
C21B C 0.3255(11) 0.5472(7) -0.0002(2)
C21A C 0.2217(8) 0.6745(11) -0.0002(2)
H16O H 0.2561 0.5513 0.3409
H16P H 0.4487 0.7047 0.3409
H16Q H 0.2953 0.7439 0.3409
H16B H 0.3714 0.5894 -0.0076
H16A H 0.2180 0.6286 -0.0076
N10P N 0.1355(7) 0.2787(10) 0.2313(2)
N10B N -0.0546(10) 0.4766(7) 0.1020(2)
N10O N 0.1433(7) 0.8645(7) 0.2313(2)
N10A N 0.5312(7) 1.0546(10) 0.1020(2)
N10Q N 0.7213(10) 0.8567(7) 0.2313(2)
C25P C 0.4636(7) 0.4048(9) 0.11535(18)
C25B C 0.0715(9) 0.2746(6) 0.21798(18)
C25O C -0.0587(6) 0.5364(7) 0.11535(18)
C25A C 0.2031(7) 0.9285(9) 0.21798(18)
C25Q C 0.5952(9) 1.0587(6) 0.11535(18)
C26Q C 0.6684(12) 1.1004(9) 0.1035(3)
C26A C 0.2346(8) 1.0017(12) 0.2298(3)
C26O C -0.1004(9) 0.5679(8) 0.1035(3)
C26B C -0.0017(12) 0.2329(9) 0.2298(3)
C26P C 0.4321(8) 0.3316(12) 0.1035(3)
H19Q H 0.7122 1.1033 0.1126
H19A H 0.2755 1.0455 0.2207
H19O H -0.1033 0.6088 0.1126
H19B H -0.0455 0.2300 0.2207
H19P H 0.3912 0.2878 0.1126
C27Q C 0.6778(13) 1.1379(9) 0.0783(3)
C27A C 0.2065(10) 1.0111(13) 0.2550(3)
C27O C -0.1379(9) 0.5398(10) 0.0783(3)
C27B C -0.0111(13) 0.1954(9) 0.2550(3)
C27P C 0.4602(10) 0.3222(13) 0.0783(3)
H20Q H 0.7280 1.1665 0.0701
H20A H 0.2281 1.0613 0.2632
H20O H -0.1665 0.5614 0.0701
H20B H -0.0613 0.1668 0.2632
H20P H 0.4386 0.2720 0.0701
C28Q C 0.6140(13) 1.1338(9) 0.0649(2)
C28A C 0.1468(9) 0.9473(13) 0.2684(2)
C28O C -0.1338(9) 0.4801(9) 0.0649(2)
C28B C 0.0527(13) 0.1995(9) 0.2684(2)
C28P C 0.5199(9) 0.3860(13) 0.0649(2)
H21Q H 0.6203 1.1594 0.0477
H21A H 0.1275 0.9536 0.2856
H21O H -0.1594 0.4608 0.0477
H21B H 0.0464 0.1739 0.2856
H21P H 0.5392 0.3797 0.0477
C29Q C 0.7588(12) 0.8848(9) 0.2565(3)
C29A C 0.5406(8) 1.0921(12) 0.0768(3)
C29O C 0.1152(9) 0.8739(8) 0.2565(3)
C29B C -0.0921(12) 0.4485(9) 0.0768(3)
C29P C 0.1261(8) 0.2412(12) 0.2565(3)
H22Q H 0.7560 0.9257 0.2657
H22A H 0.4969 1.0893 0.0676
H22O H 0.0743 0.8302 0.2657
H22B H -0.0893 0.4076 0.0676
H22P H 0.1698 0.2440 0.2657
C33Q C 0.4745(8) 0.6823(6) 0.2252(2)
C33O C 0.3177(6) 0.7921(5) 0.2252(2)
C33A C 0.4588(5) 0.8078(8) 0.1081(2)
C33B C 0.1922(8) 0.6510(6) 0.1081(2)
C33P C 0.2079(5) 0.5255(8) 0.2252(2)
H25Q H 0.4173 0.6489 0.2251
H25O H 0.3511 0.7683 0.2251
H25A H 0.4350 0.7506 0.1082
H25B H 0.2494 0.6844 0.1082
H25P H 0.2317 0.5827 0.2251
H26Q H 0.4909 0.7026 0.2062
H26O H 0.2974 0.7882 0.2062
H26A H 0.4549 0.8242 0.1271
H26B H 0.1758 0.6307 0.1271
H26P H 0.2118 0.5091 0.2062
C34P C 0.4372(6) 0.5483(8) 0.1913(2)
C34Q C 0.4517(8) 0.8888(6) 0.1913(2)
C34A C 0.2295(6) 0.7850(8) 0.1420(2)
C34O C 0.1112(6) 0.5628(6) 0.1913(2)
C34B C 0.2150(8) 0.4445(6) 0.1420(2)
H27P H 0.4601 0.5936 0.1787
H27Q H 0.4064 0.8664 0.1787
H27A H 0.2066 0.7397 0.1546
H27O H 0.1336 0.5399 0.1787
H27B H 0.2603 0.4669 0.1546
H28P H 0.3883 0.5431 0.1987
H28Q H 0.4569 0.8451 0.1987
H28A H 0.2784 0.7902 0.1346
H28O H 0.1549 0.6117 0.1987
H28B H 0.2098 0.4882 0.1346
C35Q C 0.5600(8) 0.6487(6) 0.2550(2)
C35O C 0.3513(6) 0.9112(6) 0.2550(2)
C35A C 0.5779(6) 0.8933(8) 0.0783(2)
C35B C 0.1067(8) 0.6846(6) 0.0783(2)
C35P C 0.0888(6) 0.4400(8) 0.2550(2)
H29Q H 0.5711 0.6924 0.2662
H29O H 0.3076 0.8786 0.2662
H29A H 0.5453 0.9044 0.0671
H29B H 0.0956 0.6409 0.0671
H29P H 0.1214 0.4289 0.2662
C36Q C 0.5111(7) 0.6312(5) 0.2328(2)
C36O C 0.3688(5) 0.8798(5) 0.2328(2)
C36A C 0.5465(5) 0.8444(7) 0.1005(2)
C36B C 0.1556(7) 0.7021(5) 0.1005(2)
C36P C 0.1202(5) 0.4889(7) 0.2328(2)
C37P C 0.4937(6) 0.5659(8) 0.21589(18)
C37Q C 0.4341(8) 0.9277(6) 0.21589(18)
C37A C 0.1730(6) 0.7674(8) 0.11744(18)
C37O C 0.0723(6) 0.5063(6) 0.21589(18)
C37B C 0.2326(8) 0.4056(6) 0.11744(18)
C38P C 0.5267(5) 0.5237(8) 0.22127(19)
C38Q C 0.4763(8) 1.0029(6) 0.22127(19)
C38A C 0.1400(5) 0.8096(8) 0.11206(19)
C38O C -0.0029(6) 0.4733(5) 0.22127(19)
C38B C 0.1904(8) 0.3304(6) 0.11206(19)
H30P H 0.5156 0.4816 0.2092
H30Q H 0.5184 1.0339 0.2092
H30A H 0.1511 0.8517 0.1241
H30O H -0.0339 0.4844 0.2092
H30B H 0.1483 0.2994 0.1241
C39P C 0.5775(5) 0.5373(7) 0.24400(18)
C39Q C 0.4627(7) 1.0401(5) 0.24400(18)
C39A C 0.0892(5) 0.7960(7) 0.08933(18)
C39O C -0.0401(5) 0.4225(5) 0.24400(18)
C39B C 0.2040(7) 0.2932(5) 0.08933(18)
C40Q C 0.5941(7) 0.6037(5) 0.2615(2)
C40O C 0.3963(5) 0.9903(5) 0.2615(2)
C40A C 0.6570(5) 0.9274(7) 0.0718(2)
C40B C 0.0726(7) 0.7296(5) 0.0718(2)
C40P C 0.0097(5) 0.4059(7) 0.2615(2)
C41P C 0.6904(6) 0.4586(9) 0.2805(3)
C41Q C 0.5414(9) 1.2317(7) 0.2805(3)
C41A C -0.0237(6) 0.8747(9) 0.0528(3)
C41O C -0.2317(7) 0.3096(6) 0.2805(3)
C41B C 0.1253(9) 0.1016(7) 0.0528(3)
H31P H 0.6797 0.4154 0.2691
H31Q H 0.5846 1.2642 0.2691
H31A H -0.0130 0.9179 0.0642
H31O H -0.2642 0.3203 0.2691
H31B H 0.0821 0.0691 0.0642
C42P C 0.7365(7) 0.4747(10) 0.3033(2)
C42Q C 0.5253(10) 1.2617(7) 0.3033(2)
C42A C -0.0698(7) 0.8586(10) 0.0300(2)
C42O C -0.2617(7) 0.2635(7) 0.3033(2)
C42B C 0.1414(10) 0.0716(7) 0.0300(2)
H32P H 0.7567 0.4416 0.3077
H32Q H 0.5584 1.3150 0.3077
H32A H -0.0900 0.8917 0.0256
H32O H -0.3150 0.2433 0.3077
H32B H 0.1083 0.0183 0.0256
C43P C 0.7553(7) 0.5392(11) 0.3205(3)
C43Q C 0.4608(11) 1.2160(8) 0.3205(3)
C43A C -0.0886(7) 0.7941(11) 0.0128(3)
C43O C -0.2160(8) 0.2447(7) 0.3205(3)
C43B C 0.2059(11) 0.1173(8) 0.0128(3)
H33P H 0.7890 0.5503 0.3359
H33Q H 0.4497 1.2386 0.3359
H33A H -0.1223 0.7830 -0.0026
H33O H -0.2386 0.2110 0.3359
H33B H 0.2170 0.0947 -0.0026
C44P C 0.7241(7) 0.5854(11) 0.3148(2)
C44Q C 0.4146(11) 1.1386(8) 0.3148(2)
C44A C -0.0574(7) 0.7479(11) 0.0185(2)
C44O C -0.1386(8) 0.2759(7) 0.3148(2)
C44B C 0.2521(11) 0.1947(8) 0.0185(2)
H34P H 0.7351 0.6276 0.3268
H34Q H 0.3724 1.1074 0.3268
H34A H -0.0684 0.7057 0.0065
H34O H -0.1074 0.2649 0.3268
H34B H 0.2943 0.2259 0.0065
C45P C 0.6742(6) 0.5713(8) 0.2905(2)
C45Q C 0.4287(8) 1.1028(6) 0.2905(2)
C45A C -0.0075(6) 0.7620(8) 0.0428(2)
C45O C -0.1028(6) 0.3258(6) 0.2905(2)
C45B C 0.2380(8) 0.2305(6) 0.0428(2)
C46P C 0.6577(6) 0.5073(8) 0.2735(2)
C46Q C 0.4927(8) 1.1503(6) 0.2735(2)
C46A C 0.0090(6) 0.8260(8) 0.0598(2)
C46O C -0.1503(6) 0.3423(6) 0.2735(2)
C46B C 0.1740(8) 0.1830(6) 0.0598(2)
C47P C 0.6098(6) 0.4937(8) 0.2502(2)
C47Q C 0.5063(8) 1.1160(6) 0.2502(2)
C47A C 0.0569(6) 0.8396(8) 0.0831(2)
C47O C -0.1160(6) 0.3902(6) 0.2502(2)
C47B C 0.1604(8) 0.2173(6) 0.0831(2)
H35P H 0.5998 0.4517 0.2383
H35Q H 0.5483 1.1480 0.2383
H35A H 0.0669 0.8816 0.0950
H35O H -0.1480 0.4002 0.2383
H35B H 0.1184 0.1853 0.0950
C48Q C 0.6410(5) 0.6176(4) 0.28494(11)
C48O C 0.3824(4) 1.0233(3) 0.28494(11)
C48A C 0.6900(3) 0.9743(5) 0.04839(11)
C48B C 0.0257(5) 0.7157(4) 0.04839(11)
C48P C -0.0233(3) 0.3590(5) 0.28494(11)
H36Q H 0.6504 0.6588 0.2972
H36O H 0.3412 0.9915 0.2972
H36A H 0.6582 0.9837 0.0361
H36B H 0.0163 0.6745 0.0361
H36P H 0.0085 0.3496 0.2972
H1? H 0.6395 0.7494 0.0396
H5? H 0.3537 0.6066 0.0584
H6? H 0.4889 0.6845 0.0379
H11? H 0.1739 0.3308 0.1860
H12? H 0.0327 0.2665 0.2008
H13? H 0.6186 0.7636 0.0291
N8? N 0.4097(7) 0.5853(8) 0.0890(3)
N9? N 0.4133(7) 0.6347(9) 0.0671(3)
C22? C 0.4891(9) 0.6702(10) 0.0556(3)
C23? C 0.5324(6) 0.6428(11) 0.0703(4)
H17? H 0.5850 0.6570 0.0670
C24? C 0.4834(8) 0.5904(10) 0.0910(3)
H18? H 0.4974 0.5634 0.1039
N11? N 0.1547(10) 0.3950(11) 0.1560(3)
N12? N 0.1597(9) 0.3621(8) 0.1815(3)
C30? C 0.0833(8) 0.3166(9) 0.1922(2)
C31? C 0.0312(10) 0.3214(9) 0.1733(3)
H23? H -0.0237 0.2965 0.1753
C32? C 0.0752(10) 0.3698(10) 0.1510(3)
H24? H 0.0551 0.3831 0.1354
F1? F 0.3501(4) 0.7384(3) 0.15519(11)
F2? F 0.3333(4) 0.6667(3) 0.13802(11)
B1? B 0.3333(4) 0.6667(3) 0.16667(11)
loop_
_geom_bond_atom_site_label_1
_geom_bond_atom_site_label_2
_geom_bond_site_symmetry_1
_geom_bond_site_symmetry_2
Zn1 N1 1_555 1_555
N1 C1 1_555 1_555
C1 C2 1_555 1_555
C2 C3 1_555 1_555
C3 H2 1_555 1_555
C4 C3 1_555 1_555
H3 C4 1_555 1_555
C5 N1 1_555 1_555
H4 C5 1_555 1_555
N2 C6 1_555 1_555
C6 C7 1_555 1_555
C7 C8 1_555 1_555
C8 C1 1_555 1_555
N3 Zn1 1_555 1_555
N4 Zn1 1_555 1_555
C9 N4 1_555 1_555
C10 C9 1_555 1_555
H7 C10 1_555 1_555
C11 C10 1_555 1_555
H8 C11 1_555 1_555
C12 C11 1_555 1_555
H9 C12 1_555 1_555
C13 N4 1_555 1_555
H10 C13 1_555 1_555
N5 C14 1_555 1_555
C14 C15 1_555 1_555
C15 C16 1_555 1_555
C16 C9 1_555 1_555
N6 Zn1 1_555 1_555
Zn2 N7 1_555 1_555
N7 C17 1_555 1_555
C17 C7 1_555 1_555
C18 C17 1_555 1_555
C19 C18 1_555 1_555
H14 C19 1_555 1_555
C20 C19 1_555 1_555
H15 C20 1_555 1_555
C21 N7 1_555 1_555
H16 C21 1_555 1_555
N10 Zn1 1_555 1_555
C25 C15 1_555 1_555
C26 C25 1_555 1_555
H19 C26 1_555 1_555
C27 C26 1_555 1_555
H20 C27 1_555 1_555
C28 C27 1_555 1_555
H21 C28 1_555 1_555
C29 N10 1_555 1_555
H22 C29 1_555 1_555
C33 N2 1_555 1_555
H25 C33 1_555 1_555
H26 C33 1_555 1_555
C34 N5 1_555 1_555
H27 C34 1_555 1_555
H28 C34 1_555 1_555
C35 H29 1_555 1_555
C36 C33 1_555 1_555
C37 C34 1_555 1_555
C38 C37 1_555 1_555
H30 C38 1_555 1_555
C39 C38 1_555 1_555
C40 C35 1_555 1_555
C41 H31 1_555 1_555
C42 C41 1_555 1_555
H32 C42 1_555 1_555
C43 C42 1_555 1_555
H33 C43 1_555 1_555
C44 C43 1_555 1_555
H34 C44 1_555 1_555
C45 C44 1_555 1_555
C46 C41 1_555 1_555
C47 C39 1_555 1_555
H35 C47 1_555 1_555
C48 C40 1_555 1_555
H36 C48 1_555 1_555
F3 B2 1_555 1_555
F4 B2 1_555 1_555
B2 F4B 1_555 1_555
Zn1P N1P 1_555 1_555
Zn1B N1B 1_555 1_555
Zn1O N1O 1_555 1_555
Zn1A N1A 1_555 1_555
Zn1Q N1Q 1_555 1_555
N1P C1P 1_555 1_555
N1B C1B 1_555 1_555
N1O C1O 1_555 1_555
N1A C1A 1_555 1_555
N1Q C1Q 1_555 1_555
C1P C2P 1_555 1_555
C1B C2B 1_555 1_555
C1O C2O 1_555 1_555
C1A C2A 1_555 1_555
C1Q C2Q 1_555 1_555
C2P C3P 1_555 1_555
C2B C3B 1_555 1_555
C2O C3O 1_555 1_555
C2A C3A 1_555 1_555
C2Q C3Q 1_555 1_555
C3P H2P 1_555 1_555
C3B H2B 1_555 1_555
C3O H2O 1_555 1_555
C3A H2A 1_555 1_555
C3Q H2Q 1_555 1_555
C4P C3P 1_555 1_555
C4B C3B 1_555 1_555
C4O C3O 1_555 1_555
C4A C3A 1_555 1_555
C4Q C3Q 1_555 1_555
H3P C4P 1_555 1_555
H3B C4B 1_555 1_555
H3O C4O 1_555 1_555
H3A C4A 1_555 1_555
H3Q C4Q 1_555 1_555
C5P N1P 1_555 1_555
C5B N1B 1_555 1_555
C5O N1O 1_555 1_555
C5A N1A 1_555 1_555
C5Q N1Q 1_555 1_555
H4P C5P 1_555 1_555
H4B C5B 1_555 1_555
H4O C5O 1_555 1_555
H4A C5A 1_555 1_555
H4Q C5Q 1_555 1_555
N2P C6P 1_555 1_555
N2B C6B 1_555 1_555
N2O C6O 1_555 1_555
N2A C6A 1_555 1_555
N2Q C6Q 1_555 1_555
C6P C7P 1_555 1_555
C6B C7B 1_555 1_555
C6O C7O 1_555 1_555
C6A C7A 1_555 1_555
C6Q C7Q 1_555 1_555
C7P C8P 1_555 1_555
C7B C8B 1_555 1_555
C7O C8O 1_555 1_555
C7A C8A 1_555 1_555
C7Q C8Q 1_555 1_555
C8P C1P 1_555 1_555
C8B C1B 1_555 1_555
C8O C1O 1_555 1_555
C8A C1A 1_555 1_555
C8Q C1Q 1_555 1_555
N3P Zn1P 1_555 1_555
N3B Zn1B 1_555 1_555
N3O Zn1O 1_555 1_555
N3A Zn1A 1_555 1_555
N3Q Zn1Q 1_555 1_555
N4P Zn1P 1_555 1_555
N4B Zn1B 1_555 1_555
N4O Zn1O 1_555 1_555
N4A Zn1A 1_555 1_555
N4Q Zn1Q 1_555 1_555
C9P N4P 1_555 1_555
C9B N4B 1_555 1_555
C9O N4O 1_555 1_555
C9A N4A 1_555 1_555
C9Q N4Q 1_555 1_555
C10P C9P 1_555 1_555
C10B C9B 1_555 1_555
C10O C9O 1_555 1_555
C10A C9A 1_555 1_555
C10Q C9Q 1_555 1_555
H7P C10P 1_555 1_555
H7B C10B 1_555 1_555
H7O C10O 1_555 1_555
H7A C10A 1_555 1_555
H7Q C10Q 1_555 1_555
C11P C10P 1_555 1_555
C11B C10B 1_555 1_555
C11O C10O 1_555 1_555
C11A C10A 1_555 1_555
C11Q C10Q 1_555 1_555
H8P C11P 1_555 1_555
H8B C11B 1_555 1_555
H8O C11O 1_555 1_555
H8A C11A 1_555 1_555
H8Q C11Q 1_555 1_555
C12P C11P 1_555 1_555
C12B C11B 1_555 1_555
C12O C11O 1_555 1_555
C12A C11A 1_555 1_555
C12Q C11Q 1_555 1_555
H9P C12P 1_555 1_555
H9B C12B 1_555 1_555
H9O C12O 1_555 1_555
H9A C12A 1_555 1_555
H9Q C12Q 1_555 1_555
C13P N4P 1_555 1_555
C13B N4B 1_555 1_555
C13O N4O 1_555 1_555
C13A N4A 1_555 1_555
C13Q N4Q 1_555 1_555
H10P C13P 1_555 1_555
H10B C13B 1_555 1_555
H10O C13O 1_555 1_555
H10A C13A 1_555 1_555
H10Q C13Q 1_555 1_555
N5P C14P 1_555 1_555
N5B C14B 1_555 1_555
N5O C14O 1_555 1_555
N5A C14A 1_555 1_555
N5Q C14Q 1_555 1_555
C14P C15P 1_555 1_555
C14B C15B 1_555 1_555
C14O C15O 1_555 1_555
C14A C15A 1_555 1_555
C14Q C15Q 1_555 1_555
C15P C16P 1_555 1_555
C15B C16B 1_555 1_555
C15O C16O 1_555 1_555
C15A C16A 1_555 1_555
C15Q C16Q 1_555 1_555
C16P C9P 1_555 1_555
C16B C9B 1_555 1_555
C16O C9O 1_555 1_555
C16A C9A 1_555 1_555
C16Q C9Q 1_555 1_555
N6P Zn1P 1_555 1_555
N6B Zn1B 1_555 1_555
N6O Zn1O 1_555 1_555
N6A Zn1A 1_555 1_555
N6Q Zn1Q 1_555 1_555
Zn2Q N7Q 1_555 1_555
N7Q C17Q 1_555 1_555
N7O Zn2Q 1_555 1_555
N7P Zn2Q 1_555 1_555
N7A Zn2 1_555 1_555
N7B Zn2 1_555 1_555
C17Q C7Q 1_555 1_555
C17O C7O 1_555 1_555
C17P C7P 1_555 1_555
C17A C7A 1_555 1_555
C17B C7B 1_555 1_555
C18O C17O 1_555 1_555
C18P C17P 1_555 1_555
C18Q C17Q 1_555 1_555
C18B C17B 1_555 1_555
C18A C17A 1_555 1_555
C19O C18O 1_555 1_555
C19P C18P 1_555 1_555
C19Q C18Q 1_555 1_555
C19B C18B 1_555 1_555
C19A C18A 1_555 1_555
H14O C19O 1_555 1_555
H14P C19P 1_555 1_555
H14Q C19Q 1_555 1_555
H14B C19B 1_555 1_555
H14A C19A 1_555 1_555
C20O C19O 1_555 1_555
C20P C19P 1_555 1_555
C20Q C19Q 1_555 1_555
C20B C19B 1_555 1_555
C20A C19A 1_555 1_555
H15O C20O 1_555 1_555
H15P C20P 1_555 1_555
H15Q C20Q 1_555 1_555
H15B C20B 1_555 1_555
H15A C20A 1_555 1_555
C21O N7O 1_555 1_555
C21P N7P 1_555 1_555
C21Q N7Q 1_555 1_555
C21B N7B 1_555 1_555
C21A N7A 1_555 1_555
H16O C21O 1_555 1_555
H16P C21P 1_555 1_555
H16Q C21Q 1_555 1_555
H16B C21B 1_555 1_555
H16A C21A 1_555 1_555
N10P Zn1P 1_555 1_555
N10B Zn1B 1_555 1_555
N10O Zn1O 1_555 1_555
N10A Zn1A 1_555 1_555
N10Q C25 1_555 1_555
C25P N10 1_555 1_555
C25B C15B 1_555 1_555
C25O C15O 1_555 1_555
C25A C15A 1_555 1_555
C25Q C15Q 1_555 1_555
C26Q C25Q 1_555 1_555
C26A C25A 1_555 1_555
C26O C25O 1_555 1_555
C26B C25B 1_555 1_555
C26P C25P 1_555 1_555
H19Q C26Q 1_555 1_555
H19A C26A 1_555 1_555
H19O C26O 1_555 1_555
H19B C26B 1_555 1_555
H19P C26P 1_555 1_555
C27Q C26Q 1_555 1_555
C27A C26A 1_555 1_555
C27O C26O 1_555 1_555
C27B C26B 1_555 1_555
C27P C26P 1_555 1_555
H20Q C27Q 1_555 1_555
H20A C27A 1_555 1_555
H20O C27O 1_555 1_555
H20B C27B 1_555 1_555
H20P C27P 1_555 1_555
C28Q C27Q 1_555 1_555
C28A C27A 1_555 1_555
C28O C27O 1_555 1_555
C28B C27B 1_555 1_555
C28P C29 1_555 1_555
H21Q C28Q 1_555 1_555
H21A C28A 1_555 1_555
H21O C28O 1_555 1_555
H21B C28B 1_555 1_555
H21P C28P 1_555 1_555
C29Q C28 1_555 1_555
C29A N10A 1_555 1_555
C29O N10O 1_555 1_555
C29B N10B 1_555 1_555
C29P N10P 1_555 1_555
H22Q C29Q 1_555 1_555
H22A C29A 1_555 1_555
H22O C29O 1_555 1_555
H22B C29B 1_555 1_555
H22P C29P 1_555 1_555
C33Q N2Q 1_555 1_555
C33O N2O 1_555 1_555
C33A N2A 1_555 1_555
C33B N2B 1_555 1_555
C33P N2P 1_555 1_555
H25Q C33Q 1_555 1_555
H25O C33O 1_555 1_555
H25A C33A 1_555 1_555
H25B C33B 1_555 1_555
H25P C33P 1_555 1_555
H26Q C33Q 1_555 1_555
H26O C33O 1_555 1_555
H26A C33A 1_555 1_555
H26B C33B 1_555 1_555
H26P C33P 1_555 1_555
C34P N5P 1_555 1_555
C34Q N5Q 1_555 1_555
C34A N5A 1_555 1_555
C34O N5O 1_555 1_555
C34B N5B 1_555 1_555
H27P C34P 1_555 1_555
H27Q C34Q 1_555 1_555
H27A C34A 1_555 1_555
H27O C34O 1_555 1_555
H27B C34B 1_555 1_555
H28P C34P 1_555 1_555
H28Q C34Q 1_555 1_555
H28A C34A 1_555 1_555
H28O C34O 1_555 1_555
H28B C34B 1_555 1_555
C35Q H29Q 1_555 1_555
C35O H29O 1_555 1_555
C35A H29A 1_555 1_555
C35B H29B 1_555 1_555
C35P H29P 1_555 1_555
C36Q C33Q 1_555 1_555
C36O C33O 1_555 1_555
C36A C37 1_555 1_555
C36B C33B 1_555 1_555
C36P C33P 1_555 1_555
C37P C34P 1_555 1_555
C37Q C34Q 1_555 1_555
C37A C34A 1_555 1_555
C37O C34O 1_555 1_555
C37B C36 1_555 1_555
C38P C37P 1_555 1_555
C38Q C37Q 1_555 1_555
C38A C37A 1_555 1_555
C38O C37O 1_555 1_555
C38B C37B 1_555 1_555
H30P C38P 1_555 1_555
H30Q C38Q 1_555 1_555
H30A C38A 1_555 1_555
H30O C38O 1_555 1_555
H30B C38B 1_555 1_555
C39P C38P 1_555 1_555
C39Q C38Q 1_555 1_555
C39A C38A 1_555 1_555
C39O C38O 1_555 1_555
C39B C40 1_555 1_555
C40Q C35Q 1_555 1_555
C40O C35O 1_555 1_555
C40A C39 1_555 1_555
C40B C35B 1_555 1_555
C40P C35P 1_555 1_555
C41P H31P 1_555 1_555
C41Q H31Q 1_555 1_555
C41A H31A 1_555 1_555
C41O H31O 1_555 1_555
C41B H31B 1_555 1_555
C42P C41P 1_555 1_555
C42Q C41Q 1_555 1_555
C42A C41A 1_555 1_555
C42O C41O 1_555 1_555
C42B C41B 1_555 1_555
H32P C42P 1_555 1_555
H32Q C42Q 1_555 1_555
H32A C42A 1_555 1_555
H32O C42O 1_555 1_555
H32B C42B 1_555 1_555
C43P C42P 1_555 1_555
C43Q C42Q 1_555 1_555
C43A C42A 1_555 1_555
C43O C42O 1_555 1_555
C43B C42B 1_555 1_555
H33P C43P 1_555 1_555
H33Q C43Q 1_555 1_555
H33A C43A 1_555 1_555
H33O C43O 1_555 1_555
H33B C43B 1_555 1_555
C44P C43P 1_555 1_555
C44Q C43Q 1_555 1_555
C44A C43A 1_555 1_555
C44O C43O 1_555 1_555
C44B C43B 1_555 1_555
H34P C44P 1_555 1_555
H34Q C44Q 1_555 1_555
H34A C44A 1_555 1_555
H34O C44O 1_555 1_555
H34B C44B 1_555 1_555
C45P C44P 1_555 1_555
C45Q C44Q 1_555 1_555
C45A C44A 1_555 1_555
C45O C44O 1_555 1_555
C45B C48 1_555 1_555
C46P C41P 1_555 1_555
C46Q C41Q 1_555 1_555
C46A C41A 1_555 1_555
C46O C41O 1_555 1_555
C46B C41B 1_555 1_555
C47P C39P 1_555 1_555
C47Q C39Q 1_555 1_555
C47A C39A 1_555 1_555
C47O C39O 1_555 1_555
C47B C39B 1_555 1_555
H35P C47P 1_555 1_555
H35Q C47Q 1_555 1_555
H35A C47A 1_555 1_555
H35O C47O 1_555 1_555
H35B C47B 1_555 1_555
C48Q C40Q 1_555 1_555
C48O C40O 1_555 1_555
C48A C45 1_555 1_555
C48B C40B 1_555 1_555
C48P C40P 1_555 1_555
H36Q C48Q 1_555 1_555
H36O C48O 1_555 1_555
H36A C48A 1_555 1_555
H36B C48B 1_555 1_555
H36P C48P 1_555 1_555
F4A B2 1_555 1_555
C4 C5 1_555 1_555
N2 N3 1_555 1_555
C8 N3 1_555 1_555
C12 C13 1_555 1_555
N5 N6 1_555 1_555
C16 N6 1_555 1_555
C20 C21 1_555 1_555
C35 C36 1_555 1_555
C45 C46 1_555 1_555
C46 C47 1_555 1_555
Zn1Q N10Q 1_555 1_555
C4P C5P 1_555 1_555
C4B C5B 1_555 1_555
C4O C5O 1_555 1_555
C4A C5A 1_555 1_555
C4Q C5Q 1_555 1_555
N2P N3P 1_555 1_555
N2B N3B 1_555 1_555
N2O N3O 1_555 1_555
N2A N3A 1_555 1_555
N2Q N3Q 1_555 1_555
C8P N3P 1_555 1_555
C8B N3B 1_555 1_555
C8O N3O 1_555 1_555
C8A N3A 1_555 1_555
C8Q N3Q 1_555 1_555
C12P C13P 1_555 1_555
C12B C13B 1_555 1_555
C12O C13O 1_555 1_555
C12A C13A 1_555 1_555
C12Q C13Q 1_555 1_555
N5P N6P 1_555 1_555
N5B N6B 1_555 1_555
N5O N6O 1_555 1_555
N5A N6A 1_555 1_555
N5Q N6Q 1_555 1_555
C15P C25P 1_555 1_555
C16P N6P 1_555 1_555
C16B N6B 1_555 1_555
C16O N6O 1_555 1_555
C16A N6A 1_555 1_555
C16Q N6Q 1_555 1_555
N7O C17O 1_555 1_555
N7P C17P 1_555 1_555
N7A C17A 1_555 1_555
N7B C17B 1_555 1_555
C20O C21O 1_555 1_555
C20P C21P 1_555 1_555
C20Q C21Q 1_555 1_555
C20B C21B 1_555 1_555
C20A C21A 1_555 1_555
N10P C25B 1_555 1_555
N10B C25O 1_555 1_555
N10O C25A 1_555 1_555
N10A C25Q 1_555 1_555
N10Q C29Q 1_555 1_555
C27P C28P 1_555 1_555
C28Q C29A 1_555 1_555
C28A C29O 1_555 1_555
C28O C29B 1_555 1_555
C28B C29P 1_555 1_555
C33A C36A 1_555 1_555
C34B C37B 1_555 1_555
C35Q C36Q 1_555 1_555
C35O C36O 1_555 1_555
C35A C36A 1_555 1_555
C35A C40A 1_555 1_555
C35B C36B 1_555 1_555
C35P C36P 1_555 1_555
C36Q C37P 1_555 1_555
C36O C37Q 1_555 1_555
C36B C37A 1_555 1_555
C36P C37O 1_555 1_555
C38B C39B 1_555 1_555
C39P C40Q 1_555 1_555
C39Q C40O 1_555 1_555
C39A C40B 1_555 1_555
C39O C40P 1_555 1_555
C40A C48A 1_555 1_555
C44B C45B 1_555 1_555
C45P C46P 1_555 1_555
C45P C48Q 1_555 1_555
C45Q C46Q 1_555 1_555
C45Q C48O 1_555 1_555
C45A C46A 1_555 1_555
C45A C48B 1_555 1_555
C45O C46O 1_555 1_555
C45O C48P 1_555 1_555
C45B C46B 1_555 1_555
C46P C47P 1_555 1_555
C46Q C47Q 1_555 1_555
C46A C47A 1_555 1_555
C46O C47O 1_555 1_555
C46B C47B 1_555 1_555

#END
