# generated using pymatgen
data_Cd4B6H159C177N36(O7F15)2
_symmetry_space_group_name_H-M   'P 1'
_cell_length_a   19.59430000
_cell_length_b   22.04020000
_cell_length_c   43.03720000
_cell_angle_alpha   92.86300000
_cell_angle_beta   90.00000000
_cell_angle_gamma   90.00000000
_symmetry_Int_Tables_number   1
_chemical_formula_structural   Cd4B6H159C177N36(O7F15)2
_chemical_formula_sum   'Cd16 B24 H636 C708 N144 O56 F120'
_cell_volume   18562.94493931
_cell_formula_units_Z   4
loop_
 _symmetry_equiv_pos_site_id
 _symmetry_equiv_pos_as_xyz
  1  'x, y, z'
loop_
 _atom_site_type_symbol
 _atom_site_label
 _atom_site_symmetry_multiplicity
 _atom_site_fract_x
 _atom_site_fract_y
 _atom_site_fract_z
 _atom_site_occupancy
  Cd  Cd1  1  0.432840  0.347780  0.711347  1
  Cd  Cd2  1  0.932840  0.652220  0.788653  1
  Cd  Cd3  1  0.567160  0.652220  0.288653  1
  Cd  Cd4  1  0.067160  0.347780  0.211347  1
  Cd  Cd5  1  0.341190  0.944160  0.613850  1
  Cd  Cd6  1  0.841190  0.055840  0.886150  1
  Cd  Cd7  1  0.658810  0.055840  0.386150  1
  Cd  Cd8  1  0.158810  0.944160  0.113850  1
  Cd  Cd9  1  0.222670  0.314390  0.521710  1
  Cd  Cd10  1  0.722670  0.685610  0.978290  1
  Cd  Cd11  1  0.777330  0.685610  0.478290  1
  Cd  Cd12  1  0.277330  0.314390  0.021710  1
  Cd  Cd13  1  0.011610  0.180560  0.697417  1
  Cd  Cd14  1  0.511610  0.819440  0.802583  1
  Cd  Cd15  1  0.988390  0.819440  0.302583  1
  Cd  Cd16  1  0.488390  0.180560  0.197417  1
  B  B17  1  0.752500  0.803900  0.361000  1
  B  B18  1  0.252500  0.196100  0.139000  1
  B  B19  1  0.247500  0.196100  0.639000  1
  B  B20  1  0.747500  0.803900  0.861000  1
  B  B21  1  0.723900  0.879400  0.162970  1
  B  B22  1  0.223900  0.120600  0.337030  1
  B  B23  1  0.276100  0.120600  0.837030  1
  B  B24  1  0.776100  0.879400  0.662970  1
  B  B25  1  0.349400  0.806100  0.430800  1
  B  B26  1  0.849400  0.193900  0.069200  1
  B  B27  1  0.650600  0.193900  0.569200  1
  B  B28  1  0.150600  0.806100  0.930800  1
  B  B29  1  0.543300  0.735800  0.559700  1
  B  B30  1  0.043300  0.264200  0.940300  1
  B  B31  1  0.456700  0.264200  0.440300  1
  B  B32  1  0.956700  0.735800  0.059700  1
  B  B33  1  0.327200  0.818800  0.728200  1
  B  B34  1  0.827200  0.181200  0.771800  1
  B  B35  1  0.672800  0.181200  0.271800  1
  B  B36  1  0.172800  0.818800  0.228200  1
  B  B37  1  0.210000  0.579100  0.843200  1
  B  B38  1  0.710000  0.420900  0.656800  1
  B  B39  1  0.790000  0.420900  0.156800  1
  B  B40  1  0.290000  0.579100  0.343200  1
  H  H41  1  0.350100  0.286000  0.820500  1
  H  H42  1  0.850100  0.714000  0.679500  1
  H  H43  1  0.649900  0.714000  0.179500  1
  H  H44  1  0.149900  0.286000  0.320500  1
  H  H45  1  0.346900  0.383500  0.845300  1
  H  H46  1  0.846900  0.616500  0.654700  1
  H  H47  1  0.653100  0.616500  0.154700  1
  H  H48  1  0.153100  0.383500  0.345300  1
  H  H49  1  0.371300  0.468300  0.816100  1
  H  H50  1  0.871300  0.531700  0.683900  1
  H  H51  1  0.628700  0.531700  0.183900  1
  H  H52  1  0.128700  0.468300  0.316100  1
  H  H53  1  0.406900  0.453500  0.764400  1
  H  H54  1  0.906900  0.546500  0.735600  1
  H  H55  1  0.593100  0.546500  0.235600  1
  H  H56  1  0.093100  0.453500  0.264400  1
  H  H57  1  0.356000  0.189500  0.792300  1
  H  H58  1  0.856000  0.810500  0.707700  1
  H  H59  1  0.644000  0.810500  0.207700  1
  H  H60  1  0.144000  0.189500  0.292300  1
  H  H61  1  0.369600  0.115800  0.746400  1
  H  H62  1  0.869600  0.884200  0.753600  1
  H  H63  1  0.630400  0.884200  0.253600  1
  H  H64  1  0.130400  0.115800  0.246400  1
  H  H65  1  0.407100  0.204700  0.676900  1
  H  H66  1  0.907100  0.795300  0.823100  1
  H  H67  1  0.592900  0.795300  0.323100  1
  H  H68  1  0.092900  0.204700  0.176900  1
  H  H69  1  0.368800  0.142700  0.683700  1
  H  H70  1  0.868800  0.857300  0.816300  1
  H  H71  1  0.631200  0.857300  0.316300  1
  H  H72  1  0.131200  0.142700  0.183700  1
  H  H73  1  0.489800  0.951800  0.514100  1
  H  H74  1  0.989800  0.048200  0.985900  1
  H  H75  1  0.510200  0.048200  0.485900  1
  H  H76  1  0.010200  0.951800  0.014100  1
  H  H77  1  0.464900  0.856200  0.491800  1
  H  H78  1  0.964900  0.143800  0.008200  1
  H  H79  1  0.535100  0.143800  0.508200  1
  H  H80  1  0.035100  0.856200  0.991800  1
  H  H81  1  0.383400  0.796700  0.515500  1
  H  H82  1  0.883400  0.203300  0.984500  1
  H  H83  1  0.616600  0.203300  0.484500  1
  H  H84  1  0.116600  0.796700  0.015500  1
  H  H85  1  0.338700  0.829100  0.562100  1
  H  H86  1  0.838700  0.170900  0.937900  1
  H  H87  1  0.661300  0.170900  0.437900  1
  H  H88  1  0.161300  0.829100  0.062100  1
  H  H89  1  0.523500  0.044700  0.542200  1
  H  H90  1  0.023500  0.955300  0.957800  1
  H  H91  1  0.476500  0.955300  0.457800  1
  H  H92  1  0.976500  0.044700  0.042200  1
  H  H93  1  0.520000  0.124600  0.584600  1
  H  H94  1  0.020000  0.875400  0.915400  1
  H  H95  1  0.480000  0.875400  0.415400  1
  H  H96  1  0.980000  0.124600  0.084600  1
  H  H97  1  0.384500  0.085000  0.641400  1
  H  H98  1  0.884500  0.915000  0.858600  1
  H  H99  1  0.615500  0.915000  0.358600  1
  H  H100  1  0.115500  0.085000  0.141400  1
  H  H101  1  0.415200  0.147100  0.629800  1
  H  H102  1  0.915200  0.852900  0.870200  1
  H  H103  1  0.584800  0.852900  0.370200  1
  H  H104  1  0.084800  0.147100  0.129800  1
  H  H105  1  0.519000  0.161500  0.726500  1
  H  H106  1  0.019000  0.838500  0.773500  1
  H  H107  1  0.481000  0.838500  0.273500  1
  H  H108  1  0.981000  0.161500  0.226500  1
  H  H109  1  0.546400  0.047100  0.632800  1
  H  H110  1  0.046400  0.952900  0.867200  1
  H  H111  1  0.453600  0.952900  0.367200  1
  H  H112  1  0.953600  0.047100  0.132800  1
  H  H113  1  0.663700  0.017600  0.649100  1
  H  H114  1  0.163700  0.982400  0.850900  1
  H  H115  1  0.336300  0.982400  0.350900  1
  H  H116  1  0.836300  0.017600  0.149100  1
  H  H117  1  0.753100  0.027500  0.684200  1
  H  H118  1  0.253100  0.972500  0.815800  1
  H  H119  1  0.246900  0.972500  0.315800  1
  H  H120  1  0.746900  0.027500  0.184200  1
  H  H121  1  0.738700  0.086800  0.730700  1
  H  H122  1  0.238700  0.913200  0.769300  1
  H  H123  1  0.261300  0.913200  0.269300  1
  H  H124  1  0.761300  0.086800  0.230700  1
  H  H125  1  0.638700  0.135400  0.742100  1
  H  H126  1  0.138700  0.864600  0.757900  1
  H  H127  1  0.361300  0.864600  0.257900  1
  H  H128  1  0.861300  0.135400  0.242100  1
  H  H129  1  0.668300  0.241700  0.691400  1
  H  H130  1  0.168300  0.758300  0.808600  1
  H  H131  1  0.331700  0.758300  0.308600  1
  H  H132  1  0.831700  0.241700  0.191400  1
  H  H133  1  0.718500  0.261600  0.740200  1
  H  H134  1  0.218500  0.738400  0.759800  1
  H  H135  1  0.281500  0.738400  0.259800  1
  H  H136  1  0.781500  0.261600  0.240200  1
  H  H137  1  0.657800  0.316900  0.778600  1
  H  H138  1  0.157800  0.683100  0.721400  1
  H  H139  1  0.342200  0.683100  0.221400  1
  H  H140  1  0.842200  0.316900  0.278600  1
  H  H141  1  0.553500  0.357700  0.766400  1
  H  H142  1  0.053500  0.642300  0.733600  1
  H  H143  1  0.446500  0.642300  0.233600  1
  H  H144  1  0.946500  0.357700  0.266400  1
  H  H145  1  0.617800  0.241200  0.638800  1
  H  H146  1  0.117800  0.758800  0.861200  1
  H  H147  1  0.382200  0.758800  0.361200  1
  H  H148  1  0.882200  0.241200  0.138800  1
  H  H149  1  0.523500  0.252200  0.600300  1
  H  H150  1  0.023500  0.747800  0.899700  1
  H  H151  1  0.476500  0.747800  0.399700  1
  H  H152  1  0.976500  0.252200  0.100300  1
  H  H153  1  0.369700  0.309800  0.640900  1
  H  H154  1  0.869700  0.690200  0.859100  1
  H  H155  1  0.630300  0.690200  0.359100  1
  H  H156  1  0.130300  0.309800  0.140900  1
  H  H157  1  0.389600  0.279300  0.607700  1
  H  H158  1  0.889600  0.720700  0.892300  1
  H  H159  1  0.610400  0.720700  0.392300  1
  H  H160  1  0.110400  0.279300  0.107700  1
  H  H161  1  0.009700  0.447400  0.553200  1
  H  H162  1  0.509700  0.552600  0.946800  1
  H  H163  1  0.990300  0.552600  0.446800  1
  H  H164  1  0.490300  0.447400  0.053200  1
  H  H165  1  0.947900  0.431100  0.504400  1
  H  H166  1  0.447900  0.568900  0.995600  1
  H  H167  1  0.052100  0.568900  0.495600  1
  H  H168  1  0.552100  0.431100  0.004400  1
  H  H169  1  0.999000  0.377000  0.462900  1
  H  H170  1  0.499000  0.623000  0.037100  1
  H  H171  1  0.001000  0.623000  0.537100  1
  H  H172  1  0.501000  0.377000  0.962900  1
  H  H173  1  0.108000  0.336500  0.469200  1
  H  H174  1  0.608000  0.663500  0.030800  1
  H  H175  1  0.892000  0.663500  0.530800  1
  H  H176  1  0.392000  0.336500  0.969200  1
  H  H177  1  0.088300  0.470400  0.595800  1
  H  H178  1  0.588300  0.529600  0.904200  1
  H  H179  1  0.911700  0.529600  0.404200  1
  H  H180  1  0.411700  0.470400  0.095800  1
  H  H181  1  0.185000  0.450100  0.631000  1
  H  H182  1  0.685000  0.549900  0.869000  1
  H  H183  1  0.815000  0.549900  0.369000  1
  H  H184  1  0.315000  0.450100  0.131000  1
  H  H185  1  0.283300  0.320500  0.598200  1
  H  H186  1  0.783300  0.679500  0.901800  1
  H  H187  1  0.716700  0.679500  0.401800  1
  H  H188  1  0.216700  0.320500  0.098200  1
  H  H189  1  0.273800  0.356800  0.630900  1
  H  H190  1  0.773800  0.643200  0.869100  1
  H  H191  1  0.726200  0.643200  0.369100  1
  H  H192  1  0.226200  0.356800  0.130900  1
  H  H193  1  0.505900  0.386200  0.611900  1
  H  H194  1  0.005900  0.613800  0.888100  1
  H  H195  1  0.494100  0.613800  0.388100  1
  H  H196  1  0.994100  0.386200  0.111900  1
  H  H197  1  0.296000  0.468000  0.583100  1
  H  H198  1  0.796000  0.532000  0.916900  1
  H  H199  1  0.704000  0.532000  0.416900  1
  H  H200  1  0.204000  0.468000  0.083100  1
  H  H201  1  0.357100  0.560500  0.565900  1
  H  H202  1  0.857100  0.439500  0.934100  1
  H  H203  1  0.642900  0.439500  0.434100  1
  H  H204  1  0.142900  0.560500  0.065900  1
  H  H205  1  0.457800  0.613200  0.558200  1
  H  H206  1  0.957800  0.386800  0.941800  1
  H  H207  1  0.542200  0.386800  0.441800  1
  H  H208  1  0.042200  0.613200  0.058200  1
  H  H209  1  0.563300  0.570700  0.572900  1
  H  H210  1  0.063300  0.429300  0.927100  1
  H  H211  1  0.436700  0.429300  0.427100  1
  H  H212  1  0.936700  0.570700  0.072900  1
  H  H213  1  0.566300  0.476600  0.591500  1
  H  H214  1  0.066300  0.523400  0.908500  1
  H  H215  1  0.433700  0.523400  0.408500  1
  H  H216  1  0.933700  0.476600  0.091500  1
  H  H217  1  0.374100  0.547500  0.657400  1
  H  H218  1  0.874100  0.452500  0.842600  1
  H  H219  1  0.625900  0.452500  0.342600  1
  H  H220  1  0.125900  0.547500  0.157400  1
  H  H221  1  0.486400  0.578700  0.647400  1
  H  H222  1  0.986400  0.421300  0.852600  1
  H  H223  1  0.513600  0.421300  0.352600  1
  H  H224  1  0.013600  0.578700  0.147400  1
  H  H225  1  0.577600  0.524700  0.666800  1
  H  H226  1  0.077600  0.475300  0.833200  1
  H  H227  1  0.422400  0.475300  0.333200  1
  H  H228  1  0.922400  0.524700  0.166800  1
  H  H229  1  0.555400  0.438500  0.694300  1
  H  H230  1  0.055400  0.561500  0.805700  1
  H  H231  1  0.444600  0.561500  0.305700  1
  H  H232  1  0.944600  0.438500  0.194300  1
  H  H233  1  0.177400  0.440800  0.695900  1
  H  H234  1  0.677400  0.559200  0.804100  1
  H  H235  1  0.822600  0.559200  0.304100  1
  H  H236  1  0.322600  0.440800  0.195900  1
  H  H237  1  0.262200  0.519100  0.682900  1
  H  H238  1  0.762200  0.480900  0.817100  1
  H  H239  1  0.737800  0.480900  0.317100  1
  H  H240  1  0.237800  0.519100  0.182900  1
  H  H241  1  0.265400  0.294500  0.702700  1
  H  H242  1  0.765400  0.705500  0.797300  1
  H  H243  1  0.734600  0.705500  0.297300  1
  H  H244  1  0.234600  0.294500  0.202700  1
  H  H245  1  0.189800  0.317900  0.696500  1
  H  H246  1  0.689800  0.682100  0.803500  1
  H  H247  1  0.810200  0.682100  0.303500  1
  H  H248  1  0.310200  0.317900  0.196500  1
  H  H249  1  0.056400  0.965700  0.739200  1
  H  H250  1  0.556400  0.034300  0.760800  1
  H  H251  1  0.943600  0.034300  0.260800  1
  H  H252  1  0.443600  0.965700  0.239200  1
  H  H253  1  0.958200  0.917000  0.718800  1
  H  H254  1  0.458200  0.083000  0.781200  1
  H  H255  1  0.041800  0.083000  0.281200  1
  H  H256  1  0.541800  0.917000  0.218800  1
  H  H257  1  0.874000  0.974500  0.694600  1
  H  H258  1  0.374000  0.025500  0.805400  1
  H  H259  1  0.126000  0.025500  0.305400  1
  H  H260  1  0.626000  0.974500  0.194600  1
  H  H261  1  0.892300  0.077100  0.691100  1
  H  H262  1  0.392300  0.922900  0.808900  1
  H  H263  1  0.107700  0.922900  0.308900  1
  H  H264  1  0.607700  0.077100  0.191100  1
  H  H265  1  0.146600  0.029600  0.766000  1
  H  H266  1  0.646600  0.970400  0.734000  1
  H  H267  1  0.853400  0.970400  0.234000  1
  H  H268  1  0.353400  0.029600  0.266000  1
  H  H269  1  0.229700  0.116700  0.767200  1
  H  H270  1  0.729700  0.883300  0.732800  1
  H  H271  1  0.770300  0.883300  0.232800  1
  H  H272  1  0.270300  0.116700  0.267200  1
  H  H273  1  0.246000  0.203900  0.720800  1
  H  H274  1  0.746000  0.796100  0.779200  1
  H  H275  1  0.754000  0.796100  0.279200  1
  H  H276  1  0.254000  0.203900  0.220800  1
  H  H277  1  0.173800  0.225600  0.708200  1
  H  H278  1  0.673800  0.774400  0.791800  1
  H  H279  1  0.826200  0.774400  0.291800  1
  H  H280  1  0.326200  0.225600  0.208200  1
  H  H281  1  0.223900  0.407400  0.757400  1
  H  H282  1  0.723900  0.592600  0.742600  1
  H  H283  1  0.776100  0.592600  0.242600  1
  H  H284  1  0.276100  0.407400  0.257400  1
  H  H285  1  0.163800  0.212700  0.787300  1
  H  H286  1  0.663800  0.787300  0.712700  1
  H  H287  1  0.836200  0.787300  0.212700  1
  H  H288  1  0.336200  0.212700  0.287300  1
  H  H289  1  0.146900  0.253000  0.842100  1
  H  H290  1  0.646900  0.747000  0.657900  1
  H  H291  1  0.853100  0.747000  0.157900  1
  H  H292  1  0.353100  0.253000  0.342100  1
  H  H293  1  0.146600  0.333900  0.877600  1
  H  H294  1  0.646600  0.666100  0.622400  1
  H  H295  1  0.853400  0.666100  0.122400  1
  H  H296  1  0.353400  0.333900  0.377600  1
  H  H297  1  0.177700  0.432100  0.863600  1
  H  H298  1  0.677700  0.567900  0.636400  1
  H  H299  1  0.822300  0.567900  0.136400  1
  H  H300  1  0.322300  0.432100  0.363600  1
  H  H301  1  0.207000  0.447700  0.812400  1
  H  H302  1  0.707000  0.552300  0.687600  1
  H  H303  1  0.793000  0.552300  0.187600  1
  H  H304  1  0.293000  0.447700  0.312400  1
  H  H305  1  0.111600  0.828100  0.596300  1
  H  H306  1  0.611600  0.171900  0.903700  1
  H  H307  1  0.888400  0.171900  0.403700  1
  H  H308  1  0.388400  0.828100  0.096300  1
  H  H309  1  0.137900  0.744100  0.624700  1
  H  H310  1  0.637900  0.255900  0.875300  1
  H  H311  1  0.862100  0.255900  0.375300  1
  H  H312  1  0.362100  0.744100  0.124700  1
  H  H313  1  0.240600  0.739100  0.652500  1
  H  H314  1  0.740600  0.260900  0.847500  1
  H  H315  1  0.759400  0.260900  0.347500  1
  H  H316  1  0.259400  0.739100  0.152500  1
  H  H317  1  0.318000  0.817200  0.647800  1
  H  H318  1  0.818000  0.182800  0.852200  1
  H  H319  1  0.682000  0.182800  0.352200  1
  H  H320  1  0.182000  0.817200  0.147800  1
  H  H321  1  0.100800  0.916300  0.562300  1
  H  H322  1  0.600800  0.083700  0.937700  1
  H  H323  1  0.899200  0.083700  0.437700  1
  H  H324  1  0.399200  0.916300  0.062300  1
  H  H325  1  0.129300  0.017200  0.543300  1
  H  H326  1  0.629300  0.982800  0.956700  1
  H  H327  1  0.870700  0.982800  0.456700  1
  H  H328  1  0.370700  0.017200  0.043300  1
  H  H329  1  0.287000  0.075500  0.583600  1
  H  H330  1  0.787000  0.924500  0.916400  1
  H  H331  1  0.713000  0.924500  0.416400  1
  H  H332  1  0.213000  0.075500  0.083600  1
  H  H333  1  0.219900  0.105300  0.569500  1
  H  H334  1  0.719900  0.894700  0.930500  1
  H  H335  1  0.780100  0.894700  0.430500  1
  H  H336  1  0.280100  0.105300  0.069500  1
  H  H337  1  0.464800  0.409300  0.514900  1
  H  H338  1  0.964800  0.590700  0.985100  1
  H  H339  1  0.535200  0.590700  0.485100  1
  H  H340  1  0.035200  0.409300  0.014900  1
  H  H341  1  0.434000  0.502200  0.493600  1
  H  H342  1  0.934000  0.497800  0.006400  1
  H  H343  1  0.566000  0.497800  0.506400  1
  H  H344  1  0.066000  0.502200  0.993600  1
  H  H345  1  0.321700  0.519000  0.480200  1
  H  H346  1  0.821700  0.481000  0.019800  1
  H  H347  1  0.678300  0.481000  0.519800  1
  H  H348  1  0.178300  0.519000  0.980200  1
  H  H349  1  0.238400  0.446100  0.491900  1
  H  H350  1  0.738400  0.553900  0.008100  1
  H  H351  1  0.761600  0.553900  0.508100  1
  H  H352  1  0.261600  0.446100  0.991900  1
  H  H353  1  0.488200  0.310300  0.532600  1
  H  H354  1  0.988200  0.689700  0.967400  1
  H  H355  1  0.511800  0.689700  0.467400  1
  H  H356  1  0.011800  0.310300  0.032600  1
  H  H357  1  0.463500  0.206600  0.551500  1
  H  H358  1  0.963500  0.793400  0.948500  1
  H  H359  1  0.536500  0.793400  0.448500  1
  H  H360  1  0.036500  0.206600  0.051500  1
  H  H361  1  0.275400  0.189900  0.558600  1
  H  H362  1  0.775400  0.810100  0.941400  1
  H  H363  1  0.724600  0.810100  0.441400  1
  H  H364  1  0.224600  0.189900  0.058600  1
  H  H365  1  0.342000  0.160200  0.572800  1
  H  H366  1  0.842000  0.839800  0.927200  1
  H  H367  1  0.658000  0.839800  0.427200  1
  H  H368  1  0.158000  0.160200  0.072800  1
  H  H369  1  0.263800  0.988000  0.518700  1
  H  H370  1  0.763800  0.012000  0.981300  1
  H  H371  1  0.736200  0.012000  0.481300  1
  H  H372  1  0.236200  0.988000  0.018700  1
  H  H373  1  0.377200  0.167300  0.495600  1
  H  H374  1  0.877200  0.832700  0.004400  1
  H  H375  1  0.622800  0.832700  0.504400  1
  H  H376  1  0.122800  0.167300  0.995600  1
  H  H377  1  0.399000  0.124200  0.441300  1
  H  H378  1  0.899000  0.875800  0.058700  1
  H  H379  1  0.601000  0.875800  0.558700  1
  H  H380  1  0.101000  0.124200  0.941300  1
  H  H381  1  0.381800  0.047000  0.404100  1
  H  H382  1  0.881800  0.953000  0.095900  1
  H  H383  1  0.618200  0.953000  0.595900  1
  H  H384  1  0.118200  0.047000  0.904100  1
  H  H385  1  0.332900  0.956900  0.416000  1
  H  H386  1  0.832900  0.043100  0.084000  1
  H  H387  1  0.667100  0.043100  0.584000  1
  H  H388  1  0.167100  0.956900  0.916000  1
  H  H389  1  0.292300  0.941800  0.466100  1
  H  H390  1  0.792300  0.058200  0.033900  1
  H  H391  1  0.707700  0.058200  0.533900  1
  H  H392  1  0.207700  0.941800  0.966100  1
  H  H393  1  0.509500  0.944400  0.706000  1
  H  H394  1  0.009500  0.055600  0.794000  1
  H  H395  1  0.490500  0.055600  0.294000  1
  H  H396  1  0.990500  0.944400  0.206000  1
  H  H397  1  0.603700  0.892000  0.680900  1
  H  H398  1  0.103700  0.108000  0.819100  1
  H  H399  1  0.396300  0.108000  0.319100  1
  H  H400  1  0.896300  0.892000  0.180900  1
  H  H401  1  0.586900  0.850100  0.630600  1
  H  H402  1  0.086900  0.149900  0.869400  1
  H  H403  1  0.413100  0.149900  0.369400  1
  H  H404  1  0.913100  0.850100  0.130600  1
  H  H405  1  0.484700  0.863100  0.606400  1
  H  H406  1  0.984700  0.136900  0.893600  1
  H  H407  1  0.515300  0.136900  0.393600  1
  H  H408  1  0.015300  0.863100  0.106400  1
  H  H409  1  0.396800  0.965000  0.732800  1
  H  H410  1  0.896800  0.035000  0.767200  1
  H  H411  1  0.603200  0.035000  0.267200  1
  H  H412  1  0.103200  0.965000  0.232800  1
  H  H413  1  0.283800  0.014300  0.733900  1
  H  H414  1  0.783800  0.985700  0.766100  1
  H  H415  1  0.716200  0.985700  0.266100  1
  H  H416  1  0.216200  0.014300  0.233900  1
  H  H417  1  0.234900  0.047500  0.654000  1
  H  H418  1  0.734900  0.952500  0.846000  1
  H  H419  1  0.765100  0.952500  0.346000  1
  H  H420  1  0.265100  0.047500  0.154000  1
  H  H421  1  0.210100  0.064100  0.688700  1
  H  H422  1  0.710100  0.935900  0.811300  1
  H  H423  1  0.789900  0.935900  0.311300  1
  H  H424  1  0.289900  0.064100  0.188700  1
  H  H425  1  0.844300  0.192400  0.603800  1
  H  H426  1  0.344300  0.807600  0.896200  1
  H  H427  1  0.155700  0.807600  0.396200  1
  H  H428  1  0.655700  0.192400  0.103800  1
  H  H429  1  0.765700  0.264200  0.627700  1
  H  H430  1  0.265700  0.735800  0.872300  1
  H  H431  1  0.234300  0.735800  0.372300  1
  H  H432  1  0.734300  0.264200  0.127700  1
  H  H433  1  0.782600  0.295500  0.678400  1
  H  H434  1  0.282600  0.704500  0.821600  1
  H  H435  1  0.217400  0.704500  0.321600  1
  H  H436  1  0.717400  0.295500  0.178400  1
  H  H437  1  0.870900  0.256000  0.707100  1
  H  H438  1  0.370900  0.744000  0.792900  1
  H  H439  1  0.129100  0.744000  0.292900  1
  H  H440  1  0.629100  0.256000  0.207100  1
  H  H441  1  0.923900  0.111800  0.584900  1
  H  H442  1  0.423900  0.888200  0.915100  1
  H  H443  1  0.076100  0.888200  0.415100  1
  H  H444  1  0.576100  0.111800  0.084900  1
  H  H445  1  0.030000  0.052200  0.585700  1
  H  H446  1  0.530000  0.947800  0.914300  1
  H  H447  1  0.970000  0.947800  0.414300  1
  H  H448  1  0.470000  0.052200  0.085700  1
  H  H449  1  0.130300  0.097100  0.655900  1
  H  H450  1  0.630300  0.902900  0.844100  1
  H  H451  1  0.869700  0.902900  0.344100  1
  H  H452  1  0.369700  0.097100  0.155900  1
  H  H453  1  0.144400  0.067100  0.622000  1
  H  H454  1  0.644400  0.932900  0.878000  1
  H  H455  1  0.855600  0.932900  0.378000  1
  H  H456  1  0.355600  0.067100  0.122000  1
  H  H457  1  0.204600  0.918000  0.693400  1
  H  H458  1  0.704600  0.082000  0.806600  1
  H  H459  1  0.795400  0.082000  0.306600  1
  H  H460  1  0.295400  0.918000  0.193400  1
  H  H461  1  0.017700  0.980400  0.635000  1
  H  H462  1  0.517700  0.019600  0.865000  1
  H  H463  1  0.982300  0.019600  0.365000  1
  H  H464  1  0.482300  0.980400  0.135000  1
  H  H465  1  0.961400  0.880100  0.641000  1
  H  H466  1  0.461400  0.119900  0.859000  1
  H  H467  1  0.038600  0.119900  0.359000  1
  H  H468  1  0.538600  0.880100  0.141000  1
  H  H469  1  0.960500  0.786900  0.662900  1
  H  H470  1  0.460500  0.213100  0.837100  1
  H  H471  1  0.039500  0.213100  0.337100  1
  H  H472  1  0.539500  0.786900  0.162900  1
  H  H473  1  0.048800  0.757600  0.695400  1
  H  H474  1  0.548800  0.242400  0.804600  1
  H  H475  1  0.951200  0.242400  0.304600  1
  H  H476  1  0.451200  0.757600  0.195400  1
  H  H477  1  0.144200  0.819700  0.702700  1
  H  H478  1  0.644200  0.180300  0.797300  1
  H  H479  1  0.855800  0.180300  0.297300  1
  H  H480  1  0.355800  0.819700  0.202700  1
  H  H481  1  0.179500  0.126600  0.445400  1
  H  H482  1  0.679500  0.873400  0.054600  1
  H  H483  1  0.820500  0.873400  0.554600  1
  H  H484  1  0.320500  0.126600  0.945400  1
  H  H485  1  0.250500  0.152200  0.405200  1
  H  H486  1  0.750500  0.847800  0.094800  1
  H  H487  1  0.749500  0.847800  0.594800  1
  H  H488  1  0.249500  0.152200  0.905200  1
  H  H489  1  0.308200  0.246200  0.408400  1
  H  H490  1  0.808200  0.753800  0.091600  1
  H  H491  1  0.691800  0.753800  0.591600  1
  H  H492  1  0.191800  0.246200  0.908400  1
  H  H493  1  0.295100  0.309700  0.452700  1
  H  H494  1  0.795100  0.690300  0.047300  1
  H  H495  1  0.704900  0.690300  0.547300  1
  H  H496  1  0.204900  0.309700  0.952700  1
  H  H497  1  0.098600  0.109800  0.488100  1
  H  H498  1  0.598600  0.890200  0.011900  1
  H  H499  1  0.901400  0.890200  0.511900  1
  H  H500  1  0.401400  0.109800  0.988100  1
  H  H501  1  0.054100  0.123400  0.541200  1
  H  H502  1  0.554100  0.876600  0.958800  1
  H  H503  1  0.945900  0.876600  0.458800  1
  H  H504  1  0.445900  0.123400  0.041200  1
  H  H505  1  0.140700  0.253200  0.581100  1
  H  H506  1  0.640700  0.746800  0.918900  1
  H  H507  1  0.859300  0.746800  0.418900  1
  H  H508  1  0.359300  0.253200  0.081100  1
  H  H509  1  0.100100  0.194200  0.590700  1
  H  H510  1  0.600100  0.805800  0.909300  1
  H  H511  1  0.899900  0.805800  0.409300  1
  H  H512  1  0.399900  0.194200  0.090700  1
  H  H513  1  0.029100  0.377500  0.768200  1
  H  H514  1  0.529100  0.622500  0.731800  1
  H  H515  1  0.970900  0.622500  0.231800  1
  H  H516  1  0.470900  0.377500  0.268200  1
  H  H517  1  0.008400  0.335400  0.816300  1
  H  H518  1  0.508400  0.664600  0.683700  1
  H  H519  1  0.991600  0.664600  0.183700  1
  H  H520  1  0.491600  0.335400  0.316300  1
  H  H521  1  0.987400  0.229700  0.817900  1
  H  H522  1  0.487400  0.770300  0.682100  1
  H  H523  1  0.012600  0.770300  0.182100  1
  H  H524  1  0.512600  0.229700  0.317900  1
  H  H525  1  0.985100  0.173200  0.771400  1
  H  H526  1  0.485100  0.826800  0.728600  1
  H  H527  1  0.014900  0.826800  0.228600  1
  H  H528  1  0.514900  0.173200  0.271400  1
  H  H529  1  0.036700  0.416500  0.715900  1
  H  H530  1  0.536700  0.583500  0.784100  1
  H  H531  1  0.963300  0.583500  0.284100  1
  H  H532  1  0.463300  0.416500  0.215900  1
  H  H533  1  0.061300  0.409600  0.658800  1
  H  H534  1  0.561300  0.590400  0.841200  1
  H  H535  1  0.938700  0.590400  0.341200  1
  H  H536  1  0.438700  0.409600  0.158800  1
  H  H537  1  0.088500  0.245900  0.635400  1
  H  H538  1  0.588500  0.754100  0.864600  1
  H  H539  1  0.911500  0.754100  0.364600  1
  H  H540  1  0.411500  0.245900  0.135400  1
  H  H541  1  0.119100  0.309500  0.625900  1
  H  H542  1  0.619100  0.690500  0.874100  1
  H  H543  1  0.880900  0.690500  0.374100  1
  H  H544  1  0.380900  0.309500  0.125900  1
  H  H545  1  0.999900  0.246400  0.535800  1
  H  H546  1  0.499900  0.753600  0.964200  1
  H  H547  1  0.000100  0.753600  0.464200  1
  H  H548  1  0.500100  0.246400  0.035800  1
  H  H549  1  0.954900  0.343300  0.632700  1
  H  H550  1  0.454900  0.656700  0.867300  1
  H  H551  1  0.045100  0.656700  0.367300  1
  H  H552  1  0.545100  0.343300  0.132700  1
  H  H553  1  0.844400  0.384900  0.612400  1
  H  H554  1  0.344400  0.615100  0.887600  1
  H  H555  1  0.155600  0.615100  0.387600  1
  H  H556  1  0.655600  0.384900  0.112400  1
  H  H557  1  0.768600  0.388600  0.572200  1
  H  H558  1  0.268600  0.611400  0.927800  1
  H  H559  1  0.231400  0.611400  0.427800  1
  H  H560  1  0.731400  0.388600  0.072200  1
  H  H561  1  0.790700  0.342100  0.523400  1
  H  H562  1  0.290700  0.657900  0.976600  1
  H  H563  1  0.209300  0.657900  0.476600  1
  H  H564  1  0.709300  0.342100  0.023400  1
  H  H565  1  0.887600  0.287100  0.515100  1
  H  H566  1  0.387600  0.712900  0.984900  1
  H  H567  1  0.112400  0.712900  0.484900  1
  H  H568  1  0.612400  0.287100  0.015100  1
  H  H569  1  0.798000  0.468100  0.453800  1
  H  H570  1  0.298000  0.531900  0.046200  1
  H  H571  1  0.202000  0.531900  0.546200  1
  H  H572  1  0.702000  0.468100  0.953800  1
  H  H573  1  0.841900  0.469100  0.485100  1
  H  H574  1  0.341900  0.530900  0.014900  1
  H  H575  1  0.158100  0.530900  0.514900  1
  H  H576  1  0.658100  0.469100  0.985100  1
  H  H577  1  0.774200  0.428500  0.482000  1
  H  H578  1  0.274200  0.571500  0.018000  1
  H  H579  1  0.225800  0.571500  0.518000  1
  H  H580  1  0.725800  0.428500  0.982000  1
  H  H581  1  0.896400  0.521000  0.625800  1
  H  H582  1  0.396400  0.479000  0.874200  1
  H  H583  1  0.103600  0.479000  0.374200  1
  H  H584  1  0.603600  0.521000  0.125800  1
  H  H585  1  0.977400  0.525400  0.630000  1
  H  H586  1  0.477400  0.474600  0.870000  1
  H  H587  1  0.022600  0.474600  0.370000  1
  H  H588  1  0.522600  0.525400  0.130000  1
  H  H589  1  0.943000  0.462600  0.618100  1
  H  H590  1  0.443000  0.537400  0.881900  1
  H  H591  1  0.057000  0.537400  0.381900  1
  H  H592  1  0.557000  0.462600  0.118100  1
  H  H593  1  0.858500  0.963100  0.578600  1
  H  H594  1  0.358500  0.036900  0.921400  1
  H  H595  1  0.141500  0.036900  0.421400  1
  H  H596  1  0.641500  0.963100  0.078600  1
  H  H597  1  0.914900  0.981900  0.604200  1
  H  H598  1  0.414900  0.018100  0.895800  1
  H  H599  1  0.085100  0.018100  0.395800  1
  H  H600  1  0.585100  0.981900  0.104200  1
  H  H601  1  0.885900  0.913900  0.601700  1
  H  H602  1  0.385900  0.086100  0.898300  1
  H  H603  1  0.114100  0.086100  0.398300  1
  H  H604  1  0.614100  0.913900  0.101700  1
  H  H605  1  0.330000  0.653200  0.483100  1
  H  H606  1  0.830000  0.346800  0.016900  1
  H  H607  1  0.670000  0.346800  0.516900  1
  H  H608  1  0.170000  0.653200  0.983100  1
  H  H609  1  0.396000  0.693800  0.491100  1
  H  H610  1  0.896000  0.306200  0.008900  1
  H  H611  1  0.604000  0.306200  0.508900  1
  H  H612  1  0.104000  0.693800  0.991100  1
  H  H613  1  0.376000  0.639400  0.512700  1
  H  H614  1  0.876000  0.360600  0.987300  1
  H  H615  1  0.624000  0.360600  0.487300  1
  H  H616  1  0.124000  0.639400  0.012700  1
  H  H617  1  0.493500  0.648300  0.633600  1
  H  H618  1  0.993500  0.351700  0.866400  1
  H  H619  1  0.506500  0.351700  0.366400  1
  H  H620  1  0.006500  0.648300  0.133600  1
  H  H621  1  0.503500  0.715700  0.648400  1
  H  H622  1  0.003500  0.284300  0.851600  1
  H  H623  1  0.496500  0.284300  0.351600  1
  H  H624  1  0.996500  0.715700  0.148400  1
  H  H625  1  0.513800  0.702200  0.611900  1
  H  H626  1  0.013800  0.297800  0.888100  1
  H  H627  1  0.486200  0.297800  0.388100  1
  H  H628  1  0.986200  0.702200  0.111900  1
  H  H629  1  0.272700  0.674200  0.579700  1
  H  H630  1  0.772700  0.325800  0.920300  1
  H  H631  1  0.727300  0.325800  0.420300  1
  H  H632  1  0.227300  0.674200  0.079700  1
  H  H633  1  0.292000  0.742200  0.571700  1
  H  H634  1  0.792000  0.257800  0.928300  1
  H  H635  1  0.708000  0.257800  0.428300  1
  H  H636  1  0.208000  0.742200  0.071700  1
  H  H637  1  0.328700  0.686100  0.553600  1
  H  H638  1  0.828700  0.313900  0.946400  1
  H  H639  1  0.671300  0.313900  0.446400  1
  H  H640  1  0.171300  0.686100  0.053600  1
  H  H641  1  0.980200  0.771100  0.530500  1
  H  H642  1  0.480200  0.228900  0.969500  1
  H  H643  1  0.019800  0.228900  0.469500  1
  H  H644  1  0.519800  0.771100  0.030500  1
  H  H645  1  0.048900  0.750400  0.547000  1
  H  H646  1  0.548900  0.249600  0.953000  1
  H  H647  1  0.951100  0.249600  0.453000  1
  H  H648  1  0.451100  0.750400  0.047000  1
  H  H649  1  0.047800  0.811500  0.528500  1
  H  H650  1  0.547800  0.188500  0.971500  1
  H  H651  1  0.952200  0.188500  0.471500  1
  H  H652  1  0.452200  0.811500  0.028500  1
  H  H653  1  0.200800  0.627600  0.610500  1
  H  H654  1  0.700800  0.372400  0.889500  1
  H  H655  1  0.799200  0.372400  0.389500  1
  H  H656  1  0.299200  0.627600  0.110500  1
  H  H657  1  0.183400  0.610000  0.645200  1
  H  H658  1  0.683400  0.390000  0.854800  1
  H  H659  1  0.816600  0.390000  0.354800  1
  H  H660  1  0.316600  0.610000  0.145200  1
  H  H661  1  0.206700  0.558500  0.619900  1
  H  H662  1  0.706700  0.441500  0.880100  1
  H  H663  1  0.793300  0.441500  0.380100  1
  H  H664  1  0.293300  0.558500  0.119900  1
  H  H665  1  0.333333  0.638300  0.768600  1
  H  H666  1  0.833333  0.361700  0.731400  1
  H  H667  1  0.666667  0.361700  0.231400  1
  H  H668  1  0.166667  0.638300  0.268600  1
  H  H669  1  0.401400  0.601700  0.776200  1
  H  H670  1  0.901400  0.398300  0.723800  1
  H  H671  1  0.598600  0.398300  0.223800  1
  H  H672  1  0.098600  0.601700  0.276200  1
  H  H673  1  0.328700  0.576600  0.786600  1
  H  H674  1  0.828700  0.423400  0.713400  1
  H  H675  1  0.671300  0.423400  0.213400  1
  H  H676  1  0.171300  0.576600  0.286600  1
  C  C677  1  0.380900  0.315100  0.778500  1
  C  C678  1  0.880900  0.684900  0.721500  1
  C  C679  1  0.619100  0.684900  0.221500  1
  C  C680  1  0.119100  0.315100  0.278500  1
  C  C681  1  0.361500  0.320800  0.809500  1
  C  C682  1  0.861500  0.679200  0.690500  1
  C  C683  1  0.638500  0.679200  0.190500  1
  C  C684  1  0.138500  0.320800  0.309500  1
  C  C685  1  0.359100  0.378300  0.823900  1
  C  C686  1  0.859100  0.621700  0.676100  1
  C  C687  1  0.640900  0.621700  0.176100  1
  C  C688  1  0.140900  0.378300  0.323900  1
  C  C689  1  0.374700  0.428400  0.806800  1
  C  C690  1  0.874700  0.571600  0.693200  1
  C  C691  1  0.625300  0.571600  0.193200  1
  C  C692  1  0.125300  0.428400  0.306800  1
  C  C693  1  0.395400  0.419400  0.776000  1
  C  C694  1  0.895400  0.580600  0.724000  1
  C  C695  1  0.604600  0.580600  0.224000  1
  C  C696  1  0.104600  0.419400  0.276000  1
  C  C697  1  0.383100  0.255600  0.761400  1
  C  C698  1  0.883100  0.744400  0.738600  1
  C  C699  1  0.616900  0.744400  0.238600  1
  C  C700  1  0.116900  0.255600  0.261400  1
  C  C701  1  0.368600  0.198900  0.771800  1
  C  C702  1  0.868600  0.801100  0.728200  1
  C  C703  1  0.631400  0.801100  0.228200  1
  C  C704  1  0.131400  0.198900  0.271800  1
  C  C705  1  0.376000  0.158600  0.746800  1
  C  C706  1  0.876000  0.841400  0.753200  1
  C  C707  1  0.624000  0.841400  0.253200  1
  C  C708  1  0.124000  0.158600  0.246800  1
  C  C709  1  0.406800  0.169800  0.690500  1
  C  C710  1  0.906800  0.830200  0.809500  1
  C  C711  1  0.593200  0.830200  0.309500  1
  C  C712  1  0.093200  0.169800  0.190500  1
  C  C713  1  0.429700  0.943700  0.552100  1
  C  C714  1  0.929700  0.056300  0.947900  1
  C  C715  1  0.570300  0.056300  0.447900  1
  C  C716  1  0.070300  0.943700  0.052100  1
  C  C717  1  0.459000  0.925700  0.524000  1
  C  C718  1  0.959000  0.074300  0.976000  1
  C  C719  1  0.541000  0.074300  0.476000  1
  C  C720  1  0.041000  0.925700  0.024000  1
  C  C721  1  0.443600  0.870200  0.510600  1
  C  C722  1  0.943600  0.129800  0.989400  1
  C  C723  1  0.556400  0.129800  0.489400  1
  C  C724  1  0.056400  0.870200  0.010600  1
  C  C725  1  0.396700  0.834800  0.524800  1
  C  C726  1  0.896700  0.165200  0.975200  1
  C  C727  1  0.603300  0.165200  0.475200  1
  C  C728  1  0.103300  0.834800  0.024800  1
  C  C729  1  0.369900  0.854700  0.552000  1
  C  C730  1  0.869900  0.145300  0.948000  1
  C  C731  1  0.630100  0.145300  0.448000  1
  C  C732  1  0.130100  0.854700  0.052000  1
  C  C733  1  0.446600  0.003200  0.567700  1
  C  C734  1  0.946600  0.996800  0.932300  1
  C  C735  1  0.553400  0.996800  0.432300  1
  C  C736  1  0.053400  0.003200  0.067700  1
  C  C737  1  0.494700  0.045900  0.560000  1
  C  C738  1  0.994700  0.954100  0.940000  1
  C  C739  1  0.505300  0.954100  0.440000  1
  C  C740  1  0.005300  0.045900  0.060000  1
  C  C741  1  0.492300  0.089200  0.582900  1
  C  C742  1  0.992300  0.910800  0.917100  1
  C  C743  1  0.507700  0.910800  0.417100  1
  C  C744  1  0.007700  0.089200  0.082900  1
  C  C745  1  0.426100  0.104100  0.633200  1
  C  C746  1  0.926100  0.895900  0.866800  1
  C  C747  1  0.573900  0.895900  0.366800  1
  C  C748  1  0.073900  0.104100  0.133200  1
  C  C749  1  0.524600  0.138300  0.707500  1
  C  C750  1  0.024600  0.861700  0.792500  1
  C  C751  1  0.475400  0.861700  0.292500  1
  C  C752  1  0.975400  0.138300  0.207500  1
  C  C753  1  0.472300  0.136100  0.686500  1
  C  C754  1  0.972300  0.863900  0.813500  1
  C  C755  1  0.527700  0.863900  0.313500  1
  C  C756  1  0.027700  0.136100  0.186500  1
  C  C757  1  0.482100  0.101900  0.657500  1
  C  C758  1  0.982100  0.898100  0.842500  1
  C  C759  1  0.517900  0.898100  0.342500  1
  C  C760  1  0.017900  0.101900  0.157500  1
  C  C761  1  0.541400  0.070400  0.651800  1
  C  C762  1  0.041400  0.929600  0.848200  1
  C  C763  1  0.458600  0.929600  0.348200  1
  C  C764  1  0.958600  0.070400  0.151800  1
  C  C765  1  0.595700  0.071800  0.673600  1
  C  C766  1  0.095700  0.928200  0.826400  1
  C  C767  1  0.404300  0.928200  0.326400  1
  C  C768  1  0.904300  0.071800  0.173600  1
  C  C769  1  0.587200  0.107100  0.701900  1
  C  C770  1  0.087200  0.892900  0.798100  1
  C  C771  1  0.412800  0.892900  0.298100  1
  C  C772  1  0.912800  0.107100  0.201900  1
  C  C773  1  0.658100  0.042000  0.667800  1
  C  C774  1  0.158100  0.958000  0.832200  1
  C  C775  1  0.341900  0.958000  0.332200  1
  C  C776  1  0.841900  0.042000  0.167800  1
  C  C777  1  0.710900  0.047500  0.688500  1
  C  C778  1  0.210900  0.952500  0.811500  1
  C  C779  1  0.289100  0.952500  0.311500  1
  C  C780  1  0.789100  0.047500  0.188500  1
  C  C781  1  0.702000  0.083100  0.716400  1
  C  C782  1  0.202000  0.916900  0.783600  1
  C  C783  1  0.298000  0.916900  0.283600  1
  C  C784  1  0.798000  0.083100  0.216400  1
  C  C785  1  0.643200  0.111800  0.723100  1
  C  C786  1  0.143200  0.888200  0.776900  1
  C  C787  1  0.356800  0.888200  0.276900  1
  C  C788  1  0.856800  0.111800  0.223100  1
  C  C789  1  0.581400  0.290100  0.701200  1
  C  C790  1  0.081400  0.709900  0.798800  1
  C  C791  1  0.418600  0.709900  0.298800  1
  C  C792  1  0.918600  0.290100  0.201200  1
  C  C793  1  0.645100  0.265700  0.707100  1
  C  C794  1  0.145100  0.734300  0.792900  1
  C  C795  1  0.354900  0.734300  0.292900  1
  C  C796  1  0.854900  0.265700  0.207100  1
  C  C797  1  0.674300  0.276800  0.735900  1
  C  C798  1  0.174300  0.723200  0.764100  1
  C  C799  1  0.325700  0.723200  0.264100  1
  C  C800  1  0.825700  0.276800  0.235900  1
  C  C801  1  0.639100  0.309900  0.758300  1
  C  C802  1  0.139100  0.690100  0.741700  1
  C  C803  1  0.360900  0.690100  0.241700  1
  C  C804  1  0.860900  0.309900  0.258300  1
  C  C805  1  0.576600  0.332700  0.751100  1
  C  C806  1  0.076600  0.667300  0.748900  1
  C  C807  1  0.423400  0.667300  0.248900  1
  C  C808  1  0.923400  0.332700  0.251100  1
  C  C809  1  0.548000  0.282000  0.671200  1
  C  C810  1  0.048000  0.718000  0.828800  1
  C  C811  1  0.452000  0.718000  0.328800  1
  C  C812  1  0.952000  0.282000  0.171200  1
  C  C813  1  0.573900  0.258000  0.642700  1
  C  C814  1  0.073900  0.742000  0.857300  1
  C  C815  1  0.426100  0.742000  0.357300  1
  C  C816  1  0.926100  0.258000  0.142700  1
  C  C817  1  0.521900  0.264200  0.621800  1
  C  C818  1  0.021900  0.735800  0.878200  1
  C  C819  1  0.478100  0.735800  0.378200  1
  C  C820  1  0.978100  0.264200  0.121800  1
  C  C821  1  0.404300  0.309700  0.624100  1
  C  C822  1  0.904300  0.690300  0.875900  1
  C  C823  1  0.595700  0.690300  0.375900  1
  C  C824  1  0.095700  0.309700  0.124100  1
  C  C825  1  0.094300  0.398000  0.537000  1
  C  C826  1  0.594300  0.602000  0.963000  1
  C  C827  1  0.905700  0.602000  0.463000  1
  C  C828  1  0.405700  0.398000  0.037000  1
  C  C829  1  0.028700  0.424700  0.535900  1
  C  C830  1  0.528700  0.575300  0.964100  1
  C  C831  1  0.971300  0.575300  0.464100  1
  C  C832  1  0.471300  0.424700  0.035900  1
  C  C833  1  0.992500  0.415000  0.506600  1
  C  C834  1  0.492500  0.585000  0.993400  1
  C  C835  1  0.007500  0.585000  0.493400  1
  C  C836  1  0.507500  0.415000  0.006600  1
  C  C837  1  0.022200  0.382800  0.482200  1
  C  C838  1  0.522200  0.617200  0.017800  1
  C  C839  1  0.977800  0.617200  0.517800  1
  C  C840  1  0.477800  0.382800  0.982200  1
  C  C841  1  0.087300  0.358800  0.486200  1
  C  C842  1  0.587300  0.641200  0.013800  1
  C  C843  1  0.912700  0.641200  0.513800  1
  C  C844  1  0.412700  0.358800  0.986200  1
  C  C845  1  0.132400  0.404500  0.566100  1
  C  C846  1  0.632400  0.595500  0.933900  1
  C  C847  1  0.867600  0.595500  0.433900  1
  C  C848  1  0.367600  0.404500  0.066100  1
  C  C849  1  0.124100  0.441900  0.592000  1
  C  C850  1  0.624100  0.558100  0.908000  1
  C  C851  1  0.875900  0.558100  0.408000  1
  C  C852  1  0.375900  0.441900  0.092000  1
  C  C853  1  0.176600  0.430600  0.611200  1
  C  C854  1  0.676600  0.569400  0.888800  1
  C  C855  1  0.823400  0.569400  0.388800  1
  C  C856  1  0.323400  0.430600  0.111200  1
  C  C857  1  0.277900  0.361600  0.608200  1
  C  C858  1  0.777900  0.638400  0.891800  1
  C  C859  1  0.722100  0.638400  0.391800  1
  C  C860  1  0.222100  0.361600  0.108200  1
  C  C861  1  0.463500  0.402900  0.605800  1
  C  C862  1  0.963500  0.597100  0.894200  1
  C  C863  1  0.536500  0.597100  0.394200  1
  C  C864  1  0.036500  0.402900  0.105800  1
  C  C865  1  0.404600  0.370600  0.610700  1
  C  C866  1  0.904600  0.629400  0.889300  1
  C  C867  1  0.595400  0.629400  0.389300  1
  C  C868  1  0.095400  0.370600  0.110700  1
  C  C869  1  0.341100  0.396400  0.602600  1
  C  C870  1  0.841100  0.603600  0.897400  1
  C  C871  1  0.658900  0.603600  0.397400  1
  C  C872  1  0.158900  0.396400  0.102600  1
  C  C873  1  0.338700  0.452000  0.589200  1
  C  C874  1  0.838700  0.548000  0.910800  1
  C  C875  1  0.661300  0.548000  0.410800  1
  C  C876  1  0.161300  0.452000  0.089200  1
  C  C877  1  0.399700  0.485900  0.584500  1
  C  C878  1  0.899700  0.514100  0.915500  1
  C  C879  1  0.600300  0.514100  0.415500  1
  C  C880  1  0.100300  0.485900  0.084500  1
  C  C881  1  0.463400  0.459700  0.592000  1
  C  C882  1  0.963400  0.540300  0.908000  1
  C  C883  1  0.536600  0.540300  0.408000  1
  C  C884  1  0.036600  0.459700  0.092000  1
  C  C885  1  0.399400  0.543100  0.571600  1
  C  C886  1  0.899400  0.456900  0.928400  1
  C  C887  1  0.600600  0.456900  0.428400  1
  C  C888  1  0.100600  0.543100  0.071600  1
  C  C889  1  0.459000  0.574500  0.566900  1
  C  C890  1  0.959000  0.425500  0.933100  1
  C  C891  1  0.541000  0.425500  0.433100  1
  C  C892  1  0.041000  0.574500  0.066900  1
  C  C893  1  0.522100  0.548800  0.575400  1
  C  C894  1  0.022100  0.451200  0.924600  1
  C  C895  1  0.477900  0.451200  0.424600  1
  C  C896  1  0.977900  0.548800  0.075400  1
  C  C897  1  0.523300  0.493800  0.586700  1
  C  C898  1  0.023300  0.506200  0.913300  1
  C  C899  1  0.476700  0.506200  0.413300  1
  C  C900  1  0.976700  0.493800  0.086700  1
  C  C901  1  0.402200  0.474600  0.681900  1
  C  C902  1  0.902200  0.525400  0.818100  1
  C  C903  1  0.597800  0.525400  0.318100  1
  C  C904  1  0.097800  0.474600  0.181900  1
  C  C905  1  0.411900  0.525600  0.664900  1
  C  C906  1  0.911900  0.474400  0.835100  1
  C  C907  1  0.588100  0.474400  0.335100  1
  C  C908  1  0.088100  0.525600  0.164900  1
  C  C909  1  0.478400  0.544000  0.659100  1
  C  C910  1  0.978400  0.456000  0.840900  1
  C  C911  1  0.521600  0.456000  0.340900  1
  C  C912  1  0.021600  0.544000  0.159100  1
  C  C913  1  0.532000  0.512200  0.670200  1
  C  C914  1  0.032000  0.487800  0.829800  1
  C  C915  1  0.468000  0.487800  0.329800  1
  C  C916  1  0.968000  0.512200  0.170200  1
  C  C917  1  0.518000  0.460900  0.686800  1
  C  C918  1  0.018000  0.539100  0.813200  1
  C  C919  1  0.482000  0.539100  0.313200  1
  C  C920  1  0.982000  0.460900  0.186800  1
  C  C921  1  0.225500  0.435600  0.694900  1
  C  C922  1  0.725500  0.564400  0.805100  1
  C  C923  1  0.774500  0.564400  0.305100  1
  C  C924  1  0.274500  0.435600  0.194900  1
  C  C925  1  0.271100  0.478200  0.687400  1
  C  C926  1  0.771100  0.521800  0.812600  1
  C  C927  1  0.728900  0.521800  0.312600  1
  C  C928  1  0.228900  0.478200  0.187400  1
  C  C929  1  0.333200  0.449500  0.687900  1
  C  C930  1  0.833200  0.550500  0.812100  1
  C  C931  1  0.666800  0.550500  0.312100  1
  C  C932  1  0.166800  0.449500  0.187900  1
  C  C933  1  0.231600  0.326300  0.708900  1
  C  C934  1  0.731600  0.673700  0.791100  1
  C  C935  1  0.768400  0.673700  0.291100  1
  C  C936  1  0.268400  0.326300  0.208900  1
  C  C937  1  0.030500  0.048500  0.724700  1
  C  C938  1  0.530500  0.951500  0.775300  1
  C  C939  1  0.969500  0.951500  0.275300  1
  C  C940  1  0.469500  0.048500  0.224700  1
  C  C941  1  0.022700  0.987900  0.728700  1
  C  C942  1  0.522700  0.012100  0.771300  1
  C  C943  1  0.977300  0.012100  0.271300  1
  C  C944  1  0.477300  0.987900  0.228700  1
  C  C945  1  0.964200  0.959400  0.717000  1
  C  C946  1  0.464200  0.040600  0.783000  1
  C  C947  1  0.035800  0.040600  0.283000  1
  C  C948  1  0.535800  0.959400  0.217000  1
  C  C949  1  0.914600  0.993000  0.702600  1
  C  C950  1  0.414600  0.007000  0.797400  1
  C  C951  1  0.085400  0.007000  0.297400  1
  C  C952  1  0.585400  0.993000  0.202600  1
  C  C953  1  0.926500  0.053600  0.700500  1
  C  C954  1  0.426500  0.946400  0.799500  1
  C  C955  1  0.073500  0.946400  0.299500  1
  C  C956  1  0.573500  0.053600  0.200500  1
  C  C957  1  0.093900  0.081600  0.733800  1
  C  C958  1  0.593900  0.918400  0.766200  1
  C  C959  1  0.906100  0.918400  0.266200  1
  C  C960  1  0.406100  0.081600  0.233800  1
  C  C961  1  0.144100  0.065400  0.754600  1
  C  C962  1  0.644100  0.934600  0.745400  1
  C  C963  1  0.855900  0.934600  0.245400  1
  C  C964  1  0.355900  0.065400  0.254600  1
  C  C965  1  0.189300  0.112900  0.755100  1
  C  C966  1  0.689300  0.887100  0.744900  1
  C  C967  1  0.810700  0.887100  0.244900  1
  C  C968  1  0.310700  0.112900  0.255100  1
  C  C969  1  0.197800  0.211400  0.726700  1
  C  C970  1  0.697800  0.788600  0.773300  1
  C  C971  1  0.802200  0.788600  0.273300  1
  C  C972  1  0.302200  0.211400  0.226700  1
  C  C973  1  0.213200  0.367900  0.763800  1
  C  C974  1  0.713200  0.632100  0.736200  1
  C  C975  1  0.786800  0.632100  0.236200  1
  C  C976  1  0.286800  0.367900  0.263800  1
  C  C977  1  0.214700  0.320400  0.742400  1
  C  C978  1  0.714700  0.679600  0.757600  1
  C  C979  1  0.785300  0.679600  0.257600  1
  C  C980  1  0.285300  0.320400  0.242400  1
  C  C981  1  0.195600  0.260700  0.751800  1
  C  C982  1  0.695600  0.739300  0.748200  1
  C  C983  1  0.804400  0.739300  0.248200  1
  C  C984  1  0.304400  0.260700  0.251800  1
  C  C985  1  0.177300  0.252100  0.781700  1
  C  C986  1  0.677300  0.747900  0.718300  1
  C  C987  1  0.822700  0.747900  0.218300  1
  C  C988  1  0.322700  0.252100  0.281700  1
  C  C989  1  0.177700  0.300500  0.804900  1
  C  C990  1  0.677700  0.699500  0.695100  1
  C  C991  1  0.822300  0.699500  0.195100  1
  C  C992  1  0.322300  0.300500  0.304900  1
  C  C993  1  0.196000  0.360200  0.795400  1
  C  C994  1  0.696000  0.639800  0.704600  1
  C  C995  1  0.804000  0.639800  0.204600  1
  C  C996  1  0.304000  0.360200  0.295400  1
  C  C997  1  0.159300  0.292200  0.835800  1
  C  C998  1  0.659300  0.707800  0.664200  1
  C  C999  1  0.840700  0.707800  0.164200  1
  C  C1000  1  0.340700  0.292200  0.335800  1
  C  C1001  1  0.159300  0.340200  0.856700  1
  C  C1002  1  0.659300  0.659800  0.643300  1
  C  C1003  1  0.840700  0.659800  0.143300  1
  C  C1004  1  0.340700  0.340200  0.356700  1
  C  C1005  1  0.177600  0.399200  0.848500  1
  C  C1006  1  0.677600  0.600800  0.651500  1
  C  C1007  1  0.822400  0.600800  0.151500  1
  C  C1008  1  0.322400  0.399200  0.348500  1
  C  C1009  1  0.195100  0.408000  0.818200  1
  C  C1010  1  0.695100  0.592000  0.681800  1
  C  C1011  1  0.804900  0.592000  0.181800  1
  C  C1012  1  0.304900  0.408000  0.318200  1
  C  C1013  1  0.202900  0.871500  0.605400  1
  C  C1014  1  0.702900  0.128500  0.894600  1
  C  C1015  1  0.797100  0.128500  0.394600  1
  C  C1016  1  0.297100  0.871500  0.105400  1
  C  C1017  1  0.154100  0.825600  0.606800  1
  C  C1018  1  0.654100  0.174400  0.893200  1
  C  C1019  1  0.845900  0.174400  0.393200  1
  C  C1020  1  0.345900  0.825600  0.106800  1
  C  C1021  1  0.169800  0.776400  0.624000  1
  C  C1022  1  0.669800  0.223600  0.876000  1
  C  C1023  1  0.830200  0.223600  0.376000  1
  C  C1024  1  0.330200  0.776400  0.124000  1
  C  C1025  1  0.230700  0.772500  0.640100  1
  C  C1026  1  0.730700  0.227500  0.859900  1
  C  C1027  1  0.769300  0.227500  0.359900  1
  C  C1028  1  0.269300  0.772500  0.140100  1
  C  C1029  1  0.275600  0.819200  0.637200  1
  C  C1030  1  0.775600  0.180800  0.862800  1
  C  C1031  1  0.724400  0.180800  0.362800  1
  C  C1032  1  0.224400  0.819200  0.137200  1
  C  C1033  1  0.192100  0.925700  0.588400  1
  C  C1034  1  0.692100  0.074300  0.911600  1
  C  C1035  1  0.807900  0.074300  0.411600  1
  C  C1036  1  0.307900  0.925700  0.088400  1
  C  C1037  1  0.139600  0.940300  0.567800  1
  C  C1038  1  0.639600  0.059700  0.932200  1
  C  C1039  1  0.860400  0.059700  0.432200  1
  C  C1040  1  0.360400  0.940300  0.067800  1
  C  C1041  1  0.155400  0.995200  0.557600  1
  C  C1042  1  0.655400  0.004800  0.942400  1
  C  C1043  1  0.844600  0.004800  0.442400  1
  C  C1044  1  0.344600  0.995200  0.057600  1
  C  C1045  1  0.251900  0.070600  0.567100  1
  C  C1046  1  0.751900  0.929400  0.932900  1
  C  C1047  1  0.748100  0.929400  0.432900  1
  C  C1048  1  0.248100  0.070600  0.067100  1
  C  C1049  1  0.366500  0.376700  0.516500  1
  C  C1050  1  0.866500  0.623300  0.983500  1
  C  C1051  1  0.633500  0.623300  0.483500  1
  C  C1052  1  0.133500  0.376700  0.016500  1
  C  C1053  1  0.418500  0.418100  0.510300  1
  C  C1054  1  0.918500  0.581900  0.989700  1
  C  C1055  1  0.581500  0.581900  0.489700  1
  C  C1056  1  0.081500  0.418100  0.010300  1
  C  C1057  1  0.400200  0.472500  0.497200  1
  C  C1058  1  0.900200  0.527500  0.002800  1
  C  C1059  1  0.599800  0.527500  0.502800  1
  C  C1060  1  0.099800  0.472500  0.997200  1
  C  C1061  1  0.334500  0.482800  0.489800  1
  C  C1062  1  0.834500  0.517200  0.010200  1
  C  C1063  1  0.665500  0.517200  0.510200  1
  C  C1064  1  0.165500  0.482800  0.989800  1
  C  C1065  1  0.285000  0.438600  0.496500  1
  C  C1066  1  0.785000  0.561400  0.003500  1
  C  C1067  1  0.715000  0.561400  0.503500  1
  C  C1068  1  0.215000  0.438600  0.996500  1
  C  C1069  1  0.383400  0.318100  0.529800  1
  C  C1070  1  0.883400  0.681900  0.970200  1
  C  C1071  1  0.616600  0.681900  0.470200  1
  C  C1072  1  0.116600  0.318100  0.029800  1
  C  C1073  1  0.444600  0.292600  0.535300  1
  C  C1074  1  0.944600  0.707400  0.964700  1
  C  C1075  1  0.555400  0.707400  0.464700  1
  C  C1076  1  0.055400  0.292600  0.035300  1
  C  C1077  1  0.431100  0.236000  0.545700  1
  C  C1078  1  0.931100  0.764000  0.954300  1
  C  C1079  1  0.568900  0.764000  0.454300  1
  C  C1080  1  0.068900  0.236000  0.045700  1
  C  C1081  1  0.322700  0.176700  0.553800  1
  C  C1082  1  0.822700  0.823300  0.946200  1
  C  C1083  1  0.677300  0.823300  0.446200  1
  C  C1084  1  0.177300  0.176700  0.053800  1
  C  C1085  1  0.285200  0.024900  0.513700  1
  C  C1086  1  0.785200  0.975100  0.986300  1
  C  C1087  1  0.714800  0.975100  0.486300  1
  C  C1088  1  0.214800  0.024900  0.013700  1
  C  C1089  1  0.286500  0.071700  0.535200  1
  C  C1090  1  0.786500  0.928300  0.964800  1
  C  C1091  1  0.713500  0.928300  0.464800  1
  C  C1092  1  0.213500  0.071700  0.035200  1
  C  C1093  1  0.320400  0.126200  0.528400  1
  C  C1094  1  0.820400  0.873800  0.971600  1
  C  C1095  1  0.679600  0.873800  0.471600  1
  C  C1096  1  0.179600  0.126200  0.028400  1
  C  C1097  1  0.352400  0.131600  0.499800  1
  C  C1098  1  0.852400  0.868400  0.000200  1
  C  C1099  1  0.647600  0.868400  0.500200  1
  C  C1100  1  0.147600  0.131600  0.999800  1
  C  C1101  1  0.347700  0.083300  0.476800  1
  C  C1102  1  0.847700  0.916700  0.023200  1
  C  C1103  1  0.652300  0.916700  0.523200  1
  C  C1104  1  0.152300  0.083300  0.976800  1
  C  C1105  1  0.314700  0.029400  0.483900  1
  C  C1106  1  0.814700  0.970600  0.016100  1
  C  C1107  1  0.685300  0.970600  0.516100  1
  C  C1108  1  0.185300  0.029400  0.983900  1
  C  C1109  1  0.375000  0.088600  0.446400  1
  C  C1110  1  0.875000  0.911400  0.053600  1
  C  C1111  1  0.625000  0.911400  0.553600  1
  C  C1112  1  0.125000  0.088600  0.946400  1
  C  C1113  1  0.366400  0.042100  0.424800  1
  C  C1114  1  0.866400  0.957900  0.075200  1
  C  C1115  1  0.633600  0.957900  0.575200  1
  C  C1116  1  0.133600  0.042100  0.924800  1
  C  C1117  1  0.336500  0.988600  0.431700  1
  C  C1118  1  0.836500  0.011400  0.068300  1
  C  C1119  1  0.663500  0.011400  0.568300  1
  C  C1120  1  0.163500  0.988600  0.931700  1
  C  C1121  1  0.311300  0.979700  0.461100  1
  C  C1122  1  0.811300  0.020300  0.038900  1
  C  C1123  1  0.688700  0.020300  0.538900  1
  C  C1124  1  0.188700  0.979700  0.961100  1
  C  C1125  1  0.444900  0.931200  0.669600  1
  C  C1126  1  0.944900  0.068800  0.830400  1
  C  C1127  1  0.555100  0.068800  0.330400  1
  C  C1128  1  0.055100  0.931200  0.169600  1
  C  C1129  1  0.505100  0.927000  0.685400  1
  C  C1130  1  0.005100  0.073000  0.814600  1
  C  C1131  1  0.494900  0.073000  0.314600  1
  C  C1132  1  0.994900  0.927000  0.185400  1
  C  C1133  1  0.561100  0.895900  0.670600  1
  C  C1134  1  0.061100  0.104100  0.829400  1
  C  C1135  1  0.438900  0.104100  0.329400  1
  C  C1136  1  0.938900  0.895900  0.170600  1
  C  C1137  1  0.551300  0.871900  0.641100  1
  C  C1138  1  0.051300  0.128100  0.858900  1
  C  C1139  1  0.448700  0.128100  0.358900  1
  C  C1140  1  0.948700  0.871900  0.141100  1
  C  C1141  1  0.490200  0.879600  0.627000  1
  C  C1142  1  0.990200  0.120400  0.873000  1
  C  C1143  1  0.509800  0.120400  0.373000  1
  C  C1144  1  0.009800  0.879600  0.127000  1
  C  C1145  1  0.385800  0.962300  0.684600  1
  C  C1146  1  0.885800  0.037700  0.815400  1
  C  C1147  1  0.614200  0.037700  0.315400  1
  C  C1148  1  0.114200  0.962300  0.184600  1
  C  C1149  1  0.369700  0.973900  0.715300  1
  C  C1150  1  0.869700  0.026100  0.784700  1
  C  C1151  1  0.630300  0.026100  0.284700  1
  C  C1152  1  0.130300  0.973900  0.215300  1
  C  C1153  1  0.308100  0.000600  0.715800  1
  C  C1154  1  0.808100  0.999400  0.784200  1
  C  C1155  1  0.691900  0.999400  0.284200  1
  C  C1156  1  0.191900  0.000600  0.215800  1
  C  C1157  1  0.224800  0.030300  0.674300  1
  C  C1158  1  0.724800  0.969700  0.825700  1
  C  C1159  1  0.775200  0.969700  0.325700  1
  C  C1160  1  0.275200  0.030300  0.174300  1
  C  C1161  1  0.905400  0.187900  0.642200  1
  C  C1162  1  0.405400  0.812100  0.857800  1
  C  C1163  1  0.094600  0.812100  0.357800  1
  C  C1164  1  0.594600  0.187900  0.142200  1
  C  C1165  1  0.850400  0.207000  0.624800  1
  C  C1166  1  0.350400  0.793000  0.875200  1
  C  C1167  1  0.149600  0.793000  0.375200  1
  C  C1168  1  0.649600  0.207000  0.124800  1
  C  C1169  1  0.803100  0.249200  0.639100  1
  C  C1170  1  0.303100  0.750800  0.860900  1
  C  C1171  1  0.196900  0.750800  0.360900  1
  C  C1172  1  0.696900  0.249200  0.139100  1
  C  C1173  1  0.812900  0.266900  0.668700  1
  C  C1174  1  0.312900  0.733100  0.831300  1
  C  C1175  1  0.187100  0.733100  0.331300  1
  C  C1176  1  0.687100  0.266900  0.168700  1
  C  C1177  1  0.866900  0.244200  0.685600  1
  C  C1178  1  0.366900  0.755800  0.814400  1
  C  C1179  1  0.133100  0.755800  0.314400  1
  C  C1180  1  0.633100  0.244200  0.185600  1
  C  C1181  1  0.956800  0.145800  0.629100  1
  C  C1182  1  0.456800  0.854200  0.870900  1
  C  C1183  1  0.043200  0.854200  0.370900  1
  C  C1184  1  0.543200  0.145800  0.129100  1
  C  C1185  1  0.957200  0.112100  0.601000  1
  C  C1186  1  0.457200  0.887900  0.899000  1
  C  C1187  1  0.042800  0.887900  0.399000  1
  C  C1188  1  0.542800  0.112100  0.101000  1
  C  C1189  1  0.014700  0.080300  0.601800  1
  C  C1190  1  0.514700  0.919700  0.898200  1
  C  C1191  1  0.985300  0.919700  0.398200  1
  C  C1192  1  0.485300  0.080300  0.101800  1
  C  C1193  1  0.111500  0.068800  0.639500  1
  C  C1194  1  0.611500  0.931200  0.860500  1
  C  C1195  1  0.888500  0.931200  0.360500  1
  C  C1196  1  0.388500  0.068800  0.139500  1
  C  C1197  1  0.166200  0.930500  0.681900  1
  C  C1198  1  0.666200  0.069500  0.818100  1
  C  C1199  1  0.833800  0.069500  0.318100  1
  C  C1200  1  0.333800  0.930500  0.181900  1
  C  C1201  1  0.166900  0.986500  0.670000  1
  C  C1202  1  0.666900  0.013500  0.830000  1
  C  C1203  1  0.833100  0.013500  0.330000  1
  C  C1204  1  0.333100  0.986500  0.170000  1
  C  C1205  1  0.107500  0.005700  0.652500  1
  C  C1206  1  0.607500  0.994300  0.847500  1
  C  C1207  1  0.892500  0.994300  0.347500  1
  C  C1208  1  0.392500  0.005700  0.152500  1
  C  C1209  1  0.054900  0.967600  0.647200  1
  C  C1210  1  0.554900  0.032400  0.852800  1
  C  C1211  1  0.945100  0.032400  0.352800  1
  C  C1212  1  0.445100  0.967600  0.147200  1
  C  C1213  1  0.052900  0.908600  0.659400  1
  C  C1214  1  0.552900  0.091400  0.840600  1
  C  C1215  1  0.947100  0.091400  0.340600  1
  C  C1216  1  0.447100  0.908600  0.159400  1
  C  C1217  1  0.109600  0.889600  0.677700  1
  C  C1218  1  0.609600  0.110400  0.822300  1
  C  C1219  1  0.890400  0.110400  0.322300  1
  C  C1220  1  0.390400  0.889600  0.177700  1
  C  C1221  1  0.998200  0.868800  0.653800  1
  C  C1222  1  0.498200  0.131200  0.846200  1
  C  C1223  1  0.001800  0.131200  0.346200  1
  C  C1224  1  0.501800  0.868800  0.153800  1
  C  C1225  1  0.997900  0.813600  0.666900  1
  C  C1226  1  0.497900  0.186400  0.833100  1
  C  C1227  1  0.002100  0.186400  0.333100  1
  C  C1228  1  0.502100  0.813600  0.166900  1
  C  C1229  1  0.051100  0.795400  0.685800  1
  C  C1230  1  0.551100  0.204600  0.814200  1
  C  C1231  1  0.948900  0.204600  0.314200  1
  C  C1232  1  0.448900  0.795400  0.185800  1
  C  C1233  1  0.107000  0.832900  0.690500  1
  C  C1234  1  0.607000  0.167100  0.809500  1
  C  C1235  1  0.893000  0.167100  0.309500  1
  C  C1236  1  0.393000  0.832900  0.190500  1
  C  C1237  1  0.198500  0.202900  0.472900  1
  C  C1238  1  0.698500  0.797100  0.027100  1
  C  C1239  1  0.801500  0.797100  0.527100  1
  C  C1240  1  0.301500  0.202900  0.972900  1
  C  C1241  1  0.204200  0.163700  0.446700  1
  C  C1242  1  0.704200  0.836300  0.053300  1
  C  C1243  1  0.795800  0.836300  0.553300  1
  C  C1244  1  0.295800  0.163700  0.946700  1
  C  C1245  1  0.245200  0.179000  0.423000  1
  C  C1246  1  0.745200  0.821000  0.077000  1
  C  C1247  1  0.754800  0.821000  0.577000  1
  C  C1248  1  0.254800  0.179000  0.923000  1
  C  C1249  1  0.279500  0.234500  0.424900  1
  C  C1250  1  0.779500  0.765500  0.075100  1
  C  C1251  1  0.720500  0.765500  0.575100  1
  C  C1252  1  0.220500  0.234500  0.924900  1
  C  C1253  1  0.271000  0.272300  0.451200  1
  C  C1254  1  0.771000  0.727700  0.048800  1
  C  C1255  1  0.729000  0.727700  0.548800  1
  C  C1256  1  0.229000  0.272300  0.951200  1
  C  C1257  1  0.157400  0.187800  0.499800  1
  C  C1258  1  0.657400  0.812200  0.000200  1
  C  C1259  1  0.842600  0.812200  0.500200  1
  C  C1260  1  0.342600  0.187800  0.999800  1
  C  C1261  1  0.110600  0.141000  0.503200  1
  C  C1262  1  0.610600  0.859000  0.996800  1
  C  C1263  1  0.889400  0.859000  0.496800  1
  C  C1264  1  0.389400  0.141000  0.003200  1
  C  C1265  1  0.086300  0.149100  0.531800  1
  C  C1266  1  0.586300  0.850900  0.968200  1
  C  C1267  1  0.913700  0.850900  0.468200  1
  C  C1268  1  0.413700  0.149100  0.031800  1
  C  C1269  1  0.101500  0.226500  0.575500  1
  C  C1270  1  0.601500  0.773500  0.924500  1
  C  C1271  1  0.898500  0.773500  0.424500  1
  C  C1272  1  0.398500  0.226500  0.075500  1
  C  C1273  1  0.020000  0.298100  0.742500  1
  C  C1274  1  0.520000  0.701900  0.757500  1
  C  C1275  1  0.980000  0.701900  0.257500  1
  C  C1276  1  0.480000  0.298100  0.242500  1
  C  C1277  1  0.020400  0.335300  0.769200  1
  C  C1278  1  0.520400  0.664700  0.730800  1
  C  C1279  1  0.979600  0.664700  0.230800  1
  C  C1280  1  0.479600  0.335300  0.269200  1
  C  C1281  1  0.008100  0.310400  0.797700  1
  C  C1282  1  0.508100  0.689600  0.702300  1
  C  C1283  1  0.991900  0.689600  0.202300  1
  C  C1284  1  0.491900  0.310400  0.297700  1
  C  C1285  1  0.995300  0.248300  0.798700  1
  C  C1286  1  0.495300  0.751700  0.701300  1
  C  C1287  1  0.004700  0.751700  0.201300  1
  C  C1288  1  0.504700  0.248300  0.298700  1
  C  C1289  1  0.994600  0.215400  0.770900  1
  C  C1290  1  0.494600  0.784600  0.729100  1
  C  C1291  1  0.005400  0.784600  0.229100  1
  C  C1292  1  0.505400  0.215400  0.270900  1
  C  C1293  1  0.035100  0.321000  0.711700  1
  C  C1294  1  0.535100  0.679000  0.788300  1
  C  C1295  1  0.964900  0.679000  0.288300  1
  C  C1296  1  0.464900  0.321000  0.211700  1
  C  C1297  1  0.041300  0.380600  0.702900  1
  C  C1298  1  0.541300  0.619400  0.797100  1
  C  C1299  1  0.958700  0.619400  0.297100  1
  C  C1300  1  0.458700  0.380600  0.202900  1
  C  C1301  1  0.055400  0.376700  0.672000  1
  C  C1302  1  0.555400  0.623300  0.828000  1
  C  C1303  1  0.944600  0.623300  0.328000  1
  C  C1304  1  0.444600  0.376700  0.172000  1
  C  C1305  1  0.077400  0.289200  0.633200  1
  C  C1306  1  0.577400  0.710800  0.866800  1
  C  C1307  1  0.922600  0.710800  0.366800  1
  C  C1308  1  0.422600  0.289200  0.133200  1
  C  C1309  1  0.990800  0.267000  0.555300  1
  C  C1310  1  0.490800  0.733000  0.944700  1
  C  C1311  1  0.009200  0.733000  0.444700  1
  C  C1312  1  0.509200  0.267000  0.055300  1
  C  C1313  1  0.036700  0.263600  0.579000  1
  C  C1314  1  0.536700  0.736400  0.921000  1
  C  C1315  1  0.963300  0.736400  0.421000  1
  C  C1316  1  0.463300  0.263600  0.079000  1
  C  C1317  1  0.022400  0.293600  0.608500  1
  C  C1318  1  0.522400  0.706400  0.891500  1
  C  C1319  1  0.977600  0.706400  0.391500  1
  C  C1320  1  0.477600  0.293600  0.108500  1
  C  C1321  1  0.964200  0.324700  0.612800  1
  C  C1322  1  0.464200  0.675300  0.887200  1
  C  C1323  1  0.035800  0.675300  0.387200  1
  C  C1324  1  0.535800  0.324700  0.112800  1
  C  C1325  1  0.915900  0.330800  0.588600  1
  C  C1326  1  0.415900  0.669200  0.911400  1
  C  C1327  1  0.084100  0.669200  0.411400  1
  C  C1328  1  0.584100  0.330800  0.088600  1
  C  C1329  1  0.929500  0.301000  0.559400  1
  C  C1330  1  0.429500  0.699000  0.940600  1
  C  C1331  1  0.070500  0.699000  0.440600  1
  C  C1332  1  0.570500  0.301000  0.059400  1
  C  C1333  1  0.854200  0.364500  0.593000  1
  C  C1334  1  0.354200  0.635500  0.907000  1
  C  C1335  1  0.145800  0.635500  0.407000  1
  C  C1336  1  0.645800  0.364500  0.093000  1
  C  C1337  1  0.810000  0.366800  0.569100  1
  C  C1338  1  0.310000  0.633200  0.930900  1
  C  C1339  1  0.190000  0.633200  0.430900  1
  C  C1340  1  0.690000  0.366800  0.069100  1
  C  C1341  1  0.822700  0.338500  0.539800  1
  C  C1342  1  0.322700  0.661500  0.960200  1
  C  C1343  1  0.177300  0.661500  0.460200  1
  C  C1344  1  0.677300  0.338500  0.039800  1
  C  C1345  1  0.879600  0.306600  0.535000  1
  C  C1346  1  0.379600  0.693400  0.965000  1
  C  C1347  1  0.120400  0.693400  0.465000  1
  C  C1348  1  0.620400  0.306600  0.035000  1
  C  C1349  1  0.813700  0.443800  0.470800  1
  C  C1350  1  0.313700  0.556200  0.029200  1
  C  C1351  1  0.186300  0.556200  0.529200  1
  C  C1352  1  0.686300  0.443800  0.970800  1
  C  C1353  1  0.940400  0.506900  0.617500  1
  C  C1354  1  0.440400  0.493100  0.882500  1
  C  C1355  1  0.059600  0.493100  0.382500  1
  C  C1356  1  0.559600  0.506900  0.117500  1
  C  C1357  1  0.898500  0.949100  0.589900  1
  C  C1358  1  0.398500  0.050900  0.910100  1
  C  C1359  1  0.101500  0.050900  0.410100  1
  C  C1360  1  0.601500  0.949100  0.089900  1
  C  C1361  1  0.376600  0.652800  0.491300  1
  C  C1362  1  0.876600  0.347200  0.008700  1
  C  C1363  1  0.623400  0.347200  0.508700  1
  C  C1364  1  0.123400  0.652800  0.991300  1
  C  C1365  1  0.487400  0.691500  0.630200  1
  C  C1366  1  0.987400  0.308500  0.869800  1
  C  C1367  1  0.512600  0.308500  0.369800  1
  C  C1368  1  0.012600  0.691500  0.130200  1
  C  C1369  1  0.285800  0.700600  0.563000  1
  C  C1370  1  0.785800  0.299400  0.937000  1
  C  C1371  1  0.714200  0.299400  0.437000  1
  C  C1372  1  0.214200  0.700600  0.063000  1
  C  C1373  1  0.021200  0.785400  0.541700  1
  C  C1374  1  0.521200  0.214600  0.958300  1
  C  C1375  1  0.978800  0.214600  0.458300  1
  C  C1376  1  0.478800  0.785400  0.041700  1
  C  C1377  1  0.212900  0.601000  0.627200  1
  C  C1378  1  0.712900  0.399000  0.872800  1
  C  C1379  1  0.787100  0.399000  0.372800  1
  C  C1380  1  0.287100  0.601000  0.127200  1
  C  C1381  1  0.353200  0.597800  0.770500  1
  C  C1382  1  0.853200  0.402200  0.729500  1
  C  C1383  1  0.646800  0.402200  0.229500  1
  C  C1384  1  0.146800  0.597800  0.270500  1
  N  N1385  1  0.399400  0.364000  0.762500  1
  N  N1386  1  0.899400  0.636000  0.737500  1
  N  N1387  1  0.600600  0.636000  0.237500  1
  N  N1388  1  0.100600  0.364000  0.262500  1
  N  N1389  1  0.394200  0.192200  0.722800  1
  N  N1390  1  0.894200  0.807800  0.777200  1
  N  N1391  1  0.605800  0.807800  0.277200  1
  N  N1392  1  0.105800  0.192200  0.222800  1
  N  N1393  1  0.396800  0.252100  0.731100  1
  N  N1394  1  0.896800  0.747900  0.768900  1
  N  N1395  1  0.603200  0.747900  0.268900  1
  N  N1396  1  0.103200  0.252100  0.231100  1
  N  N1397  1  0.385000  0.909700  0.566000  1
  N  N1398  1  0.885000  0.090300  0.934000  1
  N  N1399  1  0.615000  0.090300  0.434000  1
  N  N1400  1  0.115000  0.909700  0.066000  1
  N  N1401  1  0.443400  0.073600  0.603200  1
  N  N1402  1  0.943400  0.926400  0.896800  1
  N  N1403  1  0.556600  0.926400  0.396800  1
  N  N1404  1  0.056600  0.073600  0.103200  1
  N  N1405  1  0.415200  0.019800  0.594400  1
  N  N1406  1  0.915200  0.980200  0.905600  1
  N  N1407  1  0.584800  0.980200  0.405600  1
  N  N1408  1  0.084800  0.019800  0.094400  1
  N  N1409  1  0.546800  0.321700  0.723900  1
  N  N1410  1  0.046800  0.678300  0.776100  1
  N  N1411  1  0.453200  0.678300  0.276100  1
  N  N1412  1  0.953200  0.321700  0.223900  1
  N  N1413  1  0.468600  0.290100  0.636600  1
  N  N1414  1  0.968600  0.709900  0.863400  1
  N  N1415  1  0.531400  0.709900  0.363400  1
  N  N1416  1  0.031400  0.290100  0.136600  1
  N  N1417  1  0.483100  0.302300  0.667100  1
  N  N1418  1  0.983100  0.697700  0.832900  1
  N  N1419  1  0.516900  0.697700  0.332900  1
  N  N1420  1  0.016900  0.302300  0.167100  1
  N  N1421  1  0.121700  0.365900  0.512900  1
  N  N1422  1  0.621700  0.634100  0.987100  1
  N  N1423  1  0.878300  0.634100  0.487100  1
  N  N1424  1  0.378300  0.365900  0.012900  1
  N  N1425  1  0.214100  0.387200  0.597300  1
  N  N1426  1  0.714100  0.612800  0.902700  1
  N  N1427  1  0.785900  0.612800  0.402700  1
  N  N1428  1  0.285900  0.387200  0.097300  1
  N  N1429  1  0.188900  0.369600  0.568700  1
  N  N1430  1  0.688900  0.630400  0.931300  1
  N  N1431  1  0.811100  0.630400  0.431300  1
  N  N1432  1  0.311100  0.369600  0.068700  1
  N  N1433  1  0.454900  0.441300  0.692600  1
  N  N1434  1  0.954900  0.558700  0.807400  1
  N  N1435  1  0.545100  0.558700  0.307400  1
  N  N1436  1  0.045100  0.441300  0.192600  1
  N  N1437  1  0.327200  0.392000  0.695700  1
  N  N1438  1  0.827200  0.608000  0.804300  1
  N  N1439  1  0.672800  0.608000  0.304300  1
  N  N1440  1  0.172800  0.392000  0.195700  1
  N  N1441  1  0.258900  0.385100  0.700500  1
  N  N1442  1  0.758900  0.614900  0.799500  1
  N  N1443  1  0.741100  0.614900  0.299500  1
  N  N1444  1  0.241100  0.385100  0.200500  1
  N  N1445  1  0.982200  0.082200  0.710800  1
  N  N1446  1  0.482200  0.917800  0.789200  1
  N  N1447  1  0.017800  0.917800  0.289200  1
  N  N1448  1  0.517800  0.082200  0.210800  1
  N  N1449  1  0.166600  0.152800  0.735420  1
  N  N1450  1  0.666600  0.847200  0.764580  1
  N  N1451  1  0.833400  0.847200  0.264580  1
  N  N1452  1  0.333400  0.152800  0.235420  1
  N  N1453  1  0.106700  0.134400  0.721540  1
  N  N1454  1  0.606700  0.865600  0.778460  1
  N  N1455  1  0.893300  0.865600  0.278460  1
  N  N1456  1  0.393300  0.134400  0.221540  1
  N  N1457  1  0.263900  0.867800  0.620400  1
  N  N1458  1  0.763900  0.132200  0.879600  1
  N  N1459  1  0.736100  0.132200  0.379600  1
  N  N1460  1  0.236100  0.867800  0.120400  1
  N  N1461  1  0.214400  0.013700  0.570900  1
  N  N1462  1  0.714400  0.986300  0.929100  1
  N  N1463  1  0.785600  0.986300  0.429100  1
  N  N1464  1  0.285600  0.013700  0.070900  1
  N  N1465  1  0.238200  0.971800  0.590000  1
  N  N1466  1  0.738200  0.028200  0.910000  1
  N  N1467  1  0.761800  0.028200  0.410000  1
  N  N1468  1  0.261800  0.971800  0.090000  1
  N  N1469  1  0.302200  0.386700  0.509000  1
  N  N1470  1  0.802200  0.613300  0.991000  1
  N  N1471  1  0.697800  0.613300  0.491000  1
  N  N1472  1  0.197800  0.386700  0.009000  1
  N  N1473  1  0.362800  0.230200  0.545900  1
  N  N1474  1  0.862800  0.769800  0.954100  1
  N  N1475  1  0.637200  0.769800  0.454100  1
  N  N1476  1  0.137200  0.230200  0.045900  1
  N  N1477  1  0.332500  0.280400  0.536200  1
  N  N1478  1  0.832500  0.719600  0.963800  1
  N  N1479  1  0.667500  0.719600  0.463800  1
  N  N1480  1  0.167500  0.280400  0.036200  1
  N  N1481  1  0.437600  0.908900  0.640380  1
  N  N1482  1  0.937600  0.091100  0.859620  1
  N  N1483  1  0.562400  0.091100  0.359620  1
  N  N1484  1  0.062400  0.908900  0.140380  1
  N  N1485  1  0.286800  0.004600  0.686110  1
  N  N1486  1  0.786800  0.995400  0.813890  1
  N  N1487  1  0.713200  0.995400  0.313890  1
  N  N1488  1  0.213200  0.004600  0.186110  1
  N  N1489  1  0.334300  0.981400  0.666310  1
  N  N1490  1  0.834300  0.018600  0.833690  1
  N  N1491  1  0.665700  0.018600  0.333690  1
  N  N1492  1  0.165700  0.981400  0.166310  1
  N  N1493  1  0.912200  0.207000  0.672900  1
  N  N1494  1  0.412200  0.793000  0.827100  1
  N  N1495  1  0.087800  0.793000  0.327100  1
  N  N1496  1  0.587800  0.207000  0.172900  1
  N  N1497  1  0.048400  0.093700  0.628700  1
  N  N1498  1  0.548400  0.906300  0.871300  1
  N  N1499  1  0.951600  0.906300  0.371300  1
  N  N1500  1  0.451600  0.093700  0.128700  1
  N  N1501  1  0.012700  0.133900  0.646200  1
  N  N1502  1  0.512700  0.866100  0.853800  1
  N  N1503  1  0.987300  0.866100  0.353800  1
  N  N1504  1  0.487300  0.133900  0.146200  1
  N  N1505  1  0.230200  0.257900  0.474400  1
  N  N1506  1  0.730200  0.742100  0.025600  1
  N  N1507  1  0.769800  0.742100  0.525600  1
  N  N1508  1  0.269800  0.257900  0.974400  1
  N  N1509  1  0.113800  0.198700  0.545400  1
  N  N1510  1  0.613800  0.801300  0.954600  1
  N  N1511  1  0.886200  0.801300  0.454600  1
  N  N1512  1  0.386200  0.198700  0.045400  1
  N  N1513  1  0.158100  0.224900  0.525600  1
  N  N1514  1  0.658100  0.775100  0.974400  1
  N  N1515  1  0.841900  0.775100  0.474400  1
  N  N1516  1  0.341900  0.224900  0.025600  1
  N  N1517  1  0.006000  0.237800  0.743400  1
  N  N1518  1  0.506000  0.762200  0.756600  1
  N  N1519  1  0.994000  0.762200  0.256600  1
  N  N1520  1  0.494000  0.237800  0.243400  1
  N  N1521  1  0.059400  0.315800  0.663500  1
  N  N1522  1  0.559400  0.684200  0.836500  1
  N  N1523  1  0.940600  0.684200  0.336500  1
  N  N1524  1  0.440600  0.315800  0.163500  1
  N  N1525  1  0.048300  0.282400  0.687800  1
  N  N1526  1  0.548300  0.717600  0.812200  1
  N  N1527  1  0.951700  0.717600  0.312200  1
  N  N1528  1  0.451700  0.282400  0.187800  1
  O  O1529  1  0.853300  0.393700  0.458500  1
  O  O1530  1  0.353300  0.606300  0.041500  1
  O  O1531  1  0.146700  0.606300  0.541500  1
  O  O1532  1  0.646700  0.393700  0.958500  1
  O  O1533  1  0.947100  0.524200  0.586000  1
  O  O1534  1  0.447100  0.475800  0.914000  1
  O  O1535  1  0.052900  0.475800  0.414000  1
  O  O1536  1  0.552900  0.524200  0.086000  1
  O  O1537  1  0.951200  0.932100  0.568200  1
  O  O1538  1  0.451200  0.067900  0.931800  1
  O  O1539  1  0.048800  0.067900  0.431800  1
  O  O1540  1  0.548800  0.932100  0.068200  1
  O  O1541  1  0.417400  0.611900  0.472270  1
  O  O1542  1  0.917400  0.388100  0.027730  1
  O  O1543  1  0.582600  0.388100  0.527730  1
  O  O1544  1  0.082600  0.611900  0.972270  1
  O  O1545  1  0.416700  0.703900  0.625100  1
  O  O1546  1  0.916700  0.296100  0.874900  1
  O  O1547  1  0.583300  0.296100  0.374900  1
  O  O1548  1  0.083300  0.703900  0.125100  1
  O  O1549  1  0.233500  0.699800  0.539900  1
  O  O1550  1  0.733500  0.300200  0.960100  1
  O  O1551  1  0.766500  0.300200  0.460100  1
  O  O1552  1  0.266500  0.699800  0.039900  1
  O  O1553  1  0.001600  0.819000  0.569500  1
  O  O1554  1  0.501600  0.181000  0.930500  1
  O  O1555  1  0.998400  0.181000  0.430500  1
  O  O1556  1  0.498400  0.819000  0.069500  1
  O  O1557  1  0.282500  0.610900  0.635900  1
  O  O1558  1  0.782500  0.389100  0.864100  1
  O  O1559  1  0.717500  0.389100  0.364100  1
  O  O1560  1  0.217500  0.610900  0.135900  1
  O  O1561  1  0.347400  0.563900  0.741400  1
  O  O1562  1  0.847400  0.436100  0.758600  1
  O  O1563  1  0.652600  0.436100  0.258600  1
  O  O1564  1  0.152600  0.563900  0.241400  1
  O  O1565  1  0.823900  0.553600  0.559400  1
  O  O1566  1  0.323900  0.446400  0.940600  1
  O  O1567  1  0.176100  0.446400  0.440600  1
  O  O1568  1  0.676100  0.553600  0.059400  1
  O  O1569  1  0.367700  0.633100  0.413500  1
  O  O1570  1  0.867700  0.366900  0.086500  1
  O  O1571  1  0.632300  0.366900  0.586500  1
  O  O1572  1  0.132300  0.633100  0.913500  1
  O  O1573  1  0.320400  0.648200  0.697200  1
  O  O1574  1  0.820400  0.351800  0.802800  1
  O  O1575  1  0.679600  0.351800  0.302800  1
  O  O1576  1  0.179600  0.648200  0.197200  1
  O  O1577  1  0.708700  0.473100  0.743100  1
  O  O1578  1  0.208700  0.526900  0.756900  1
  O  O1579  1  0.291300  0.526900  0.256900  1
  O  O1580  1  0.791300  0.473100  0.243100  1
  O  O1581  1  0.775300  0.551000  0.583200  1
  O  O1582  1  0.275300  0.449000  0.916800  1
  O  O1583  1  0.224700  0.449000  0.416800  1
  O  O1584  1  0.724700  0.551000  0.083200  1
  F  F1585  1  0.762800  0.778000  0.389150  1
  F  F1586  1  0.262800  0.222000  0.110850  1
  F  F1587  1  0.237200  0.222000  0.610850  1
  F  F1588  1  0.737200  0.778000  0.889150  1
  F  F1589  1  0.709200  0.767300  0.342380  1
  F  F1590  1  0.209200  0.232700  0.157620  1
  F  F1591  1  0.290800  0.232700  0.657620  1
  F  F1592  1  0.790800  0.767300  0.842380  1
  F  F1593  1  0.725400  0.861600  0.365600  1
  F  F1594  1  0.225400  0.138400  0.134400  1
  F  F1595  1  0.274600  0.138400  0.634400  1
  F  F1596  1  0.774600  0.861600  0.865600  1
  F  F1597  1  0.815700  0.808500  0.345740  1
  F  F1598  1  0.315700  0.191500  0.154260  1
  F  F1599  1  0.184300  0.191500  0.654260  1
  F  F1600  1  0.684300  0.808500  0.845740  1
  F  F1601  1  0.710300  0.904700  0.192580  1
  F  F1602  1  0.210300  0.095300  0.307420  1
  F  F1603  1  0.289700  0.095300  0.807420  1
  F  F1604  1  0.789700  0.904700  0.692580  1
  F  F1605  1  0.729600  0.925800  0.142360  1
  F  F1606  1  0.229600  0.074200  0.357640  1
  F  F1607  1  0.270400  0.074200  0.857640  1
  F  F1608  1  0.770400  0.925800  0.642360  1
  F  F1609  1  0.671000  0.840400  0.153900  1
  F  F1610  1  0.171000  0.159600  0.346100  1
  F  F1611  1  0.329000  0.159600  0.846100  1
  F  F1612  1  0.829000  0.840400  0.653900  1
  F  F1613  1  0.785000  0.847200  0.163800  1
  F  F1614  1  0.285000  0.152800  0.336200  1
  F  F1615  1  0.215000  0.152800  0.836200  1
  F  F1616  1  0.715000  0.847200  0.663800  1
  F  F1617  1  0.414700  0.793600  0.442300  1
  F  F1618  1  0.914700  0.206400  0.057700  1
  F  F1619  1  0.585300  0.206400  0.557700  1
  F  F1620  1  0.085300  0.793600  0.942300  1
  F  F1621  1  0.358300  0.843800  0.406100  1
  F  F1622  1  0.858300  0.156200  0.093900  1
  F  F1623  1  0.641700  0.156200  0.593900  1
  F  F1624  1  0.141700  0.843800  0.906100  1
  F  F1625  1  0.321600  0.752200  0.418900  1
  F  F1626  1  0.821600  0.247800  0.081100  1
  F  F1627  1  0.678400  0.247800  0.581100  1
  F  F1628  1  0.178400  0.752200  0.918900  1
  F  F1629  1  0.310000  0.831700  0.453900  1
  F  F1630  1  0.810000  0.168300  0.046100  1
  F  F1631  1  0.690000  0.168300  0.546100  1
  F  F1632  1  0.190000  0.831700  0.953900  1
  F  F1633  1  0.475000  0.722200  0.554100  1
  F  F1634  1  0.975000  0.277800  0.945900  1
  F  F1635  1  0.525000  0.277800  0.445900  1
  F  F1636  1  0.025000  0.722200  0.054100  1
  F  F1637  1  0.577200  0.687700  0.572600  1
  F  F1638  1  0.077200  0.312300  0.927400  1
  F  F1639  1  0.422800  0.312300  0.427400  1
  F  F1640  1  0.922800  0.687700  0.072600  1
  F  F1641  1  0.550400  0.786100  0.580300  1
  F  F1642  1  0.050400  0.213900  0.919700  1
  F  F1643  1  0.449600  0.213900  0.419700  1
  F  F1644  1  0.949600  0.786100  0.080300  1
  F  F1645  1  0.577300  0.748700  0.532500  1
  F  F1646  1  0.077300  0.251300  0.967500  1
  F  F1647  1  0.422700  0.251300  0.467500  1
  F  F1648  1  0.922700  0.748700  0.032500  1
  F  F1649  1  0.330200  0.756700  0.735010  1
  F  F1650  1  0.830200  0.243300  0.764990  1
  F  F1651  1  0.669800  0.243300  0.264990  1
  F  F1652  1  0.169800  0.756700  0.235010  1
  F  F1653  1  0.362000  0.827400  0.700790  1
  F  F1654  1  0.862000  0.172600  0.799210  1
  F  F1655  1  0.638000  0.172600  0.299210  1
  F  F1656  1  0.138000  0.827400  0.200790  1
  F  F1657  1  0.357700  0.851600  0.753060  1
  F  F1658  1  0.857700  0.148400  0.746940  1
  F  F1659  1  0.642300  0.148400  0.246940  1
  F  F1660  1  0.142300  0.851600  0.253060  1
  F  F1661  1  0.260000  0.835000  0.725500  1
  F  F1662  1  0.760000  0.165000  0.774500  1
  F  F1663  1  0.740000  0.165000  0.274500  1
  F  F1664  1  0.240000  0.835000  0.225500  1
  F  F1665  1  0.276800  0.558200  0.840600  1
  F  F1666  1  0.776800  0.441800  0.659400  1
  F  F1667  1  0.723200  0.441800  0.159400  1
  F  F1668  1  0.223200  0.558200  0.340600  1
  F  F1669  1  0.177200  0.547300  0.865700  1
  F  F1670  1  0.677200  0.452700  0.634300  1
  F  F1671  1  0.822800  0.452700  0.134300  1
  F  F1672  1  0.322800  0.547300  0.365700  1
  F  F1673  1  0.208200  0.640400  0.851800  1
  F  F1674  1  0.708200  0.359600  0.648200  1
  F  F1675  1  0.791800  0.359600  0.148200  1
  F  F1676  1  0.291800  0.640400  0.351800  1
  F  F1677  1  0.179000  0.568600  0.814700  1
  F  F1678  1  0.679000  0.431400  0.685300  1
  F  F1679  1  0.821000  0.431400  0.185300  1
  F  F1680  1  0.321000  0.568600  0.314700  1
  F  F1681  1  0.695600  0.916200  0.141010  1
  F  F1682  1  0.195600  0.083800  0.358990  1
  F  F1683  1  0.304400  0.083800  0.858990  1
  F  F1684  1  0.804400  0.916200  0.641010  1
  F  F1685  1  0.694900  0.821700  0.160100  1
  F  F1686  1  0.194900  0.178300  0.339900  1
  F  F1687  1  0.305100  0.178300  0.839900  1
  F  F1688  1  0.805100  0.821700  0.660100  1
  F  F1689  1  0.794200  0.875400  0.158800  1
  F  F1690  1  0.294200  0.124600  0.341200  1
  F  F1691  1  0.205800  0.124600  0.841200  1
  F  F1692  1  0.705800  0.875400  0.658800  1
  F  F1693  1  0.582900  0.683400  0.559500  1
  F  F1694  1  0.082900  0.316600  0.940500  1
  F  F1695  1  0.417100  0.316600  0.440500  1
  F  F1696  1  0.917100  0.683400  0.059500  1
  F  F1697  1  0.569700  0.772400  0.537300  1
  F  F1698  1  0.069700  0.227600  0.962700  1
  F  F1699  1  0.430300  0.227600  0.462700  1
  F  F1700  1  0.930300  0.772400  0.037300  1
  F  F1701  1  0.552300  0.766200  0.588500  1
  F  F1702  1  0.052300  0.233800  0.911500  1
  F  F1703  1  0.447700  0.233800  0.411500  1
  F  F1704  1  0.947700  0.766200  0.088500  1
