
#######################################################################
#
#                 Cambridge Crystallographic Data Centre
#                                CCDC 
#
#######################################################################
#
# If this CIF has been generated from an entry in the Cambridge 
# Structural Database, then it will include bibliographic, chemical, 
# crystal, experimental, refinement or atomic coordinate data resulting 
# from the CCDC's data processing and validation procedures.
#
#######################################################################

data_FOPGEX
_chemical_formula_moiety         
'C168 H132 N36 Zn4 8+,4(F6 Si1 2-),2(C1 H4 O1),2(H2 O1)'
_chemical_name_systematic        
"hexakis(\m~2~-2,2'-(2,3-naphthalenediylbis(methylene-1H-pyrazole-1,3-diyl))dipyridine)-tetra-zinc(ii) hexafluorosilicate clathrate tris(hexafluorosilicate) methanol solvate dihydrate"
_symmetry_cell_setting           cubic
_symmetry_space_group_name_H-M   'P a -3'
_symmetry_Int_Tables_number      205
_space_group_name_Hall           '-P 2ac 2ab 3'
loop_
_symmetry_equiv_pos_site_id
_symmetry_equiv_pos_as_xyz
1 x,y,z
2 1/2-x,-y,1/2+z
3 -x,1/2+y,1/2-z
4 1/2+x,1/2-y,-z
5 z,x,y
6 1/2+z,1/2-x,-y
7 1/2-z,-x,1/2+y
8 -z,1/2+x,1/2-y
9 y,z,x
10 -y,1/2+z,1/2-x
11 1/2+y,1/2-z,-x
12 1/2-y,-z,1/2+x
13 -x,-y,-z
14 1/2+x,y,1/2-z
15 x,1/2-y,1/2+z
16 1/2-x,1/2+y,z
17 -z,-x,-y
18 1/2-z,1/2+x,y
19 1/2+z,x,1/2-y
20 z,1/2-x,1/2+y
21 -y,-z,-x
22 y,1/2-z,1/2+x
23 1/2-y,1/2+z,x
24 1/2+y,z,1/2-x
_cell_length_a                   32.973(10)
_cell_length_b                   32.973(10)
_cell_length_c                   32.973(10)
_cell_angle_alpha                90
_cell_angle_beta                 90
_cell_angle_gamma                90
_cell_volume                     35848.9
_exptl_crystal_colour            colorless
_exptl_crystal_description       block
_cell_formula_units_Z            8
loop_
_atom_site_label
_atom_site_type_symbol
_atom_site_fract_x
_atom_site_fract_y
_atom_site_fract_z
Si1 Si 0.64682(8) 0.14682(8) 0.35318(8)
F1 F 0.6145(3) 0.1730(4) 0.3795(3)
F2 F 0.6465(8) 0.1785(7) 0.3156(4)
F1G F 0.6205(3) 0.1145(3) 0.3270(4)
F1J F 0.6730(4) 0.1205(3) 0.3855(3)
F2G F 0.6844(4) 0.1465(8) 0.3215(7)
F2J F 0.6785(7) 0.1844(4) 0.3535(8)
Si2 Si 0.99577(9) 0.28378(9) 0.28978(9)
F3 F 0.97712(18) 0.24912(18) 0.25907(18)
F4 F 1.01445(18) 0.31842(19) 0.32046(19)
F5 F 0.94976(19) 0.2935(3) 0.3052(3)
F6 F 0.9907(4) 0.3172(2) 0.2536(2)
F7 F 1.0411(2) 0.2727(3) 0.2731(3)
F8 F 1.0002(4) 0.2490(2) 0.3247(2)
Zn1 Zn 0.54158(5) 0.04031(4) 0.24975(5)
Zn2 Zn 0.74875(4) 0.24875(4) 0.25125(4)
N1 N 0.5474(3) 0.0307(2) 0.1852(3)
C1 C 0.5873(3) 0.0309(3) 0.1715(3)
C2 C 0.5953(3) 0.0316(3) 0.1301(3)
H1 H 0.6226 0.0317 0.1208
C3 C 0.5636(3) 0.0321(2) 0.1024(4)
H2 H 0.5691 0.0325 0.0742
C4 C 0.5237(4) 0.0319(3) 0.1161(3)
H3 H 0.5020 0.0323 0.0972
C5 C 0.5156(3) 0.0313(4) 0.1575(2)
H4 H 0.4884 0.0312 0.1669
N2 N 0.6422(2) 0.02770(18) 0.2643(2)
N3 N 0.6065(2) 0.0328(2) 0.24080(18)
C6 C 0.6173(3) 0.0294(2) 0.1993(3)
C7 C 0.6597(3) 0.0222(2) 0.1971(3)
H5 H 0.6750 0.0187 0.1730
C8 C 0.6751(3) 0.0212(3) 0.23730(18)
H6 H 0.7025 0.0168 0.2448
C9 C 0.6432(3) 0.0301(3) 0.3073(3)
H7 H 0.6186 0.0447 0.3165
H8 H 0.6670 0.0466 0.3153
N4 N 0.5403(3) -0.0220(2) 0.2657(3)
C10 C 0.5367(3) -0.0306(3) 0.3068(3)
C11 C 0.5351(3) -0.0707(3) 0.3199(2)
H9 H 0.5326 -0.0766 0.3480
C12 C 0.5373(3) -0.1021(2) 0.2918(4)
H10 H 0.5362 -0.1295 0.3008
C13 C 0.5409(3) -0.0935(3) 0.2507(3)
H11 H 0.5424 -0.1149 0.2316
C14 C 0.5425(3) -0.0534(3) 0.2377(2)
H12 H 0.5450 -0.0475 0.2096
N5 N 0.5339(3) 0.06885(19) 0.3471(3)
N6 N 0.5371(2) 0.0406(2) 0.31478(19)
C15 C 0.5327(3) 0.00101(19) 0.3312(3)
C16 C 0.5269(3) 0.0048(3) 0.3737(3)
H13 H 0.5231 -0.0168 0.3923
C17 C 0.5276(3) 0.0468(3) 0.38353(19)
H14 H 0.5244 0.0581 0.4098
C18 C 0.5341(3) 0.1116(3) 0.3416(4)
H15 H 0.5443 0.1180 0.3140
H16 H 0.5529 0.1241 0.3614
C19 C 0.6399(2) -0.04650(17) 0.3100(2)
H17 H 0.6345 -0.0477 0.2817
C20 C 0.64530(17) -0.0092(2) 0.3288(2)
C21 C 0.49264(16) 0.1298(2) 0.3467(2)
C22 C 0.4571(2) 0.10734(17) 0.3440(2)
H18 H 0.4583 0.0791 0.3386
C23 C 0.41976(17) 0.1262(2) 0.3494(2)
C24 C 0.64260(16) -0.0820(2) 0.3325(2)
C25 C 0.38413(19) 0.1041(2) 0.3447(4)
H19 H 0.3852 0.0768 0.3356
C26 C 0.34697(17) 0.1221(4) 0.3533(5)
H20 H 0.3228 0.1065 0.3523
C27 C 0.34534(18) 0.1630(4) 0.3635(4)
H21 H 0.3199 0.1756 0.3681
C28 C 0.63320(19) -0.1191(2) 0.3146(4)
H22 H 0.6246 -0.1201 0.2871
N7 N 0.81189(18) 0.2379(2) 0.2479(2)
C29 C 0.8229(2) 0.1978(2) 0.2410(2)
C30 C 0.8636(3) 0.1869(2) 0.2400(3)
H23 H 0.8711 0.1595 0.2353
C31 C 0.89334(18) 0.2162(3) 0.2458(3)
H24 H 0.9212 0.2088 0.2452
C32 C 0.8824(2) 0.2563(3) 0.2527(3)
H25 H 0.9027 0.2763 0.2567
C33 C 0.8416(3) 0.26717(19) 0.2537(3)
H26 H 0.8342 0.2946 0.2584
N8 N 0.72618(17) 0.1496(2) 0.2381(2)
N9 N 0.7521(2) 0.18371(17) 0.2428(2)
C34 C 0.79279(18) 0.1701(2) 0.2389(3)
C35 C 0.7920(2) 0.1276(2) 0.2317(3)
H27 H 0.8150 0.1107 0.2279
C36 C 0.7508(3) 0.11500(17) 0.2313(3)
H28 H 0.7414 0.0881 0.2271
C37 C 0.6849(3) 0.1533(3) 0.2394(3)
H29 H 0.6778 0.1802 0.2508
H30 H 0.6738 0.1324 0.2579
N10 N 0.4778(2) 0.0491(3) 0.2457(2)
C38 C 0.4657(2) 0.0883(2) 0.2361(2)
C39 C 0.4247(3) 0.0971(2) 0.2314(3)
H31 H 0.4164 0.1239 0.2248
C40 C 0.39591(19) 0.0667(3) 0.2362(3)
H32 H 0.3679 0.0727 0.2330
C41 C 0.4081(3) 0.0275(3) 0.2458(3)
H33 H 0.3884 0.0067 0.2491
C42 C 0.4490(3) 0.0187(2) 0.2506(3)
H34 H 0.4573 -0.0081 0.2571
N11 N 0.56088(17) 0.1386(2) 0.2351(2)
N12 N 0.5356(2) 0.10399(17) 0.2395(2)
C43 C 0.49473(18) 0.1167(2) 0.2351(3)
C44 C 0.4947(2) 0.1592(2) 0.2281(3)
H35 H 0.4714 0.1757 0.2241
C45 C 0.5356(2) 0.17274(17) 0.2281(3)
H36 H 0.5444 0.1999 0.2241
C46 C 0.6032(3) 0.1379(4) 0.2374(3)
H37 H 0.6116 0.1127 0.2514
H38 H 0.6123 0.1611 0.2542
C47 C 0.68640(17) 0.1517(2) 0.1618(2)
H39 H 0.7146 0.1577 0.1620
C48 C 0.6651(2) 0.1488(2) 0.19802(17)
C49 C 0.6239(2) 0.1399(2) 0.19761(17)
C50 C 0.60398(17) 0.1339(2) 0.1609(2)
H40 H 0.5758 0.1279 0.1607
C51 C 0.6253(2) 0.1368(2) 0.12467(17)
C52 C 0.6665(2) 0.1457(2) 0.12508(17)
C53 C 0.6065(2) 0.1298(4) 0.08752(19)
H41 H 0.5782 0.1243 0.0864
C54 C 0.6292(3) 0.1310(4) 0.05200(18)
H42 H 0.6163 0.1252 0.0269
C55 C 0.6703(3) 0.1403(4) 0.05234(18)
H43 H 0.6856 0.1404 0.0279
C56 C 0.6885(2) 0.1494(4) 0.0893(2)
H44 H 0.7159 0.1582 0.0900
Zn1J Zn 0.54031(4) 0.25025(5) 0.45842(5)
Zn1G Zn 0.75025(5) 0.04158(5) 0.45969(4)
N1J N 0.5307(2) 0.3148(3) 0.4526(3)
N1G N 0.8148(3) 0.0474(3) 0.4693(2)
C1J C 0.5309(3) 0.3285(3) 0.4127(3)
C1G C 0.8285(3) 0.0873(3) 0.4691(3)
C2J C 0.5316(3) 0.3699(3) 0.4047(3)
C2G C 0.8699(3) 0.0953(3) 0.4684(3)
H1J H 0.5317 0.3792 0.3774
H1G H 0.8792 0.1226 0.4683
C3J C 0.5321(2) 0.3976(4) 0.4364(3)
C3G C 0.8976(4) 0.0636(3) 0.4679(2)
H2J H 0.5325 0.4258 0.4309
H2G H 0.9258 0.0691 0.4675
C4J C 0.5319(3) 0.3839(3) 0.4763(4)
C4G C 0.8839(3) 0.0237(4) 0.4681(3)
H3J H 0.5323 0.4028 0.4980
H3G H 0.9028 0.0020 0.4677
C5J C 0.5313(4) 0.3425(2) 0.4844(3)
C5G C 0.8425(2) 0.0156(3) 0.4687(4)
H4J H 0.5312 0.3331 0.5116
H4G H 0.8331 -0.0116 0.4688
N2G N 0.7357(2) 0.1422(2) 0.47230(18)
N2J N 0.52770(18) 0.2357(2) 0.3578(2)
N3J N 0.5328(2) 0.25920(18) 0.3935(2)
N3G N 0.75920(18) 0.1065(2) 0.4672(2)
C6J C 0.5294(2) 0.3007(3) 0.3827(3)
C6G C 0.8007(3) 0.1173(3) 0.4706(2)
C7G C 0.8029(3) 0.1597(3) 0.4778(2)
C7J C 0.5222(2) 0.3029(3) 0.3403(3)
H5G H 0.8270 0.1750 0.4813
H5J H 0.5187 0.3270 0.3250
C8G C 0.76270(18) 0.1751(3) 0.4788(3)
C8J C 0.5212(3) 0.26270(18) 0.3249(3)
H6G H 0.7552 0.2025 0.4832
H6J H 0.5168 0.2552 0.2975
C9G C 0.6927(3) 0.1432(3) 0.4699(3)
C9J C 0.5301(3) 0.1927(3) 0.3568(3)
H7G H 0.6835 0.1186 0.4553
H7J H 0.5447 0.1835 0.3814
H8G H 0.6847 0.1670 0.4534
H8J H 0.5466 0.1847 0.3330
N4J N 0.4780(2) 0.2343(3) 0.4597(3)
N4G N 0.7343(3) 0.0403(3) 0.5220(2)
C10J C 0.4694(3) 0.1932(3) 0.4633(3)
C10G C 0.6932(3) 0.0367(3) 0.5306(3)
C11J C 0.4293(3) 0.1801(2) 0.4649(3)
C11G C 0.6801(2) 0.0351(3) 0.5707(3)
H9J H 0.4234 0.1520 0.4674
H9G H 0.6520 0.0326 0.5766
C12J C 0.3979(2) 0.2082(4) 0.4627(3)
C12G C 0.7082(4) 0.0373(3) 0.6021(2)
H10J H 0.3705 0.1992 0.4638
H10G H 0.6992 0.0362 0.6295
C13J C 0.4065(3) 0.2493(3) 0.4591(3)
C13G C 0.7493(3) 0.0409(3) 0.5935(3)
H11J H 0.3851 0.2684 0.4576
H11G H 0.7684 0.0424 0.6149
C14J C 0.4466(3) 0.2623(2) 0.4575(3)
C14G C 0.7623(2) 0.0425(3) 0.5534(3)
H12J H 0.4525 0.2904 0.4550
H12G H 0.7904 0.0450 0.5475
N5J N 0.56885(19) 0.1529(3) 0.4661(3)
N5G N 0.6529(3) 0.0339(3) 0.43115(19)
N6J N 0.5406(2) 0.18522(19) 0.4629(2)
N6G N 0.68522(19) 0.0371(2) 0.4594(2)
C15J C 0.50101(19) 0.1688(3) 0.4673(3)
C15G C 0.6688(3) 0.0327(3) 0.49899(19)
C16J C 0.5048(3) 0.1263(3) 0.4731(3)
C16G C 0.6263(3) 0.0269(3) 0.4952(3)
H13J H 0.4832 0.1077 0.4769
H13G H 0.6077 0.0231 0.5168
C17J C 0.5468(3) 0.11647(19) 0.4724(3)
C17G C 0.61647(19) 0.0276(3) 0.4532(3)
H14J H 0.5581 0.0902 0.4756
H14G H 0.5902 0.0244 0.4419
C18J C 0.6116(3) 0.1584(4) 0.4659(3)
C18G C 0.6584(4) 0.0341(3) 0.3884(3)
H15J H 0.6180 0.1860 0.4557
H15G H 0.6860 0.0443 0.3820
H16J H 0.6241 0.1386 0.4471
H16G H 0.6386 0.0529 0.3759
C19G C 0.6900(2) 0.1399(2) 0.54650(17)
C19J C 0.45350(17) 0.1900(2) 0.3601(2)
H17G H 0.7183 0.1345 0.5477
H17J H 0.4523 0.2183 0.3655
C20G C 0.6712(2) 0.14530(17) 0.5092(2)
C20J C 0.4908(2) 0.1712(2) 0.35470(17)
C21J C 0.6298(2) 0.1533(2) 0.50736(16)
C21G C 0.6533(2) -0.00736(16) 0.3702(2)
C22G C 0.6560(2) -0.0429(2) 0.39266(17)
C22J C 0.60734(17) 0.1560(2) 0.5429(2)
H18G H 0.6614 -0.0417 0.4209
H18J H 0.5791 0.1614 0.5417
C23G C 0.6506(2) -0.08024(17) 0.3738(2)
C23J C 0.6262(2) 0.1506(2) 0.58024(17)
C24G C 0.6675(2) 0.14260(16) 0.5820(2)
C24J C 0.4180(2) 0.1675(2) 0.35740(16)
C25G C 0.6553(4) -0.11587(19) 0.3959(2)
C25J C 0.6041(2) 0.1553(4) 0.61587(19)
H19G H 0.6644 -0.1148 0.4232
H19J H 0.5768 0.1644 0.6148
C26G C 0.6467(5) -0.15303(17) 0.3779(4)
C26J C 0.6221(4) 0.1467(5) 0.65303(17)
H20G H 0.6477 -0.1772 0.3935
H20J H 0.6065 0.1477 0.6772
C27G C 0.6365(4) -0.15466(18) 0.3370(4)
C27J C 0.6630(4) 0.1365(4) 0.65466(18)
H21G H 0.6319 -0.1801 0.3244
H21J H 0.6756 0.1319 0.6801
C28G C 0.6854(4) 0.13320(19) 0.6191(2)
C28J C 0.3809(2) 0.1854(4) 0.36680(19)
H22G H 0.7129 0.1246 0.6201
H22J H 0.3799 0.2129 0.3754
N7G N 0.7521(2) 0.31189(18) 0.2621(2)
N7J N 0.7379(2) 0.2521(2) 0.18811(18)
C29G C 0.7590(2) 0.3229(2) 0.3022(2)
C29J C 0.6978(2) 0.2590(2) 0.1771(2)
C30G C 0.7600(3) 0.3636(3) 0.3131(2)
C30J C 0.6869(2) 0.2600(3) 0.1364(3)
H23G H 0.7647 0.3711 0.3405
H23J H 0.6595 0.2647 0.1289
C31G C 0.7542(3) 0.39334(18) 0.2838(3)
C31J C 0.7162(3) 0.2542(3) 0.10666(18)
H24G H 0.7548 0.4212 0.2912
H24J H 0.7088 0.2548 0.0788
C32G C 0.7473(3) 0.3824(2) 0.2437(3)
C32J C 0.7563(3) 0.2473(3) 0.1176(2)
H25G H 0.7433 0.4027 0.2237
H25J H 0.7763 0.2433 0.0973
C33G C 0.7463(3) 0.3416(3) 0.23283(19)
C33J C 0.76717(19) 0.2463(3) 0.1584(3)
H26G H 0.7416 0.3342 0.2054
H26J H 0.7946 0.2416 0.1658
N8J N 0.6496(2) 0.2619(2) 0.27382(17)
N8G N 0.7619(2) 0.22618(17) 0.3504(2)
N9G N 0.7572(2) 0.2521(2) 0.31629(17)
N9J N 0.68371(17) 0.2572(2) 0.2479(2)
C34G C 0.7611(3) 0.29279(18) 0.3299(2)
C34J C 0.6701(2) 0.2611(3) 0.20721(18)
C35J C 0.6276(2) 0.2683(3) 0.2080(2)
C35G C 0.7683(3) 0.2920(2) 0.3724(2)
H27J H 0.6107 0.2721 0.1850
H27G H 0.7721 0.3150 0.3893
C36J C 0.61500(17) 0.2687(3) 0.2492(3)
C36G C 0.7687(3) 0.2508(3) 0.38500(17)
H28J H 0.5881 0.2729 0.2586
H28G H 0.7729 0.2414 0.4119
C37J C 0.6533(3) 0.2606(3) 0.3151(3)
C37G C 0.7606(3) 0.1849(3) 0.3467(3)
H29J H 0.6802 0.2492 0.3222
H29G H 0.7492 0.1778 0.3198
H30J H 0.6324 0.2421 0.3262
H30G H 0.7421 0.1738 0.3676
N10J N 0.5491(3) 0.2543(2) 0.5222(2)
N10G N 0.7543(2) -0.0222(2) 0.4509(3)
C38J C 0.5883(2) 0.2639(2) 0.5343(2)
C38G C 0.7639(2) -0.0343(2) 0.4117(2)
C39J C 0.5971(2) 0.2686(3) 0.5753(3)
C39G C 0.7686(3) -0.0753(3) 0.4029(2)
H31J H 0.6239 0.2752 0.5836
H31G H 0.7752 -0.0836 0.3761
C40J C 0.5667(3) 0.2638(3) 0.60409(19)
C40G C 0.7638(3) -0.10409(19) 0.4333(3)
H32J H 0.5727 0.2670 0.6321
H32G H 0.7670 -0.1321 0.4273
C41J C 0.5275(3) 0.2542(3) 0.5919(3)
C41G C 0.7542(3) -0.0919(3) 0.4725(3)
H33J H 0.5067 0.2509 0.6116
H33G H 0.7509 -0.1116 0.4933
C42J C 0.5187(2) 0.2494(3) 0.5510(3)
C42G C 0.7494(3) -0.0510(3) 0.4813(2)
H34J H 0.4919 0.2429 0.5427
H34G H 0.7429 -0.0427 0.5081
N11J N 0.6386(2) 0.2649(2) 0.43912(17)
N11G N 0.7649(2) 0.06088(17) 0.3614(2)
N12J N 0.60399(17) 0.2605(2) 0.4644(2)
N12G N 0.7605(2) 0.0356(2) 0.39601(17)
C43J C 0.6167(2) 0.2649(3) 0.50527(18)
C43G C 0.7649(3) -0.00527(18) 0.3833(2)
C44J C 0.6592(2) 0.2719(3) 0.5053(2)
C44G C 0.7719(3) -0.0053(2) 0.3408(2)
H35J H 0.6757 0.2759 0.5286
H35G H 0.7759 -0.0286 0.3243
C45J C 0.67274(17) 0.2719(3) 0.4644(2)
C45G C 0.7719(3) 0.0356(2) 0.32726(17)
H36J H 0.6999 0.2759 0.4556
H36G H 0.7759 0.0444 0.3001
C46J C 0.6379(4) 0.2626(3) 0.3968(3)
C46G C 0.7626(3) 0.1032(3) 0.3621(4)
H37G H 0.7486 0.1116 0.3873
H37J H 0.6127 0.2486 0.3884
H38G H 0.7458 0.1123 0.3389
H38J H 0.6611 0.2458 0.3877
C47J C 0.6517(2) 0.3382(2) 0.31360(17)
C47G C 0.8382(2) 0.18640(17) 0.3483(2)
H39J H 0.6577 0.3380 0.2854
H39G H 0.8380 0.2146 0.3423
C48J C 0.6488(2) 0.30198(17) 0.3349(2)
C48G C 0.80198(17) 0.1651(2) 0.3512(2)
C49J C 0.6399(2) 0.30239(17) 0.3761(2)
C49G C 0.80239(17) 0.1239(2) 0.3601(2)
C50J C 0.6339(2) 0.3391(2) 0.39602(17)
C50G C 0.8391(2) 0.10398(17) 0.3661(2)
H40G H 0.8393 0.0758 0.3721
H40J H 0.6279 0.3393 0.4242
C51J C 0.6368(2) 0.37533(17) 0.3747(2)
C51G C 0.87533(17) 0.1253(2) 0.3632(2)
C52J C 0.6457(2) 0.37492(17) 0.3335(2)
C52G C 0.87492(17) 0.1665(2) 0.3543(2)
C53G C 0.91248(19) 0.1065(2) 0.3702(4)
C53J C 0.6298(4) 0.41248(19) 0.3935(2)
H41G H 0.9136 0.0782 0.3757
H41J H 0.6243 0.4136 0.4218
C54G C 0.94800(18) 0.1292(3) 0.3690(4)
C54J C 0.6310(4) 0.44800(18) 0.3708(3)
H42G H 0.9731 0.1163 0.3748
H42J H 0.6252 0.4731 0.3837
C55G C 0.94766(18) 0.1703(3) 0.3597(4)
C55J C 0.6403(4) 0.44766(18) 0.3297(3)
H43G H 0.9721 0.1856 0.3596
H43J H 0.6404 0.4721 0.3144
C56G C 0.9107(2) 0.1885(2) 0.3506(4)
C56J C 0.6494(4) 0.4107(2) 0.3115(2)
H44G H 0.9100 0.2159 0.3418
H44J H 0.6582 0.4100 0.2841
F9? F 0.6101(5) 0.1381(6) 0.3847(5)
F10? F 0.6182(4) 0.1717(4) 0.3220(3)
F11? F 0.9665(3) 0.2663(3) 0.3257(2)
F12? F 0.9597(3) 0.3145(2) 0.2754(3)
F13? F 1.0243(3) 0.2999(3) 0.2527(2)
F14? F 1.0311(3) 0.2517(2) 0.3030(3)
loop_
_geom_bond_atom_site_label_1
_geom_bond_atom_site_label_2
_geom_bond_site_symmetry_1
_geom_bond_site_symmetry_2
Zn1 N1 1_555 1_555
Zn2 N7 1_555 1_555
N1 C1 1_555 1_555
C1 C2 1_555 1_555
C2 H1 1_555 1_555
C3 C2 1_555 1_555
H2 C3 1_555 1_555
C4 C3 1_555 1_555
H3 C4 1_555 1_555
C5 N1 1_555 1_555
H4 C5 1_555 1_555
N2 N3 1_555 1_555
N3 Zn1 1_555 1_555
C6 C1 1_555 1_555
C7 C6 1_555 1_555
H5 C7 1_555 1_555
C8 N2 1_555 1_555
H6 C8 1_555 1_555
C9 N2 1_555 1_555
H7 C9 1_555 1_555
H8 C9 1_555 1_555
N4 Zn1 1_555 1_555
C10 N4 1_555 1_555
C11 C10 1_555 1_555
H9 C11 1_555 1_555
C12 C11 1_555 1_555
H10 C12 1_555 1_555
C13 C12 1_555 1_555
H11 C13 1_555 1_555
C14 N4 1_555 1_555
H12 C14 1_555 1_555
N5 N6 1_555 1_555
N6 Zn1 1_555 1_555
C15 C10 1_555 1_555
C16 C15 1_555 1_555
H13 C16 1_555 1_555
C17 N5 1_555 1_555
H14 C17 1_555 1_555
C18 N5 1_555 1_555
H15 C18 1_555 1_555
H16 C18 1_555 1_555
C19 H17 1_555 1_555
C20 C9 1_555 1_555
C21 C18 1_555 1_555
C22 C21 1_555 1_555
H18 C22 1_555 1_555
C23 C22 1_555 1_555
C24 C19 1_555 1_555
C25 C23 1_555 1_555
H19 C25 1_555 1_555
C26 C25 1_555 1_555
H20 C26 1_555 1_555
C27 C26 1_555 1_555
H21 C27 1_555 1_555
C28 C24 1_555 1_555
H22 C28 1_555 1_555
N7 C29 1_555 1_555
C29 C30 1_555 1_555
C30 H23 1_555 1_555
C31 C30 1_555 1_555
H24 C31 1_555 1_555
C32 C31 1_555 1_555
H25 C32 1_555 1_555
C33 N7 1_555 1_555
H26 C33 1_555 1_555
N8 N9 1_555 1_555
N9 Zn2 1_555 1_555
C34 C29 1_555 1_555
C35 C34 1_555 1_555
H27 C35 1_555 1_555
C36 N8 1_555 1_555
H28 C36 1_555 1_555
C37 N8 1_555 1_555
H29 C37 1_555 1_555
H30 C37 1_555 1_555
N10 Zn1 1_555 1_555
C38 N10 1_555 1_555
C39 C38 1_555 1_555
H31 C39 1_555 1_555
C40 C39 1_555 1_555
H32 C40 1_555 1_555
C41 C40 1_555 1_555
H33 C41 1_555 1_555
C42 N10 1_555 1_555
H34 C42 1_555 1_555
N11 N12 1_555 1_555
N12 Zn1 1_555 1_555
C43 C38 1_555 1_555
C44 C43 1_555 1_555
H35 C44 1_555 1_555
C45 N11 1_555 1_555
H36 C45 1_555 1_555
C46 N11 1_555 1_555
H37 C46 1_555 1_555
H38 C46 1_555 1_555
C47 H39 1_555 1_555
C48 C37 1_555 1_555
C49 C46 1_555 1_555
C50 C49 1_555 1_555
H40 C50 1_555 1_555
C51 C50 1_555 1_555
C52 C47 1_555 1_555
C53 C51 1_555 1_555
H41 C53 1_555 1_555
C54 C53 1_555 1_555
H42 C54 1_555 1_555
C55 C54 1_555 1_555
H43 C55 1_555 1_555
C56 C52 1_555 1_555
H44 C56 1_555 1_555
Si1 F1 1_555 1_555
F2 Si1 1_555 1_555
Si2 F3 1_555 1_555
F4 Si2 1_555 1_555
F5 Si2 1_555 1_555
F6 Si2 1_555 1_555
F7 Si2 1_555 1_555
F8 Si2 1_555 1_555
Zn1J N1J 1_555 1_555
Zn1G N1G 1_555 1_555
N1J C1J 1_555 1_555
N1G C1G 1_555 1_555
C1J C2J 1_555 1_555
C1G C2G 1_555 1_555
C2J H1J 1_555 1_555
C2G H1G 1_555 1_555
C3J C2J 1_555 1_555
C3G C2G 1_555 1_555
H2J C3J 1_555 1_555
H2G C3G 1_555 1_555
C4J C3J 1_555 1_555
C4G C3G 1_555 1_555
H3J C4J 1_555 1_555
H3G C4G 1_555 1_555
C5J N1J 1_555 1_555
C5G N1G 1_555 1_555
H4J C5J 1_555 1_555
H4G C5G 1_555 1_555
N2G N3G 1_555 1_555
N2J N3J 1_555 1_555
N3J Zn1J 1_555 1_555
N3G Zn1G 1_555 1_555
C6J C1J 1_555 1_555
C6G C1G 1_555 1_555
C7G C6G 1_555 1_555
C7J C6J 1_555 1_555
H5G C7G 1_555 1_555
H5J C7J 1_555 1_555
C8G N2G 1_555 1_555
C8J N2J 1_555 1_555
H6G C8G 1_555 1_555
H6J C8J 1_555 1_555
C9G N2G 1_555 1_555
C9J N2J 1_555 1_555
H7G C9G 1_555 1_555
H7J C9J 1_555 1_555
H8G C9G 1_555 1_555
H8J C9J 1_555 1_555
N4J Zn1J 1_555 1_555
N4G Zn1G 1_555 1_555
C10J N4J 1_555 1_555
C10G N4G 1_555 1_555
C11J C10J 1_555 1_555
C11G C10G 1_555 1_555
H9J C11J 1_555 1_555
H9G C11G 1_555 1_555
C12J C11J 1_555 1_555
C12G C11G 1_555 1_555
H10J C12J 1_555 1_555
H10G C12G 1_555 1_555
C13J C12J 1_555 1_555
C13G C12G 1_555 1_555
H11J C13J 1_555 1_555
H11G C13G 1_555 1_555
C14J N4J 1_555 1_555
C14G N4G 1_555 1_555
H12J C14J 1_555 1_555
H12G C14G 1_555 1_555
N5J N6J 1_555 1_555
N5G N6G 1_555 1_555
N6J Zn1J 1_555 1_555
N6G Zn1G 1_555 1_555
C15J C10J 1_555 1_555
C15G C10G 1_555 1_555
C16J C15J 1_555 1_555
C16G C15G 1_555 1_555
H13J C16J 1_555 1_555
H13G C16G 1_555 1_555
C17J N5J 1_555 1_555
C17G N5G 1_555 1_555
H14J C17J 1_555 1_555
H14G C17G 1_555 1_555
C18J N5J 1_555 1_555
C18G N5G 1_555 1_555
H15J C18J 1_555 1_555
H15G C18G 1_555 1_555
H16J C18J 1_555 1_555
H16G C18G 1_555 1_555
C19G H17G 1_555 1_555
C19J H17J 1_555 1_555
C20G C9G 1_555 1_555
C20J C21 1_555 1_555
C21J C18J 1_555 1_555
C21G C20 1_555 1_555
C22G C21G 1_555 1_555
C22J C21J 1_555 1_555
H18G C22G 1_555 1_555
H18J C22J 1_555 1_555
C23G C24 1_555 1_555
C23J C22J 1_555 1_555
C24G C19G 1_555 1_555
C24J C23 1_555 1_555
C25G C23G 1_555 1_555
C25J C23J 1_555 1_555
H19G C25G 1_555 1_555
H19J C25J 1_555 1_555
C26G C25G 1_555 1_555
C26J C25J 1_555 1_555
H20G C26G 1_555 1_555
H20J C26J 1_555 1_555
C27G C28 1_555 1_555
C27J C26J 1_555 1_555
H21G C27G 1_555 1_555
H21J C27J 1_555 1_555
C28G C24G 1_555 1_555
C28J C27 1_555 1_555
H22G C28G 1_555 1_555
H22J C28J 1_555 1_555
N7G Zn2 1_555 1_555
N7J Zn2 1_555 1_555
C29G N7G 1_555 1_555
C29J N7J 1_555 1_555
C30G C29G 1_555 1_555
C30J C29J 1_555 1_555
H23G C30G 1_555 1_555
H23J C30J 1_555 1_555
C31G C30G 1_555 1_555
C31J C30J 1_555 1_555
H24G C31G 1_555 1_555
H24J C31J 1_555 1_555
C32G C31G 1_555 1_555
C32J C31J 1_555 1_555
H25G C32G 1_555 1_555
H25J C32J 1_555 1_555
C33G N7G 1_555 1_555
C33J N7J 1_555 1_555
H26G C33G 1_555 1_555
H26J C33J 1_555 1_555
N8J N9J 1_555 1_555
N8G N9G 1_555 1_555
N9G Zn2 1_555 1_555
N9J Zn2 1_555 1_555
C34G C29G 1_555 1_555
C34J C29J 1_555 1_555
C35J C34J 1_555 1_555
C35G C34G 1_555 1_555
H27J C35J 1_555 1_555
H27G C35G 1_555 1_555
C36J N8J 1_555 1_555
C36G N8G 1_555 1_555
H28J C36J 1_555 1_555
H28G C36G 1_555 1_555
C37J N8J 1_555 1_555
C37G N8G 1_555 1_555
H29J C37J 1_555 1_555
H29G C37G 1_555 1_555
H30J C37J 1_555 1_555
H30G C37G 1_555 1_555
N10J Zn1J 1_555 1_555
N10G Zn1G 1_555 1_555
C38J N10J 1_555 1_555
C38G N10G 1_555 1_555
C39J C38J 1_555 1_555
C39G C38G 1_555 1_555
H31J C39J 1_555 1_555
H31G C39G 1_555 1_555
C40J C39J 1_555 1_555
C40G C39G 1_555 1_555
H32J C40J 1_555 1_555
H32G C40G 1_555 1_555
C41J C40J 1_555 1_555
C41G C40G 1_555 1_555
H33J C41J 1_555 1_555
H33G C41G 1_555 1_555
C42J N10J 1_555 1_555
C42G N10G 1_555 1_555
H34J C42J 1_555 1_555
H34G C42G 1_555 1_555
N11J N12J 1_555 1_555
N11G N12G 1_555 1_555
N12J Zn1J 1_555 1_555
N12G Zn1G 1_555 1_555
C43J C38J 1_555 1_555
C43G C38G 1_555 1_555
C44J C43J 1_555 1_555
C44G C43G 1_555 1_555
H35J C44J 1_555 1_555
H35G C44G 1_555 1_555
C45J N11J 1_555 1_555
C45G N11G 1_555 1_555
H36J C45J 1_555 1_555
H36G C45G 1_555 1_555
C46J N11J 1_555 1_555
C46G N11G 1_555 1_555
H37G C46G 1_555 1_555
H37J C46J 1_555 1_555
H38G C46G 1_555 1_555
H38J C46J 1_555 1_555
C47J H39J 1_555 1_555
C47G H39G 1_555 1_555
C48J C37J 1_555 1_555
C48G C37G 1_555 1_555
C49J C46J 1_555 1_555
C49G C46G 1_555 1_555
C50J C49J 1_555 1_555
C50G C49G 1_555 1_555
H40G C50G 1_555 1_555
H40J C50J 1_555 1_555
C51J C50J 1_555 1_555
C51G C50G 1_555 1_555
C52J C47J 1_555 1_555
C52G C47G 1_555 1_555
C53G C51G 1_555 1_555
C53J C51J 1_555 1_555
H41G C53G 1_555 1_555
H41J C53J 1_555 1_555
C54G C53G 1_555 1_555
C54J C53J 1_555 1_555
H42G C54G 1_555 1_555
H42J C54J 1_555 1_555
C55G C54G 1_555 1_555
C55J C54J 1_555 1_555
H43G C55G 1_555 1_555
H43J C55J 1_555 1_555
C56G C52G 1_555 1_555
C56J C52J 1_555 1_555
H44G C56G 1_555 1_555
H44J C56J 1_555 1_555
F1G Si1 1_555 1_555
F1J Si1 1_555 1_555
F2G Si1 1_555 1_555
F2J Si1 1_555 1_555
C4 C5 1_555 1_555
N3 C6 1_555 1_555
C7 C8 1_555 1_555
C13 C14 1_555 1_555
N6 C15 1_555 1_555
C16 C17 1_555 1_555
C19 C20 1_555 1_555
C32 C33 1_555 1_555
N9 C34 1_555 1_555
C35 C36 1_555 1_555
C41 C42 1_555 1_555
N12 C43 1_555 1_555
C44 C45 1_555 1_555
C47 C48 1_555 1_555
C48 C49 1_555 1_555
C51 C52 1_555 1_555
C55 C56 1_555 1_555
C4J C5J 1_555 1_555
C4G C5G 1_555 1_555
N3J C6J 1_555 1_555
N3G C6G 1_555 1_555
C7G C8G 1_555 1_555
C7J C8J 1_555 1_555
C9J C20J 1_555 1_555
C13J C14J 1_555 1_555
C13G C14G 1_555 1_555
N6J C15J 1_555 1_555
N6G C15G 1_555 1_555
C16J C17J 1_555 1_555
C16G C17G 1_555 1_555
C18G C21G 1_555 1_555
C19G C20G 1_555 1_555
C19J C20J 1_555 1_555
C19J C24J 1_555 1_555
C20G C21J 1_555 1_555
C22G C23G 1_555 1_555
C23J C24G 1_555 1_555
C24J C28J 1_555 1_555
C26G C27G 1_555 1_555
C27J C28G 1_555 1_555
C32G C33G 1_555 1_555
C32J C33J 1_555 1_555
N9G C34G 1_555 1_555
N9J C34J 1_555 1_555
C35J C36J 1_555 1_555
C35G C36G 1_555 1_555
C41J C42J 1_555 1_555
C41G C42G 1_555 1_555
N12J C43J 1_555 1_555
N12G C43G 1_555 1_555
C44J C45J 1_555 1_555
C44G C45G 1_555 1_555
C47J C48J 1_555 1_555
C47G C48G 1_555 1_555
C48J C49J 1_555 1_555
C48G C49G 1_555 1_555
C51J C52J 1_555 1_555
C51G C52G 1_555 1_555
C55G C56G 1_555 1_555
C55J C56J 1_555 1_555

#END
