# generated using pymatgen
data_Zn2Si2H66C84(N6F7)3
_symmetry_space_group_name_H-M   'P 1'
_cell_length_a   32.97300000
_cell_length_b   32.97300000
_cell_length_c   32.97300000
_cell_angle_alpha   90.00000000
_cell_angle_beta   90.00000000
_cell_angle_gamma   90.00000000
_symmetry_Int_Tables_number   1
_chemical_formula_structural   Zn2Si2H66C84(N6F7)3
_chemical_formula_sum   'Zn32 Si32 H1056 C1344 N288 F336'
_cell_volume   35848.86315132
_cell_formula_units_Z   16
loop_
 _symmetry_equiv_pos_site_id
 _symmetry_equiv_pos_as_xyz
  1  'x, y, z'
loop_
 _atom_site_type_symbol
 _atom_site_label
 _atom_site_symmetry_multiplicity
 _atom_site_fract_x
 _atom_site_fract_y
 _atom_site_fract_z
 _atom_site_occupancy
  Zn  Zn1  1  0.748750  0.248750  0.251250  1
  Zn  Zn2  1  0.751250  0.751250  0.751250  1
  Zn  Zn3  1  0.251250  0.748750  0.248750  1
  Zn  Zn4  1  0.248750  0.251250  0.748750  1
  Zn  Zn5  1  0.251250  0.751250  0.748750  1
  Zn  Zn6  1  0.248750  0.248750  0.248750  1
  Zn  Zn7  1  0.748750  0.251250  0.751250  1
  Zn  Zn8  1  0.751250  0.748750  0.251250  1
  Zn  Zn9  1  0.541580  0.040310  0.249750  1.0
  Zn  Zn10  1  0.958420  0.959690  0.749750  1.0
  Zn  Zn11  1  0.458420  0.540310  0.250250  1.0
  Zn  Zn12  1  0.041580  0.459690  0.750250  1.0
  Zn  Zn13  1  0.249750  0.541580  0.040310  1.0
  Zn  Zn14  1  0.749750  0.958420  0.959690  1.0
  Zn  Zn15  1  0.250250  0.458420  0.540310  1.0
  Zn  Zn16  1  0.750250  0.041580  0.459690  1.0
  Zn  Zn17  1  0.040310  0.249750  0.541580  1.0
  Zn  Zn18  1  0.959690  0.749750  0.958420  1.0
  Zn  Zn19  1  0.540310  0.250250  0.458420  1.0
  Zn  Zn20  1  0.459690  0.750250  0.041580  1.0
  Zn  Zn21  1  0.458420  0.959690  0.750250  1.0
  Zn  Zn22  1  0.041580  0.040310  0.250250  1.0
  Zn  Zn23  1  0.541580  0.459690  0.749750  1.0
  Zn  Zn24  1  0.958420  0.540310  0.249750  1.0
  Zn  Zn25  1  0.750250  0.458420  0.959690  1.0
  Zn  Zn26  1  0.250250  0.041580  0.040310  1.0
  Zn  Zn27  1  0.749750  0.541580  0.459690  1.0
  Zn  Zn28  1  0.249750  0.958420  0.540310  1.0
  Zn  Zn29  1  0.959690  0.750250  0.458420  1.0
  Zn  Zn30  1  0.040310  0.250250  0.041580  1.0
  Zn  Zn31  1  0.459690  0.749750  0.541580  1.0
  Zn  Zn32  1  0.540310  0.249750  0.958420  1.0
  Si  Si33  1  0.646820  0.146820  0.353180  1
  Si  Si34  1  0.853180  0.853180  0.853180  1
  Si  Si35  1  0.353180  0.646820  0.146820  1
  Si  Si36  1  0.146820  0.353180  0.646820  1
  Si  Si37  1  0.353180  0.853180  0.646820  1
  Si  Si38  1  0.146820  0.146820  0.146820  1
  Si  Si39  1  0.646820  0.353180  0.853180  1
  Si  Si40  1  0.853180  0.646820  0.353180  1
  Si  Si41  1  0.995770  0.283780  0.289780  1
  Si  Si42  1  0.504230  0.716220  0.789780  1
  Si  Si43  1  0.004230  0.783780  0.210220  1
  Si  Si44  1  0.495770  0.216220  0.710220  1
  Si  Si45  1  0.289780  0.995770  0.283780  1
  Si  Si46  1  0.789780  0.504230  0.716220  1
  Si  Si47  1  0.210220  0.004230  0.783780  1
  Si  Si48  1  0.710220  0.495770  0.216220  1
  Si  Si49  1  0.283780  0.289780  0.995770  1
  Si  Si50  1  0.716220  0.789780  0.504230  1
  Si  Si51  1  0.783780  0.210220  0.004230  1
  Si  Si52  1  0.216220  0.710220  0.495770  1
  Si  Si53  1  0.004230  0.716220  0.710220  1
  Si  Si54  1  0.495770  0.283780  0.210220  1
  Si  Si55  1  0.995770  0.216220  0.789780  1
  Si  Si56  1  0.504230  0.783780  0.289780  1
  Si  Si57  1  0.710220  0.004230  0.716220  1
  Si  Si58  1  0.210220  0.495770  0.283780  1
  Si  Si59  1  0.789780  0.995770  0.216220  1
  Si  Si60  1  0.289780  0.504230  0.783780  1
  Si  Si61  1  0.716220  0.710220  0.004230  1
  Si  Si62  1  0.283780  0.210220  0.495770  1
  Si  Si63  1  0.216220  0.789780  0.995770  1
  Si  Si64  1  0.783780  0.289780  0.504230  1
  H  H65  1  0.622600  0.031700  0.120800  1.0
  H  H66  1  0.877400  0.968300  0.620800  1.0
  H  H67  1  0.377400  0.531700  0.379200  1.0
  H  H68  1  0.122600  0.468300  0.879200  1.0
  H  H69  1  0.120800  0.622600  0.031700  1.0
  H  H70  1  0.620800  0.877400  0.968300  1.0
  H  H71  1  0.379200  0.377400  0.531700  1.0
  H  H72  1  0.879200  0.122600  0.468300  1.0
  H  H73  1  0.031700  0.120800  0.622600  1.0
  H  H74  1  0.968300  0.620800  0.877400  1.0
  H  H75  1  0.531700  0.379200  0.377400  1.0
  H  H76  1  0.468300  0.879200  0.122600  1.0
  H  H77  1  0.377400  0.968300  0.879200  1.0
  H  H78  1  0.122600  0.031700  0.379200  1.0
  H  H79  1  0.622600  0.468300  0.620800  1.0
  H  H80  1  0.877400  0.531700  0.120800  1.0
  H  H81  1  0.879200  0.377400  0.968300  1.0
  H  H82  1  0.379200  0.122600  0.031700  1.0
  H  H83  1  0.620800  0.622600  0.468300  1.0
  H  H84  1  0.120800  0.877400  0.531700  1.0
  H  H85  1  0.968300  0.879200  0.377400  1.0
  H  H86  1  0.031700  0.379200  0.122600  1.0
  H  H87  1  0.468300  0.620800  0.622600  1.0
  H  H88  1  0.531700  0.120800  0.877400  1.0
  H  H89  1  0.569100  0.032500  0.074200  1.0
  H  H90  1  0.930900  0.967500  0.574200  1.0
  H  H91  1  0.430900  0.532500  0.425800  1.0
  H  H92  1  0.069100  0.467500  0.925800  1.0
  H  H93  1  0.074200  0.569100  0.032500  1.0
  H  H94  1  0.574200  0.930900  0.967500  1.0
  H  H95  1  0.425800  0.430900  0.532500  1.0
  H  H96  1  0.925800  0.069100  0.467500  1.0
  H  H97  1  0.032500  0.074200  0.569100  1.0
  H  H98  1  0.967500  0.574200  0.930900  1.0
  H  H99  1  0.532500  0.425800  0.430900  1.0
  H  H100  1  0.467500  0.925800  0.069100  1.0
  H  H101  1  0.430900  0.967500  0.925800  1.0
  H  H102  1  0.069100  0.032500  0.425800  1.0
  H  H103  1  0.569100  0.467500  0.574200  1.0
  H  H104  1  0.930900  0.532500  0.074200  1.0
  H  H105  1  0.925800  0.430900  0.967500  1.0
  H  H106  1  0.425800  0.069100  0.032500  1.0
  H  H107  1  0.574200  0.569100  0.467500  1.0
  H  H108  1  0.074200  0.930900  0.532500  1.0
  H  H109  1  0.967500  0.925800  0.430900  1.0
  H  H110  1  0.032500  0.425800  0.069100  1.0
  H  H111  1  0.467500  0.574200  0.569100  1.0
  H  H112  1  0.532500  0.074200  0.930900  1.0
  H  H113  1  0.502000  0.032300  0.097200  1.0
  H  H114  1  0.998000  0.967700  0.597200  1.0
  H  H115  1  0.498000  0.532300  0.402800  1.0
  H  H116  1  0.002000  0.467700  0.902800  1.0
  H  H117  1  0.097200  0.502000  0.032300  1.0
  H  H118  1  0.597200  0.998000  0.967700  1.0
  H  H119  1  0.402800  0.498000  0.532300  1.0
  H  H120  1  0.902800  0.002000  0.467700  1.0
  H  H121  1  0.032300  0.097200  0.502000  1.0
  H  H122  1  0.967700  0.597200  0.998000  1.0
  H  H123  1  0.532300  0.402800  0.498000  1.0
  H  H124  1  0.467700  0.902800  0.002000  1.0
  H  H125  1  0.498000  0.967700  0.902800  1.0
  H  H126  1  0.002000  0.032300  0.402800  1.0
  H  H127  1  0.502000  0.467700  0.597200  1.0
  H  H128  1  0.998000  0.532300  0.097200  1.0
  H  H129  1  0.902800  0.498000  0.967700  1.0
  H  H130  1  0.402800  0.002000  0.032300  1.0
  H  H131  1  0.597200  0.502000  0.467700  1.0
  H  H132  1  0.097200  0.998000  0.532300  1.0
  H  H133  1  0.967700  0.902800  0.498000  1.0
  H  H134  1  0.032300  0.402800  0.002000  1.0
  H  H135  1  0.467700  0.597200  0.502000  1.0
  H  H136  1  0.532300  0.097200  0.998000  1.0
  H  H137  1  0.488400  0.031200  0.166900  1.0
  H  H138  1  0.011600  0.968800  0.666900  1.0
  H  H139  1  0.511600  0.531200  0.333100  1.0
  H  H140  1  0.988400  0.468800  0.833100  1.0
  H  H141  1  0.166900  0.488400  0.031200  1.0
  H  H142  1  0.666900  0.011600  0.968800  1.0
  H  H143  1  0.333100  0.511600  0.531200  1.0
  H  H144  1  0.833100  0.988400  0.468800  1.0
  H  H145  1  0.031200  0.166900  0.488400  1.0
  H  H146  1  0.968800  0.666900  0.011600  1.0
  H  H147  1  0.531200  0.333100  0.511600  1.0
  H  H148  1  0.468800  0.833100  0.988400  1.0
  H  H149  1  0.511600  0.968800  0.833100  1.0
  H  H150  1  0.988400  0.031200  0.333100  1.0
  H  H151  1  0.488400  0.468800  0.666900  1.0
  H  H152  1  0.011600  0.531200  0.166900  1.0
  H  H153  1  0.833100  0.511600  0.968800  1.0
  H  H154  1  0.333100  0.988400  0.031200  1.0
  H  H155  1  0.666900  0.488400  0.468800  1.0
  H  H156  1  0.166900  0.011600  0.531200  1.0
  H  H157  1  0.968800  0.833100  0.511600  1.0
  H  H158  1  0.031200  0.333100  0.988400  1.0
  H  H159  1  0.468800  0.666900  0.488400  1.0
  H  H160  1  0.531200  0.166900  0.011600  1.0
  H  H161  1  0.675000  0.018700  0.173000  1.0
  H  H162  1  0.825000  0.981300  0.673000  1.0
  H  H163  1  0.325000  0.518700  0.327000  1.0
  H  H164  1  0.175000  0.481300  0.827000  1.0
  H  H165  1  0.173000  0.675000  0.018700  1.0
  H  H166  1  0.673000  0.825000  0.981300  1.0
  H  H167  1  0.327000  0.325000  0.518700  1.0
  H  H168  1  0.827000  0.175000  0.481300  1.0
  H  H169  1  0.018700  0.173000  0.675000  1.0
  H  H170  1  0.981300  0.673000  0.825000  1.0
  H  H171  1  0.518700  0.327000  0.325000  1.0
  H  H172  1  0.481300  0.827000  0.175000  1.0
  H  H173  1  0.325000  0.981300  0.827000  1.0
  H  H174  1  0.175000  0.018700  0.327000  1.0
  H  H175  1  0.675000  0.481300  0.673000  1.0
  H  H176  1  0.825000  0.518700  0.173000  1.0
  H  H177  1  0.827000  0.325000  0.981300  1.0
  H  H178  1  0.327000  0.175000  0.018700  1.0
  H  H179  1  0.673000  0.675000  0.481300  1.0
  H  H180  1  0.173000  0.825000  0.518700  1.0
  H  H181  1  0.981300  0.827000  0.325000  1.0
  H  H182  1  0.018700  0.327000  0.175000  1.0
  H  H183  1  0.481300  0.673000  0.675000  1.0
  H  H184  1  0.518700  0.173000  0.825000  1.0
  H  H185  1  0.702500  0.016800  0.244800  1.0
  H  H186  1  0.797500  0.983200  0.744800  1.0
  H  H187  1  0.297500  0.516800  0.255200  1.0
  H  H188  1  0.202500  0.483200  0.755200  1.0
  H  H189  1  0.244800  0.702500  0.016800  1.0
  H  H190  1  0.744800  0.797500  0.983200  1.0
  H  H191  1  0.255200  0.297500  0.516800  1.0
  H  H192  1  0.755200  0.202500  0.483200  1.0
  H  H193  1  0.016800  0.244800  0.702500  1.0
  H  H194  1  0.983200  0.744800  0.797500  1.0
  H  H195  1  0.516800  0.255200  0.297500  1.0
  H  H196  1  0.483200  0.755200  0.202500  1.0
  H  H197  1  0.297500  0.983200  0.755200  1.0
  H  H198  1  0.202500  0.016800  0.255200  1.0
  H  H199  1  0.702500  0.483200  0.744800  1.0
  H  H200  1  0.797500  0.516800  0.244800  1.0
  H  H201  1  0.755200  0.297500  0.983200  1.0
  H  H202  1  0.255200  0.202500  0.016800  1.0
  H  H203  1  0.744800  0.702500  0.483200  1.0
  H  H204  1  0.244800  0.797500  0.516800  1.0
  H  H205  1  0.983200  0.755200  0.297500  1.0
  H  H206  1  0.016800  0.255200  0.202500  1.0
  H  H207  1  0.483200  0.744800  0.702500  1.0
  H  H208  1  0.516800  0.244800  0.797500  1.0
  H  H209  1  0.618600  0.044700  0.316500  1.0
  H  H210  1  0.881400  0.955300  0.816500  1.0
  H  H211  1  0.381400  0.544700  0.183500  1.0
  H  H212  1  0.118600  0.455300  0.683500  1.0
  H  H213  1  0.316500  0.618600  0.044700  1.0
  H  H214  1  0.816500  0.881400  0.955300  1.0
  H  H215  1  0.183500  0.381400  0.544700  1.0
  H  H216  1  0.683500  0.118600  0.455300  1.0
  H  H217  1  0.044700  0.316500  0.618600  1.0
  H  H218  1  0.955300  0.816500  0.881400  1.0
  H  H219  1  0.544700  0.183500  0.381400  1.0
  H  H220  1  0.455300  0.683500  0.118600  1.0
  H  H221  1  0.381400  0.955300  0.683500  1.0
  H  H222  1  0.118600  0.044700  0.183500  1.0
  H  H223  1  0.618600  0.455300  0.816500  1.0
  H  H224  1  0.881400  0.544700  0.316500  1.0
  H  H225  1  0.683500  0.381400  0.955300  1.0
  H  H226  1  0.183500  0.118600  0.044700  1.0
  H  H227  1  0.816500  0.618600  0.455300  1.0
  H  H228  1  0.316500  0.881400  0.544700  1.0
  H  H229  1  0.955300  0.683500  0.381400  1.0
  H  H230  1  0.044700  0.183500  0.118600  1.0
  H  H231  1  0.455300  0.816500  0.618600  1.0
  H  H232  1  0.544700  0.316500  0.881400  1.0
  H  H233  1  0.667000  0.046600  0.315300  1.0
  H  H234  1  0.833000  0.953400  0.815300  1.0
  H  H235  1  0.333000  0.546600  0.184700  1.0
  H  H236  1  0.167000  0.453400  0.684700  1.0
  H  H237  1  0.315300  0.667000  0.046600  1.0
  H  H238  1  0.815300  0.833000  0.953400  1.0
  H  H239  1  0.184700  0.333000  0.546600  1.0
  H  H240  1  0.684700  0.167000  0.453400  1.0
  H  H241  1  0.046600  0.315300  0.667000  1.0
  H  H242  1  0.953400  0.815300  0.833000  1.0
  H  H243  1  0.546600  0.184700  0.333000  1.0
  H  H244  1  0.453400  0.684700  0.167000  1.0
  H  H245  1  0.333000  0.953400  0.684700  1.0
  H  H246  1  0.167000  0.046600  0.184700  1.0
  H  H247  1  0.667000  0.453400  0.815300  1.0
  H  H248  1  0.833000  0.546600  0.315300  1.0
  H  H249  1  0.684700  0.333000  0.953400  1.0
  H  H250  1  0.184700  0.167000  0.046600  1.0
  H  H251  1  0.815300  0.667000  0.453400  1.0
  H  H252  1  0.315300  0.833000  0.546600  1.0
  H  H253  1  0.953400  0.684700  0.333000  1.0
  H  H254  1  0.046600  0.184700  0.167000  1.0
  H  H255  1  0.453400  0.815300  0.667000  1.0
  H  H256  1  0.546600  0.315300  0.833000  1.0
  H  H257  1  0.532600  0.923400  0.348000  1.0
  H  H258  1  0.967400  0.076600  0.848000  1.0
  H  H259  1  0.467400  0.423400  0.152000  1.0
  H  H260  1  0.032600  0.576600  0.652000  1.0
  H  H261  1  0.348000  0.532600  0.923400  1.0
  H  H262  1  0.848000  0.967400  0.076600  1.0
  H  H263  1  0.152000  0.467400  0.423400  1.0
  H  H264  1  0.652000  0.032600  0.576600  1.0
  H  H265  1  0.923400  0.348000  0.532600  1.0
  H  H266  1  0.076600  0.848000  0.967400  1.0
  H  H267  1  0.423400  0.152000  0.467400  1.0
  H  H268  1  0.576600  0.652000  0.032600  1.0
  H  H269  1  0.467400  0.076600  0.652000  1.0
  H  H270  1  0.032600  0.923400  0.152000  1.0
  H  H271  1  0.532600  0.576600  0.848000  1.0
  H  H272  1  0.967400  0.423400  0.348000  1.0
  H  H273  1  0.652000  0.467400  0.076600  1.0
  H  H274  1  0.152000  0.032600  0.923400  1.0
  H  H275  1  0.848000  0.532600  0.576600  1.0
  H  H276  1  0.348000  0.967400  0.423400  1.0
  H  H277  1  0.076600  0.652000  0.467400  1.0
  H  H278  1  0.923400  0.152000  0.032600  1.0
  H  H279  1  0.576600  0.848000  0.532600  1.0
  H  H280  1  0.423400  0.348000  0.967400  1.0
  H  H281  1  0.536200  0.870500  0.300800  1.0
  H  H282  1  0.963800  0.129500  0.800800  1.0
  H  H283  1  0.463800  0.370500  0.199200  1.0
  H  H284  1  0.036200  0.629500  0.699200  1.0
  H  H285  1  0.300800  0.536200  0.870500  1.0
  H  H286  1  0.800800  0.963800  0.129500  1.0
  H  H287  1  0.199200  0.463800  0.370500  1.0
  H  H288  1  0.699200  0.036200  0.629500  1.0
  H  H289  1  0.870500  0.300800  0.536200  1.0
  H  H290  1  0.129500  0.800800  0.963800  1.0
  H  H291  1  0.370500  0.199200  0.463800  1.0
  H  H292  1  0.629500  0.699200  0.036200  1.0
  H  H293  1  0.463800  0.129500  0.699200  1.0
  H  H294  1  0.036200  0.870500  0.199200  1.0
  H  H295  1  0.536200  0.629500  0.800800  1.0
  H  H296  1  0.963800  0.370500  0.300800  1.0
  H  H297  1  0.699200  0.463800  0.129500  1.0
  H  H298  1  0.199200  0.036200  0.870500  1.0
  H  H299  1  0.800800  0.536200  0.629500  1.0
  H  H300  1  0.300800  0.963800  0.370500  1.0
  H  H301  1  0.129500  0.699200  0.463800  1.0
  H  H302  1  0.870500  0.199200  0.036200  1.0
  H  H303  1  0.629500  0.800800  0.536200  1.0
  H  H304  1  0.370500  0.300800  0.963800  1.0
  H  H305  1  0.542400  0.885100  0.231600  1.0
  H  H306  1  0.957600  0.114900  0.731600  1.0
  H  H307  1  0.457600  0.385100  0.268400  1.0
  H  H308  1  0.042400  0.614900  0.768400  1.0
  H  H309  1  0.231600  0.542400  0.885100  1.0
  H  H310  1  0.731600  0.957600  0.114900  1.0
  H  H311  1  0.268400  0.457600  0.385100  1.0
  H  H312  1  0.768400  0.042400  0.614900  1.0
  H  H313  1  0.885100  0.231600  0.542400  1.0
  H  H314  1  0.114900  0.731600  0.957600  1.0
  H  H315  1  0.385100  0.268400  0.457600  1.0
  H  H316  1  0.614900  0.768400  0.042400  1.0
  H  H317  1  0.457600  0.114900  0.768400  1.0
  H  H318  1  0.042400  0.885100  0.268400  1.0
  H  H319  1  0.542400  0.614900  0.731600  1.0
  H  H320  1  0.957600  0.385100  0.231600  1.0
  H  H321  1  0.768400  0.457600  0.114900  1.0
  H  H322  1  0.268400  0.042400  0.885100  1.0
  H  H323  1  0.731600  0.542400  0.614900  1.0
  H  H324  1  0.231600  0.957600  0.385100  1.0
  H  H325  1  0.114900  0.768400  0.457600  1.0
  H  H326  1  0.885100  0.268400  0.042400  1.0
  H  H327  1  0.614900  0.731600  0.542400  1.0
  H  H328  1  0.385100  0.231600  0.957600  1.0
  H  H329  1  0.545000  0.952500  0.209600  1.0
  H  H330  1  0.955000  0.047500  0.709600  1.0
  H  H331  1  0.455000  0.452500  0.290400  1.0
  H  H332  1  0.045000  0.547500  0.790400  1.0
  H  H333  1  0.209600  0.545000  0.952500  1.0
  H  H334  1  0.709600  0.955000  0.047500  1.0
  H  H335  1  0.290400  0.455000  0.452500  1.0
  H  H336  1  0.790400  0.045000  0.547500  1.0
  H  H337  1  0.952500  0.209600  0.545000  1.0
  H  H338  1  0.047500  0.709600  0.955000  1.0
  H  H339  1  0.452500  0.290400  0.455000  1.0
  H  H340  1  0.547500  0.790400  0.045000  1.0
  H  H341  1  0.455000  0.047500  0.790400  1.0
  H  H342  1  0.045000  0.952500  0.290400  1.0
  H  H343  1  0.545000  0.547500  0.709600  1.0
  H  H344  1  0.955000  0.452500  0.209600  1.0
  H  H345  1  0.790400  0.455000  0.047500  1.0
  H  H346  1  0.290400  0.045000  0.952500  1.0
  H  H347  1  0.709600  0.545000  0.547500  1.0
  H  H348  1  0.209600  0.955000  0.452500  1.0
  H  H349  1  0.047500  0.790400  0.455000  1.0
  H  H350  1  0.952500  0.290400  0.045000  1.0
  H  H351  1  0.547500  0.709600  0.545000  1.0
  H  H352  1  0.452500  0.209600  0.955000  1.0
  H  H353  1  0.523100  0.983200  0.392300  1.0
  H  H354  1  0.976900  0.016800  0.892300  1.0
  H  H355  1  0.476900  0.483200  0.107700  1.0
  H  H356  1  0.023100  0.516800  0.607700  1.0
  H  H357  1  0.392300  0.523100  0.983200  1.0
  H  H358  1  0.892300  0.976900  0.016800  1.0
  H  H359  1  0.107700  0.476900  0.483200  1.0
  H  H360  1  0.607700  0.023100  0.516800  1.0
  H  H361  1  0.983200  0.392300  0.523100  1.0
  H  H362  1  0.016800  0.892300  0.976900  1.0
  H  H363  1  0.483200  0.107700  0.476900  1.0
  H  H364  1  0.516800  0.607700  0.023100  1.0
  H  H365  1  0.476900  0.016800  0.607700  1.0
  H  H366  1  0.023100  0.983200  0.107700  1.0
  H  H367  1  0.523100  0.516800  0.892300  1.0
  H  H368  1  0.976900  0.483200  0.392300  1.0
  H  H369  1  0.607700  0.476900  0.016800  1.0
  H  H370  1  0.107700  0.023100  0.983200  1.0
  H  H371  1  0.892300  0.523100  0.516800  1.0
  H  H372  1  0.392300  0.976900  0.483200  1.0
  H  H373  1  0.016800  0.607700  0.476900  1.0
  H  H374  1  0.983200  0.107700  0.023100  1.0
  H  H375  1  0.516800  0.892300  0.523100  1.0
  H  H376  1  0.483200  0.392300  0.976900  1.0
  H  H377  1  0.524400  0.058100  0.409800  1.0
  H  H378  1  0.975600  0.941900  0.909800  1.0
  H  H379  1  0.475600  0.558100  0.090200  1.0
  H  H380  1  0.024400  0.441900  0.590200  1.0
  H  H381  1  0.409800  0.524400  0.058100  1.0
  H  H382  1  0.909800  0.975600  0.941900  1.0
  H  H383  1  0.090200  0.475600  0.558100  1.0
  H  H384  1  0.590200  0.024400  0.441900  1.0
  H  H385  1  0.058100  0.409800  0.524400  1.0
  H  H386  1  0.941900  0.909800  0.975600  1.0
  H  H387  1  0.558100  0.090200  0.475600  1.0
  H  H388  1  0.441900  0.590200  0.024400  1.0
  H  H389  1  0.475600  0.941900  0.590200  1.0
  H  H390  1  0.024400  0.058100  0.090200  1.0
  H  H391  1  0.524400  0.441900  0.909800  1.0
  H  H392  1  0.975600  0.558100  0.409800  1.0
  H  H393  1  0.590200  0.475600  0.941900  1.0
  H  H394  1  0.090200  0.024400  0.058100  1.0
  H  H395  1  0.909800  0.524400  0.441900  1.0
  H  H396  1  0.409800  0.975600  0.558100  1.0
  H  H397  1  0.941900  0.590200  0.475600  1.0
  H  H398  1  0.058100  0.090200  0.024400  1.0
  H  H399  1  0.441900  0.909800  0.524400  1.0
  H  H400  1  0.558100  0.409800  0.975600  1.0
  H  H401  1  0.544300  0.118000  0.314000  1.0
  H  H402  1  0.955700  0.882000  0.814000  1.0
  H  H403  1  0.455700  0.618000  0.186000  1.0
  H  H404  1  0.044300  0.382000  0.686000  1.0
  H  H405  1  0.314000  0.544300  0.118000  1.0
  H  H406  1  0.814000  0.955700  0.882000  1.0
  H  H407  1  0.186000  0.455700  0.618000  1.0
  H  H408  1  0.686000  0.044300  0.382000  1.0
  H  H409  1  0.118000  0.314000  0.544300  1.0
  H  H410  1  0.882000  0.814000  0.955700  1.0
  H  H411  1  0.618000  0.186000  0.455700  1.0
  H  H412  1  0.382000  0.686000  0.044300  1.0
  H  H413  1  0.455700  0.882000  0.686000  1.0
  H  H414  1  0.044300  0.118000  0.186000  1.0
  H  H415  1  0.544300  0.382000  0.814000  1.0
  H  H416  1  0.955700  0.618000  0.314000  1.0
  H  H417  1  0.686000  0.455700  0.882000  1.0
  H  H418  1  0.186000  0.044300  0.118000  1.0
  H  H419  1  0.814000  0.544300  0.382000  1.0
  H  H420  1  0.314000  0.955700  0.618000  1.0
  H  H421  1  0.882000  0.686000  0.455700  1.0
  H  H422  1  0.118000  0.186000  0.044300  1.0
  H  H423  1  0.382000  0.814000  0.544300  1.0
  H  H424  1  0.618000  0.314000  0.955700  1.0
  H  H425  1  0.552900  0.124100  0.361400  1.0
  H  H426  1  0.947100  0.875900  0.861400  1.0
  H  H427  1  0.447100  0.624100  0.138600  1.0
  H  H428  1  0.052900  0.375900  0.638600  1.0
  H  H429  1  0.361400  0.552900  0.124100  1.0
  H  H430  1  0.861400  0.947100  0.875900  1.0
  H  H431  1  0.138600  0.447100  0.624100  1.0
  H  H432  1  0.638600  0.052900  0.375900  1.0
  H  H433  1  0.124100  0.361400  0.552900  1.0
  H  H434  1  0.875900  0.861400  0.947100  1.0
  H  H435  1  0.624100  0.138600  0.447100  1.0
  H  H436  1  0.375900  0.638600  0.052900  1.0
  H  H437  1  0.447100  0.875900  0.638600  1.0
  H  H438  1  0.052900  0.124100  0.138600  1.0
  H  H439  1  0.552900  0.375900  0.861400  1.0
  H  H440  1  0.947100  0.624100  0.361400  1.0
  H  H441  1  0.638600  0.447100  0.875900  1.0
  H  H442  1  0.138600  0.052900  0.124100  1.0
  H  H443  1  0.861400  0.552900  0.375900  1.0
  H  H444  1  0.361400  0.947100  0.624100  1.0
  H  H445  1  0.875900  0.638600  0.447100  1.0
  H  H446  1  0.124100  0.138600  0.052900  1.0
  H  H447  1  0.375900  0.861400  0.552900  1.0
  H  H448  1  0.624100  0.361400  0.947100  1.0
  H  H449  1  0.634500  0.952300  0.281700  1.0
  H  H450  1  0.865500  0.047700  0.781700  1.0
  H  H451  1  0.365500  0.452300  0.218300  1.0
  H  H452  1  0.134500  0.547700  0.718300  1.0
  H  H453  1  0.281700  0.634500  0.952300  1.0
  H  H454  1  0.781700  0.865500  0.047700  1.0
  H  H455  1  0.218300  0.365500  0.452300  1.0
  H  H456  1  0.718300  0.134500  0.547700  1.0
  H  H457  1  0.952300  0.281700  0.634500  1.0
  H  H458  1  0.047700  0.781700  0.865500  1.0
  H  H459  1  0.452300  0.218300  0.365500  1.0
  H  H460  1  0.547700  0.718300  0.134500  1.0
  H  H461  1  0.365500  0.047700  0.718300  1.0
  H  H462  1  0.134500  0.952300  0.218300  1.0
  H  H463  1  0.634500  0.547700  0.781700  1.0
  H  H464  1  0.865500  0.452300  0.281700  1.0
  H  H465  1  0.718300  0.365500  0.047700  1.0
  H  H466  1  0.218300  0.134500  0.952300  1.0
  H  H467  1  0.781700  0.634500  0.547700  1.0
  H  H468  1  0.281700  0.865500  0.452300  1.0
  H  H469  1  0.047700  0.718300  0.365500  1.0
  H  H470  1  0.952300  0.218300  0.134500  1.0
  H  H471  1  0.547700  0.781700  0.634500  1.0
  H  H472  1  0.452300  0.281700  0.865500  1.0
  H  H473  1  0.458300  0.079100  0.338600  1.0
  H  H474  1  0.041700  0.920900  0.838600  1.0
  H  H475  1  0.541700  0.579100  0.161400  1.0
  H  H476  1  0.958300  0.420900  0.661400  1.0
  H  H477  1  0.338600  0.458300  0.079100  1.0
  H  H478  1  0.838600  0.041700  0.920900  1.0
  H  H479  1  0.161400  0.541700  0.579100  1.0
  H  H480  1  0.661400  0.958300  0.420900  1.0
  H  H481  1  0.079100  0.338600  0.458300  1.0
  H  H482  1  0.920900  0.838600  0.041700  1.0
  H  H483  1  0.579100  0.161400  0.541700  1.0
  H  H484  1  0.420900  0.661400  0.958300  1.0
  H  H485  1  0.541700  0.920900  0.661400  1.0
  H  H486  1  0.958300  0.079100  0.161400  1.0
  H  H487  1  0.458300  0.420900  0.838600  1.0
  H  H488  1  0.041700  0.579100  0.338600  1.0
  H  H489  1  0.661400  0.541700  0.920900  1.0
  H  H490  1  0.161400  0.958300  0.079100  1.0
  H  H491  1  0.838600  0.458300  0.420900  1.0
  H  H492  1  0.338600  0.041700  0.579100  1.0
  H  H493  1  0.920900  0.661400  0.541700  1.0
  H  H494  1  0.079100  0.161400  0.958300  1.0
  H  H495  1  0.420900  0.838600  0.458300  1.0
  H  H496  1  0.579100  0.338600  0.041700  1.0
  H  H497  1  0.385200  0.076800  0.335600  1.0
  H  H498  1  0.114800  0.923200  0.835600  1.0
  H  H499  1  0.614800  0.576800  0.164400  1.0
  H  H500  1  0.885200  0.423200  0.664400  1.0
  H  H501  1  0.335600  0.385200  0.076800  1.0
  H  H502  1  0.835600  0.114800  0.923200  1.0
  H  H503  1  0.164400  0.614800  0.576800  1.0
  H  H504  1  0.664400  0.885200  0.423200  1.0
  H  H505  1  0.076800  0.335600  0.385200  1.0
  H  H506  1  0.923200  0.835600  0.114800  1.0
  H  H507  1  0.576800  0.164400  0.614800  1.0
  H  H508  1  0.423200  0.664400  0.885200  1.0
  H  H509  1  0.614800  0.923200  0.664400  1.0
  H  H510  1  0.885200  0.076800  0.164400  1.0
  H  H511  1  0.385200  0.423200  0.835600  1.0
  H  H512  1  0.114800  0.576800  0.335600  1.0
  H  H513  1  0.664400  0.614800  0.923200  1.0
  H  H514  1  0.164400  0.885200  0.076800  1.0
  H  H515  1  0.835600  0.385200  0.423200  1.0
  H  H516  1  0.335600  0.114800  0.576800  1.0
  H  H517  1  0.923200  0.664400  0.614800  1.0
  H  H518  1  0.076800  0.164400  0.885200  1.0
  H  H519  1  0.423200  0.835600  0.385200  1.0
  H  H520  1  0.576800  0.335600  0.114800  1.0
  H  H521  1  0.322800  0.106500  0.352300  1.0
  H  H522  1  0.177200  0.893500  0.852300  1.0
  H  H523  1  0.677200  0.606500  0.147700  1.0
  H  H524  1  0.822800  0.393500  0.647700  1.0
  H  H525  1  0.352300  0.322800  0.106500  1.0
  H  H526  1  0.852300  0.177200  0.893500  1.0
  H  H527  1  0.147700  0.677200  0.606500  1.0
  H  H528  1  0.647700  0.822800  0.393500  1.0
  H  H529  1  0.106500  0.352300  0.322800  1.0
  H  H530  1  0.893500  0.852300  0.177200  1.0
  H  H531  1  0.606500  0.147700  0.677200  1.0
  H  H532  1  0.393500  0.647700  0.822800  1.0
  H  H533  1  0.677200  0.893500  0.647700  1.0
  H  H534  1  0.822800  0.106500  0.147700  1.0
  H  H535  1  0.322800  0.393500  0.852300  1.0
  H  H536  1  0.177200  0.606500  0.352300  1.0
  H  H537  1  0.647700  0.677200  0.893500  1.0
  H  H538  1  0.147700  0.822800  0.106500  1.0
  H  H539  1  0.852300  0.322800  0.393500  1.0
  H  H540  1  0.352300  0.177200  0.606500  1.0
  H  H541  1  0.893500  0.647700  0.677200  1.0
  H  H542  1  0.106500  0.147700  0.822800  1.0
  H  H543  1  0.393500  0.852300  0.322800  1.0
  H  H544  1  0.606500  0.352300  0.177200  1.0
  H  H545  1  0.319900  0.175600  0.368100  1.0
  H  H546  1  0.180100  0.824400  0.868100  1.0
  H  H547  1  0.680100  0.675600  0.131900  1.0
  H  H548  1  0.819900  0.324400  0.631900  1.0
  H  H549  1  0.368100  0.319900  0.175600  1.0
  H  H550  1  0.868100  0.180100  0.824400  1.0
  H  H551  1  0.131900  0.680100  0.675600  1.0
  H  H552  1  0.631900  0.819900  0.324400  1.0
  H  H553  1  0.175600  0.368100  0.319900  1.0
  H  H554  1  0.824400  0.868100  0.180100  1.0
  H  H555  1  0.675600  0.131900  0.680100  1.0
  H  H556  1  0.324400  0.631900  0.819900  1.0
  H  H557  1  0.680100  0.824400  0.631900  1.0
  H  H558  1  0.819900  0.175600  0.131900  1.0
  H  H559  1  0.319900  0.324400  0.868100  1.0
  H  H560  1  0.180100  0.675600  0.368100  1.0
  H  H561  1  0.631900  0.680100  0.824400  1.0
  H  H562  1  0.131900  0.819900  0.175600  1.0
  H  H563  1  0.868100  0.319900  0.324400  1.0
  H  H564  1  0.368100  0.180100  0.675600  1.0
  H  H565  1  0.824400  0.631900  0.680100  1.0
  H  H566  1  0.175600  0.131900  0.819900  1.0
  H  H567  1  0.324400  0.868100  0.319900  1.0
  H  H568  1  0.675600  0.368100  0.180100  1.0
  H  H569  1  0.624600  0.879900  0.287100  1.0
  H  H570  1  0.875400  0.120100  0.787100  1.0
  H  H571  1  0.375400  0.379900  0.212900  1.0
  H  H572  1  0.124600  0.620100  0.712900  1.0
  H  H573  1  0.287100  0.624600  0.879900  1.0
  H  H574  1  0.787100  0.875400  0.120100  1.0
  H  H575  1  0.212900  0.375400  0.379900  1.0
  H  H576  1  0.712900  0.124600  0.620100  1.0
  H  H577  1  0.879900  0.287100  0.624600  1.0
  H  H578  1  0.120100  0.787100  0.875400  1.0
  H  H579  1  0.379900  0.212900  0.375400  1.0
  H  H580  1  0.620100  0.712900  0.124600  1.0
  H  H581  1  0.375400  0.120100  0.712900  1.0
  H  H582  1  0.124600  0.879900  0.212900  1.0
  H  H583  1  0.624600  0.620100  0.787100  1.0
  H  H584  1  0.875400  0.379900  0.287100  1.0
  H  H585  1  0.712900  0.375400  0.120100  1.0
  H  H586  1  0.212900  0.124600  0.879900  1.0
  H  H587  1  0.787100  0.624600  0.620100  1.0
  H  H588  1  0.287100  0.875400  0.379900  1.0
  H  H589  1  0.120100  0.712900  0.375400  1.0
  H  H590  1  0.879900  0.212900  0.124600  1.0
  H  H591  1  0.620100  0.787100  0.624600  1.0
  H  H592  1  0.379900  0.287100  0.875400  1.0
  H  H593  1  0.871100  0.159500  0.235300  1.0
  H  H594  1  0.628900  0.840500  0.735300  1.0
  H  H595  1  0.128900  0.659500  0.264700  1.0
  H  H596  1  0.371100  0.340500  0.764700  1.0
  H  H597  1  0.235300  0.871100  0.159500  1.0
  H  H598  1  0.735300  0.628900  0.840500  1.0
  H  H599  1  0.264700  0.128900  0.659500  1.0
  H  H600  1  0.764700  0.371100  0.340500  1.0
  H  H601  1  0.159500  0.235300  0.871100  1.0
  H  H602  1  0.840500  0.735300  0.628900  1.0
  H  H603  1  0.659500  0.264700  0.128900  1.0
  H  H604  1  0.340500  0.764700  0.371100  1.0
  H  H605  1  0.128900  0.840500  0.764700  1.0
  H  H606  1  0.371100  0.159500  0.264700  1.0
  H  H607  1  0.871100  0.340500  0.735300  1.0
  H  H608  1  0.628900  0.659500  0.235300  1.0
  H  H609  1  0.764700  0.128900  0.840500  1.0
  H  H610  1  0.264700  0.371100  0.159500  1.0
  H  H611  1  0.735300  0.871100  0.340500  1.0
  H  H612  1  0.235300  0.628900  0.659500  1.0
  H  H613  1  0.840500  0.764700  0.128900  1.0
  H  H614  1  0.159500  0.264700  0.371100  1.0
  H  H615  1  0.340500  0.735300  0.871100  1.0
  H  H616  1  0.659500  0.235300  0.628900  1.0
  H  H617  1  0.921200  0.208800  0.245200  1.0
  H  H618  1  0.578800  0.791200  0.745200  1.0
  H  H619  1  0.078800  0.708800  0.254800  1.0
  H  H620  1  0.421200  0.291200  0.754800  1.0
  H  H621  1  0.245200  0.921200  0.208800  1.0
  H  H622  1  0.745200  0.578800  0.791200  1.0
  H  H623  1  0.254800  0.078800  0.708800  1.0
  H  H624  1  0.754800  0.421200  0.291200  1.0
  H  H625  1  0.208800  0.245200  0.921200  1.0
  H  H626  1  0.791200  0.745200  0.578800  1.0
  H  H627  1  0.708800  0.254800  0.078800  1.0
  H  H628  1  0.291200  0.754800  0.421200  1.0
  H  H629  1  0.078800  0.791200  0.754800  1.0
  H  H630  1  0.421200  0.208800  0.254800  1.0
  H  H631  1  0.921200  0.291200  0.745200  1.0
  H  H632  1  0.578800  0.708800  0.245200  1.0
  H  H633  1  0.754800  0.078800  0.791200  1.0
  H  H634  1  0.254800  0.421200  0.208800  1.0
  H  H635  1  0.745200  0.921200  0.291200  1.0
  H  H636  1  0.245200  0.578800  0.708800  1.0
  H  H637  1  0.791200  0.754800  0.078800  1.0
  H  H638  1  0.208800  0.254800  0.421200  1.0
  H  H639  1  0.291200  0.745200  0.921200  1.0
  H  H640  1  0.708800  0.245200  0.578800  1.0
  H  H641  1  0.902700  0.276300  0.256700  1.0
  H  H642  1  0.597300  0.723700  0.756700  1.0
  H  H643  1  0.097300  0.776300  0.243300  1.0
  H  H644  1  0.402700  0.223700  0.743300  1.0
  H  H645  1  0.256700  0.902700  0.276300  1.0
  H  H646  1  0.756700  0.597300  0.723700  1.0
  H  H647  1  0.243300  0.097300  0.776300  1.0
  H  H648  1  0.743300  0.402700  0.223700  1.0
  H  H649  1  0.276300  0.256700  0.902700  1.0
  H  H650  1  0.723700  0.756700  0.597300  1.0
  H  H651  1  0.776300  0.243300  0.097300  1.0
  H  H652  1  0.223700  0.743300  0.402700  1.0
  H  H653  1  0.097300  0.723700  0.743300  1.0
  H  H654  1  0.402700  0.276300  0.243300  1.0
  H  H655  1  0.902700  0.223700  0.756700  1.0
  H  H656  1  0.597300  0.776300  0.256700  1.0
  H  H657  1  0.743300  0.097300  0.723700  1.0
  H  H658  1  0.243300  0.402700  0.276300  1.0
  H  H659  1  0.756700  0.902700  0.223700  1.0
  H  H660  1  0.256700  0.597300  0.776300  1.0
  H  H661  1  0.723700  0.743300  0.097300  1.0
  H  H662  1  0.276300  0.243300  0.402700  1.0
  H  H663  1  0.223700  0.756700  0.902700  1.0
  H  H664  1  0.776300  0.256700  0.597300  1.0
  H  H665  1  0.834200  0.294600  0.258400  1.0
  H  H666  1  0.665800  0.705400  0.758400  1.0
  H  H667  1  0.165800  0.794600  0.241600  1.0
  H  H668  1  0.334200  0.205400  0.741600  1.0
  H  H669  1  0.258400  0.834200  0.294600  1.0
  H  H670  1  0.758400  0.665800  0.705400  1.0
  H  H671  1  0.241600  0.165800  0.794600  1.0
  H  H672  1  0.741600  0.334200  0.205400  1.0
  H  H673  1  0.294600  0.258400  0.834200  1.0
  H  H674  1  0.705400  0.758400  0.665800  1.0
  H  H675  1  0.794600  0.241600  0.165800  1.0
  H  H676  1  0.205400  0.741600  0.334200  1.0
  H  H677  1  0.165800  0.705400  0.741600  1.0
  H  H678  1  0.334200  0.294600  0.241600  1.0
  H  H679  1  0.834200  0.205400  0.758400  1.0
  H  H680  1  0.665800  0.794600  0.258400  1.0
  H  H681  1  0.741600  0.165800  0.705400  1.0
  H  H682  1  0.241600  0.334200  0.294600  1.0
  H  H683  1  0.758400  0.834200  0.205400  1.0
  H  H684  1  0.258400  0.665800  0.794600  1.0
  H  H685  1  0.705400  0.741600  0.165800  1.0
  H  H686  1  0.294600  0.241600  0.334200  1.0
  H  H687  1  0.205400  0.758400  0.834200  1.0
  H  H688  1  0.794600  0.258400  0.665800  1.0
  H  H689  1  0.815000  0.110700  0.227900  1.0
  H  H690  1  0.685000  0.889300  0.727900  1.0
  H  H691  1  0.185000  0.610700  0.272100  1.0
  H  H692  1  0.315000  0.389300  0.772100  1.0
  H  H693  1  0.227900  0.815000  0.110700  1.0
  H  H694  1  0.727900  0.685000  0.889300  1.0
  H  H695  1  0.272100  0.185000  0.610700  1.0
  H  H696  1  0.772100  0.315000  0.389300  1.0
  H  H697  1  0.110700  0.227900  0.815000  1.0
  H  H698  1  0.889300  0.727900  0.685000  1.0
  H  H699  1  0.610700  0.272100  0.185000  1.0
  H  H700  1  0.389300  0.772100  0.315000  1.0
  H  H701  1  0.185000  0.889300  0.772100  1.0
  H  H702  1  0.315000  0.110700  0.272100  1.0
  H  H703  1  0.815000  0.389300  0.727900  1.0
  H  H704  1  0.685000  0.610700  0.227900  1.0
  H  H705  1  0.772100  0.185000  0.889300  1.0
  H  H706  1  0.272100  0.315000  0.110700  1.0
  H  H707  1  0.727900  0.815000  0.389300  1.0
  H  H708  1  0.227900  0.685000  0.610700  1.0
  H  H709  1  0.889300  0.772100  0.185000  1.0
  H  H710  1  0.110700  0.272100  0.315000  1.0
  H  H711  1  0.389300  0.727900  0.815000  1.0
  H  H712  1  0.610700  0.227900  0.685000  1.0
  H  H713  1  0.741400  0.088100  0.227100  1.0
  H  H714  1  0.758600  0.911900  0.727100  1.0
  H  H715  1  0.258600  0.588100  0.272900  1.0
  H  H716  1  0.241400  0.411900  0.772900  1.0
  H  H717  1  0.227100  0.741400  0.088100  1.0
  H  H718  1  0.727100  0.758600  0.911900  1.0
  H  H719  1  0.272900  0.258600  0.588100  1.0
  H  H720  1  0.772900  0.241400  0.411900  1.0
  H  H721  1  0.088100  0.227100  0.741400  1.0
  H  H722  1  0.911900  0.727100  0.758600  1.0
  H  H723  1  0.588100  0.272900  0.258600  1.0
  H  H724  1  0.411900  0.772900  0.241400  1.0
  H  H725  1  0.258600  0.911900  0.772900  1.0
  H  H726  1  0.241400  0.088100  0.272900  1.0
  H  H727  1  0.741400  0.411900  0.727100  1.0
  H  H728  1  0.758600  0.588100  0.227100  1.0
  H  H729  1  0.772900  0.258600  0.911900  1.0
  H  H730  1  0.272900  0.241400  0.088100  1.0
  H  H731  1  0.727100  0.741400  0.411900  1.0
  H  H732  1  0.227100  0.758600  0.588100  1.0
  H  H733  1  0.911900  0.772900  0.258600  1.0
  H  H734  1  0.088100  0.272900  0.241400  1.0
  H  H735  1  0.411900  0.727100  0.741400  1.0
  H  H736  1  0.588100  0.227100  0.758600  1.0
  H  H737  1  0.677800  0.180200  0.250800  1.0
  H  H738  1  0.822200  0.819800  0.750800  1.0
  H  H739  1  0.322200  0.680200  0.249200  1.0
  H  H740  1  0.177800  0.319800  0.749200  1.0
  H  H741  1  0.250800  0.677800  0.180200  1.0
  H  H742  1  0.750800  0.822200  0.819800  1.0
  H  H743  1  0.249200  0.322200  0.680200  1.0
  H  H744  1  0.749200  0.177800  0.319800  1.0
  H  H745  1  0.180200  0.250800  0.677800  1.0
  H  H746  1  0.819800  0.750800  0.822200  1.0
  H  H747  1  0.680200  0.249200  0.322200  1.0
  H  H748  1  0.319800  0.749200  0.177800  1.0
  H  H749  1  0.322200  0.819800  0.749200  1.0
  H  H750  1  0.177800  0.180200  0.249200  1.0
  H  H751  1  0.677800  0.319800  0.750800  1.0
  H  H752  1  0.822200  0.680200  0.250800  1.0
  H  H753  1  0.749200  0.322200  0.819800  1.0
  H  H754  1  0.249200  0.177800  0.180200  1.0
  H  H755  1  0.750800  0.677800  0.319800  1.0
  H  H756  1  0.250800  0.822200  0.680200  1.0
  H  H757  1  0.819800  0.749200  0.322200  1.0
  H  H758  1  0.180200  0.249200  0.177800  1.0
  H  H759  1  0.319800  0.750800  0.677800  1.0
  H  H760  1  0.680200  0.250800  0.822200  1.0
  H  H761  1  0.673800  0.132400  0.257900  1.0
  H  H762  1  0.826200  0.867600  0.757900  1.0
  H  H763  1  0.326200  0.632400  0.242100  1.0
  H  H764  1  0.173800  0.367600  0.742100  1.0
  H  H765  1  0.257900  0.673800  0.132400  1.0
  H  H766  1  0.757900  0.826200  0.867600  1.0
  H  H767  1  0.242100  0.326200  0.632400  1.0
  H  H768  1  0.742100  0.173800  0.367600  1.0
  H  H769  1  0.132400  0.257900  0.673800  1.0
  H  H770  1  0.867600  0.757900  0.826200  1.0
  H  H771  1  0.632400  0.242100  0.326200  1.0
  H  H772  1  0.367600  0.742100  0.173800  1.0
  H  H773  1  0.326200  0.867600  0.742100  1.0
  H  H774  1  0.173800  0.132400  0.242100  1.0
  H  H775  1  0.673800  0.367600  0.757900  1.0
  H  H776  1  0.826200  0.632400  0.257900  1.0
  H  H777  1  0.742100  0.326200  0.867600  1.0
  H  H778  1  0.242100  0.173800  0.132400  1.0
  H  H779  1  0.757900  0.673800  0.367600  1.0
  H  H780  1  0.257900  0.826200  0.632400  1.0
  H  H781  1  0.867600  0.742100  0.326200  1.0
  H  H782  1  0.132400  0.242100  0.173800  1.0
  H  H783  1  0.367600  0.757900  0.673800  1.0
  H  H784  1  0.632400  0.257900  0.826200  1.0
  H  H785  1  0.416400  0.123900  0.224800  1.0
  H  H786  1  0.083600  0.876100  0.724800  1.0
  H  H787  1  0.583600  0.623900  0.275200  1.0
  H  H788  1  0.916400  0.376100  0.775200  1.0
  H  H789  1  0.224800  0.416400  0.123900  1.0
  H  H790  1  0.724800  0.083600  0.876100  1.0
  H  H791  1  0.275200  0.583600  0.623900  1.0
  H  H792  1  0.775200  0.916400  0.376100  1.0
  H  H793  1  0.123900  0.224800  0.416400  1.0
  H  H794  1  0.876100  0.724800  0.083600  1.0
  H  H795  1  0.623900  0.275200  0.583600  1.0
  H  H796  1  0.376100  0.775200  0.916400  1.0
  H  H797  1  0.583600  0.876100  0.775200  1.0
  H  H798  1  0.916400  0.123900  0.275200  1.0
  H  H799  1  0.416400  0.376100  0.724800  1.0
  H  H800  1  0.083600  0.623900  0.224800  1.0
  H  H801  1  0.775200  0.583600  0.876100  1.0
  H  H802  1  0.275200  0.916400  0.123900  1.0
  H  H803  1  0.724800  0.416400  0.376100  1.0
  H  H804  1  0.224800  0.083600  0.623900  1.0
  H  H805  1  0.876100  0.775200  0.583600  1.0
  H  H806  1  0.123900  0.275200  0.916400  1.0
  H  H807  1  0.376100  0.724800  0.416400  1.0
  H  H808  1  0.623900  0.224800  0.083600  1.0
  H  H809  1  0.367900  0.072700  0.233000  1.0
  H  H810  1  0.132100  0.927300  0.733000  1.0
  H  H811  1  0.632100  0.572700  0.267000  1.0
  H  H812  1  0.867900  0.427300  0.767000  1.0
  H  H813  1  0.233000  0.367900  0.072700  1.0
  H  H814  1  0.733000  0.132100  0.927300  1.0
  H  H815  1  0.267000  0.632100  0.572700  1.0
  H  H816  1  0.767000  0.867900  0.427300  1.0
  H  H817  1  0.072700  0.233000  0.367900  1.0
  H  H818  1  0.927300  0.733000  0.132100  1.0
  H  H819  1  0.572700  0.267000  0.632100  1.0
  H  H820  1  0.427300  0.767000  0.867900  1.0
  H  H821  1  0.632100  0.927300  0.767000  1.0
  H  H822  1  0.867900  0.072700  0.267000  1.0
  H  H823  1  0.367900  0.427300  0.733000  1.0
  H  H824  1  0.132100  0.572700  0.233000  1.0
  H  H825  1  0.767000  0.632100  0.927300  1.0
  H  H826  1  0.267000  0.867900  0.072700  1.0
  H  H827  1  0.733000  0.367900  0.427300  1.0
  H  H828  1  0.233000  0.132100  0.572700  1.0
  H  H829  1  0.927300  0.767000  0.632100  1.0
  H  H830  1  0.072700  0.267000  0.867900  1.0
  H  H831  1  0.427300  0.733000  0.367900  1.0
  H  H832  1  0.572700  0.233000  0.132100  1.0
  H  H833  1  0.388400  0.006700  0.249100  1.0
  H  H834  1  0.111600  0.993300  0.749100  1.0
  H  H835  1  0.611600  0.506700  0.250900  1.0
  H  H836  1  0.888400  0.493300  0.750900  1.0
  H  H837  1  0.249100  0.388400  0.006700  1.0
  H  H838  1  0.749100  0.111600  0.993300  1.0
  H  H839  1  0.250900  0.611600  0.506700  1.0
  H  H840  1  0.750900  0.888400  0.493300  1.0
  H  H841  1  0.006700  0.249100  0.388400  1.0
  H  H842  1  0.993300  0.749100  0.111600  1.0
  H  H843  1  0.506700  0.250900  0.611600  1.0
  H  H844  1  0.493300  0.750900  0.888400  1.0
  H  H845  1  0.611600  0.993300  0.750900  1.0
  H  H846  1  0.888400  0.006700  0.250900  1.0
  H  H847  1  0.388400  0.493300  0.749100  1.0
  H  H848  1  0.111600  0.506700  0.249100  1.0
  H  H849  1  0.750900  0.611600  0.993300  1.0
  H  H850  1  0.250900  0.888400  0.006700  1.0
  H  H851  1  0.749100  0.388400  0.493300  1.0
  H  H852  1  0.249100  0.111600  0.506700  1.0
  H  H853  1  0.993300  0.750900  0.611600  1.0
  H  H854  1  0.006700  0.250900  0.888400  1.0
  H  H855  1  0.493300  0.749100  0.388400  1.0
  H  H856  1  0.506700  0.249100  0.111600  1.0
  H  H857  1  0.457300  0.991900  0.257100  1.0
  H  H858  1  0.042700  0.008100  0.757100  1.0
  H  H859  1  0.542700  0.491900  0.242900  1.0
  H  H860  1  0.957300  0.508100  0.742900  1.0
  H  H861  1  0.257100  0.457300  0.991900  1.0
  H  H862  1  0.757100  0.042700  0.008100  1.0
  H  H863  1  0.242900  0.542700  0.491900  1.0
  H  H864  1  0.742900  0.957300  0.508100  1.0
  H  H865  1  0.991900  0.257100  0.457300  1.0
  H  H866  1  0.008100  0.757100  0.042700  1.0
  H  H867  1  0.491900  0.242900  0.542700  1.0
  H  H868  1  0.508100  0.742900  0.957300  1.0
  H  H869  1  0.542700  0.008100  0.742900  1.0
  H  H870  1  0.957300  0.991900  0.242900  1.0
  H  H871  1  0.457300  0.508100  0.757100  1.0
  H  H872  1  0.042700  0.491900  0.257100  1.0
  H  H873  1  0.742900  0.542700  0.008100  1.0
  H  H874  1  0.242900  0.957300  0.991900  1.0
  H  H875  1  0.757100  0.457300  0.508100  1.0
  H  H876  1  0.257100  0.042700  0.491900  1.0
  H  H877  1  0.008100  0.742900  0.542700  1.0
  H  H878  1  0.991900  0.242900  0.957300  1.0
  H  H879  1  0.508100  0.757100  0.457300  1.0
  H  H880  1  0.491900  0.257100  0.042700  1.0
  H  H881  1  0.471400  0.175700  0.224100  1.0
  H  H882  1  0.028600  0.824300  0.724100  1.0
  H  H883  1  0.528600  0.675700  0.275900  1.0
  H  H884  1  0.971400  0.324300  0.775900  1.0
  H  H885  1  0.224100  0.471400  0.175700  1.0
  H  H886  1  0.724100  0.028600  0.824300  1.0
  H  H887  1  0.275900  0.528600  0.675700  1.0
  H  H888  1  0.775900  0.971400  0.324300  1.0
  H  H889  1  0.175700  0.224100  0.471400  1.0
  H  H890  1  0.824300  0.724100  0.028600  1.0
  H  H891  1  0.675700  0.275900  0.528600  1.0
  H  H892  1  0.324300  0.775900  0.971400  1.0
  H  H893  1  0.528600  0.824300  0.775900  1.0
  H  H894  1  0.971400  0.175700  0.275900  1.0
  H  H895  1  0.471400  0.324300  0.724100  1.0
  H  H896  1  0.028600  0.675700  0.224100  1.0
  H  H897  1  0.775900  0.528600  0.824300  1.0
  H  H898  1  0.275900  0.971400  0.175700  1.0
  H  H899  1  0.724100  0.471400  0.324300  1.0
  H  H900  1  0.224100  0.028600  0.675700  1.0
  H  H901  1  0.824300  0.775900  0.528600  1.0
  H  H902  1  0.175700  0.275900  0.971400  1.0
  H  H903  1  0.324300  0.724100  0.471400  1.0
  H  H904  1  0.675700  0.224100  0.028600  1.0
  H  H905  1  0.544400  0.199900  0.224100  1.0
  H  H906  1  0.955600  0.800100  0.724100  1.0
  H  H907  1  0.455600  0.699900  0.275900  1.0
  H  H908  1  0.044400  0.300100  0.775900  1.0
  H  H909  1  0.224100  0.544400  0.199900  1.0
  H  H910  1  0.724100  0.955600  0.800100  1.0
  H  H911  1  0.275900  0.455600  0.699900  1.0
  H  H912  1  0.775900  0.044400  0.300100  1.0
  H  H913  1  0.199900  0.224100  0.544400  1.0
  H  H914  1  0.800100  0.724100  0.955600  1.0
  H  H915  1  0.699900  0.275900  0.455600  1.0
  H  H916  1  0.300100  0.775900  0.044400  1.0
  H  H917  1  0.455600  0.800100  0.775900  1.0
  H  H918  1  0.044400  0.199900  0.275900  1.0
  H  H919  1  0.544400  0.300100  0.724100  1.0
  H  H920  1  0.955600  0.699900  0.224100  1.0
  H  H921  1  0.775900  0.455600  0.800100  1.0
  H  H922  1  0.275900  0.044400  0.199900  1.0
  H  H923  1  0.724100  0.544400  0.300100  1.0
  H  H924  1  0.224100  0.955600  0.699900  1.0
  H  H925  1  0.800100  0.775900  0.455600  1.0
  H  H926  1  0.199900  0.275900  0.044400  1.0
  H  H927  1  0.300100  0.724100  0.544400  1.0
  H  H928  1  0.699900  0.224100  0.955600  1.0
  H  H929  1  0.611600  0.112700  0.251400  1.0
  H  H930  1  0.888400  0.887300  0.751400  1.0
  H  H931  1  0.388400  0.612700  0.248600  1.0
  H  H932  1  0.111600  0.387300  0.748600  1.0
  H  H933  1  0.251400  0.611600  0.112700  1.0
  H  H934  1  0.751400  0.888400  0.887300  1.0
  H  H935  1  0.248600  0.388400  0.612700  1.0
  H  H936  1  0.748600  0.111600  0.387300  1.0
  H  H937  1  0.112700  0.251400  0.611600  1.0
  H  H938  1  0.887300  0.751400  0.888400  1.0
  H  H939  1  0.612700  0.248600  0.388400  1.0
  H  H940  1  0.387300  0.748600  0.111600  1.0
  H  H941  1  0.388400  0.887300  0.748600  1.0
  H  H942  1  0.111600  0.112700  0.248600  1.0
  H  H943  1  0.611600  0.387300  0.751400  1.0
  H  H944  1  0.888400  0.612700  0.251400  1.0
  H  H945  1  0.748600  0.388400  0.887300  1.0
  H  H946  1  0.248600  0.111600  0.112700  1.0
  H  H947  1  0.751400  0.611600  0.387300  1.0
  H  H948  1  0.251400  0.888400  0.612700  1.0
  H  H949  1  0.887300  0.748600  0.388400  1.0
  H  H950  1  0.112700  0.248600  0.111600  1.0
  H  H951  1  0.387300  0.751400  0.611600  1.0
  H  H952  1  0.612700  0.251400  0.888400  1.0
  H  H953  1  0.612300  0.161100  0.254200  1.0
  H  H954  1  0.887700  0.838900  0.754200  1.0
  H  H955  1  0.387700  0.661100  0.245800  1.0
  H  H956  1  0.112300  0.338900  0.745800  1.0
  H  H957  1  0.254200  0.612300  0.161100  1.0
  H  H958  1  0.754200  0.887700  0.838900  1.0
  H  H959  1  0.245800  0.387700  0.661100  1.0
  H  H960  1  0.745800  0.112300  0.338900  1.0
  H  H961  1  0.161100  0.254200  0.612300  1.0
  H  H962  1  0.838900  0.754200  0.887700  1.0
  H  H963  1  0.661100  0.245800  0.387700  1.0
  H  H964  1  0.338900  0.745800  0.112300  1.0
  H  H965  1  0.387700  0.838900  0.745800  1.0
  H  H966  1  0.112300  0.161100  0.245800  1.0
  H  H967  1  0.612300  0.338900  0.754200  1.0
  H  H968  1  0.887700  0.661100  0.254200  1.0
  H  H969  1  0.745800  0.387700  0.838900  1.0
  H  H970  1  0.245800  0.112300  0.161100  1.0
  H  H971  1  0.754200  0.612300  0.338900  1.0
  H  H972  1  0.254200  0.887700  0.661100  1.0
  H  H973  1  0.838900  0.745800  0.387700  1.0
  H  H974  1  0.161100  0.245800  0.112300  1.0
  H  H975  1  0.338900  0.754200  0.612300  1.0
  H  H976  1  0.661100  0.254200  0.887700  1.0
  H  H977  1  0.714600  0.157700  0.162000  1.0
  H  H978  1  0.785400  0.842300  0.662000  1.0
  H  H979  1  0.285400  0.657700  0.338000  1.0
  H  H980  1  0.214600  0.342300  0.838000  1.0
  H  H981  1  0.162000  0.714600  0.157700  1.0
  H  H982  1  0.662000  0.785400  0.842300  1.0
  H  H983  1  0.338000  0.285400  0.657700  1.0
  H  H984  1  0.838000  0.214600  0.342300  1.0
  H  H985  1  0.157700  0.162000  0.714600  1.0
  H  H986  1  0.842300  0.662000  0.785400  1.0
  H  H987  1  0.657700  0.338000  0.285400  1.0
  H  H988  1  0.342300  0.838000  0.214600  1.0
  H  H989  1  0.285400  0.842300  0.838000  1.0
  H  H990  1  0.214600  0.157700  0.338000  1.0
  H  H991  1  0.714600  0.342300  0.662000  1.0
  H  H992  1  0.785400  0.657700  0.162000  1.0
  H  H993  1  0.838000  0.285400  0.842300  1.0
  H  H994  1  0.338000  0.214600  0.157700  1.0
  H  H995  1  0.662000  0.714600  0.342300  1.0
  H  H996  1  0.162000  0.785400  0.657700  1.0
  H  H997  1  0.842300  0.838000  0.285400  1.0
  H  H998  1  0.157700  0.338000  0.214600  1.0
  H  H999  1  0.342300  0.662000  0.714600  1.0
  H  H1000  1  0.657700  0.162000  0.785400  1.0
  H  H1001  1  0.575800  0.127900  0.160700  1.0
  H  H1002  1  0.924200  0.872100  0.660700  1.0
  H  H1003  1  0.424200  0.627900  0.339300  1.0
  H  H1004  1  0.075800  0.372100  0.839300  1.0
  H  H1005  1  0.160700  0.575800  0.127900  1.0
  H  H1006  1  0.660700  0.924200  0.872100  1.0
  H  H1007  1  0.339300  0.424200  0.627900  1.0
  H  H1008  1  0.839300  0.075800  0.372100  1.0
  H  H1009  1  0.127900  0.160700  0.575800  1.0
  H  H1010  1  0.872100  0.660700  0.924200  1.0
  H  H1011  1  0.627900  0.339300  0.424200  1.0
  H  H1012  1  0.372100  0.839300  0.075800  1.0
  H  H1013  1  0.424200  0.872100  0.839300  1.0
  H  H1014  1  0.075800  0.127900  0.339300  1.0
  H  H1015  1  0.575800  0.372100  0.660700  1.0
  H  H1016  1  0.924200  0.627900  0.160700  1.0
  H  H1017  1  0.839300  0.424200  0.872100  1.0
  H  H1018  1  0.339300  0.075800  0.127900  1.0
  H  H1019  1  0.660700  0.575800  0.372100  1.0
  H  H1020  1  0.160700  0.924200  0.627900  1.0
  H  H1021  1  0.872100  0.839300  0.424200  1.0
  H  H1022  1  0.127900  0.339300  0.075800  1.0
  H  H1023  1  0.372100  0.660700  0.575800  1.0
  H  H1024  1  0.627900  0.160700  0.924200  1.0
  H  H1025  1  0.578200  0.124300  0.086400  1.0
  H  H1026  1  0.921800  0.875700  0.586400  1.0
  H  H1027  1  0.421800  0.624300  0.413600  1.0
  H  H1028  1  0.078200  0.375700  0.913600  1.0
  H  H1029  1  0.086400  0.578200  0.124300  1.0
  H  H1030  1  0.586400  0.921800  0.875700  1.0
  H  H1031  1  0.413600  0.421800  0.624300  1.0
  H  H1032  1  0.913600  0.078200  0.375700  1.0
  H  H1033  1  0.124300  0.086400  0.578200  1.0
  H  H1034  1  0.875700  0.586400  0.921800  1.0
  H  H1035  1  0.624300  0.413600  0.421800  1.0
  H  H1036  1  0.375700  0.913600  0.078200  1.0
  H  H1037  1  0.421800  0.875700  0.913600  1.0
  H  H1038  1  0.078200  0.124300  0.413600  1.0
  H  H1039  1  0.578200  0.375700  0.586400  1.0
  H  H1040  1  0.921800  0.624300  0.086400  1.0
  H  H1041  1  0.913600  0.421800  0.875700  1.0
  H  H1042  1  0.413600  0.078200  0.124300  1.0
  H  H1043  1  0.586400  0.578200  0.375700  1.0
  H  H1044  1  0.086400  0.921800  0.624300  1.0
  H  H1045  1  0.875700  0.913600  0.421800  1.0
  H  H1046  1  0.124300  0.413600  0.078200  1.0
  H  H1047  1  0.375700  0.586400  0.578200  1.0
  H  H1048  1  0.624300  0.086400  0.921800  1.0
  H  H1049  1  0.616300  0.125200  0.026900  1.0
  H  H1050  1  0.883700  0.874800  0.526900  1.0
  H  H1051  1  0.383700  0.625200  0.473100  1.0
  H  H1052  1  0.116300  0.374800  0.973100  1.0
  H  H1053  1  0.026900  0.616300  0.125200  1.0
  H  H1054  1  0.526900  0.883700  0.874800  1.0
  H  H1055  1  0.473100  0.383700  0.625200  1.0
  H  H1056  1  0.973100  0.116300  0.374800  1.0
  H  H1057  1  0.125200  0.026900  0.616300  1.0
  H  H1058  1  0.874800  0.526900  0.883700  1.0
  H  H1059  1  0.625200  0.473100  0.383700  1.0
  H  H1060  1  0.374800  0.973100  0.116300  1.0
  H  H1061  1  0.383700  0.874800  0.973100  1.0
  H  H1062  1  0.116300  0.125200  0.473100  1.0
  H  H1063  1  0.616300  0.374800  0.526900  1.0
  H  H1064  1  0.883700  0.625200  0.026900  1.0
  H  H1065  1  0.973100  0.383700  0.874800  1.0
  H  H1066  1  0.473100  0.116300  0.125200  1.0
  H  H1067  1  0.526900  0.616300  0.374800  1.0
  H  H1068  1  0.026900  0.883700  0.625200  1.0
  H  H1069  1  0.874800  0.973100  0.383700  1.0
  H  H1070  1  0.125200  0.473100  0.116300  1.0
  H  H1071  1  0.374800  0.526900  0.616300  1.0
  H  H1072  1  0.625200  0.026900  0.883700  1.0
  H  H1073  1  0.685600  0.140400  0.027900  1.0
  H  H1074  1  0.814400  0.859600  0.527900  1.0
  H  H1075  1  0.314400  0.640400  0.472100  1.0
  H  H1076  1  0.185600  0.359600  0.972100  1.0
  H  H1077  1  0.027900  0.685600  0.140400  1.0
  H  H1078  1  0.527900  0.814400  0.859600  1.0
  H  H1079  1  0.472100  0.314400  0.640400  1.0
  H  H1080  1  0.972100  0.185600  0.359600  1.0
  H  H1081  1  0.140400  0.027900  0.685600  1.0
  H  H1082  1  0.859600  0.527900  0.814400  1.0
  H  H1083  1  0.640400  0.472100  0.314400  1.0
  H  H1084  1  0.359600  0.972100  0.185600  1.0
  H  H1085  1  0.314400  0.859600  0.972100  1.0
  H  H1086  1  0.185600  0.140400  0.472100  1.0
  H  H1087  1  0.685600  0.359600  0.527900  1.0
  H  H1088  1  0.814400  0.640400  0.027900  1.0
  H  H1089  1  0.972100  0.314400  0.859600  1.0
  H  H1090  1  0.472100  0.185600  0.140400  1.0
  H  H1091  1  0.527900  0.685600  0.359600  1.0
  H  H1092  1  0.027900  0.814400  0.640400  1.0
  H  H1093  1  0.859600  0.972100  0.314400  1.0
  H  H1094  1  0.140400  0.472100  0.185600  1.0
  H  H1095  1  0.359600  0.527900  0.685600  1.0
  H  H1096  1  0.640400  0.027900  0.814400  1.0
  H  H1097  1  0.715900  0.158200  0.090000  1.0
  H  H1098  1  0.784100  0.841800  0.590000  1.0
  H  H1099  1  0.284100  0.658200  0.410000  1.0
  H  H1100  1  0.215900  0.341800  0.910000  1.0
  H  H1101  1  0.090000  0.715900  0.158200  1.0
  H  H1102  1  0.590000  0.784100  0.841800  1.0
  H  H1103  1  0.410000  0.284100  0.658200  1.0
  H  H1104  1  0.910000  0.215900  0.341800  1.0
  H  H1105  1  0.158200  0.090000  0.715900  1.0
  H  H1106  1  0.841800  0.590000  0.784100  1.0
  H  H1107  1  0.658200  0.410000  0.284100  1.0
  H  H1108  1  0.341800  0.910000  0.215900  1.0
  H  H1109  1  0.284100  0.841800  0.910000  1.0
  H  H1110  1  0.215900  0.158200  0.410000  1.0
  H  H1111  1  0.715900  0.341800  0.590000  1.0
  H  H1112  1  0.784100  0.658200  0.090000  1.0
  H  H1113  1  0.910000  0.284100  0.841800  1.0
  H  H1114  1  0.410000  0.215900  0.158200  1.0
  H  H1115  1  0.590000  0.715900  0.341800  1.0
  H  H1116  1  0.090000  0.784100  0.658200  1.0
  H  H1117  1  0.841800  0.910000  0.284100  1.0
  H  H1118  1  0.158200  0.410000  0.215900  1.0
  H  H1119  1  0.341800  0.590000  0.715900  1.0
  H  H1120  1  0.658200  0.090000  0.784100  1.0
  C  C1121  1  0.587300  0.030900  0.171500  1.0
  C  C1122  1  0.912700  0.969100  0.671500  1.0
  C  C1123  1  0.412700  0.530900  0.328500  1.0
  C  C1124  1  0.087300  0.469100  0.828500  1.0
  C  C1125  1  0.171500  0.587300  0.030900  1.0
  C  C1126  1  0.671500  0.912700  0.969100  1.0
  C  C1127  1  0.328500  0.412700  0.530900  1.0
  C  C1128  1  0.828500  0.087300  0.469100  1.0
  C  C1129  1  0.030900  0.171500  0.587300  1.0
  C  C1130  1  0.969100  0.671500  0.912700  1.0
  C  C1131  1  0.530900  0.328500  0.412700  1.0
  C  C1132  1  0.469100  0.828500  0.087300  1.0
  C  C1133  1  0.412700  0.969100  0.828500  1.0
  C  C1134  1  0.087300  0.030900  0.328500  1.0
  C  C1135  1  0.587300  0.469100  0.671500  1.0
  C  C1136  1  0.912700  0.530900  0.171500  1.0
  C  C1137  1  0.828500  0.412700  0.969100  1.0
  C  C1138  1  0.328500  0.087300  0.030900  1.0
  C  C1139  1  0.671500  0.587300  0.469100  1.0
  C  C1140  1  0.171500  0.912700  0.530900  1.0
  C  C1141  1  0.969100  0.828500  0.412700  1.0
  C  C1142  1  0.030900  0.328500  0.087300  1.0
  C  C1143  1  0.469100  0.671500  0.587300  1.0
  C  C1144  1  0.530900  0.171500  0.912700  1.0
  C  C1145  1  0.595300  0.031600  0.130100  1.0
  C  C1146  1  0.904700  0.968400  0.630100  1.0
  C  C1147  1  0.404700  0.531600  0.369900  1.0
  C  C1148  1  0.095300  0.468400  0.869900  1.0
  C  C1149  1  0.130100  0.595300  0.031600  1.0
  C  C1150  1  0.630100  0.904700  0.968400  1.0
  C  C1151  1  0.369900  0.404700  0.531600  1.0
  C  C1152  1  0.869900  0.095300  0.468400  1.0
  C  C1153  1  0.031600  0.130100  0.595300  1.0
  C  C1154  1  0.968400  0.630100  0.904700  1.0
  C  C1155  1  0.531600  0.369900  0.404700  1.0
  C  C1156  1  0.468400  0.869900  0.095300  1.0
  C  C1157  1  0.404700  0.968400  0.869900  1.0
  C  C1158  1  0.095300  0.031600  0.369900  1.0
  C  C1159  1  0.595300  0.468400  0.630100  1.0
  C  C1160  1  0.904700  0.531600  0.130100  1.0
  C  C1161  1  0.869900  0.404700  0.968400  1.0
  C  C1162  1  0.369900  0.095300  0.031600  1.0
  C  C1163  1  0.630100  0.595300  0.468400  1.0
  C  C1164  1  0.130100  0.904700  0.531600  1.0
  C  C1165  1  0.968400  0.869900  0.404700  1.0
  C  C1166  1  0.031600  0.369900  0.095300  1.0
  C  C1167  1  0.468400  0.630100  0.595300  1.0
  C  C1168  1  0.531600  0.130100  0.904700  1.0
  C  C1169  1  0.563600  0.032100  0.102400  1.0
  C  C1170  1  0.936400  0.967900  0.602400  1.0
  C  C1171  1  0.436400  0.532100  0.397600  1.0
  C  C1172  1  0.063600  0.467900  0.897600  1.0
  C  C1173  1  0.102400  0.563600  0.032100  1.0
  C  C1174  1  0.602400  0.936400  0.967900  1.0
  C  C1175  1  0.397600  0.436400  0.532100  1.0
  C  C1176  1  0.897600  0.063600  0.467900  1.0
  C  C1177  1  0.032100  0.102400  0.563600  1.0
  C  C1178  1  0.967900  0.602400  0.936400  1.0
  C  C1179  1  0.532100  0.397600  0.436400  1.0
  C  C1180  1  0.467900  0.897600  0.063600  1.0
  C  C1181  1  0.436400  0.967900  0.897600  1.0
  C  C1182  1  0.063600  0.032100  0.397600  1.0
  C  C1183  1  0.563600  0.467900  0.602400  1.0
  C  C1184  1  0.936400  0.532100  0.102400  1.0
  C  C1185  1  0.897600  0.436400  0.967900  1.0
  C  C1186  1  0.397600  0.063600  0.032100  1.0
  C  C1187  1  0.602400  0.563600  0.467900  1.0
  C  C1188  1  0.102400  0.936400  0.532100  1.0
  C  C1189  1  0.967900  0.897600  0.436400  1.0
  C  C1190  1  0.032100  0.397600  0.063600  1.0
  C  C1191  1  0.467900  0.602400  0.563600  1.0
  C  C1192  1  0.532100  0.102400  0.936400  1.0
  C  C1193  1  0.523700  0.031900  0.116100  1.0
  C  C1194  1  0.976300  0.968100  0.616100  1.0
  C  C1195  1  0.476300  0.531900  0.383900  1.0
  C  C1196  1  0.023700  0.468100  0.883900  1.0
  C  C1197  1  0.116100  0.523700  0.031900  1.0
  C  C1198  1  0.616100  0.976300  0.968100  1.0
  C  C1199  1  0.383900  0.476300  0.531900  1.0
  C  C1200  1  0.883900  0.023700  0.468100  1.0
  C  C1201  1  0.031900  0.116100  0.523700  1.0
  C  C1202  1  0.968100  0.616100  0.976300  1.0
  C  C1203  1  0.531900  0.383900  0.476300  1.0
  C  C1204  1  0.468100  0.883900  0.023700  1.0
  C  C1205  1  0.476300  0.968100  0.883900  1.0
  C  C1206  1  0.023700  0.031900  0.383900  1.0
  C  C1207  1  0.523700  0.468100  0.616100  1.0
  C  C1208  1  0.976300  0.531900  0.116100  1.0
  C  C1209  1  0.883900  0.476300  0.968100  1.0
  C  C1210  1  0.383900  0.023700  0.031900  1.0
  C  C1211  1  0.616100  0.523700  0.468100  1.0
  C  C1212  1  0.116100  0.976300  0.531900  1.0
  C  C1213  1  0.968100  0.883900  0.476300  1.0
  C  C1214  1  0.031900  0.383900  0.023700  1.0
  C  C1215  1  0.468100  0.616100  0.523700  1.0
  C  C1216  1  0.531900  0.116100  0.976300  1.0
  C  C1217  1  0.515600  0.031300  0.157500  1.0
  C  C1218  1  0.984400  0.968700  0.657500  1.0
  C  C1219  1  0.484400  0.531300  0.342500  1.0
  C  C1220  1  0.015600  0.468700  0.842500  1.0
  C  C1221  1  0.157500  0.515600  0.031300  1.0
  C  C1222  1  0.657500  0.984400  0.968700  1.0
  C  C1223  1  0.342500  0.484400  0.531300  1.0
  C  C1224  1  0.842500  0.015600  0.468700  1.0
  C  C1225  1  0.031300  0.157500  0.515600  1.0
  C  C1226  1  0.968700  0.657500  0.984400  1.0
  C  C1227  1  0.531300  0.342500  0.484400  1.0
  C  C1228  1  0.468700  0.842500  0.015600  1.0
  C  C1229  1  0.484400  0.968700  0.842500  1.0
  C  C1230  1  0.015600  0.031300  0.342500  1.0
  C  C1231  1  0.515600  0.468700  0.657500  1.0
  C  C1232  1  0.984400  0.531300  0.157500  1.0
  C  C1233  1  0.842500  0.484400  0.968700  1.0
  C  C1234  1  0.342500  0.015600  0.031300  1.0
  C  C1235  1  0.657500  0.515600  0.468700  1.0
  C  C1236  1  0.157500  0.984400  0.531300  1.0
  C  C1237  1  0.968700  0.842500  0.484400  1.0
  C  C1238  1  0.031300  0.342500  0.015600  1.0
  C  C1239  1  0.468700  0.657500  0.515600  1.0
  C  C1240  1  0.531300  0.157500  0.984400  1.0
  C  C1241  1  0.617300  0.029400  0.199300  1.0
  C  C1242  1  0.882700  0.970600  0.699300  1.0
  C  C1243  1  0.382700  0.529400  0.300700  1.0
  C  C1244  1  0.117300  0.470600  0.800700  1.0
  C  C1245  1  0.199300  0.617300  0.029400  1.0
  C  C1246  1  0.699300  0.882700  0.970600  1.0
  C  C1247  1  0.300700  0.382700  0.529400  1.0
  C  C1248  1  0.800700  0.117300  0.470600  1.0
  C  C1249  1  0.029400  0.199300  0.617300  1.0
  C  C1250  1  0.970600  0.699300  0.882700  1.0
  C  C1251  1  0.529400  0.300700  0.382700  1.0
  C  C1252  1  0.470600  0.800700  0.117300  1.0
  C  C1253  1  0.382700  0.970600  0.800700  1.0
  C  C1254  1  0.117300  0.029400  0.300700  1.0
  C  C1255  1  0.617300  0.470600  0.699300  1.0
  C  C1256  1  0.882700  0.529400  0.199300  1.0
  C  C1257  1  0.800700  0.382700  0.970600  1.0
  C  C1258  1  0.300700  0.117300  0.029400  1.0
  C  C1259  1  0.699300  0.617300  0.470600  1.0
  C  C1260  1  0.199300  0.882700  0.529400  1.0
  C  C1261  1  0.970600  0.800700  0.382700  1.0
  C  C1262  1  0.029400  0.300700  0.117300  1.0
  C  C1263  1  0.470600  0.699300  0.617300  1.0
  C  C1264  1  0.529400  0.199300  0.882700  1.0
  C  C1265  1  0.659700  0.022200  0.197100  1.0
  C  C1266  1  0.840300  0.977800  0.697100  1.0
  C  C1267  1  0.340300  0.522200  0.302900  1.0
  C  C1268  1  0.159700  0.477800  0.802900  1.0
  C  C1269  1  0.197100  0.659700  0.022200  1.0
  C  C1270  1  0.697100  0.840300  0.977800  1.0
  C  C1271  1  0.302900  0.340300  0.522200  1.0
  C  C1272  1  0.802900  0.159700  0.477800  1.0
  C  C1273  1  0.022200  0.197100  0.659700  1.0
  C  C1274  1  0.977800  0.697100  0.840300  1.0
  C  C1275  1  0.522200  0.302900  0.340300  1.0
  C  C1276  1  0.477800  0.802900  0.159700  1.0
  C  C1277  1  0.340300  0.977800  0.802900  1.0
  C  C1278  1  0.159700  0.022200  0.302900  1.0
  C  C1279  1  0.659700  0.477800  0.697100  1.0
  C  C1280  1  0.840300  0.522200  0.197100  1.0
  C  C1281  1  0.802900  0.340300  0.977800  1.0
  C  C1282  1  0.302900  0.159700  0.022200  1.0
  C  C1283  1  0.697100  0.659700  0.477800  1.0
  C  C1284  1  0.197100  0.840300  0.522200  1.0
  C  C1285  1  0.977800  0.802900  0.340300  1.0
  C  C1286  1  0.022200  0.302900  0.159700  1.0
  C  C1287  1  0.477800  0.697100  0.659700  1.0
  C  C1288  1  0.522200  0.197100  0.840300  1.0
  C  C1289  1  0.675100  0.021200  0.237300  1.0
  C  C1290  1  0.824900  0.978800  0.737300  1.0
  C  C1291  1  0.324900  0.521200  0.262700  1.0
  C  C1292  1  0.175100  0.478800  0.762700  1.0
  C  C1293  1  0.237300  0.675100  0.021200  1.0
  C  C1294  1  0.737300  0.824900  0.978800  1.0
  C  C1295  1  0.262700  0.324900  0.521200  1.0
  C  C1296  1  0.762700  0.175100  0.478800  1.0
  C  C1297  1  0.021200  0.237300  0.675100  1.0
  C  C1298  1  0.978800  0.737300  0.824900  1.0
  C  C1299  1  0.521200  0.262700  0.324900  1.0
  C  C1300  1  0.478800  0.762700  0.175100  1.0
  C  C1301  1  0.324900  0.978800  0.762700  1.0
  C  C1302  1  0.175100  0.021200  0.262700  1.0
  C  C1303  1  0.675100  0.478800  0.737300  1.0
  C  C1304  1  0.824900  0.521200  0.237300  1.0
  C  C1305  1  0.762700  0.324900  0.978800  1.0
  C  C1306  1  0.262700  0.175100  0.021200  1.0
  C  C1307  1  0.737300  0.675100  0.478800  1.0
  C  C1308  1  0.237300  0.824900  0.521200  1.0
  C  C1309  1  0.978800  0.762700  0.324900  1.0
  C  C1310  1  0.021200  0.262700  0.175100  1.0
  C  C1311  1  0.478800  0.737300  0.675100  1.0
  C  C1312  1  0.521200  0.237300  0.824900  1.0
  C  C1313  1  0.643200  0.030100  0.307300  1.0
  C  C1314  1  0.856800  0.969900  0.807300  1.0
  C  C1315  1  0.356800  0.530100  0.192700  1.0
  C  C1316  1  0.143200  0.469900  0.692700  1.0
  C  C1317  1  0.307300  0.643200  0.030100  1.0
  C  C1318  1  0.807300  0.856800  0.969900  1.0
  C  C1319  1  0.192700  0.356800  0.530100  1.0
  C  C1320  1  0.692700  0.143200  0.469900  1.0
  C  C1321  1  0.030100  0.307300  0.643200  1.0
  C  C1322  1  0.969900  0.807300  0.856800  1.0
  C  C1323  1  0.530100  0.192700  0.356800  1.0
  C  C1324  1  0.469900  0.692700  0.143200  1.0
  C  C1325  1  0.356800  0.969900  0.692700  1.0
  C  C1326  1  0.143200  0.030100  0.192700  1.0
  C  C1327  1  0.643200  0.469900  0.807300  1.0
  C  C1328  1  0.856800  0.530100  0.307300  1.0
  C  C1329  1  0.692700  0.356800  0.969900  1.0
  C  C1330  1  0.192700  0.143200  0.030100  1.0
  C  C1331  1  0.807300  0.643200  0.469900  1.0
  C  C1332  1  0.307300  0.856800  0.530100  1.0
  C  C1333  1  0.969900  0.692700  0.356800  1.0
  C  C1334  1  0.030100  0.192700  0.143200  1.0
  C  C1335  1  0.469900  0.807300  0.643200  1.0
  C  C1336  1  0.530100  0.307300  0.856800  1.0
  C  C1337  1  0.536700  0.969400  0.306800  1.0
  C  C1338  1  0.963300  0.030600  0.806800  1.0
  C  C1339  1  0.463300  0.469400  0.193200  1.0
  C  C1340  1  0.036700  0.530600  0.693200  1.0
  C  C1341  1  0.306800  0.536700  0.969400  1.0
  C  C1342  1  0.806800  0.963300  0.030600  1.0
  C  C1343  1  0.193200  0.463300  0.469400  1.0
  C  C1344  1  0.693200  0.036700  0.530600  1.0
  C  C1345  1  0.969400  0.306800  0.536700  1.0
  C  C1346  1  0.030600  0.806800  0.963300  1.0
  C  C1347  1  0.469400  0.193200  0.463300  1.0
  C  C1348  1  0.530600  0.693200  0.036700  1.0
  C  C1349  1  0.463300  0.030600  0.693200  1.0
  C  C1350  1  0.036700  0.969400  0.193200  1.0
  C  C1351  1  0.536700  0.530600  0.806800  1.0
  C  C1352  1  0.963300  0.469400  0.306800  1.0
  C  C1353  1  0.693200  0.463300  0.030600  1.0
  C  C1354  1  0.193200  0.036700  0.969400  1.0
  C  C1355  1  0.806800  0.536700  0.530600  1.0
  C  C1356  1  0.306800  0.963300  0.469400  1.0
  C  C1357  1  0.030600  0.693200  0.463300  1.0
  C  C1358  1  0.969400  0.193200  0.036700  1.0
  C  C1359  1  0.530600  0.806800  0.536700  1.0
  C  C1360  1  0.469400  0.306800  0.963300  1.0
  C  C1361  1  0.535100  0.929300  0.319900  1.0
  C  C1362  1  0.964900  0.070700  0.819900  1.0
  C  C1363  1  0.464900  0.429300  0.180100  1.0
  C  C1364  1  0.035100  0.570700  0.680100  1.0
  C  C1365  1  0.319900  0.535100  0.929300  1.0
  C  C1366  1  0.819900  0.964900  0.070700  1.0
  C  C1367  1  0.180100  0.464900  0.429300  1.0
  C  C1368  1  0.680100  0.035100  0.570700  1.0
  C  C1369  1  0.929300  0.319900  0.535100  1.0
  C  C1370  1  0.070700  0.819900  0.964900  1.0
  C  C1371  1  0.429300  0.180100  0.464900  1.0
  C  C1372  1  0.570700  0.680100  0.035100  1.0
  C  C1373  1  0.464900  0.070700  0.680100  1.0
  C  C1374  1  0.035100  0.929300  0.180100  1.0
  C  C1375  1  0.535100  0.570700  0.819900  1.0
  C  C1376  1  0.964900  0.429300  0.319900  1.0
  C  C1377  1  0.680100  0.464900  0.070700  1.0
  C  C1378  1  0.180100  0.035100  0.929300  1.0
  C  C1379  1  0.819900  0.535100  0.570700  1.0
  C  C1380  1  0.319900  0.964900  0.429300  1.0
  C  C1381  1  0.070700  0.680100  0.464900  1.0
  C  C1382  1  0.929300  0.180100  0.035100  1.0
  C  C1383  1  0.570700  0.819900  0.535100  1.0
  C  C1384  1  0.429300  0.319900  0.964900  1.0
  C  C1385  1  0.537300  0.897900  0.291800  1.0
  C  C1386  1  0.962700  0.102100  0.791800  1.0
  C  C1387  1  0.462700  0.397900  0.208200  1.0
  C  C1388  1  0.037300  0.602100  0.708200  1.0
  C  C1389  1  0.291800  0.537300  0.897900  1.0
  C  C1390  1  0.791800  0.962700  0.102100  1.0
  C  C1391  1  0.208200  0.462700  0.397900  1.0
  C  C1392  1  0.708200  0.037300  0.602100  1.0
  C  C1393  1  0.897900  0.291800  0.537300  1.0
  C  C1394  1  0.102100  0.791800  0.962700  1.0
  C  C1395  1  0.397900  0.208200  0.462700  1.0
  C  C1396  1  0.602100  0.708200  0.037300  1.0
  C  C1397  1  0.462700  0.102100  0.708200  1.0
  C  C1398  1  0.037300  0.897900  0.208200  1.0
  C  C1399  1  0.537300  0.602100  0.791800  1.0
  C  C1400  1  0.962700  0.397900  0.291800  1.0
  C  C1401  1  0.708200  0.462700  0.102100  1.0
  C  C1402  1  0.208200  0.037300  0.897900  1.0
  C  C1403  1  0.791800  0.537300  0.602100  1.0
  C  C1404  1  0.291800  0.962700  0.397900  1.0
  C  C1405  1  0.102100  0.708200  0.462700  1.0
  C  C1406  1  0.897900  0.208200  0.037300  1.0
  C  C1407  1  0.602100  0.791800  0.537300  1.0
  C  C1408  1  0.397900  0.291800  0.962700  1.0
  C  C1409  1  0.540900  0.906500  0.250700  1.0
  C  C1410  1  0.959100  0.093500  0.750700  1.0
  C  C1411  1  0.459100  0.406500  0.249300  1.0
  C  C1412  1  0.040900  0.593500  0.749300  1.0
  C  C1413  1  0.250700  0.540900  0.906500  1.0
  C  C1414  1  0.750700  0.959100  0.093500  1.0
  C  C1415  1  0.249300  0.459100  0.406500  1.0
  C  C1416  1  0.749300  0.040900  0.593500  1.0
  C  C1417  1  0.906500  0.250700  0.540900  1.0
  C  C1418  1  0.093500  0.750700  0.959100  1.0
  C  C1419  1  0.406500  0.249300  0.459100  1.0
  C  C1420  1  0.593500  0.749300  0.040900  1.0
  C  C1421  1  0.459100  0.093500  0.749300  1.0
  C  C1422  1  0.040900  0.906500  0.249300  1.0
  C  C1423  1  0.540900  0.593500  0.750700  1.0
  C  C1424  1  0.959100  0.406500  0.250700  1.0
  C  C1425  1  0.749300  0.459100  0.093500  1.0
  C  C1426  1  0.249300  0.040900  0.906500  1.0
  C  C1427  1  0.750700  0.540900  0.593500  1.0
  C  C1428  1  0.250700  0.959100  0.406500  1.0
  C  C1429  1  0.093500  0.749300  0.459100  1.0
  C  C1430  1  0.906500  0.249300  0.040900  1.0
  C  C1431  1  0.593500  0.750700  0.540900  1.0
  C  C1432  1  0.406500  0.250700  0.959100  1.0
  C  C1433  1  0.542500  0.946600  0.237700  1.0
  C  C1434  1  0.957500  0.053400  0.737700  1.0
  C  C1435  1  0.457500  0.446600  0.262300  1.0
  C  C1436  1  0.042500  0.553400  0.762300  1.0
  C  C1437  1  0.237700  0.542500  0.946600  1.0
  C  C1438  1  0.737700  0.957500  0.053400  1.0
  C  C1439  1  0.262300  0.457500  0.446600  1.0
  C  C1440  1  0.762300  0.042500  0.553400  1.0
  C  C1441  1  0.946600  0.237700  0.542500  1.0
  C  C1442  1  0.053400  0.737700  0.957500  1.0
  C  C1443  1  0.446600  0.262300  0.457500  1.0
  C  C1444  1  0.553400  0.762300  0.042500  1.0
  C  C1445  1  0.457500  0.053400  0.762300  1.0
  C  C1446  1  0.042500  0.946600  0.262300  1.0
  C  C1447  1  0.542500  0.553400  0.737700  1.0
  C  C1448  1  0.957500  0.446600  0.237700  1.0
  C  C1449  1  0.762300  0.457500  0.053400  1.0
  C  C1450  1  0.262300  0.042500  0.946600  1.0
  C  C1451  1  0.737700  0.542500  0.553400  1.0
  C  C1452  1  0.237700  0.957500  0.446600  1.0
  C  C1453  1  0.053400  0.762300  0.457500  1.0
  C  C1454  1  0.946600  0.262300  0.042500  1.0
  C  C1455  1  0.553400  0.737700  0.542500  1.0
  C  C1456  1  0.446600  0.237700  0.957500  1.0
  C  C1457  1  0.532700  0.001010  0.331200  1.0
  C  C1458  1  0.967300  0.998990  0.831200  1.0
  C  C1459  1  0.467300  0.501010  0.168800  1.0
  C  C1460  1  0.032700  0.498990  0.668800  1.0
  C  C1461  1  0.331200  0.532700  0.001010  1.0
  C  C1462  1  0.831200  0.967300  0.998990  1.0
  C  C1463  1  0.168800  0.467300  0.501010  1.0
  C  C1464  1  0.668800  0.032700  0.498990  1.0
  C  C1465  1  0.001010  0.331200  0.532700  1.0
  C  C1466  1  0.998990  0.831200  0.967300  1.0
  C  C1467  1  0.501010  0.168800  0.467300  1.0
  C  C1468  1  0.498990  0.668800  0.032700  1.0
  C  C1469  1  0.467300  0.998990  0.668800  1.0
  C  C1470  1  0.032700  0.001010  0.168800  1.0
  C  C1471  1  0.532700  0.498990  0.831200  1.0
  C  C1472  1  0.967300  0.501010  0.331200  1.0
  C  C1473  1  0.668800  0.467300  0.998990  1.0
  C  C1474  1  0.168800  0.032700  0.001010  1.0
  C  C1475  1  0.831200  0.532700  0.498990  1.0
  C  C1476  1  0.331200  0.967300  0.501010  1.0
  C  C1477  1  0.998990  0.668800  0.467300  1.0
  C  C1478  1  0.001010  0.168800  0.032700  1.0
  C  C1479  1  0.498990  0.831200  0.532700  1.0
  C  C1480  1  0.501010  0.331200  0.967300  1.0
  C  C1481  1  0.526900  0.004800  0.373700  1.0
  C  C1482  1  0.973100  0.995200  0.873700  1.0
  C  C1483  1  0.473100  0.504800  0.126300  1.0
  C  C1484  1  0.026900  0.495200  0.626300  1.0
  C  C1485  1  0.373700  0.526900  0.004800  1.0
  C  C1486  1  0.873700  0.973100  0.995200  1.0
  C  C1487  1  0.126300  0.473100  0.504800  1.0
  C  C1488  1  0.626300  0.026900  0.495200  1.0
  C  C1489  1  0.004800  0.373700  0.526900  1.0
  C  C1490  1  0.995200  0.873700  0.973100  1.0
  C  C1491  1  0.504800  0.126300  0.473100  1.0
  C  C1492  1  0.495200  0.626300  0.026900  1.0
  C  C1493  1  0.473100  0.995200  0.626300  1.0
  C  C1494  1  0.026900  0.004800  0.126300  1.0
  C  C1495  1  0.526900  0.495200  0.873700  1.0
  C  C1496  1  0.973100  0.504800  0.373700  1.0
  C  C1497  1  0.626300  0.473100  0.995200  1.0
  C  C1498  1  0.126300  0.026900  0.004800  1.0
  C  C1499  1  0.873700  0.526900  0.495200  1.0
  C  C1500  1  0.373700  0.973100  0.504800  1.0
  C  C1501  1  0.995200  0.626300  0.473100  1.0
  C  C1502  1  0.004800  0.126300  0.026900  1.0
  C  C1503  1  0.495200  0.873700  0.526900  1.0
  C  C1504  1  0.504800  0.373700  0.973100  1.0
  C  C1505  1  0.527600  0.046800  0.383530  1.0
  C  C1506  1  0.972400  0.953200  0.883530  1.0
  C  C1507  1  0.472400  0.546800  0.116470  1.0
  C  C1508  1  0.027600  0.453200  0.616470  1.0
  C  C1509  1  0.383530  0.527600  0.046800  1.0
  C  C1510  1  0.883530  0.972400  0.953200  1.0
  C  C1511  1  0.116470  0.472400  0.546800  1.0
  C  C1512  1  0.616470  0.027600  0.453200  1.0
  C  C1513  1  0.046800  0.383530  0.527600  1.0
  C  C1514  1  0.953200  0.883530  0.972400  1.0
  C  C1515  1  0.546800  0.116470  0.472400  1.0
  C  C1516  1  0.453200  0.616470  0.027600  1.0
  C  C1517  1  0.472400  0.953200  0.616470  1.0
  C  C1518  1  0.027600  0.046800  0.116470  1.0
  C  C1519  1  0.527600  0.453200  0.883530  1.0
  C  C1520  1  0.972400  0.546800  0.383530  1.0
  C  C1521  1  0.616470  0.472400  0.953200  1.0
  C  C1522  1  0.116470  0.027600  0.046800  1.0
  C  C1523  1  0.883530  0.527600  0.453200  1.0
  C  C1524  1  0.383530  0.972400  0.546800  1.0
  C  C1525  1  0.953200  0.616470  0.472400  1.0
  C  C1526  1  0.046800  0.116470  0.027600  1.0
  C  C1527  1  0.453200  0.883530  0.527600  1.0
  C  C1528  1  0.546800  0.383530  0.972400  1.0
  C  C1529  1  0.534100  0.111600  0.341600  1.0
  C  C1530  1  0.965900  0.888400  0.841600  1.0
  C  C1531  1  0.465900  0.611600  0.158400  1.0
  C  C1532  1  0.034100  0.388400  0.658400  1.0
  C  C1533  1  0.341600  0.534100  0.111600  1.0
  C  C1534  1  0.841600  0.965900  0.888400  1.0
  C  C1535  1  0.158400  0.465900  0.611600  1.0
  C  C1536  1  0.658400  0.034100  0.388400  1.0
  C  C1537  1  0.111600  0.341600  0.534100  1.0
  C  C1538  1  0.888400  0.841600  0.965900  1.0
  C  C1539  1  0.611600  0.158400  0.465900  1.0
  C  C1540  1  0.388400  0.658400  0.034100  1.0
  C  C1541  1  0.465900  0.888400  0.658400  1.0
  C  C1542  1  0.034100  0.111600  0.158400  1.0
  C  C1543  1  0.534100  0.388400  0.841600  1.0
  C  C1544  1  0.965900  0.611600  0.341600  1.0
  C  C1545  1  0.658400  0.465900  0.888400  1.0
  C  C1546  1  0.158400  0.034100  0.111600  1.0
  C  C1547  1  0.841600  0.534100  0.388400  1.0
  C  C1548  1  0.341600  0.965900  0.611600  1.0
  C  C1549  1  0.888400  0.658400  0.465900  1.0
  C  C1550  1  0.111600  0.158400  0.034100  1.0
  C  C1551  1  0.388400  0.841600  0.534100  1.0
  C  C1552  1  0.611600  0.341600  0.965900  1.0
  C  C1553  1  0.639900  0.953500  0.310000  1.0
  C  C1554  1  0.860100  0.046500  0.810000  1.0
  C  C1555  1  0.360100  0.453500  0.190000  1.0
  C  C1556  1  0.139900  0.546500  0.690000  1.0
  C  C1557  1  0.310000  0.639900  0.953500  1.0
  C  C1558  1  0.810000  0.860100  0.046500  1.0
  C  C1559  1  0.190000  0.360100  0.453500  1.0
  C  C1560  1  0.690000  0.139900  0.546500  1.0
  C  C1561  1  0.953500  0.310000  0.639900  1.0
  C  C1562  1  0.046500  0.810000  0.860100  1.0
  C  C1563  1  0.453500  0.190000  0.360100  1.0
  C  C1564  1  0.546500  0.690000  0.139900  1.0
  C  C1565  1  0.360100  0.046500  0.690000  1.0
  C  C1566  1  0.139900  0.953500  0.190000  1.0
  C  C1567  1  0.639900  0.546500  0.810000  1.0
  C  C1568  1  0.860100  0.453500  0.310000  1.0
  C  C1569  1  0.690000  0.360100  0.046500  1.0
  C  C1570  1  0.190000  0.139900  0.953500  1.0
  C  C1571  1  0.810000  0.639900  0.546500  1.0
  C  C1572  1  0.310000  0.860100  0.453500  1.0
  C  C1573  1  0.046500  0.690000  0.360100  1.0
  C  C1574  1  0.953500  0.190000  0.139900  1.0
  C  C1575  1  0.546500  0.810000  0.639900  1.0
  C  C1576  1  0.453500  0.310000  0.860100  1.0
  C  C1577  1  0.645300  0.990800  0.328800  1.0
  C  C1578  1  0.854700  0.009200  0.828800  1.0
  C  C1579  1  0.354700  0.490800  0.171200  1.0
  C  C1580  1  0.145300  0.509200  0.671200  1.0
  C  C1581  1  0.328800  0.645300  0.990800  1.0
  C  C1582  1  0.828800  0.854700  0.009200  1.0
  C  C1583  1  0.171200  0.354700  0.490800  1.0
  C  C1584  1  0.671200  0.145300  0.509200  1.0
  C  C1585  1  0.990800  0.328800  0.645300  1.0
  C  C1586  1  0.009200  0.828800  0.854700  1.0
  C  C1587  1  0.490800  0.171200  0.354700  1.0
  C  C1588  1  0.509200  0.671200  0.145300  1.0
  C  C1589  1  0.354700  0.009200  0.671200  1.0
  C  C1590  1  0.145300  0.990800  0.171200  1.0
  C  C1591  1  0.645300  0.509200  0.828800  1.0
  C  C1592  1  0.854700  0.490800  0.328800  1.0
  C  C1593  1  0.671200  0.354700  0.009200  1.0
  C  C1594  1  0.171200  0.145300  0.990800  1.0
  C  C1595  1  0.828800  0.645300  0.509200  1.0
  C  C1596  1  0.328800  0.854700  0.490800  1.0
  C  C1597  1  0.009200  0.671200  0.354700  1.0
  C  C1598  1  0.990800  0.171200  0.145300  1.0
  C  C1599  1  0.509200  0.828800  0.645300  1.0
  C  C1600  1  0.490800  0.328800  0.854700  1.0
  C  C1601  1  0.492640  0.129800  0.346700  1.0
  C  C1602  1  0.007360  0.870200  0.846700  1.0
  C  C1603  1  0.507360  0.629800  0.153300  1.0
  C  C1604  1  0.992640  0.370200  0.653300  1.0
  C  C1605  1  0.346700  0.492640  0.129800  1.0
  C  C1606  1  0.846700  0.007360  0.870200  1.0
  C  C1607  1  0.153300  0.507360  0.629800  1.0
  C  C1608  1  0.653300  0.992640  0.370200  1.0
  C  C1609  1  0.129800  0.346700  0.492640  1.0
  C  C1610  1  0.870200  0.846700  0.007360  1.0
  C  C1611  1  0.629800  0.153300  0.507360  1.0
  C  C1612  1  0.370200  0.653300  0.992640  1.0
  C  C1613  1  0.507360  0.870200  0.653300  1.0
  C  C1614  1  0.992640  0.129800  0.153300  1.0
  C  C1615  1  0.492640  0.370200  0.846700  1.0
  C  C1616  1  0.007360  0.629800  0.346700  1.0
  C  C1617  1  0.653300  0.507360  0.870200  1.0
  C  C1618  1  0.153300  0.992640  0.129800  1.0
  C  C1619  1  0.846700  0.492640  0.370200  1.0
  C  C1620  1  0.346700  0.007360  0.629800  1.0
  C  C1621  1  0.870200  0.653300  0.507360  1.0
  C  C1622  1  0.129800  0.153300  0.992640  1.0
  C  C1623  1  0.370200  0.846700  0.492640  1.0
  C  C1624  1  0.629800  0.346700  0.007360  1.0
  C  C1625  1  0.457100  0.107340  0.344000  1.0
  C  C1626  1  0.042900  0.892660  0.844000  1.0
  C  C1627  1  0.542900  0.607340  0.156000  1.0
  C  C1628  1  0.957100  0.392660  0.656000  1.0
  C  C1629  1  0.344000  0.457100  0.107340  1.0
  C  C1630  1  0.844000  0.042900  0.892660  1.0
  C  C1631  1  0.156000  0.542900  0.607340  1.0
  C  C1632  1  0.656000  0.957100  0.392660  1.0
  C  C1633  1  0.107340  0.344000  0.457100  1.0
  C  C1634  1  0.892660  0.844000  0.042900  1.0
  C  C1635  1  0.607340  0.156000  0.542900  1.0
  C  C1636  1  0.392660  0.656000  0.957100  1.0
  C  C1637  1  0.542900  0.892660  0.656000  1.0
  C  C1638  1  0.957100  0.107340  0.156000  1.0
  C  C1639  1  0.457100  0.392660  0.844000  1.0
  C  C1640  1  0.042900  0.607340  0.344000  1.0
  C  C1641  1  0.656000  0.542900  0.892660  1.0
  C  C1642  1  0.156000  0.957100  0.107340  1.0
  C  C1643  1  0.844000  0.457100  0.392660  1.0
  C  C1644  1  0.344000  0.042900  0.607340  1.0
  C  C1645  1  0.892660  0.656000  0.542900  1.0
  C  C1646  1  0.107340  0.156000  0.957100  1.0
  C  C1647  1  0.392660  0.844000  0.457100  1.0
  C  C1648  1  0.607340  0.344000  0.042900  1.0
  C  C1649  1  0.419760  0.126200  0.349400  1.0
  C  C1650  1  0.080240  0.873800  0.849400  1.0
  C  C1651  1  0.580240  0.626200  0.150600  1.0
  C  C1652  1  0.919760  0.373800  0.650600  1.0
  C  C1653  1  0.349400  0.419760  0.126200  1.0
  C  C1654  1  0.849400  0.080240  0.873800  1.0
  C  C1655  1  0.150600  0.580240  0.626200  1.0
  C  C1656  1  0.650600  0.919760  0.373800  1.0
  C  C1657  1  0.126200  0.349400  0.419760  1.0
  C  C1658  1  0.873800  0.849400  0.080240  1.0
  C  C1659  1  0.626200  0.150600  0.580240  1.0
  C  C1660  1  0.373800  0.650600  0.919760  1.0
  C  C1661  1  0.580240  0.873800  0.650600  1.0
  C  C1662  1  0.919760  0.126200  0.150600  1.0
  C  C1663  1  0.419760  0.373800  0.849400  1.0
  C  C1664  1  0.080240  0.626200  0.349400  1.0
  C  C1665  1  0.650600  0.580240  0.873800  1.0
  C  C1666  1  0.150600  0.919760  0.126200  1.0
  C  C1667  1  0.849400  0.419760  0.373800  1.0
  C  C1668  1  0.349400  0.080240  0.626200  1.0
  C  C1669  1  0.873800  0.650600  0.580240  1.0
  C  C1670  1  0.126200  0.150600  0.919760  1.0
  C  C1671  1  0.373800  0.849400  0.419760  1.0
  C  C1672  1  0.626200  0.349400  0.080240  1.0
  C  C1673  1  0.642600  0.918000  0.332500  1.0
  C  C1674  1  0.857400  0.082000  0.832500  1.0
  C  C1675  1  0.357400  0.418000  0.167500  1.0
  C  C1676  1  0.142600  0.582000  0.667500  1.0
  C  C1677  1  0.332500  0.642600  0.918000  1.0
  C  C1678  1  0.832500  0.857400  0.082000  1.0
  C  C1679  1  0.167500  0.357400  0.418000  1.0
  C  C1680  1  0.667500  0.142600  0.582000  1.0
  C  C1681  1  0.918000  0.332500  0.642600  1.0
  C  C1682  1  0.082000  0.832500  0.857400  1.0
  C  C1683  1  0.418000  0.167500  0.357400  1.0
  C  C1684  1  0.582000  0.667500  0.142600  1.0
  C  C1685  1  0.357400  0.082000  0.667500  1.0
  C  C1686  1  0.142600  0.918000  0.167500  1.0
  C  C1687  1  0.642600  0.582000  0.832500  1.0
  C  C1688  1  0.857400  0.418000  0.332500  1.0
  C  C1689  1  0.667500  0.357400  0.082000  1.0
  C  C1690  1  0.167500  0.142600  0.918000  1.0
  C  C1691  1  0.832500  0.642600  0.582000  1.0
  C  C1692  1  0.332500  0.857400  0.418000  1.0
  C  C1693  1  0.082000  0.667500  0.357400  1.0
  C  C1694  1  0.918000  0.167500  0.142600  1.0
  C  C1695  1  0.582000  0.832500  0.642600  1.0
  C  C1696  1  0.418000  0.332500  0.857400  1.0
  C  C1697  1  0.384130  0.104100  0.344700  1.0
  C  C1698  1  0.115870  0.895900  0.844700  1.0
  C  C1699  1  0.615870  0.604100  0.155300  1.0
  C  C1700  1  0.884130  0.395900  0.655300  1.0
  C  C1701  1  0.344700  0.384130  0.104100  1.0
  C  C1702  1  0.844700  0.115870  0.895900  1.0
  C  C1703  1  0.155300  0.615870  0.604100  1.0
  C  C1704  1  0.655300  0.884130  0.395900  1.0
  C  C1705  1  0.104100  0.344700  0.384130  1.0
  C  C1706  1  0.895900  0.844700  0.115870  1.0
  C  C1707  1  0.604100  0.155300  0.615870  1.0
  C  C1708  1  0.395900  0.655300  0.884130  1.0
  C  C1709  1  0.615870  0.895900  0.655300  1.0
  C  C1710  1  0.884130  0.104100  0.155300  1.0
  C  C1711  1  0.384130  0.395900  0.844700  1.0
  C  C1712  1  0.115870  0.604100  0.344700  1.0
  C  C1713  1  0.655300  0.615870  0.895900  1.0
  C  C1714  1  0.155300  0.884130  0.104100  1.0
  C  C1715  1  0.844700  0.384130  0.395900  1.0
  C  C1716  1  0.344700  0.115870  0.604100  1.0
  C  C1717  1  0.895900  0.655300  0.615870  1.0
  C  C1718  1  0.104100  0.155300  0.884130  1.0
  C  C1719  1  0.395900  0.844700  0.384130  1.0
  C  C1720  1  0.604100  0.344700  0.115870  1.0
  C  C1721  1  0.346970  0.122100  0.353300  1.0
  C  C1722  1  0.153030  0.877900  0.853300  1.0
  C  C1723  1  0.653030  0.622100  0.146700  1.0
  C  C1724  1  0.846970  0.377900  0.646700  1.0
  C  C1725  1  0.353300  0.346970  0.122100  1.0
  C  C1726  1  0.853300  0.153030  0.877900  1.0
  C  C1727  1  0.146700  0.653030  0.622100  1.0
  C  C1728  1  0.646700  0.846970  0.377900  1.0
  C  C1729  1  0.122100  0.353300  0.346970  1.0
  C  C1730  1  0.877900  0.853300  0.153030  1.0
  C  C1731  1  0.622100  0.146700  0.653030  1.0
  C  C1732  1  0.377900  0.646700  0.846970  1.0
  C  C1733  1  0.653030  0.877900  0.646700  1.0
  C  C1734  1  0.846970  0.122100  0.146700  1.0
  C  C1735  1  0.346970  0.377900  0.853300  1.0
  C  C1736  1  0.153030  0.622100  0.353300  1.0
  C  C1737  1  0.646700  0.653030  0.877900  1.0
  C  C1738  1  0.146700  0.846970  0.122100  1.0
  C  C1739  1  0.853300  0.346970  0.377900  1.0
  C  C1740  1  0.353300  0.153030  0.622100  1.0
  C  C1741  1  0.877900  0.646700  0.653030  1.0
  C  C1742  1  0.122100  0.146700  0.846970  1.0
  C  C1743  1  0.377900  0.853300  0.346970  1.0
  C  C1744  1  0.622100  0.353300  0.153030  1.0
  C  C1745  1  0.345340  0.163000  0.363500  1.0
  C  C1746  1  0.154660  0.837000  0.863500  1.0
  C  C1747  1  0.654660  0.663000  0.136500  1.0
  C  C1748  1  0.845340  0.337000  0.636500  1.0
  C  C1749  1  0.363500  0.345340  0.163000  1.0
  C  C1750  1  0.863500  0.154660  0.837000  1.0
  C  C1751  1  0.136500  0.654660  0.663000  1.0
  C  C1752  1  0.636500  0.845340  0.337000  1.0
  C  C1753  1  0.163000  0.363500  0.345340  1.0
  C  C1754  1  0.837000  0.863500  0.154660  1.0
  C  C1755  1  0.663000  0.136500  0.654660  1.0
  C  C1756  1  0.337000  0.636500  0.845340  1.0
  C  C1757  1  0.654660  0.837000  0.636500  1.0
  C  C1758  1  0.845340  0.163000  0.136500  1.0
  C  C1759  1  0.345340  0.337000  0.863500  1.0
  C  C1760  1  0.154660  0.663000  0.363500  1.0
  C  C1761  1  0.636500  0.654660  0.837000  1.0
  C  C1762  1  0.136500  0.845340  0.163000  1.0
  C  C1763  1  0.863500  0.345340  0.337000  1.0
  C  C1764  1  0.363500  0.154660  0.663000  1.0
  C  C1765  1  0.837000  0.636500  0.654660  1.0
  C  C1766  1  0.163000  0.136500  0.845340  1.0
  C  C1767  1  0.337000  0.863500  0.345340  1.0
  C  C1768  1  0.663000  0.363500  0.154660  1.0
  C  C1769  1  0.633200  0.880900  0.314600  1.0
  C  C1770  1  0.866800  0.119100  0.814600  1.0
  C  C1771  1  0.366800  0.380900  0.185400  1.0
  C  C1772  1  0.133200  0.619100  0.685400  1.0
  C  C1773  1  0.314600  0.633200  0.880900  1.0
  C  C1774  1  0.814600  0.866800  0.119100  1.0
  C  C1775  1  0.185400  0.366800  0.380900  1.0
  C  C1776  1  0.685400  0.133200  0.619100  1.0
  C  C1777  1  0.880900  0.314600  0.633200  1.0
  C  C1778  1  0.119100  0.814600  0.866800  1.0
  C  C1779  1  0.380900  0.185400  0.366800  1.0
  C  C1780  1  0.619100  0.685400  0.133200  1.0
  C  C1781  1  0.366800  0.119100  0.685400  1.0
  C  C1782  1  0.133200  0.880900  0.185400  1.0
  C  C1783  1  0.633200  0.619100  0.814600  1.0
  C  C1784  1  0.866800  0.380900  0.314600  1.0
  C  C1785  1  0.685400  0.366800  0.119100  1.0
  C  C1786  1  0.185400  0.133200  0.880900  1.0
  C  C1787  1  0.814600  0.633200  0.619100  1.0
  C  C1788  1  0.314600  0.866800  0.380900  1.0
  C  C1789  1  0.119100  0.685400  0.366800  1.0
  C  C1790  1  0.880900  0.185400  0.133200  1.0
  C  C1791  1  0.619100  0.814600  0.633200  1.0
  C  C1792  1  0.380900  0.314600  0.866800  1.0
  C  C1793  1  0.822900  0.197800  0.241000  1.0
  C  C1794  1  0.677100  0.802200  0.741000  1.0
  C  C1795  1  0.177100  0.697800  0.259000  1.0
  C  C1796  1  0.322900  0.302200  0.759000  1.0
  C  C1797  1  0.241000  0.822900  0.197800  1.0
  C  C1798  1  0.741000  0.677100  0.802200  1.0
  C  C1799  1  0.259000  0.177100  0.697800  1.0
  C  C1800  1  0.759000  0.322900  0.302200  1.0
  C  C1801  1  0.197800  0.241000  0.822900  1.0
  C  C1802  1  0.802200  0.741000  0.677100  1.0
  C  C1803  1  0.697800  0.259000  0.177100  1.0
  C  C1804  1  0.302200  0.759000  0.322900  1.0
  C  C1805  1  0.177100  0.802200  0.759000  1.0
  C  C1806  1  0.322900  0.197800  0.259000  1.0
  C  C1807  1  0.822900  0.302200  0.741000  1.0
  C  C1808  1  0.677100  0.697800  0.241000  1.0
  C  C1809  1  0.759000  0.177100  0.802200  1.0
  C  C1810  1  0.259000  0.322900  0.197800  1.0
  C  C1811  1  0.741000  0.822900  0.302200  1.0
  C  C1812  1  0.241000  0.677100  0.697800  1.0
  C  C1813  1  0.802200  0.759000  0.177100  1.0
  C  C1814  1  0.197800  0.259000  0.322900  1.0
  C  C1815  1  0.302200  0.741000  0.822900  1.0
  C  C1816  1  0.697800  0.241000  0.677100  1.0
  C  C1817  1  0.863600  0.186900  0.240000  1.0
  C  C1818  1  0.636400  0.813100  0.740000  1.0
  C  C1819  1  0.136400  0.686900  0.260000  1.0
  C  C1820  1  0.363600  0.313100  0.760000  1.0
  C  C1821  1  0.240000  0.863600  0.186900  1.0
  C  C1822  1  0.740000  0.636400  0.813100  1.0
  C  C1823  1  0.260000  0.136400  0.686900  1.0
  C  C1824  1  0.760000  0.363600  0.313100  1.0
  C  C1825  1  0.186900  0.240000  0.863600  1.0
  C  C1826  1  0.813100  0.740000  0.636400  1.0
  C  C1827  1  0.686900  0.260000  0.136400  1.0
  C  C1828  1  0.313100  0.760000  0.363600  1.0
  C  C1829  1  0.136400  0.813100  0.760000  1.0
  C  C1830  1  0.363600  0.186900  0.260000  1.0
  C  C1831  1  0.863600  0.313100  0.740000  1.0
  C  C1832  1  0.636400  0.686900  0.240000  1.0
  C  C1833  1  0.760000  0.136400  0.813100  1.0
  C  C1834  1  0.260000  0.363600  0.186900  1.0
  C  C1835  1  0.740000  0.863600  0.313100  1.0
  C  C1836  1  0.240000  0.636400  0.686900  1.0
  C  C1837  1  0.813100  0.760000  0.136400  1.0
  C  C1838  1  0.186900  0.260000  0.363600  1.0
  C  C1839  1  0.313100  0.740000  0.863600  1.0
  C  C1840  1  0.686900  0.240000  0.636400  1.0
  C  C1841  1  0.893340  0.216200  0.245800  1.0
  C  C1842  1  0.606660  0.783800  0.745800  1.0
  C  C1843  1  0.106660  0.716200  0.254200  1.0
  C  C1844  1  0.393340  0.283800  0.754200  1.0
  C  C1845  1  0.245800  0.893340  0.216200  1.0
  C  C1846  1  0.745800  0.606660  0.783800  1.0
  C  C1847  1  0.254200  0.106660  0.716200  1.0
  C  C1848  1  0.754200  0.393340  0.283800  1.0
  C  C1849  1  0.216200  0.245800  0.893340  1.0
  C  C1850  1  0.783800  0.745800  0.606660  1.0
  C  C1851  1  0.716200  0.254200  0.106660  1.0
  C  C1852  1  0.283800  0.754200  0.393340  1.0
  C  C1853  1  0.106660  0.783800  0.754200  1.0
  C  C1854  1  0.393340  0.216200  0.254200  1.0
  C  C1855  1  0.893340  0.283800  0.745800  1.0
  C  C1856  1  0.606660  0.716200  0.245800  1.0
  C  C1857  1  0.754200  0.106660  0.783800  1.0
  C  C1858  1  0.254200  0.393340  0.216200  1.0
  C  C1859  1  0.745800  0.893340  0.283800  1.0
  C  C1860  1  0.245800  0.606660  0.716200  1.0
  C  C1861  1  0.783800  0.754200  0.106660  1.0
  C  C1862  1  0.216200  0.254200  0.393340  1.0
  C  C1863  1  0.283800  0.745800  0.893340  1.0
  C  C1864  1  0.716200  0.245800  0.606660  1.0
  C  C1865  1  0.882400  0.256300  0.252700  1.0
  C  C1866  1  0.617600  0.743700  0.752700  1.0
  C  C1867  1  0.117600  0.756300  0.247300  1.0
  C  C1868  1  0.382400  0.243700  0.747300  1.0
  C  C1869  1  0.252700  0.882400  0.256300  1.0
  C  C1870  1  0.752700  0.617600  0.743700  1.0
  C  C1871  1  0.247300  0.117600  0.756300  1.0
  C  C1872  1  0.747300  0.382400  0.243700  1.0
  C  C1873  1  0.256300  0.252700  0.882400  1.0
  C  C1874  1  0.743700  0.752700  0.617600  1.0
  C  C1875  1  0.756300  0.247300  0.117600  1.0
  C  C1876  1  0.243700  0.747300  0.382400  1.0
  C  C1877  1  0.117600  0.743700  0.747300  1.0
  C  C1878  1  0.382400  0.256300  0.247300  1.0
  C  C1879  1  0.882400  0.243700  0.752700  1.0
  C  C1880  1  0.617600  0.756300  0.252700  1.0
  C  C1881  1  0.747300  0.117600  0.743700  1.0
  C  C1882  1  0.247300  0.382400  0.256300  1.0
  C  C1883  1  0.752700  0.882400  0.243700  1.0
  C  C1884  1  0.252700  0.617600  0.756300  1.0
  C  C1885  1  0.743700  0.747300  0.117600  1.0
  C  C1886  1  0.256300  0.247300  0.382400  1.0
  C  C1887  1  0.243700  0.752700  0.882400  1.0
  C  C1888  1  0.756300  0.252700  0.617600  1.0
  C  C1889  1  0.841600  0.267170  0.253700  1.0
  C  C1890  1  0.658400  0.732830  0.753700  1.0
  C  C1891  1  0.158400  0.767170  0.246300  1.0
  C  C1892  1  0.341600  0.232830  0.746300  1.0
  C  C1893  1  0.253700  0.841600  0.267170  1.0
  C  C1894  1  0.753700  0.658400  0.732830  1.0
  C  C1895  1  0.246300  0.158400  0.767170  1.0
  C  C1896  1  0.746300  0.341600  0.232830  1.0
  C  C1897  1  0.267170  0.253700  0.841600  1.0
  C  C1898  1  0.732830  0.753700  0.658400  1.0
  C  C1899  1  0.767170  0.246300  0.158400  1.0
  C  C1900  1  0.232830  0.746300  0.341600  1.0
  C  C1901  1  0.158400  0.732830  0.746300  1.0
  C  C1902  1  0.341600  0.267170  0.246300  1.0
  C  C1903  1  0.841600  0.232830  0.753700  1.0
  C  C1904  1  0.658400  0.767170  0.253700  1.0
  C  C1905  1  0.746300  0.158400  0.732830  1.0
  C  C1906  1  0.246300  0.341600  0.267170  1.0
  C  C1907  1  0.753700  0.841600  0.232830  1.0
  C  C1908  1  0.253700  0.658400  0.767170  1.0
  C  C1909  1  0.732830  0.746300  0.158400  1.0
  C  C1910  1  0.267170  0.246300  0.341600  1.0
  C  C1911  1  0.232830  0.753700  0.841600  1.0
  C  C1912  1  0.767170  0.253700  0.658400  1.0
  C  C1913  1  0.792790  0.170100  0.238900  1.0
  C  C1914  1  0.707210  0.829900  0.738900  1.0
  C  C1915  1  0.207210  0.670100  0.261100  1.0
  C  C1916  1  0.292790  0.329900  0.761100  1.0
  C  C1917  1  0.238900  0.792790  0.170100  1.0
  C  C1918  1  0.738900  0.707210  0.829900  1.0
  C  C1919  1  0.261100  0.207210  0.670100  1.0
  C  C1920  1  0.761100  0.292790  0.329900  1.0
  C  C1921  1  0.170100  0.238900  0.792790  1.0
  C  C1922  1  0.829900  0.738900  0.707210  1.0
  C  C1923  1  0.670100  0.261100  0.207210  1.0
  C  C1924  1  0.329900  0.761100  0.292790  1.0
  C  C1925  1  0.207210  0.829900  0.761100  1.0
  C  C1926  1  0.292790  0.170100  0.261100  1.0
  C  C1927  1  0.792790  0.329900  0.738900  1.0
  C  C1928  1  0.707210  0.670100  0.238900  1.0
  C  C1929  1  0.761100  0.207210  0.829900  1.0
  C  C1930  1  0.261100  0.292790  0.170100  1.0
  C  C1931  1  0.738900  0.792790  0.329900  1.0
  C  C1932  1  0.238900  0.707210  0.670100  1.0
  C  C1933  1  0.829900  0.761100  0.207210  1.0
  C  C1934  1  0.170100  0.261100  0.292790  1.0
  C  C1935  1  0.329900  0.738900  0.792790  1.0
  C  C1936  1  0.670100  0.238900  0.707210  1.0
  C  C1937  1  0.792000  0.127600  0.231700  1.0
  C  C1938  1  0.708000  0.872400  0.731700  1.0
  C  C1939  1  0.208000  0.627600  0.268300  1.0
  C  C1940  1  0.292000  0.372400  0.768300  1.0
  C  C1941  1  0.231700  0.792000  0.127600  1.0
  C  C1942  1  0.731700  0.708000  0.872400  1.0
  C  C1943  1  0.268300  0.208000  0.627600  1.0
  C  C1944  1  0.768300  0.292000  0.372400  1.0
  C  C1945  1  0.127600  0.231700  0.792000  1.0
  C  C1946  1  0.872400  0.731700  0.708000  1.0
  C  C1947  1  0.627600  0.268300  0.208000  1.0
  C  C1948  1  0.372400  0.768300  0.292000  1.0
  C  C1949  1  0.208000  0.872400  0.768300  1.0
  C  C1950  1  0.292000  0.127600  0.268300  1.0
  C  C1951  1  0.792000  0.372400  0.731700  1.0
  C  C1952  1  0.708000  0.627600  0.231700  1.0
  C  C1953  1  0.768300  0.208000  0.872400  1.0
  C  C1954  1  0.268300  0.292000  0.127600  1.0
  C  C1955  1  0.731700  0.792000  0.372400  1.0
  C  C1956  1  0.231700  0.708000  0.627600  1.0
  C  C1957  1  0.872400  0.768300  0.208000  1.0
  C  C1958  1  0.127600  0.268300  0.292000  1.0
  C  C1959  1  0.372400  0.731700  0.792000  1.0
  C  C1960  1  0.627600  0.231700  0.708000  1.0
  C  C1961  1  0.750800  0.115000  0.231300  1.0
  C  C1962  1  0.749200  0.885000  0.731300  1.0
  C  C1963  1  0.249200  0.615000  0.268700  1.0
  C  C1964  1  0.250800  0.385000  0.768700  1.0
  C  C1965  1  0.231300  0.750800  0.115000  1.0
  C  C1966  1  0.731300  0.749200  0.885000  1.0
  C  C1967  1  0.268700  0.249200  0.615000  1.0
  C  C1968  1  0.768700  0.250800  0.385000  1.0
  C  C1969  1  0.115000  0.231300  0.750800  1.0
  C  C1970  1  0.885000  0.731300  0.749200  1.0
  C  C1971  1  0.615000  0.268700  0.249200  1.0
  C  C1972  1  0.385000  0.768700  0.250800  1.0
  C  C1973  1  0.249200  0.885000  0.768700  1.0
  C  C1974  1  0.250800  0.115000  0.268700  1.0
  C  C1975  1  0.750800  0.385000  0.731300  1.0
  C  C1976  1  0.749200  0.615000  0.231300  1.0
  C  C1977  1  0.768700  0.249200  0.885000  1.0
  C  C1978  1  0.268700  0.250800  0.115000  1.0
  C  C1979  1  0.731300  0.750800  0.385000  1.0
  C  C1980  1  0.231300  0.749200  0.615000  1.0
  C  C1981  1  0.885000  0.768700  0.249200  1.0
  C  C1982  1  0.115000  0.268700  0.250800  1.0
  C  C1983  1  0.385000  0.731300  0.750800  1.0
  C  C1984  1  0.615000  0.231300  0.749200  1.0
  C  C1985  1  0.684900  0.153300  0.239400  1.0
  C  C1986  1  0.815100  0.846700  0.739400  1.0
  C  C1987  1  0.315100  0.653300  0.260600  1.0
  C  C1988  1  0.184900  0.346700  0.760600  1.0
  C  C1989  1  0.239400  0.684900  0.153300  1.0
  C  C1990  1  0.739400  0.815100  0.846700  1.0
  C  C1991  1  0.260600  0.315100  0.653300  1.0
  C  C1992  1  0.760600  0.184900  0.346700  1.0
  C  C1993  1  0.153300  0.239400  0.684900  1.0
  C  C1994  1  0.846700  0.739400  0.815100  1.0
  C  C1995  1  0.653300  0.260600  0.315100  1.0
  C  C1996  1  0.346700  0.760600  0.184900  1.0
  C  C1997  1  0.315100  0.846700  0.760600  1.0
  C  C1998  1  0.184900  0.153300  0.260600  1.0
  C  C1999  1  0.684900  0.346700  0.739400  1.0
  C  C2000  1  0.815100  0.653300  0.239400  1.0
  C  C2001  1  0.760600  0.315100  0.846700  1.0
  C  C2002  1  0.260600  0.184900  0.153300  1.0
  C  C2003  1  0.739400  0.684900  0.346700  1.0
  C  C2004  1  0.239400  0.815100  0.653300  1.0
  C  C2005  1  0.846700  0.760600  0.315100  1.0
  C  C2006  1  0.153300  0.260600  0.184900  1.0
  C  C2007  1  0.346700  0.739400  0.684900  1.0
  C  C2008  1  0.653300  0.239400  0.815100  1.0
  C  C2009  1  0.465700  0.088300  0.236100  1.0
  C  C2010  1  0.034300  0.911700  0.736100  1.0
  C  C2011  1  0.534300  0.588300  0.263900  1.0
  C  C2012  1  0.965700  0.411700  0.763900  1.0
  C  C2013  1  0.236100  0.465700  0.088300  1.0
  C  C2014  1  0.736100  0.034300  0.911700  1.0
  C  C2015  1  0.263900  0.534300  0.588300  1.0
  C  C2016  1  0.763900  0.965700  0.411700  1.0
  C  C2017  1  0.088300  0.236100  0.465700  1.0
  C  C2018  1  0.911700  0.736100  0.034300  1.0
  C  C2019  1  0.588300  0.263900  0.534300  1.0
  C  C2020  1  0.411700  0.763900  0.965700  1.0
  C  C2021  1  0.534300  0.911700  0.763900  1.0
  C  C2022  1  0.965700  0.088300  0.263900  1.0
  C  C2023  1  0.465700  0.411700  0.736100  1.0
  C  C2024  1  0.034300  0.588300  0.236100  1.0
  C  C2025  1  0.763900  0.534300  0.911700  1.0
  C  C2026  1  0.263900  0.965700  0.088300  1.0
  C  C2027  1  0.736100  0.465700  0.411700  1.0
  C  C2028  1  0.236100  0.034300  0.588300  1.0
  C  C2029  1  0.911700  0.763900  0.534300  1.0
  C  C2030  1  0.088300  0.263900  0.965700  1.0
  C  C2031  1  0.411700  0.736100  0.465700  1.0
  C  C2032  1  0.588300  0.236100  0.034300  1.0
  C  C2033  1  0.424700  0.097100  0.231400  1.0
  C  C2034  1  0.075300  0.902900  0.731400  1.0
  C  C2035  1  0.575300  0.597100  0.268600  1.0
  C  C2036  1  0.924700  0.402900  0.768600  1.0
  C  C2037  1  0.231400  0.424700  0.097100  1.0
  C  C2038  1  0.731400  0.075300  0.902900  1.0
  C  C2039  1  0.268600  0.575300  0.597100  1.0
  C  C2040  1  0.768600  0.924700  0.402900  1.0
  C  C2041  1  0.097100  0.231400  0.424700  1.0
  C  C2042  1  0.902900  0.731400  0.075300  1.0
  C  C2043  1  0.597100  0.268600  0.575300  1.0
  C  C2044  1  0.402900  0.768600  0.924700  1.0
  C  C2045  1  0.575300  0.902900  0.768600  1.0
  C  C2046  1  0.924700  0.097100  0.268600  1.0
  C  C2047  1  0.424700  0.402900  0.731400  1.0
  C  C2048  1  0.075300  0.597100  0.231400  1.0
  C  C2049  1  0.768600  0.575300  0.902900  1.0
  C  C2050  1  0.268600  0.924700  0.097100  1.0
  C  C2051  1  0.731400  0.424700  0.402900  1.0
  C  C2052  1  0.231400  0.075300  0.597100  1.0
  C  C2053  1  0.902900  0.768600  0.575300  1.0
  C  C2054  1  0.097100  0.268600  0.924700  1.0
  C  C2055  1  0.402900  0.731400  0.424700  1.0
  C  C2056  1  0.597100  0.231400  0.075300  1.0
  C  C2057  1  0.395910  0.066700  0.236200  1.0
  C  C2058  1  0.104090  0.933300  0.736200  1.0
  C  C2059  1  0.604090  0.566700  0.263800  1.0
  C  C2060  1  0.895910  0.433300  0.763800  1.0
  C  C2061  1  0.236200  0.395910  0.066700  1.0
  C  C2062  1  0.736200  0.104090  0.933300  1.0
  C  C2063  1  0.263800  0.604090  0.566700  1.0
  C  C2064  1  0.763800  0.895910  0.433300  1.0
  C  C2065  1  0.066700  0.236200  0.395910  1.0
  C  C2066  1  0.933300  0.736200  0.104090  1.0
  C  C2067  1  0.566700  0.263800  0.604090  1.0
  C  C2068  1  0.433300  0.763800  0.895910  1.0
  C  C2069  1  0.604090  0.933300  0.763800  1.0
  C  C2070  1  0.895910  0.066700  0.263800  1.0
  C  C2071  1  0.395910  0.433300  0.736200  1.0
  C  C2072  1  0.104090  0.566700  0.236200  1.0
  C  C2073  1  0.763800  0.604090  0.933300  1.0
  C  C2074  1  0.263800  0.895910  0.066700  1.0
  C  C2075  1  0.736200  0.395910  0.433300  1.0
  C  C2076  1  0.236200  0.104090  0.566700  1.0
  C  C2077  1  0.933300  0.763800  0.604090  1.0
  C  C2078  1  0.066700  0.263800  0.895910  1.0
  C  C2079  1  0.433300  0.736200  0.395910  1.0
  C  C2080  1  0.566700  0.236200  0.104090  1.0
  C  C2081  1  0.408100  0.027500  0.245800  1.0
  C  C2082  1  0.091900  0.972500  0.745800  1.0
  C  C2083  1  0.591900  0.527500  0.254200  1.0
  C  C2084  1  0.908100  0.472500  0.754200  1.0
  C  C2085  1  0.245800  0.408100  0.027500  1.0
  C  C2086  1  0.745800  0.091900  0.972500  1.0
  C  C2087  1  0.254200  0.591900  0.527500  1.0
  C  C2088  1  0.754200  0.908100  0.472500  1.0
  C  C2089  1  0.027500  0.245800  0.408100  1.0
  C  C2090  1  0.972500  0.745800  0.091900  1.0
  C  C2091  1  0.527500  0.254200  0.591900  1.0
  C  C2092  1  0.472500  0.754200  0.908100  1.0
  C  C2093  1  0.591900  0.972500  0.754200  1.0
  C  C2094  1  0.908100  0.027500  0.254200  1.0
  C  C2095  1  0.408100  0.472500  0.745800  1.0
  C  C2096  1  0.091900  0.527500  0.245800  1.0
  C  C2097  1  0.754200  0.591900  0.972500  1.0
  C  C2098  1  0.254200  0.908100  0.027500  1.0
  C  C2099  1  0.745800  0.408100  0.472500  1.0
  C  C2100  1  0.245800  0.091900  0.527500  1.0
  C  C2101  1  0.972500  0.754200  0.591900  1.0
  C  C2102  1  0.027500  0.254200  0.908100  1.0
  C  C2103  1  0.472500  0.745800  0.408100  1.0
  C  C2104  1  0.527500  0.245800  0.091900  1.0
  C  C2105  1  0.449000  0.018700  0.250600  1.0
  C  C2106  1  0.051000  0.981300  0.750600  1.0
  C  C2107  1  0.551000  0.518700  0.249400  1.0
  C  C2108  1  0.949000  0.481300  0.749400  1.0
  C  C2109  1  0.250600  0.449000  0.018700  1.0
  C  C2110  1  0.750600  0.051000  0.981300  1.0
  C  C2111  1  0.249400  0.551000  0.518700  1.0
  C  C2112  1  0.749400  0.949000  0.481300  1.0
  C  C2113  1  0.018700  0.250600  0.449000  1.0
  C  C2114  1  0.981300  0.750600  0.051000  1.0
  C  C2115  1  0.518700  0.249400  0.551000  1.0
  C  C2116  1  0.481300  0.749400  0.949000  1.0
  C  C2117  1  0.551000  0.981300  0.749400  1.0
  C  C2118  1  0.949000  0.018700  0.249400  1.0
  C  C2119  1  0.449000  0.481300  0.750600  1.0
  C  C2120  1  0.051000  0.518700  0.250600  1.0
  C  C2121  1  0.749400  0.551000  0.981300  1.0
  C  C2122  1  0.249400  0.949000  0.018700  1.0
  C  C2123  1  0.750600  0.449000  0.481300  1.0
  C  C2124  1  0.250600  0.051000  0.518700  1.0
  C  C2125  1  0.981300  0.749400  0.551000  1.0
  C  C2126  1  0.018700  0.249400  0.949000  1.0
  C  C2127  1  0.481300  0.750600  0.449000  1.0
  C  C2128  1  0.518700  0.250600  0.051000  1.0
  C  C2129  1  0.494730  0.116700  0.235100  1.0
  C  C2130  1  0.005270  0.883300  0.735100  1.0
  C  C2131  1  0.505270  0.616700  0.264900  1.0
  C  C2132  1  0.994730  0.383300  0.764900  1.0
  C  C2133  1  0.235100  0.494730  0.116700  1.0
  C  C2134  1  0.735100  0.005270  0.883300  1.0
  C  C2135  1  0.264900  0.505270  0.616700  1.0
  C  C2136  1  0.764900  0.994730  0.383300  1.0
  C  C2137  1  0.116700  0.235100  0.494730  1.0
  C  C2138  1  0.883300  0.735100  0.005270  1.0
  C  C2139  1  0.616700  0.264900  0.505270  1.0
  C  C2140  1  0.383300  0.764900  0.994730  1.0
  C  C2141  1  0.505270  0.883300  0.764900  1.0
  C  C2142  1  0.994730  0.116700  0.264900  1.0
  C  C2143  1  0.494730  0.383300  0.735100  1.0
  C  C2144  1  0.005270  0.616700  0.235100  1.0
  C  C2145  1  0.764900  0.505270  0.883300  1.0
  C  C2146  1  0.264900  0.994730  0.116700  1.0
  C  C2147  1  0.735100  0.494730  0.383300  1.0
  C  C2148  1  0.235100  0.005270  0.616700  1.0
  C  C2149  1  0.883300  0.764900  0.505270  1.0
  C  C2150  1  0.116700  0.264900  0.994730  1.0
  C  C2151  1  0.383300  0.735100  0.494730  1.0
  C  C2152  1  0.616700  0.235100  0.005270  1.0
  C  C2153  1  0.494700  0.159200  0.228100  1.0
  C  C2154  1  0.005300  0.840800  0.728100  1.0
  C  C2155  1  0.505300  0.659200  0.271900  1.0
  C  C2156  1  0.994700  0.340800  0.771900  1.0
  C  C2157  1  0.228100  0.494700  0.159200  1.0
  C  C2158  1  0.728100  0.005300  0.840800  1.0
  C  C2159  1  0.271900  0.505300  0.659200  1.0
  C  C2160  1  0.771900  0.994700  0.340800  1.0
  C  C2161  1  0.159200  0.228100  0.494700  1.0
  C  C2162  1  0.840800  0.728100  0.005300  1.0
  C  C2163  1  0.659200  0.271900  0.505300  1.0
  C  C2164  1  0.340800  0.771900  0.994700  1.0
  C  C2165  1  0.505300  0.840800  0.771900  1.0
  C  C2166  1  0.994700  0.159200  0.271900  1.0
  C  C2167  1  0.494700  0.340800  0.728100  1.0
  C  C2168  1  0.005300  0.659200  0.228100  1.0
  C  C2169  1  0.771900  0.505300  0.840800  1.0
  C  C2170  1  0.271900  0.994700  0.159200  1.0
  C  C2171  1  0.728100  0.494700  0.340800  1.0
  C  C2172  1  0.228100  0.005300  0.659200  1.0
  C  C2173  1  0.840800  0.771900  0.505300  1.0
  C  C2174  1  0.159200  0.271900  0.994700  1.0
  C  C2175  1  0.340800  0.728100  0.494700  1.0
  C  C2176  1  0.659200  0.228100  0.005300  1.0
  C  C2177  1  0.535600  0.172740  0.228100  1.0
  C  C2178  1  0.964400  0.827260  0.728100  1.0
  C  C2179  1  0.464400  0.672740  0.271900  1.0
  C  C2180  1  0.035600  0.327260  0.771900  1.0
  C  C2181  1  0.228100  0.535600  0.172740  1.0
  C  C2182  1  0.728100  0.964400  0.827260  1.0
  C  C2183  1  0.271900  0.464400  0.672740  1.0
  C  C2184  1  0.771900  0.035600  0.327260  1.0
  C  C2185  1  0.172740  0.228100  0.535600  1.0
  C  C2186  1  0.827260  0.728100  0.964400  1.0
  C  C2187  1  0.672740  0.271900  0.464400  1.0
  C  C2188  1  0.327260  0.771900  0.035600  1.0
  C  C2189  1  0.464400  0.827260  0.771900  1.0
  C  C2190  1  0.035600  0.172740  0.271900  1.0
  C  C2191  1  0.535600  0.327260  0.728100  1.0
  C  C2192  1  0.964400  0.672740  0.228100  1.0
  C  C2193  1  0.771900  0.464400  0.827260  1.0
  C  C2194  1  0.271900  0.035600  0.172740  1.0
  C  C2195  1  0.728100  0.535600  0.327260  1.0
  C  C2196  1  0.228100  0.964400  0.672740  1.0
  C  C2197  1  0.827260  0.771900  0.464400  1.0
  C  C2198  1  0.172740  0.271900  0.035600  1.0
  C  C2199  1  0.327260  0.728100  0.535600  1.0
  C  C2200  1  0.672740  0.228100  0.964400  1.0
  C  C2201  1  0.603200  0.137900  0.237400  1.0
  C  C2202  1  0.896800  0.862100  0.737400  1.0
  C  C2203  1  0.396800  0.637900  0.262600  1.0
  C  C2204  1  0.103200  0.362100  0.762600  1.0
  C  C2205  1  0.237400  0.603200  0.137900  1.0
  C  C2206  1  0.737400  0.896800  0.862100  1.0
  C  C2207  1  0.262600  0.396800  0.637900  1.0
  C  C2208  1  0.762600  0.103200  0.362100  1.0
  C  C2209  1  0.137900  0.237400  0.603200  1.0
  C  C2210  1  0.862100  0.737400  0.896800  1.0
  C  C2211  1  0.637900  0.262600  0.396800  1.0
  C  C2212  1  0.362100  0.762600  0.103200  1.0
  C  C2213  1  0.396800  0.862100  0.762600  1.0
  C  C2214  1  0.103200  0.137900  0.262600  1.0
  C  C2215  1  0.603200  0.362100  0.737400  1.0
  C  C2216  1  0.896800  0.637900  0.237400  1.0
  C  C2217  1  0.762600  0.396800  0.862100  1.0
  C  C2218  1  0.262600  0.103200  0.137900  1.0
  C  C2219  1  0.737400  0.603200  0.362100  1.0
  C  C2220  1  0.237400  0.896800  0.637900  1.0
  C  C2221  1  0.862100  0.762600  0.396800  1.0
  C  C2222  1  0.137900  0.262600  0.103200  1.0
  C  C2223  1  0.362100  0.737400  0.603200  1.0
  C  C2224  1  0.637900  0.237400  0.896800  1.0
  C  C2225  1  0.686400  0.151700  0.161800  1.0
  C  C2226  1  0.813600  0.848300  0.661800  1.0
  C  C2227  1  0.313600  0.651700  0.338200  1.0
  C  C2228  1  0.186400  0.348300  0.838200  1.0
  C  C2229  1  0.161800  0.686400  0.151700  1.0
  C  C2230  1  0.661800  0.813600  0.848300  1.0
  C  C2231  1  0.338200  0.313600  0.651700  1.0
  C  C2232  1  0.838200  0.186400  0.348300  1.0
  C  C2233  1  0.151700  0.161800  0.686400  1.0
  C  C2234  1  0.848300  0.661800  0.813600  1.0
  C  C2235  1  0.651700  0.338200  0.313600  1.0
  C  C2236  1  0.348300  0.838200  0.186400  1.0
  C  C2237  1  0.313600  0.848300  0.838200  1.0
  C  C2238  1  0.186400  0.151700  0.338200  1.0
  C  C2239  1  0.686400  0.348300  0.661800  1.0
  C  C2240  1  0.813600  0.651700  0.161800  1.0
  C  C2241  1  0.838200  0.313600  0.848300  1.0
  C  C2242  1  0.338200  0.186400  0.151700  1.0
  C  C2243  1  0.661800  0.686400  0.348300  1.0
  C  C2244  1  0.161800  0.813600  0.651700  1.0
  C  C2245  1  0.848300  0.838200  0.313600  1.0
  C  C2246  1  0.151700  0.338200  0.186400  1.0
  C  C2247  1  0.348300  0.661800  0.686400  1.0
  C  C2248  1  0.651700  0.161800  0.813600  1.0
  C  C2249  1  0.665100  0.148800  0.198020  1.0
  C  C2250  1  0.834900  0.851200  0.698020  1.0
  C  C2251  1  0.334900  0.648800  0.301980  1.0
  C  C2252  1  0.165100  0.351200  0.801980  1.0
  C  C2253  1  0.198020  0.665100  0.148800  1.0
  C  C2254  1  0.698020  0.834900  0.851200  1.0
  C  C2255  1  0.301980  0.334900  0.648800  1.0
  C  C2256  1  0.801980  0.165100  0.351200  1.0
  C  C2257  1  0.148800  0.198020  0.665100  1.0
  C  C2258  1  0.851200  0.698020  0.834900  1.0
  C  C2259  1  0.648800  0.301980  0.334900  1.0
  C  C2260  1  0.351200  0.801980  0.165100  1.0
  C  C2261  1  0.334900  0.851200  0.801980  1.0
  C  C2262  1  0.165100  0.148800  0.301980  1.0
  C  C2263  1  0.665100  0.351200  0.698020  1.0
  C  C2264  1  0.834900  0.648800  0.198020  1.0
  C  C2265  1  0.801980  0.334900  0.851200  1.0
  C  C2266  1  0.301980  0.165100  0.148800  1.0
  C  C2267  1  0.698020  0.665100  0.351200  1.0
  C  C2268  1  0.198020  0.834900  0.648800  1.0
  C  C2269  1  0.851200  0.801980  0.334900  1.0
  C  C2270  1  0.148800  0.301980  0.165100  1.0
  C  C2271  1  0.351200  0.698020  0.665100  1.0
  C  C2272  1  0.648800  0.198020  0.834900  1.0
  C  C2273  1  0.623900  0.139900  0.197610  1.0
  C  C2274  1  0.876100  0.860100  0.697610  1.0
  C  C2275  1  0.376100  0.639900  0.302390  1.0
  C  C2276  1  0.123900  0.360100  0.802390  1.0
  C  C2277  1  0.197610  0.623900  0.139900  1.0
  C  C2278  1  0.697610  0.876100  0.860100  1.0
  C  C2279  1  0.302390  0.376100  0.639900  1.0
  C  C2280  1  0.802390  0.123900  0.360100  1.0
  C  C2281  1  0.139900  0.197610  0.623900  1.0
  C  C2282  1  0.860100  0.697610  0.876100  1.0
  C  C2283  1  0.639900  0.302390  0.376100  1.0
  C  C2284  1  0.360100  0.802390  0.123900  1.0
  C  C2285  1  0.376100  0.860100  0.802390  1.0
  C  C2286  1  0.123900  0.139900  0.302390  1.0
  C  C2287  1  0.623900  0.360100  0.697610  1.0
  C  C2288  1  0.876100  0.639900  0.197610  1.0
  C  C2289  1  0.802390  0.376100  0.860100  1.0
  C  C2290  1  0.302390  0.123900  0.139900  1.0
  C  C2291  1  0.697610  0.623900  0.360100  1.0
  C  C2292  1  0.197610  0.876100  0.639900  1.0
  C  C2293  1  0.860100  0.802390  0.376100  1.0
  C  C2294  1  0.139900  0.302390  0.123900  1.0
  C  C2295  1  0.360100  0.697610  0.623900  1.0
  C  C2296  1  0.639900  0.197610  0.876100  1.0
  C  C2297  1  0.603980  0.133900  0.160900  1.0
  C  C2298  1  0.896020  0.866100  0.660900  1.0
  C  C2299  1  0.396020  0.633900  0.339100  1.0
  C  C2300  1  0.103980  0.366100  0.839100  1.0
  C  C2301  1  0.160900  0.603980  0.133900  1.0
  C  C2302  1  0.660900  0.896020  0.866100  1.0
  C  C2303  1  0.339100  0.396020  0.633900  1.0
  C  C2304  1  0.839100  0.103980  0.366100  1.0
  C  C2305  1  0.133900  0.160900  0.603980  1.0
  C  C2306  1  0.866100  0.660900  0.896020  1.0
  C  C2307  1  0.633900  0.339100  0.396020  1.0
  C  C2308  1  0.366100  0.839100  0.103980  1.0
  C  C2309  1  0.396020  0.866100  0.839100  1.0
  C  C2310  1  0.103980  0.133900  0.339100  1.0
  C  C2311  1  0.603980  0.366100  0.660900  1.0
  C  C2312  1  0.896020  0.633900  0.160900  1.0
  C  C2313  1  0.839100  0.396020  0.866100  1.0
  C  C2314  1  0.339100  0.103980  0.133900  1.0
  C  C2315  1  0.660900  0.603980  0.366100  1.0
  C  C2316  1  0.160900  0.896020  0.633900  1.0
  C  C2317  1  0.866100  0.839100  0.396020  1.0
  C  C2318  1  0.133900  0.339100  0.103980  1.0
  C  C2319  1  0.366100  0.660900  0.603980  1.0
  C  C2320  1  0.633900  0.160900  0.896020  1.0
  C  C2321  1  0.625300  0.136800  0.124670  1.0
  C  C2322  1  0.874700  0.863200  0.624670  1.0
  C  C2323  1  0.374700  0.636800  0.375330  1.0
  C  C2324  1  0.125300  0.363200  0.875330  1.0
  C  C2325  1  0.124670  0.625300  0.136800  1.0
  C  C2326  1  0.624670  0.874700  0.863200  1.0
  C  C2327  1  0.375330  0.374700  0.636800  1.0
  C  C2328  1  0.875330  0.125300  0.363200  1.0
  C  C2329  1  0.136800  0.124670  0.625300  1.0
  C  C2330  1  0.863200  0.624670  0.874700  1.0
  C  C2331  1  0.636800  0.375330  0.374700  1.0
  C  C2332  1  0.363200  0.875330  0.125300  1.0
  C  C2333  1  0.374700  0.863200  0.875330  1.0
  C  C2334  1  0.125300  0.136800  0.375330  1.0
  C  C2335  1  0.625300  0.363200  0.624670  1.0
  C  C2336  1  0.874700  0.636800  0.124670  1.0
  C  C2337  1  0.875330  0.374700  0.863200  1.0
  C  C2338  1  0.375330  0.125300  0.136800  1.0
  C  C2339  1  0.624670  0.625300  0.363200  1.0
  C  C2340  1  0.124670  0.874700  0.636800  1.0
  C  C2341  1  0.863200  0.875330  0.374700  1.0
  C  C2342  1  0.136800  0.375330  0.125300  1.0
  C  C2343  1  0.363200  0.624670  0.625300  1.0
  C  C2344  1  0.636800  0.124670  0.874700  1.0
  C  C2345  1  0.666500  0.145700  0.125080  1.0
  C  C2346  1  0.833500  0.854300  0.625080  1.0
  C  C2347  1  0.333500  0.645700  0.374920  1.0
  C  C2348  1  0.166500  0.354300  0.874920  1.0
  C  C2349  1  0.125080  0.666500  0.145700  1.0
  C  C2350  1  0.625080  0.833500  0.854300  1.0
  C  C2351  1  0.374920  0.333500  0.645700  1.0
  C  C2352  1  0.874920  0.166500  0.354300  1.0
  C  C2353  1  0.145700  0.125080  0.666500  1.0
  C  C2354  1  0.854300  0.625080  0.833500  1.0
  C  C2355  1  0.645700  0.374920  0.333500  1.0
  C  C2356  1  0.354300  0.874920  0.166500  1.0
  C  C2357  1  0.333500  0.854300  0.874920  1.0
  C  C2358  1  0.166500  0.145700  0.374920  1.0
  C  C2359  1  0.666500  0.354300  0.625080  1.0
  C  C2360  1  0.833500  0.645700  0.125080  1.0
  C  C2361  1  0.874920  0.333500  0.854300  1.0
  C  C2362  1  0.374920  0.166500  0.145700  1.0
  C  C2363  1  0.625080  0.666500  0.354300  1.0
  C  C2364  1  0.125080  0.833500  0.645700  1.0
  C  C2365  1  0.854300  0.874920  0.333500  1.0
  C  C2366  1  0.145700  0.374920  0.166500  1.0
  C  C2367  1  0.354300  0.625080  0.666500  1.0
  C  C2368  1  0.645700  0.125080  0.833500  1.0
  C  C2369  1  0.606500  0.129800  0.087520  1.0
  C  C2370  1  0.893500  0.870200  0.587520  1.0
  C  C2371  1  0.393500  0.629800  0.412480  1.0
  C  C2372  1  0.106500  0.370200  0.912480  1.0
  C  C2373  1  0.087520  0.606500  0.129800  1.0
  C  C2374  1  0.587520  0.893500  0.870200  1.0
  C  C2375  1  0.412480  0.393500  0.629800  1.0
  C  C2376  1  0.912480  0.106500  0.370200  1.0
  C  C2377  1  0.129800  0.087520  0.606500  1.0
  C  C2378  1  0.870200  0.587520  0.893500  1.0
  C  C2379  1  0.629800  0.412480  0.393500  1.0
  C  C2380  1  0.370200  0.912480  0.106500  1.0
  C  C2381  1  0.393500  0.870200  0.912480  1.0
  C  C2382  1  0.106500  0.129800  0.412480  1.0
  C  C2383  1  0.606500  0.370200  0.587520  1.0
  C  C2384  1  0.893500  0.629800  0.087520  1.0
  C  C2385  1  0.912480  0.393500  0.870200  1.0
  C  C2386  1  0.412480  0.106500  0.129800  1.0
  C  C2387  1  0.587520  0.606500  0.370200  1.0
  C  C2388  1  0.087520  0.893500  0.629800  1.0
  C  C2389  1  0.870200  0.912480  0.393500  1.0
  C  C2390  1  0.129800  0.412480  0.106500  1.0
  C  C2391  1  0.370200  0.587520  0.606500  1.0
  C  C2392  1  0.629800  0.087520  0.893500  1.0
  C  C2393  1  0.629200  0.131000  0.052000  1.0
  C  C2394  1  0.870800  0.869000  0.552000  1.0
  C  C2395  1  0.370800  0.631000  0.448000  1.0
  C  C2396  1  0.129200  0.369000  0.948000  1.0
  C  C2397  1  0.052000  0.629200  0.131000  1.0
  C  C2398  1  0.552000  0.870800  0.869000  1.0
  C  C2399  1  0.448000  0.370800  0.631000  1.0
  C  C2400  1  0.948000  0.129200  0.369000  1.0
  C  C2401  1  0.131000  0.052000  0.629200  1.0
  C  C2402  1  0.869000  0.552000  0.870800  1.0
  C  C2403  1  0.631000  0.448000  0.370800  1.0
  C  C2404  1  0.369000  0.948000  0.129200  1.0
  C  C2405  1  0.370800  0.869000  0.948000  1.0
  C  C2406  1  0.129200  0.131000  0.448000  1.0
  C  C2407  1  0.629200  0.369000  0.552000  1.0
  C  C2408  1  0.870800  0.631000  0.052000  1.0
  C  C2409  1  0.948000  0.370800  0.869000  1.0
  C  C2410  1  0.448000  0.129200  0.131000  1.0
  C  C2411  1  0.552000  0.629200  0.369000  1.0
  C  C2412  1  0.052000  0.870800  0.631000  1.0
  C  C2413  1  0.869000  0.948000  0.370800  1.0
  C  C2414  1  0.131000  0.448000  0.129200  1.0
  C  C2415  1  0.369000  0.552000  0.629200  1.0
  C  C2416  1  0.631000  0.052000  0.870800  1.0
  C  C2417  1  0.670300  0.140300  0.052340  1.0
  C  C2418  1  0.829700  0.859700  0.552340  1.0
  C  C2419  1  0.329700  0.640300  0.447660  1.0
  C  C2420  1  0.170300  0.359700  0.947660  1.0
  C  C2421  1  0.052340  0.670300  0.140300  1.0
  C  C2422  1  0.552340  0.829700  0.859700  1.0
  C  C2423  1  0.447660  0.329700  0.640300  1.0
  C  C2424  1  0.947660  0.170300  0.359700  1.0
  C  C2425  1  0.140300  0.052340  0.670300  1.0
  C  C2426  1  0.859700  0.552340  0.829700  1.0
  C  C2427  1  0.640300  0.447660  0.329700  1.0
  C  C2428  1  0.359700  0.947660  0.170300  1.0
  C  C2429  1  0.329700  0.859700  0.947660  1.0
  C  C2430  1  0.170300  0.140300  0.447660  1.0
  C  C2431  1  0.670300  0.359700  0.552340  1.0
  C  C2432  1  0.829700  0.640300  0.052340  1.0
  C  C2433  1  0.947660  0.329700  0.859700  1.0
  C  C2434  1  0.447660  0.170300  0.140300  1.0
  C  C2435  1  0.552340  0.670300  0.359700  1.0
  C  C2436  1  0.052340  0.829700  0.640300  1.0
  C  C2437  1  0.859700  0.947660  0.329700  1.0
  C  C2438  1  0.140300  0.447660  0.170300  1.0
  C  C2439  1  0.359700  0.552340  0.670300  1.0
  C  C2440  1  0.640300  0.052340  0.829700  1.0
  C  C2441  1  0.688500  0.149400  0.089300  1.0
  C  C2442  1  0.811500  0.850600  0.589300  1.0
  C  C2443  1  0.311500  0.649400  0.410700  1.0
  C  C2444  1  0.188500  0.350600  0.910700  1.0
  C  C2445  1  0.089300  0.688500  0.149400  1.0
  C  C2446  1  0.589300  0.811500  0.850600  1.0
  C  C2447  1  0.410700  0.311500  0.649400  1.0
  C  C2448  1  0.910700  0.188500  0.350600  1.0
  C  C2449  1  0.149400  0.089300  0.688500  1.0
  C  C2450  1  0.850600  0.589300  0.811500  1.0
  C  C2451  1  0.649400  0.410700  0.311500  1.0
  C  C2452  1  0.350600  0.910700  0.188500  1.0
  C  C2453  1  0.311500  0.850600  0.910700  1.0
  C  C2454  1  0.188500  0.149400  0.410700  1.0
  C  C2455  1  0.688500  0.350600  0.589300  1.0
  C  C2456  1  0.811500  0.649400  0.089300  1.0
  C  C2457  1  0.910700  0.311500  0.850600  1.0
  C  C2458  1  0.410700  0.188500  0.149400  1.0
  C  C2459  1  0.589300  0.688500  0.350600  1.0
  C  C2460  1  0.089300  0.811500  0.649400  1.0
  C  C2461  1  0.850600  0.910700  0.311500  1.0
  C  C2462  1  0.149400  0.410700  0.188500  1.0
  C  C2463  1  0.350600  0.589300  0.688500  1.0
  C  C2464  1  0.649400  0.089300  0.811500  1.0
  N  N2465  1  0.547400  0.030700  0.185200  1.0
  N  N2466  1  0.952600  0.969300  0.685200  1.0
  N  N2467  1  0.452600  0.530700  0.314800  1.0
  N  N2468  1  0.047400  0.469300  0.814800  1.0
  N  N2469  1  0.185200  0.547400  0.030700  1.0
  N  N2470  1  0.685200  0.952600  0.969300  1.0
  N  N2471  1  0.314800  0.452600  0.530700  1.0
  N  N2472  1  0.814800  0.047400  0.469300  1.0
  N  N2473  1  0.030700  0.185200  0.547400  1.0
  N  N2474  1  0.969300  0.685200  0.952600  1.0
  N  N2475  1  0.530700  0.314800  0.452600  1.0
  N  N2476  1  0.469300  0.814800  0.047400  1.0
  N  N2477  1  0.452600  0.969300  0.814800  1.0
  N  N2478  1  0.047400  0.030700  0.314800  1.0
  N  N2479  1  0.547400  0.469300  0.685200  1.0
  N  N2480  1  0.952600  0.530700  0.185200  1.0
  N  N2481  1  0.814800  0.452600  0.969300  1.0
  N  N2482  1  0.314800  0.047400  0.030700  1.0
  N  N2483  1  0.685200  0.547400  0.469300  1.0
  N  N2484  1  0.185200  0.952600  0.530700  1.0
  N  N2485  1  0.969300  0.814800  0.452600  1.0
  N  N2486  1  0.030700  0.314800  0.047400  1.0
  N  N2487  1  0.469300  0.685200  0.547400  1.0
  N  N2488  1  0.530700  0.185200  0.952600  1.0
  N  N2489  1  0.642200  0.027700  0.264300  1.0
  N  N2490  1  0.857800  0.972300  0.764300  1.0
  N  N2491  1  0.357800  0.527700  0.235700  1.0
  N  N2492  1  0.142200  0.472300  0.735700  1.0
  N  N2493  1  0.264300  0.642200  0.027700  1.0
  N  N2494  1  0.764300  0.857800  0.972300  1.0
  N  N2495  1  0.235700  0.357800  0.527700  1.0
  N  N2496  1  0.735700  0.142200  0.472300  1.0
  N  N2497  1  0.027700  0.264300  0.642200  1.0
  N  N2498  1  0.972300  0.764300  0.857800  1.0
  N  N2499  1  0.527700  0.235700  0.357800  1.0
  N  N2500  1  0.472300  0.735700  0.142200  1.0
  N  N2501  1  0.357800  0.972300  0.735700  1.0
  N  N2502  1  0.142200  0.027700  0.235700  1.0
  N  N2503  1  0.642200  0.472300  0.764300  1.0
  N  N2504  1  0.857800  0.527700  0.264300  1.0
  N  N2505  1  0.735700  0.357800  0.972300  1.0
  N  N2506  1  0.235700  0.142200  0.027700  1.0
  N  N2507  1  0.764300  0.642200  0.472300  1.0
  N  N2508  1  0.264300  0.857800  0.527700  1.0
  N  N2509  1  0.972300  0.735700  0.357800  1.0
  N  N2510  1  0.027700  0.235700  0.142200  1.0
  N  N2511  1  0.472300  0.764300  0.642200  1.0
  N  N2512  1  0.527700  0.264300  0.857800  1.0
  N  N2513  1  0.606500  0.032800  0.240800  1.0
  N  N2514  1  0.893500  0.967200  0.740800  1.0
  N  N2515  1  0.393500  0.532800  0.259200  1.0
  N  N2516  1  0.106500  0.467200  0.759200  1.0
  N  N2517  1  0.240800  0.606500  0.032800  1.0
  N  N2518  1  0.740800  0.893500  0.967200  1.0
  N  N2519  1  0.259200  0.393500  0.532800  1.0
  N  N2520  1  0.759200  0.106500  0.467200  1.0
  N  N2521  1  0.032800  0.240800  0.606500  1.0
  N  N2522  1  0.967200  0.740800  0.893500  1.0
  N  N2523  1  0.532800  0.259200  0.393500  1.0
  N  N2524  1  0.467200  0.759200  0.106500  1.0
  N  N2525  1  0.393500  0.967200  0.759200  1.0
  N  N2526  1  0.106500  0.032800  0.259200  1.0
  N  N2527  1  0.606500  0.467200  0.740800  1.0
  N  N2528  1  0.893500  0.532800  0.240800  1.0
  N  N2529  1  0.759200  0.393500  0.967200  1.0
  N  N2530  1  0.259200  0.106500  0.032800  1.0
  N  N2531  1  0.740800  0.606500  0.467200  1.0
  N  N2532  1  0.240800  0.893500  0.532800  1.0
  N  N2533  1  0.967200  0.759200  0.393500  1.0
  N  N2534  1  0.032800  0.259200  0.106500  1.0
  N  N2535  1  0.467200  0.740800  0.606500  1.0
  N  N2536  1  0.532800  0.240800  0.893500  1.0
  N  N2537  1  0.540300  0.978000  0.265700  1.0
  N  N2538  1  0.959700  0.022000  0.765700  1.0
  N  N2539  1  0.459700  0.478000  0.234300  1.0
  N  N2540  1  0.040300  0.522000  0.734300  1.0
  N  N2541  1  0.265700  0.540300  0.978000  1.0
  N  N2542  1  0.765700  0.959700  0.022000  1.0
  N  N2543  1  0.234300  0.459700  0.478000  1.0
  N  N2544  1  0.734300  0.040300  0.522000  1.0
  N  N2545  1  0.978000  0.265700  0.540300  1.0
  N  N2546  1  0.022000  0.765700  0.959700  1.0
  N  N2547  1  0.478000  0.234300  0.459700  1.0
  N  N2548  1  0.522000  0.734300  0.040300  1.0
  N  N2549  1  0.459700  0.022000  0.734300  1.0
  N  N2550  1  0.040300  0.978000  0.234300  1.0
  N  N2551  1  0.540300  0.522000  0.765700  1.0
  N  N2552  1  0.959700  0.478000  0.265700  1.0
  N  N2553  1  0.734300  0.459700  0.022000  1.0
  N  N2554  1  0.234300  0.040300  0.978000  1.0
  N  N2555  1  0.765700  0.540300  0.522000  1.0
  N  N2556  1  0.265700  0.959700  0.478000  1.0
  N  N2557  1  0.022000  0.734300  0.459700  1.0
  N  N2558  1  0.978000  0.234300  0.040300  1.0
  N  N2559  1  0.522000  0.765700  0.540300  1.0
  N  N2560  1  0.478000  0.265700  0.959700  1.0
  N  N2561  1  0.533900  0.068850  0.347100  1.0
  N  N2562  1  0.966100  0.931150  0.847100  1.0
  N  N2563  1  0.466100  0.568850  0.152900  1.0
  N  N2564  1  0.033900  0.431150  0.652900  1.0
  N  N2565  1  0.347100  0.533900  0.068850  1.0
  N  N2566  1  0.847100  0.966100  0.931150  1.0
  N  N2567  1  0.152900  0.466100  0.568850  1.0
  N  N2568  1  0.652900  0.033900  0.431150  1.0
  N  N2569  1  0.068850  0.347100  0.533900  1.0
  N  N2570  1  0.931150  0.847100  0.966100  1.0
  N  N2571  1  0.568850  0.152900  0.466100  1.0
  N  N2572  1  0.431150  0.652900  0.033900  1.0
  N  N2573  1  0.466100  0.931150  0.652900  1.0
  N  N2574  1  0.033900  0.068850  0.152900  1.0
  N  N2575  1  0.533900  0.431150  0.847100  1.0
  N  N2576  1  0.966100  0.568850  0.347100  1.0
  N  N2577  1  0.652900  0.466100  0.931150  1.0
  N  N2578  1  0.152900  0.033900  0.068850  1.0
  N  N2579  1  0.847100  0.533900  0.431150  1.0
  N  N2580  1  0.347100  0.966100  0.568850  1.0
  N  N2581  1  0.931150  0.652900  0.466100  1.0
  N  N2582  1  0.068850  0.152900  0.033900  1.0
  N  N2583  1  0.431150  0.847100  0.533900  1.0
  N  N2584  1  0.568850  0.347100  0.966100  1.0
  N  N2585  1  0.537100  0.040600  0.314780  1.0
  N  N2586  1  0.962900  0.959400  0.814780  1.0
  N  N2587  1  0.462900  0.540600  0.185220  1.0
  N  N2588  1  0.037100  0.459400  0.685220  1.0
  N  N2589  1  0.314780  0.537100  0.040600  1.0
  N  N2590  1  0.814780  0.962900  0.959400  1.0
  N  N2591  1  0.185220  0.462900  0.540600  1.0
  N  N2592  1  0.685220  0.037100  0.459400  1.0
  N  N2593  1  0.040600  0.314780  0.537100  1.0
  N  N2594  1  0.959400  0.814780  0.962900  1.0
  N  N2595  1  0.540600  0.185220  0.462900  1.0
  N  N2596  1  0.459400  0.685220  0.037100  1.0
  N  N2597  1  0.462900  0.959400  0.685220  1.0
  N  N2598  1  0.037100  0.040600  0.185220  1.0
  N  N2599  1  0.537100  0.459400  0.814780  1.0
  N  N2600  1  0.962900  0.540600  0.314780  1.0
  N  N2601  1  0.685220  0.462900  0.959400  1.0
  N  N2602  1  0.185220  0.037100  0.040600  1.0
  N  N2603  1  0.814780  0.537100  0.459400  1.0
  N  N2604  1  0.314780  0.962900  0.540600  1.0
  N  N2605  1  0.959400  0.685220  0.462900  1.0
  N  N2606  1  0.040600  0.185220  0.037100  1.0
  N  N2607  1  0.459400  0.814780  0.537100  1.0
  N  N2608  1  0.540600  0.314780  0.962900  1.0
  N  N2609  1  0.811890  0.237900  0.247900  1.0
  N  N2610  1  0.688110  0.762100  0.747900  1.0
  N  N2611  1  0.188110  0.737900  0.252100  1.0
  N  N2612  1  0.311890  0.262100  0.752100  1.0
  N  N2613  1  0.247900  0.811890  0.237900  1.0
  N  N2614  1  0.747900  0.688110  0.762100  1.0
  N  N2615  1  0.252100  0.188110  0.737900  1.0
  N  N2616  1  0.752100  0.311890  0.262100  1.0
  N  N2617  1  0.237900  0.247900  0.811890  1.0
  N  N2618  1  0.762100  0.747900  0.688110  1.0
  N  N2619  1  0.737900  0.252100  0.188110  1.0
  N  N2620  1  0.262100  0.752100  0.311890  1.0
  N  N2621  1  0.188110  0.762100  0.752100  1.0
  N  N2622  1  0.311890  0.237900  0.252100  1.0
  N  N2623  1  0.811890  0.262100  0.747900  1.0
  N  N2624  1  0.688110  0.737900  0.247900  1.0
  N  N2625  1  0.752100  0.188110  0.762100  1.0
  N  N2626  1  0.252100  0.311890  0.237900  1.0
  N  N2627  1  0.747900  0.811890  0.262100  1.0
  N  N2628  1  0.247900  0.688110  0.737900  1.0
  N  N2629  1  0.762100  0.752100  0.188110  1.0
  N  N2630  1  0.237900  0.252100  0.311890  1.0
  N  N2631  1  0.262100  0.747900  0.811890  1.0
  N  N2632  1  0.737900  0.247900  0.688110  1.0
  N  N2633  1  0.726180  0.149600  0.238100  1.0
  N  N2634  1  0.773820  0.850400  0.738100  1.0
  N  N2635  1  0.273820  0.649600  0.261900  1.0
  N  N2636  1  0.226180  0.350400  0.761900  1.0
  N  N2637  1  0.238100  0.726180  0.149600  1.0
  N  N2638  1  0.738100  0.773820  0.850400  1.0
  N  N2639  1  0.261900  0.273820  0.649600  1.0
  N  N2640  1  0.761900  0.226180  0.350400  1.0
  N  N2641  1  0.149600  0.238100  0.726180  1.0
  N  N2642  1  0.850400  0.738100  0.773820  1.0
  N  N2643  1  0.649600  0.261900  0.273820  1.0
  N  N2644  1  0.350400  0.761900  0.226180  1.0
  N  N2645  1  0.273820  0.850400  0.761900  1.0
  N  N2646  1  0.226180  0.149600  0.261900  1.0
  N  N2647  1  0.726180  0.350400  0.738100  1.0
  N  N2648  1  0.773820  0.649600  0.238100  1.0
  N  N2649  1  0.761900  0.273820  0.850400  1.0
  N  N2650  1  0.261900  0.226180  0.149600  1.0
  N  N2651  1  0.738100  0.726180  0.350400  1.0
  N  N2652  1  0.238100  0.773820  0.649600  1.0
  N  N2653  1  0.850400  0.761900  0.273820  1.0
  N  N2654  1  0.149600  0.261900  0.226180  1.0
  N  N2655  1  0.350400  0.738100  0.726180  1.0
  N  N2656  1  0.649600  0.238100  0.773820  1.0
  N  N2657  1  0.752100  0.183710  0.242800  1.0
  N  N2658  1  0.747900  0.816290  0.742800  1.0
  N  N2659  1  0.247900  0.683710  0.257200  1.0
  N  N2660  1  0.252100  0.316290  0.757200  1.0
  N  N2661  1  0.242800  0.752100  0.183710  1.0
  N  N2662  1  0.742800  0.747900  0.816290  1.0
  N  N2663  1  0.257200  0.247900  0.683710  1.0
  N  N2664  1  0.757200  0.252100  0.316290  1.0
  N  N2665  1  0.183710  0.242800  0.752100  1.0
  N  N2666  1  0.816290  0.742800  0.747900  1.0
  N  N2667  1  0.683710  0.257200  0.247900  1.0
  N  N2668  1  0.316290  0.757200  0.252100  1.0
  N  N2669  1  0.247900  0.816290  0.757200  1.0
  N  N2670  1  0.252100  0.183710  0.257200  1.0
  N  N2671  1  0.752100  0.316290  0.742800  1.0
  N  N2672  1  0.747900  0.683710  0.242800  1.0
  N  N2673  1  0.757200  0.247900  0.816290  1.0
  N  N2674  1  0.257200  0.252100  0.183710  1.0
  N  N2675  1  0.742800  0.752100  0.316290  1.0
  N  N2676  1  0.242800  0.747900  0.683710  1.0
  N  N2677  1  0.816290  0.757200  0.247900  1.0
  N  N2678  1  0.183710  0.257200  0.252100  1.0
  N  N2679  1  0.316290  0.742800  0.752100  1.0
  N  N2680  1  0.683710  0.242800  0.747900  1.0
  N  N2681  1  0.477800  0.049100  0.245700  1.0
  N  N2682  1  0.022200  0.950900  0.745700  1.0
  N  N2683  1  0.522200  0.549100  0.254300  1.0
  N  N2684  1  0.977800  0.450900  0.754300  1.0
  N  N2685  1  0.245700  0.477800  0.049100  1.0
  N  N2686  1  0.745700  0.022200  0.950900  1.0
  N  N2687  1  0.254300  0.522200  0.549100  1.0
  N  N2688  1  0.754300  0.977800  0.450900  1.0
  N  N2689  1  0.049100  0.245700  0.477800  1.0
  N  N2690  1  0.950900  0.745700  0.022200  1.0
  N  N2691  1  0.549100  0.254300  0.522200  1.0
  N  N2692  1  0.450900  0.754300  0.977800  1.0
  N  N2693  1  0.522200  0.950900  0.754300  1.0
  N  N2694  1  0.977800  0.049100  0.254300  1.0
  N  N2695  1  0.477800  0.450900  0.745700  1.0
  N  N2696  1  0.022200  0.549100  0.245700  1.0
  N  N2697  1  0.754300  0.522200  0.950900  1.0
  N  N2698  1  0.254300  0.977800  0.049100  1.0
  N  N2699  1  0.745700  0.477800  0.450900  1.0
  N  N2700  1  0.245700  0.022200  0.549100  1.0
  N  N2701  1  0.950900  0.754300  0.522200  1.0
  N  N2702  1  0.049100  0.254300  0.977800  1.0
  N  N2703  1  0.450900  0.745700  0.477800  1.0
  N  N2704  1  0.549100  0.245700  0.022200  1.0
  N  N2705  1  0.560880  0.138600  0.235100  1.0
  N  N2706  1  0.939120  0.861400  0.735100  1.0
  N  N2707  1  0.439120  0.638600  0.264900  1.0
  N  N2708  1  0.060880  0.361400  0.764900  1.0
  N  N2709  1  0.235100  0.560880  0.138600  1.0
  N  N2710  1  0.735100  0.939120  0.861400  1.0
  N  N2711  1  0.264900  0.439120  0.638600  1.0
  N  N2712  1  0.764900  0.060880  0.361400  1.0
  N  N2713  1  0.138600  0.235100  0.560880  1.0
  N  N2714  1  0.861400  0.735100  0.939120  1.0
  N  N2715  1  0.638600  0.264900  0.439120  1.0
  N  N2716  1  0.361400  0.764900  0.060880  1.0
  N  N2717  1  0.439120  0.861400  0.764900  1.0
  N  N2718  1  0.060880  0.138600  0.264900  1.0
  N  N2719  1  0.560880  0.361400  0.735100  1.0
  N  N2720  1  0.939120  0.638600  0.235100  1.0
  N  N2721  1  0.764900  0.439120  0.861400  1.0
  N  N2722  1  0.264900  0.060880  0.138600  1.0
  N  N2723  1  0.735100  0.560880  0.361400  1.0
  N  N2724  1  0.235100  0.939120  0.638600  1.0
  N  N2725  1  0.861400  0.764900  0.439120  1.0
  N  N2726  1  0.138600  0.264900  0.060880  1.0
  N  N2727  1  0.361400  0.735100  0.560880  1.0
  N  N2728  1  0.638600  0.235100  0.939120  1.0
  N  N2729  1  0.535600  0.103990  0.239500  1.0
  N  N2730  1  0.964400  0.896010  0.739500  1.0
  N  N2731  1  0.464400  0.603990  0.260500  1.0
  N  N2732  1  0.035600  0.396010  0.760500  1.0
  N  N2733  1  0.239500  0.535600  0.103990  1.0
  N  N2734  1  0.739500  0.964400  0.896010  1.0
  N  N2735  1  0.260500  0.464400  0.603990  1.0
  N  N2736  1  0.760500  0.035600  0.396010  1.0
  N  N2737  1  0.103990  0.239500  0.535600  1.0
  N  N2738  1  0.896010  0.739500  0.964400  1.0
  N  N2739  1  0.603990  0.260500  0.464400  1.0
  N  N2740  1  0.396010  0.760500  0.035600  1.0
  N  N2741  1  0.464400  0.896010  0.760500  1.0
  N  N2742  1  0.035600  0.103990  0.260500  1.0
  N  N2743  1  0.535600  0.396010  0.739500  1.0
  N  N2744  1  0.964400  0.603990  0.239500  1.0
  N  N2745  1  0.760500  0.464400  0.896010  1.0
  N  N2746  1  0.260500  0.035600  0.103990  1.0
  N  N2747  1  0.739500  0.535600  0.396010  1.0
  N  N2748  1  0.239500  0.964400  0.603990  1.0
  N  N2749  1  0.896010  0.760500  0.464400  1.0
  N  N2750  1  0.103990  0.260500  0.035600  1.0
  N  N2751  1  0.396010  0.739500  0.535600  1.0
  N  N2752  1  0.603990  0.239500  0.964400  1.0
  F  F2753  1  0.977120  0.249120  0.259070  1
  F  F2754  1  0.522880  0.750880  0.759070  1
  F  F2755  1  0.022880  0.749120  0.240930  1
  F  F2756  1  0.477120  0.250880  0.740930  1
  F  F2757  1  0.259070  0.977120  0.249120  1
  F  F2758  1  0.759070  0.522880  0.750880  1
  F  F2759  1  0.240930  0.022880  0.749120  1
  F  F2760  1  0.740930  0.477120  0.250880  1
  F  F2761  1  0.249120  0.259070  0.977120  1
  F  F2762  1  0.750880  0.759070  0.522880  1
  F  F2763  1  0.749120  0.240930  0.022880  1
  F  F2764  1  0.250880  0.740930  0.477120  1
  F  F2765  1  0.022880  0.750880  0.740930  1
  F  F2766  1  0.477120  0.249120  0.240930  1
  F  F2767  1  0.977120  0.250880  0.759070  1
  F  F2768  1  0.522880  0.749120  0.259070  1
  F  F2769  1  0.740930  0.022880  0.750880  1
  F  F2770  1  0.240930  0.477120  0.249120  1
  F  F2771  1  0.759070  0.977120  0.250880  1
  F  F2772  1  0.259070  0.522880  0.749120  1
  F  F2773  1  0.750880  0.740930  0.022880  1
  F  F2774  1  0.249120  0.240930  0.477120  1
  F  F2775  1  0.250880  0.759070  0.977120  1
  F  F2776  1  0.749120  0.259070  0.522880  1
  F  F2777  1  0.014450  0.318420  0.320460  1
  F  F2778  1  0.485550  0.681580  0.820460  1
  F  F2779  1  0.985550  0.818420  0.179540  1
  F  F2780  1  0.514450  0.181580  0.679540  1
  F  F2781  1  0.320460  0.014450  0.318420  1
  F  F2782  1  0.820460  0.485550  0.681580  1
  F  F2783  1  0.179540  0.985550  0.818420  1
  F  F2784  1  0.679540  0.514450  0.181580  1
  F  F2785  1  0.318420  0.320460  0.014450  1
  F  F2786  1  0.681580  0.820460  0.485550  1
  F  F2787  1  0.818420  0.179540  0.985550  1
  F  F2788  1  0.181580  0.679540  0.514450  1
  F  F2789  1  0.985550  0.681580  0.679540  1
  F  F2790  1  0.514450  0.318420  0.179540  1
  F  F2791  1  0.014450  0.181580  0.820460  1
  F  F2792  1  0.485550  0.818420  0.320460  1
  F  F2793  1  0.679540  0.985550  0.681580  1
  F  F2794  1  0.179540  0.514450  0.318420  1
  F  F2795  1  0.820460  0.014450  0.181580  1
  F  F2796  1  0.320460  0.485550  0.818420  1
  F  F2797  1  0.681580  0.679540  0.985550  1
  F  F2798  1  0.318420  0.179540  0.514450  1
  F  F2799  1  0.181580  0.820460  0.014450  1
  F  F2800  1  0.818420  0.320460  0.485550  1
  F  F2801  1  0.949760  0.293500  0.305200  1
  F  F2802  1  0.550240  0.706500  0.805200  1
  F  F2803  1  0.050240  0.793500  0.194800  1
  F  F2804  1  0.449760  0.206500  0.694800  1
  F  F2805  1  0.305200  0.949760  0.293500  1
  F  F2806  1  0.805200  0.550240  0.706500  1
  F  F2807  1  0.194800  0.050240  0.793500  1
  F  F2808  1  0.694800  0.449760  0.206500  1
  F  F2809  1  0.293500  0.305200  0.949760  1
  F  F2810  1  0.706500  0.805200  0.550240  1
  F  F2811  1  0.793500  0.194800  0.050240  1
  F  F2812  1  0.206500  0.694800  0.449760  1
  F  F2813  1  0.050240  0.706500  0.694800  1
  F  F2814  1  0.449760  0.293500  0.194800  1
  F  F2815  1  0.949760  0.206500  0.805200  1
  F  F2816  1  0.550240  0.793500  0.305200  1
  F  F2817  1  0.694800  0.050240  0.706500  1
  F  F2818  1  0.194800  0.449760  0.293500  1
  F  F2819  1  0.805200  0.949760  0.206500  1
  F  F2820  1  0.305200  0.550240  0.793500  1
  F  F2821  1  0.706500  0.694800  0.050240  1
  F  F2822  1  0.293500  0.194800  0.449760  1
  F  F2823  1  0.206500  0.805200  0.949760  1
  F  F2824  1  0.793500  0.305200  0.550240  1
  F  F2825  1  0.990700  0.317200  0.253600  1
  F  F2826  1  0.509300  0.682800  0.753600  1
  F  F2827  1  0.009300  0.817200  0.246400  1
  F  F2828  1  0.490700  0.182800  0.746400  1
  F  F2829  1  0.253600  0.990700  0.317200  1
  F  F2830  1  0.753600  0.509300  0.682800  1
  F  F2831  1  0.246400  0.009300  0.817200  1
  F  F2832  1  0.746400  0.490700  0.182800  1
  F  F2833  1  0.317200  0.253600  0.990700  1
  F  F2834  1  0.682800  0.753600  0.509300  1
  F  F2835  1  0.817200  0.246400  0.009300  1
  F  F2836  1  0.182800  0.746400  0.490700  1
  F  F2837  1  0.009300  0.682800  0.746400  1
  F  F2838  1  0.490700  0.317200  0.246400  1
  F  F2839  1  0.990700  0.182800  0.753600  1
  F  F2840  1  0.509300  0.817200  0.253600  1
  F  F2841  1  0.746400  0.009300  0.682800  1
  F  F2842  1  0.246400  0.490700  0.317200  1
  F  F2843  1  0.753600  0.990700  0.182800  1
  F  F2844  1  0.253600  0.509300  0.817200  1
  F  F2845  1  0.682800  0.746400  0.009300  1
  F  F2846  1  0.317200  0.246400  0.490700  1
  F  F2847  1  0.182800  0.753600  0.990700  1
  F  F2848  1  0.817200  0.253600  0.509300  1
  F  F2849  1  0.041100  0.272700  0.273100  1
  F  F2850  1  0.458900  0.727300  0.773100  1
  F  F2851  1  0.958900  0.772700  0.226900  1
  F  F2852  1  0.541100  0.227300  0.726900  1
  F  F2853  1  0.273100  0.041100  0.272700  1
  F  F2854  1  0.773100  0.458900  0.727300  1
  F  F2855  1  0.226900  0.958900  0.772700  1
  F  F2856  1  0.726900  0.541100  0.227300  1
  F  F2857  1  0.272700  0.273100  0.041100  1
  F  F2858  1  0.727300  0.773100  0.458900  1
  F  F2859  1  0.772700  0.226900  0.958900  1
  F  F2860  1  0.227300  0.726900  0.541100  1
  F  F2861  1  0.958900  0.727300  0.726900  1
  F  F2862  1  0.541100  0.272700  0.226900  1
  F  F2863  1  0.041100  0.227300  0.773100  1
  F  F2864  1  0.458900  0.772700  0.273100  1
  F  F2865  1  0.726900  0.958900  0.727300  1
  F  F2866  1  0.226900  0.541100  0.272700  1
  F  F2867  1  0.773100  0.041100  0.227300  1
  F  F2868  1  0.273100  0.458900  0.772700  1
  F  F2869  1  0.727300  0.726900  0.958900  1
  F  F2870  1  0.272700  0.226900  0.541100  1
  F  F2871  1  0.227300  0.773100  0.041100  1
  F  F2872  1  0.772700  0.273100  0.458900  1
  F  F2873  1  0.000200  0.249000  0.324700  1
  F  F2874  1  0.499800  0.751000  0.824700  1
  F  F2875  1  0.999800  0.749000  0.175300  1
  F  F2876  1  0.500200  0.251000  0.675300  1
  F  F2877  1  0.324700  0.000200  0.249000  1
  F  F2878  1  0.824700  0.499800  0.751000  1
  F  F2879  1  0.175300  0.999800  0.749000  1
  F  F2880  1  0.675300  0.500200  0.251000  1
  F  F2881  1  0.249000  0.324700  0.000200  1
  F  F2882  1  0.751000  0.824700  0.499800  1
  F  F2883  1  0.749000  0.175300  0.999800  1
  F  F2884  1  0.251000  0.675300  0.500200  1
  F  F2885  1  0.999800  0.751000  0.675300  1
  F  F2886  1  0.500200  0.249000  0.175300  1
  F  F2887  1  0.000200  0.251000  0.824700  1
  F  F2888  1  0.499800  0.749000  0.324700  1
  F  F2889  1  0.675300  0.999800  0.751000  1
  F  F2890  1  0.175300  0.500200  0.249000  1
  F  F2891  1  0.824700  0.000200  0.251000  1
  F  F2892  1  0.324700  0.499800  0.749000  1
  F  F2893  1  0.751000  0.675300  0.999800  1
  F  F2894  1  0.249000  0.175300  0.500200  1
  F  F2895  1  0.251000  0.824700  0.000200  1
  F  F2896  1  0.749000  0.324700  0.499800  1
  F  F2897  1  0.610100  0.138100  0.384700  1
  F  F2898  1  0.889900  0.861900  0.884700  1
  F  F2899  1  0.389900  0.638100  0.115300  1
  F  F2900  1  0.110100  0.361900  0.615300  1
  F  F2901  1  0.384700  0.610100  0.138100  1
  F  F2902  1  0.884700  0.889900  0.861900  1
  F  F2903  1  0.115300  0.389900  0.638100  1
  F  F2904  1  0.615300  0.110100  0.361900  1
  F  F2905  1  0.138100  0.384700  0.610100  1
  F  F2906  1  0.861900  0.884700  0.889900  1
  F  F2907  1  0.638100  0.115300  0.389900  1
  F  F2908  1  0.361900  0.615300  0.110100  1
  F  F2909  1  0.389900  0.861900  0.615300  1
  F  F2910  1  0.110100  0.138100  0.115300  1
  F  F2911  1  0.610100  0.361900  0.884700  1
  F  F2912  1  0.889900  0.638100  0.384700  1
  F  F2913  1  0.615300  0.389900  0.861900  1
  F  F2914  1  0.115300  0.110100  0.138100  1
  F  F2915  1  0.884700  0.610100  0.361900  1
  F  F2916  1  0.384700  0.889900  0.638100  1
  F  F2917  1  0.861900  0.615300  0.389900  1
  F  F2918  1  0.138100  0.115300  0.110100  1
  F  F2919  1  0.361900  0.884700  0.610100  1
  F  F2920  1  0.638100  0.384700  0.889900  1
  F  F2921  1  0.618200  0.171700  0.322000  1
  F  F2922  1  0.881800  0.828300  0.822000  1
  F  F2923  1  0.381800  0.671700  0.178000  1
  F  F2924  1  0.118200  0.328300  0.678000  1
  F  F2925  1  0.322000  0.618200  0.171700  1
  F  F2926  1  0.822000  0.881800  0.828300  1
  F  F2927  1  0.178000  0.381800  0.671700  1
  F  F2928  1  0.678000  0.118200  0.328300  1
  F  F2929  1  0.171700  0.322000  0.618200  1
  F  F2930  1  0.828300  0.822000  0.881800  1
  F  F2931  1  0.671700  0.178000  0.381800  1
  F  F2932  1  0.328300  0.678000  0.118200  1
  F  F2933  1  0.381800  0.828300  0.678000  1
  F  F2934  1  0.118200  0.171700  0.178000  1
  F  F2935  1  0.618200  0.328300  0.822000  1
  F  F2936  1  0.881800  0.671700  0.322000  1
  F  F2937  1  0.678000  0.381800  0.828300  1
  F  F2938  1  0.178000  0.118200  0.171700  1
  F  F2939  1  0.822000  0.618200  0.328300  1
  F  F2940  1  0.322000  0.881800  0.671700  1
  F  F2941  1  0.828300  0.678000  0.381800  1
  F  F2942  1  0.171700  0.178000  0.118200  1
  F  F2943  1  0.328300  0.822000  0.618200  1
  F  F2944  1  0.671700  0.322000  0.881800  1
  F  F2945  1  0.966500  0.266300  0.325700  1
  F  F2946  1  0.533500  0.733700  0.825700  1
  F  F2947  1  0.033500  0.766300  0.174300  1
  F  F2948  1  0.466500  0.233700  0.674300  1
  F  F2949  1  0.325700  0.966500  0.266300  1
  F  F2950  1  0.825700  0.533500  0.733700  1
  F  F2951  1  0.174300  0.033500  0.766300  1
  F  F2952  1  0.674300  0.466500  0.233700  1
  F  F2953  1  0.266300  0.325700  0.966500  1
  F  F2954  1  0.733700  0.825700  0.533500  1
  F  F2955  1  0.766300  0.174300  0.033500  1
  F  F2956  1  0.233700  0.674300  0.466500  1
  F  F2957  1  0.033500  0.733700  0.674300  1
  F  F2958  1  0.466500  0.266300  0.174300  1
  F  F2959  1  0.966500  0.233700  0.825700  1
  F  F2960  1  0.533500  0.766300  0.325700  1
  F  F2961  1  0.674300  0.033500  0.733700  1
  F  F2962  1  0.174300  0.466500  0.266300  1
  F  F2963  1  0.825700  0.966500  0.233700  1
  F  F2964  1  0.325700  0.533500  0.766300  1
  F  F2965  1  0.733700  0.674300  0.033500  1
  F  F2966  1  0.266300  0.174300  0.466500  1
  F  F2967  1  0.233700  0.825700  0.966500  1
  F  F2968  1  0.766300  0.325700  0.533500  1
  F  F2969  1  0.959700  0.314500  0.275400  1
  F  F2970  1  0.540300  0.685500  0.775400  1
  F  F2971  1  0.040300  0.814500  0.224600  1
  F  F2972  1  0.459700  0.185500  0.724600  1
  F  F2973  1  0.275400  0.959700  0.314500  1
  F  F2974  1  0.775400  0.540300  0.685500  1
  F  F2975  1  0.224600  0.040300  0.814500  1
  F  F2976  1  0.724600  0.459700  0.185500  1
  F  F2977  1  0.314500  0.275400  0.959700  1
  F  F2978  1  0.685500  0.775400  0.540300  1
  F  F2979  1  0.814500  0.224600  0.040300  1
  F  F2980  1  0.185500  0.724600  0.459700  1
  F  F2981  1  0.040300  0.685500  0.724600  1
  F  F2982  1  0.459700  0.314500  0.224600  1
  F  F2983  1  0.959700  0.185500  0.775400  1
  F  F2984  1  0.540300  0.814500  0.275400  1
  F  F2985  1  0.724600  0.040300  0.685500  1
  F  F2986  1  0.224600  0.459700  0.314500  1
  F  F2987  1  0.775400  0.959700  0.185500  1
  F  F2988  1  0.275400  0.540300  0.814500  1
  F  F2989  1  0.685500  0.724600  0.040300  1
  F  F2990  1  0.314500  0.224600  0.459700  1
  F  F2991  1  0.185500  0.775400  0.959700  1
  F  F2992  1  0.814500  0.275400  0.540300  1
  F  F2993  1  0.024300  0.299900  0.252700  1
  F  F2994  1  0.475700  0.700100  0.752700  1
  F  F2995  1  0.975700  0.799900  0.247300  1
  F  F2996  1  0.524300  0.200100  0.747300  1
  F  F2997  1  0.252700  0.024300  0.299900  1
  F  F2998  1  0.752700  0.475700  0.700100  1
  F  F2999  1  0.247300  0.975700  0.799900  1
  F  F3000  1  0.747300  0.524300  0.200100  1
  F  F3001  1  0.299900  0.252700  0.024300  1
  F  F3002  1  0.700100  0.752700  0.475700  1
  F  F3003  1  0.799900  0.247300  0.975700  1
  F  F3004  1  0.200100  0.747300  0.524300  1
  F  F3005  1  0.975700  0.700100  0.747300  1
  F  F3006  1  0.524300  0.299900  0.247300  1
  F  F3007  1  0.024300  0.200100  0.752700  1
  F  F3008  1  0.475700  0.799900  0.252700  1
  F  F3009  1  0.747300  0.975700  0.700100  1
  F  F3010  1  0.247300  0.524300  0.299900  1
  F  F3011  1  0.752700  0.024300  0.200100  1
  F  F3012  1  0.252700  0.475700  0.799900  1
  F  F3013  1  0.700100  0.747300  0.975700  1
  F  F3014  1  0.299900  0.247300  0.524300  1
  F  F3015  1  0.200100  0.752700  0.024300  1
  F  F3016  1  0.799900  0.252700  0.475700  1
  F  F3017  1  0.031100  0.251700  0.303000  1
  F  F3018  1  0.468900  0.748300  0.803000  1
  F  F3019  1  0.968900  0.751700  0.197000  1
  F  F3020  1  0.531100  0.248300  0.697000  1
  F  F3021  1  0.303000  0.031100  0.251700  1
  F  F3022  1  0.803000  0.468900  0.748300  1
  F  F3023  1  0.197000  0.968900  0.751700  1
  F  F3024  1  0.697000  0.531100  0.248300  1
  F  F3025  1  0.251700  0.303000  0.031100  1
  F  F3026  1  0.748300  0.803000  0.468900  1
  F  F3027  1  0.751700  0.197000  0.968900  1
  F  F3028  1  0.248300  0.697000  0.531100  1
  F  F3029  1  0.968900  0.748300  0.697000  1
  F  F3030  1  0.531100  0.251700  0.197000  1
  F  F3031  1  0.031100  0.248300  0.803000  1
  F  F3032  1  0.468900  0.751700  0.303000  1
  F  F3033  1  0.697000  0.968900  0.748300  1
  F  F3034  1  0.197000  0.531100  0.251700  1
  F  F3035  1  0.803000  0.031100  0.248300  1
  F  F3036  1  0.303000  0.468900  0.751700  1
  F  F3037  1  0.748300  0.697000  0.968900  1
  F  F3038  1  0.251700  0.197000  0.531100  1
  F  F3039  1  0.248300  0.803000  0.031100  1
  F  F3040  1  0.751700  0.303000  0.468900  1
  F  F3041  1  0.614500  0.173000  0.379500  1.0
  F  F3042  1  0.885500  0.827000  0.879500  1.0
  F  F3043  1  0.385500  0.673000  0.120500  1.0
  F  F3044  1  0.114500  0.327000  0.620500  1.0
  F  F3045  1  0.379500  0.614500  0.173000  1.0
  F  F3046  1  0.879500  0.885500  0.827000  1.0
  F  F3047  1  0.120500  0.385500  0.673000  1.0
  F  F3048  1  0.620500  0.114500  0.327000  1.0
  F  F3049  1  0.173000  0.379500  0.614500  1.0
  F  F3050  1  0.827000  0.879500  0.885500  1.0
  F  F3051  1  0.673000  0.120500  0.385500  1.0
  F  F3052  1  0.327000  0.620500  0.114500  1.0
  F  F3053  1  0.385500  0.827000  0.620500  1.0
  F  F3054  1  0.114500  0.173000  0.120500  1.0
  F  F3055  1  0.614500  0.327000  0.879500  1.0
  F  F3056  1  0.885500  0.673000  0.379500  1.0
  F  F3057  1  0.620500  0.385500  0.827000  1.0
  F  F3058  1  0.120500  0.114500  0.173000  1.0
  F  F3059  1  0.879500  0.614500  0.327000  1.0
  F  F3060  1  0.379500  0.885500  0.673000  1.0
  F  F3061  1  0.827000  0.620500  0.385500  1.0
  F  F3062  1  0.173000  0.120500  0.114500  1.0
  F  F3063  1  0.327000  0.879500  0.614500  1.0
  F  F3064  1  0.673000  0.379500  0.885500  1.0
  F  F3065  1  0.646500  0.178500  0.315600  1.0
  F  F3066  1  0.853500  0.821500  0.815600  1.0
  F  F3067  1  0.353500  0.678500  0.184400  1.0
  F  F3068  1  0.146500  0.321500  0.684400  1.0
  F  F3069  1  0.315600  0.646500  0.178500  1.0
  F  F3070  1  0.815600  0.853500  0.821500  1.0
  F  F3071  1  0.184400  0.353500  0.678500  1.0
  F  F3072  1  0.684400  0.146500  0.321500  1.0
  F  F3073  1  0.178500  0.315600  0.646500  1.0
  F  F3074  1  0.821500  0.815600  0.853500  1.0
  F  F3075  1  0.678500  0.184400  0.353500  1.0
  F  F3076  1  0.321500  0.684400  0.146500  1.0
  F  F3077  1  0.353500  0.821500  0.684400  1.0
  F  F3078  1  0.146500  0.178500  0.184400  1.0
  F  F3079  1  0.646500  0.321500  0.815600  1.0
  F  F3080  1  0.853500  0.678500  0.315600  1.0
  F  F3081  1  0.684400  0.353500  0.821500  1.0
  F  F3082  1  0.184400  0.146500  0.178500  1.0
  F  F3083  1  0.815600  0.646500  0.321500  1.0
  F  F3084  1  0.315600  0.853500  0.678500  1.0
  F  F3085  1  0.821500  0.684400  0.353500  1.0
  F  F3086  1  0.178500  0.184400  0.146500  1.0
  F  F3087  1  0.321500  0.815600  0.646500  1.0
  F  F3088  1  0.678500  0.315600  0.853500  1.0
