
#######################################################################
#
#                 Cambridge Crystallographic Data Centre
#                                CCDC 
#
#######################################################################
#
# If this CIF has been generated from an entry in the Cambridge 
# Structural Database, then it will include bibliographic, chemical, 
# crystal, experimental, refinement or atomic coordinate data resulting 
# from the CCDC's data processing and validation procedures.
#
#######################################################################

data_FOPGAT
_chemical_formula_moiety         
'C168 H132 Cd4 N36 8+,8(B1 F4 1-),5(C1 H4 O1),3(H2 O1)'
_chemical_name_systematic        
"hexakis(\m~2~-2,2'-(2,3-naphthalenediylbis(methylene-1H-pyrazole-1,3-diyl))dipyridine)-tetra-cadmium(ii) tetrafluoroborate clathrate heptakis(tetrafluoroborate) methanol solvate trihydrate"
_symmetry_cell_setting           monoclinic
_symmetry_space_group_name_H-M   'P 21/c'
_symmetry_Int_Tables_number      14
_space_group_name_Hall           '-P 2ybc'
loop_
_symmetry_equiv_pos_site_id
_symmetry_equiv_pos_as_xyz
1 x,y,z
2 -x,1/2+y,1/2-z
3 -x,-y,-z
4 x,1/2-y,1/2+z
_cell_length_a                   22.0402(7)
_cell_length_b                   19.5943(6)
_cell_length_c                   43.0372(13)
_cell_angle_alpha                90
_cell_angle_beta                 92.863(2)
_cell_angle_gamma                90
_cell_volume                     18562.9
_exptl_crystal_colour            colorless
_exptl_crystal_description       plate
_cell_formula_units_Z            4
_chemical_properties_physical    air-sensitive
loop_
_atom_site_label
_atom_site_type_symbol
_atom_site_fract_x
_atom_site_fract_y
_atom_site_fract_z
Cd1 Cd 0.65222(3) 0.56716(4) 0.288653(19)
Cd2 Cd 1.05584(3) 0.65881(4) 0.386150(17)
Cd3 Cd 0.68561(4) 0.77733(4) 0.47829(2)
Cd4 Cd 0.81944(3) 0.98839(4) 0.302583(18)
N1 N 0.6360(4) 0.6006(5) 0.2375(2)
C1 C 0.6849(5) 0.6191(5) 0.2215(3)
C2 C 0.6792(6) 0.6385(6) 0.1905(3)
H1 H 0.7140 0.6499 0.1795
C3 C 0.6217(7) 0.6409(7) 0.1761(3)
H2 H 0.6165 0.6531 0.1547
C4 C 0.5716(6) 0.6253(7) 0.1932(4)
H3 H 0.5317 0.6287 0.1839
C5 C 0.5806(6) 0.6046(6) 0.2240(3)
H4 H 0.5465 0.5931 0.2356
N2 N 0.8078(4) 0.6058(4) 0.2772(2)
N3 N 0.7479(4) 0.6032(4) 0.2689(2)
C6 C 0.7444(5) 0.6169(5) 0.2386(2)
C7 C 0.8011(5) 0.6314(6) 0.2282(3)
H5 H 0.8105 0.6440 0.2077
C8 C 0.8414(5) 0.6240(5) 0.2532(3)
H6 H 0.8842 0.6304 0.2536
C9 C 0.8302(5) 0.5932(6) 0.3095(2)
H7 H 0.7953 0.5929 0.3231
H8 H 0.8573 0.6312 0.3163
N4 N 1.0903(4) 0.6150(5) 0.4340(2)
C10 C 1.0563(6) 0.5703(6) 0.4479(3)
C11 C 1.0743(6) 0.5410(8) 0.4760(3)
H9 H 1.0482 0.5102 0.4859
C12 C 1.1298(7) 0.5564(9) 0.4894(3)
H10 H 1.1438 0.5351 0.5082
C13 C 1.1652(6) 0.6033(8) 0.4752(3)
H11 H 1.2033 0.6166 0.4845
C14 C 1.1453(5) 0.6301(7) 0.4480(3)
H12 H 1.1709 0.6613 0.4379
N5 N 0.9264(4) 0.5566(4) 0.3968(2)
N6 N 0.9802(4) 0.5848(4) 0.4056(2)
C15 C 0.9968(5) 0.5534(5) 0.4323(2)
C16 C 0.9541(6) 0.5053(6) 0.4400(3)
H13 H 0.9553 0.4765 0.4578
C17 C 0.9108(5) 0.5077(6) 0.4171(3)
H14 H 0.8754 0.4800 0.4154
C18 C 0.8959(5) 0.5739(6) 0.3668(2)
H15 H 0.9150 0.6155 0.3586
H16 H 0.8529 0.5848 0.3702
C19 C 0.8617(5) 0.4754(5) 0.2925(2)
H17 H 0.8385 0.4810 0.2735
C20 C 0.8639(4) 0.5277(5) 0.3135(3)
C21 C 0.8981(5) 0.5179(6) 0.3425(2)
C22 C 0.9296(5) 0.4586(5) 0.3482(3)
H18 H 0.9529 0.4536 0.3672
C23 C 0.9282(5) 0.4043(5) 0.3264(2)
C24 C 0.8929(4) 0.4128(5) 0.2981(3)
C25 C 0.9580(5) 0.3419(6) 0.3322(3)
H19 H 0.9824 0.3363 0.3509
C26 C 0.9525(6) 0.2891(6) 0.3115(3)
H20 H 0.9725 0.2469 0.3158
C27 C 0.9169(6) 0.2980(6) 0.2836(3)
H21 H 0.9132 0.2613 0.2693
C28 C 0.8882(4) 0.3568(6) 0.2769(3)
H22 H 0.8646 0.3613 0.2579
N7 N 0.6783(4) 0.4532(5) 0.2761(2)
C29 C 0.7099(5) 0.4186(5) 0.2988(2)
C30 C 0.7343(6) 0.3549(6) 0.2929(3)
H23 H 0.7583 0.3317 0.3086
C31 C 0.7232(7) 0.3257(6) 0.2641(3)
H24 H 0.7384 0.2815 0.2598
C32 C 0.6901(7) 0.3609(7) 0.2417(3)
H25 H 0.6831 0.3422 0.2214
C33 C 0.6673(6) 0.4234(6) 0.2489(3)
H26 H 0.6423 0.4465 0.2336
N8 N 0.7099(4) 0.5314(4) 0.3634(2)
N9 N 0.6977(4) 0.5169(4) 0.3329(2)
C34 C 0.7180(5) 0.4520(5) 0.3288(3)
C35 C 0.7420(5) 0.4261(6) 0.3573(3)
H27 H 0.7588 0.3822 0.3612
C36 C 0.7358(5) 0.4781(6) 0.3782(3)
H28 H 0.7478 0.4765 0.3997
C37 C 0.6903(5) 0.5957(5) 0.3759(3)
H29 H 0.6902 0.6303 0.3591
H30 H 0.7207 0.6104 0.3923
N10 N 0.6341(5) 0.8783(6) 0.4871(2)
C38 C 0.6020(6) 0.9057(6) 0.4630(3)
C39 C 0.5753(6) 0.9713(7) 0.4641(4)
H31 H 0.5526 0.9903 0.4468
C40 C 0.5850(8) 1.0075(8) 0.4934(5)
H32 H 0.5689 1.0521 0.4956
C41 C 0.6172(9) 0.9778(11) 0.5178(4)
H33 H 0.6230 1.0010 0.5371
C42 C 0.6412(7) 0.9127(7) 0.5138(3)
H34 H 0.6635 0.8920 0.5308
N11 N 0.6128(4) 0.7859(4) 0.4027(2)
N12 N 0.6304(4) 0.8111(5) 0.4313(2)
C43 C 0.5955(5) 0.8676(6) 0.4339(3)
C44 C 0.5581(6) 0.8759(6) 0.4080(3)
H35 H 0.5296 0.9117 0.4042
C45 C 0.5694(6) 0.8234(6) 0.3888(3)
H36 H 0.5499 0.8150 0.3690
C46 C 0.6384(5) 0.7221(5) 0.3918(3)
H37 H 0.6795 0.7167 0.4018
H38 H 0.6432 0.7262 0.3691
C47 C 0.5971(5) 0.5365(5) 0.3942(3)
H39 H 0.6138 0.4941 0.3881
C48 C 0.6294(5) 0.5954(5) 0.3893(2)
C49 C 0.6036(5) 0.6589(6) 0.3974(2)
C50 C 0.5480(5) 0.6613(6) 0.4108(2)
H40 H 0.5320 0.7040 0.4169
C51 C 0.5141(5) 0.6003(6) 0.4155(2)
C52 C 0.5403(4) 0.5366(5) 0.4080(3)
C53 C 0.4569(5) 0.6006(7) 0.4284(3)
H41 H 0.4395 0.6429 0.4341
C54 C 0.4255(5) 0.5410(7) 0.4331(3)
H42 H 0.3868 0.5422 0.4418
C55 C 0.4512(6) 0.4779(7) 0.4246(3)
H43 H 0.4293 0.4367 0.4271
C56 C 0.5062(5) 0.4767(6) 0.4133(3)
H44 H 0.5234 0.4337 0.4085
N13 N 0.5587(4) 0.5451(4) 0.3074(2)
C57 C 0.5254(4) 0.5978(6) 0.3181(3)
C58 C 0.4744(5) 0.5881(6) 0.3351(3)
H45 H 0.4525 0.6259 0.3426
C59 C 0.4560(6) 0.5216(6) 0.3409(3)
H46 H 0.4213 0.5136 0.3526
C60 C 0.4878(5) 0.4680(7) 0.3298(3)
H47 H 0.4753 0.4224 0.3332
C61 C 0.5391(6) 0.4820(6) 0.3132(3)
H48 H 0.5615 0.4446 0.3057
N14 N 0.6080(4) 0.6728(4) 0.3043(2)
N15 N 0.6149(4) 0.7411(4) 0.2995(2)
C62 C 0.5644(6) 0.7745(6) 0.3051(3)
H49 H 0.5592 0.8226 0.3041
C63 C 0.5218(5) 0.7289(6) 0.3126(3)
H50 H 0.4809 0.7378 0.3171
C64 C 0.5505(4) 0.6668(5) 0.3121(3)
C65 C 0.6737(4) 0.7684(6) 0.2911(3)
H51 H 0.7055 0.7346 0.2973
H52 H 0.6821 0.8102 0.3035
N16 N 0.9178(4) 1.0178(4) 0.2892(2)
C66 C 0.9515(4) 0.9695(5) 0.2753(2)
C67 C 1.0121(5) 0.9773(6) 0.2713(2)
H53 H 1.0343 0.9436 0.2608
C68 C 1.0406(5) 1.0358(6) 0.2830(3)
H54 H 1.0830 1.0418 0.2812
C69 C 1.0070(5) 1.0854(6) 0.2974(3)
H55 H 1.0255 1.1260 0.3054
C70 C 0.9464(6) 1.0735(6) 0.2995(3)
H56 H 0.9229 1.1077 0.3089
N17 N 0.8472(4) 0.8334(4) 0.26458(19)
N18 N 0.8656(4) 0.8933(4) 0.27846(19)
C71 C 0.9184(4) 0.9061(5) 0.2662(2)
C72 C 0.9346(4) 0.8559(5) 0.2454(2)
H57 H 0.9704 0.8534 0.2340
C73 C 0.8871(4) 0.8107(5) 0.2449(2)
H58 H 0.8833 0.7703 0.2328
C74 C 0.7886(5) 0.8022(5) 0.2733(2)
H59 H 0.7961 0.7540 0.2792
H60 H 0.7744 0.8262 0.2918
C75 C 0.6321(5) 0.7868(6) 0.2362(3)
H61 H 0.5926 0.7761 0.2426
C76 C 0.6796(5) 0.7853(5) 0.2576(3)
C77 C 0.7393(4) 0.8044(5) 0.2482(2)
C78 C 0.7479(4) 0.8227(6) 0.2183(2)
H62 H 0.7873 0.8362 0.2127
C79 C 0.6995(5) 0.8223(6) 0.1951(3)
C80 C 0.6398(5) 0.8040(6) 0.2046(3)
C81 C 0.7078(6) 0.8407(7) 0.1642(3)
H63 H 0.7470 0.8531 0.1579
C82 C 0.6598(6) 0.8407(8) 0.1433(3)
H64 H 0.6661 0.8534 0.1224
C83 C 0.6008(6) 0.8224(8) 0.1515(3)
H65 H 0.5679 0.8223 0.1364
C84 C 0.5920(5) 0.8049(6) 0.1818(3)
H66 H 0.5523 0.7930 0.1876
N19 N 1.1322(4) 0.7361(4) 0.37960(19)
C85 C 1.1285(5) 0.7971(5) 0.3946(2)
C86 C 1.1744(5) 0.8459(6) 0.3932(3)
H67 H 1.1719 0.8884 0.4037
C87 C 1.2236(5) 0.8302(7) 0.3760(3)
H68 H 1.2559 0.8621 0.3753
C88 C 1.2275(5) 0.7693(7) 0.3599(3)
H69 H 1.2609 0.7594 0.3475
C89 C 1.1808(5) 0.7244(7) 0.3628(3)
H70 H 1.1828 0.6820 0.3522
N20 N 0.9863(4) 0.7856(4) 0.42910(19)
N21 N 1.0282(4) 0.7618(4) 0.41000(18)
C90 C 1.0743(5) 0.8079(5) 0.4116(2)
C91 C 1.0597(5) 0.8604(5) 0.4322(3)
H71 H 1.0837 0.8992 0.4377
C92 C 1.0048(5) 0.8446(5) 0.4424(3)
H72 H 0.9828 0.8707 0.4567
C93 C 0.9294(5) 0.7481(6) 0.4329(2)
H73 H 0.9245 0.7130 0.4164
H74 H 0.8947 0.7801 0.4305
N22 N 0.6133(4) 0.6978(5) 0.4910(2)
C94 C 0.6233(5) 0.6335(6) 0.4835(3)
C95 C 0.5819(5) 0.5815(6) 0.4897(3)
H75 H 0.5907 0.5352 0.4851
C96 C 0.5275(5) 0.5998(6) 0.5028(3)
H76 H 0.4978 0.5660 0.5064
C97 C 0.5172(6) 0.6655(7) 0.5102(3)
H77 H 0.4810 0.6783 0.5198
C98 C 0.5614(7) 0.7150(7) 0.5035(3)
H78 H 0.5539 0.7616 0.5081
N23 N 0.7698(4) 0.6372(4) 0.4541(2)
N24 N 0.7196(4) 0.6675(4) 0.4638(2)
C99 C 0.6819(5) 0.6166(5) 0.4702(2)
C100 C 0.7074(5) 0.5554(6) 0.4647(2)
H79 H 0.6897 0.5118 0.4674
C101 C 0.7640(5) 0.5689(6) 0.4543(3)
H80 H 0.7934 0.5365 0.4485
C102 C 0.8233(4) 0.6773(6) 0.4462(2)
H81 H 0.8101 0.7246 0.4414
H82 H 0.8398 0.6580 0.4272
C103 C 0.9751(5) 0.7148(6) 0.4863(2)
H83 H 1.0120 0.7362 0.4813
C104 C 0.9283(5) 0.7135(5) 0.4648(2)
C105 C 0.8738(4) 0.6796(5) 0.4716(2)
C106 C 0.8684(5) 0.6476(6) 0.5002(3)
H84 H 0.8327 0.6228 0.5044
C107 C 0.9167(5) 0.6523(6) 0.5232(3)
C108 C 0.9706(5) 0.6853(6) 0.5161(3)
C109 C 0.9114(6) 0.6250(7) 0.5536(3)
H85 H 0.8758 0.6010 0.5587
C110 C 0.9579(6) 0.6336(7) 0.5752(3)
H86 H 0.9530 0.6182 0.5959
C111 C 1.0114(6) 0.6635(8) 0.5683(3)
H87 H 1.0431 0.6671 0.5840
C112 C 1.0203(6) 0.6887(7) 0.5389(3)
H88 H 1.0582 0.7077 0.5339
N25 N 1.0911(4) 0.5624(4) 0.35962(19)
C113 C 1.0688(5) 0.5551(5) 0.3304(2)
C114 C 1.0730(5) 0.4949(5) 0.3146(3)
H89 H 1.0556 0.4905 0.2940
C115 C 1.1041(6) 0.4389(6) 0.3294(3)
H90 H 1.1080 0.3963 0.3191
C116 C 1.1281(5) 0.4487(5) 0.3589(3)
H91 H 1.1499 0.4131 0.3694
C117 C 1.1204(5) 0.5098(5) 0.3730(2)
H92 H 1.1369 0.5153 0.3936
N26 N 0.9954(4) 0.7132(4) 0.31389(19)
N27 N 1.0186(4) 0.6657(4) 0.33369(18)
C118 C 1.0377(5) 0.6142(5) 0.3154(2)
C119 C 1.0261(5) 0.6303(5) 0.2847(2)
H93 H 1.0350 0.6032 0.2672
C120 C 0.9994(5) 0.6919(5) 0.2842(2)
H94 H 0.9857 0.7162 0.2661
C121 C 0.9697(4) 0.7752(5) 0.3257(3)
H95 H 0.9525 0.7651 0.3460
H96 H 0.9359 0.7899 0.3113
N28 N 0.7930(4) 1.0878(4) 0.3271(2)
C122 C 0.8121(4) 1.0946(5) 0.3578(2)
C123 C 0.7930(5) 1.1496(6) 0.3752(3)
H97 H 0.8076 1.1557 0.3962
C124 C 0.7508(6) 1.1969(6) 0.3609(3)
H98 H 0.7358 1.2343 0.3723
C125 C 0.7331(5) 1.1871(5) 0.3313(3)
H99 H 0.7045 1.2174 0.3216
C126 C 0.7558(5) 1.1331(6) 0.3144(3)
H100 H 0.7440 1.1291 0.2929
N29 N 0.9063(4) 0.9516(4) 0.3713(2)
N30 N 0.8661(4) 0.9873(4) 0.3538(2)
C127 C 0.8542(5) 1.0432(5) 0.3709(2)
C128 C 0.8879(5) 1.0428(6) 0.3990(3)
H101 H 0.8882 1.0761 0.4151
C129 C 0.9197(5) 0.9853(6) 0.3982(3)
H102 H 0.9478 0.9700 0.4143
C130 C 0.9312(5) 0.8885(5) 0.3605(2)
H103 H 0.9029 0.8697 0.3441
H104 H 0.9329 0.8556 0.3780
C131 C 1.0695(5) 0.8338(5) 0.3181(2)
H105 H 1.0820 0.7954 0.3066
C132 C 1.0135(5) 0.8331(5) 0.3300(2)
C133 C 0.9943(5) 0.8925(5) 0.3475(2)
C134 C 1.0324(5) 0.9451(5) 0.3528(3)
H106 H 1.0196 0.9823 0.3650
C135 C 1.0914(5) 0.9471(5) 0.3406(2)
C136 C 1.1104(5) 0.8904(5) 0.3223(2)
C137 C 1.1312(6) 1.0018(6) 0.3462(3)
H107 H 1.1199 1.0386 0.3590
C138 C 1.1864(5) 1.0021(6) 0.3331(3)
H108 H 1.2131 1.0395 0.3371
C139 C 1.2046(6) 0.9489(6) 0.3142(3)
H109 H 1.2424 0.9512 0.3046
C140 C 1.1671(5) 0.8930(6) 0.3095(3)
H110 H 1.1803 0.8558 0.2973
N31 N 0.7421(5) 0.7698(5) 0.5256(2)
C141 C 0.7971(6) 0.8015(6) 0.5271(3)
C142 C 0.8363(7) 0.7958(7) 0.5533(3)
H111 H 0.8734 0.8205 0.5546
C143 C 0.8210(8) 0.7548(9) 0.5770(3)
H112 H 0.8478 0.7495 0.5948
C144 C 0.7655(9) 0.7205(9) 0.5751(4)
H113 H 0.7538 0.6918 0.5916
C145 C 0.7277(8) 0.7290(9) 0.5488(3)
H114 H 0.6903 0.7049 0.5473
N32 N 0.8013(4) 0.8862(4) 0.4546(2)
N33 N 0.7751(4) 0.8419(5) 0.4744(2)
C146 C 0.8122(5) 0.8426(6) 0.5002(3)
C147 C 0.8590(6) 0.8894(6) 0.4968(3)
H115 H 0.8902 0.9014 0.5119
C148 C 0.8509(6) 0.9137(6) 0.4682(3)
H116 H 0.8766 0.9459 0.4588
C149 C 0.7735(5) 0.8985(5) 0.4245(3)
H117 H 0.7468 0.8593 0.4189
H118 H 0.8058 0.8999 0.4093
N34 N 0.7622(4) 0.9940(4) 0.2566(2)
C150 C 0.7019(5) 0.9800(5) 0.2575(2)
C151 C 0.6647(6) 0.9796(7) 0.2308(3)
H119 H 0.6225 0.9709 0.2318
C152 C 0.6896(5) 0.9919(7) 0.2023(3)
H120 H 0.6646 0.9916 0.1837
C153 C 0.7517(6) 1.0047(6) 0.2013(3)
H121 H 0.7703 1.0126 0.1821
C154 C 0.7846(5) 1.0054(6) 0.2291(3)
H122 H 0.8268 1.0149 0.2286
N35 N 0.6842(4) 0.9406(5) 0.3365(2)
N36 N 0.7176(4) 0.9517(4) 0.31220(19)
C155 C 0.6790(4) 0.9649(5) 0.2883(3)
C156 C 0.6194(6) 0.9587(6) 0.2971(3)
H123 H 0.5835 0.9633 0.2841
C157 C 0.6233(5) 0.9446(6) 0.3280(3)
H124 H 0.5904 0.9387 0.3412
C158 C 0.7108(6) 0.9226(6) 0.3668(2)
H125 H 0.7541 0.9115 0.3646
H126 H 0.6905 0.8809 0.3741
C159 C 0.7330(5) 1.0092(5) 0.4447(3)
H127 H 0.7536 1.0001 0.4642
C160 C 0.7364(5) 0.9633(5) 0.4210(3)
C161 C 0.7064(5) 0.9776(5) 0.3915(3)
C162 C 0.6753(5) 1.0358(6) 0.3872(3)
H128 H 0.6567 1.0451 0.3673
C163 C 0.6692(6) 1.0841(6) 0.4114(3)
C164 C 0.6990(5) 1.0705(6) 0.4406(3)
C165 C 0.6355(6) 1.1458(6) 0.4070(4)
H129 H 0.6151 1.1556 0.3876
C166 C 0.6332(8) 1.1900(7) 0.4309(4)
H130 H 0.6114 1.2314 0.4278
C167 C 0.6615(7) 1.1773(7) 0.4602(4)
H131 H 0.6579 1.2093 0.4766
C168 C 0.6934(8) 1.1204(6) 0.4650(4)
H132 H 0.7129 1.1124 0.4849
B1 B 0.1961(7) 0.2475(7) 0.6390(4)
F1 F 0.2220(3) 0.2372(3) 0.61085(16)
F2 F 0.2327(3) 0.2908(3) 0.65762(16)
F3 F 0.1384(3) 0.2746(3) 0.63440(16)
F4 F 0.1915(3) 0.1843(3) 0.65426(16)
B2 B 0.1206(2) 0.2761(3) 0.83703(16)
F5 F 0.0953(3) 0.2897(3) 0.80742(17)
F6 F 0.0742(4) 0.2704(7) 0.85764(17)
F7 F 0.1596(5) 0.3290(5) 0.8461(2)
F8 F 0.1528(6) 0.2150(5) 0.8362(2)
B3 B 0.1939(9) 0.6506(10) 0.5692(5)
F9 F 0.2064(4) 0.5853(4) 0.5577(2)
F10 F 0.1562(4) 0.6417(4) 0.5939(2)
F11 F 0.2478(4) 0.6784(4) 0.5811(2)
F12 F 0.1683(4) 0.6900(4) 0.5461(2)
B4 B 0.2642(3) 0.4567(4) 0.44030(13)
F13 F 0.2778(4) 0.5250(5) 0.44590(19)
F14 F 0.3123(5) 0.4228(5) 0.4274(5)
F15 F 0.2139(7) 0.4496(5) 0.4197(4)
F16 F 0.2513(10) 0.4227(5) 0.4675(2)
B5 B 0.1812(8) 0.6728(8) 0.2718(4)
F17 F 0.2433(3) 0.6698(4) 0.26499(17)
F18 F 0.1726(3) 0.6380(4) 0.29921(16)
F19 F 0.1484(3) 0.6423(4) 0.24694(17)
F20 F 0.1650(3) 0.7400(4) 0.27450(17)
B6 B 0.4209(11) 0.7900(12) 0.1568(5)
F21 F 0.4418(5) 0.7232(5) 0.1594(2)
F22 F 0.4527(5) 0.8228(5) 0.1343(2)
F23 F 0.3596(5) 0.7918(5) 0.1482(2)
F24 F 0.4314(5) 0.8210(5) 0.1853(2)
O1 O 0.6063(8) 0.1467(10) 0.5415(4)
C169 C 0.5562(11) 0.1863(14) 0.5292(7)
H133 H 0.5319 0.2020 0.5462
H134 H 0.5309 0.1581 0.5149
H135 H 0.5715 0.2258 0.5180
O2 O 0.4758(7) 0.0529(9) 0.4140(3)
C170 C 0.4931(10) 0.0596(12) 0.3825(4)
H136 H 0.4790 0.1036 0.3742
H137 H 0.4746 0.0226 0.3700
H138 H 0.5374 0.0570 0.3819
O3 O 0.0679(8) 0.0488(9) 0.4318(4)
C171 C 0.0509(16) 0.1015(14) 0.4101(7)
H139 H 0.0369 0.1415 0.4214
H140 H 0.0181 0.0851 0.3958
H141 H 0.0861 0.1141 0.3983
O4 O 0.3881(4) 0.5826(4) 0.52773(19)
C172 C 0.3472(5) 0.6234(6) 0.5087(3)
H142 H 0.3468 0.6700 0.5169
H143 H 0.3062 0.6040 0.5089
H144 H 0.3606 0.6240 0.4873
O5 O 0.2961(10) 0.5833(9) 0.3749(5)
C173 C 0.3085(11) 0.5126(9) 0.3698(6)
H145 H 0.3517 0.5065 0.3664
H146 H 0.2843 0.4965 0.3516
H147 H 0.2978 0.4862 0.3881
O6 O 0.3002(11) 0.7665(11) 0.4601(5)
C174 C 0.2994(15) 0.7142(14) 0.4370(7)
H148 H 0.3258 0.7273 0.4203
H149 H 0.2578 0.7080 0.4283
H150 H 0.3139 0.6713 0.4464
O7 O 0.1810(8) 0.9984(9) 0.4305(4)
C175 C 0.2146(14) 0.9788(17) 0.4583(5)
H151 H 0.2289 1.0198 0.4695
H152 H 0.2496 0.9511 0.4530
H153 H 0.1885 0.9522 0.4715
O8 O 0.3891(12) 0.7175(12) 0.3641(6)
C176 C 0.3990(16) 0.7871(13) 0.3728(8)
H154 H 0.3724 0.7992 0.3895
H155 H 0.3900 0.8166 0.3548
H156 H 0.4415 0.7933 0.3801
O9 O 0.4361(9) 0.6526(11) 0.2586(4)
C177 C 0.4022(11) 0.6468(14) 0.2295(5)
H157 H 0.3617 0.6666 0.2314
H158 H 0.3983 0.5986 0.2238
H159 H 0.4234 0.6713 0.2134
O10 O 0.4464(10) 0.1761(11) 0.4406(5)
O11 O 0.3669(4) 0.6323(5) 0.5865(2)
O12 O 0.3518(7) 0.6796(8) 0.3028(4)
O13 O 0.5269(7) 0.2913(8) 0.2569(4)
F25? F 0.0838(6) 0.3044(9) 0.85899(17)
F26? F 0.1783(5) 0.3051(9) 0.8399(2)
F27? F 0.1246(8) 0.2058(4) 0.8412(2)
F28? F 0.3166(4) 0.4171(5) 0.4405(6)
F29? F 0.2276(10) 0.4303(6) 0.4627(4)
F30? F 0.2338(10) 0.4477(5) 0.4115(3)
O14? O 0.4490(12) 0.2247(14) 0.4168(6)
loop_
_geom_bond_atom_site_label_1
_geom_bond_atom_site_label_2
_geom_bond_site_symmetry_1
_geom_bond_site_symmetry_2
Cd1 N1 1_555 1_555
Cd2 N4 1_555 1_555
Cd3 N10 1_555 1_555
Cd4 N16 1_555 1_555
N1 C1 1_555 1_555
C1 C2 1_555 1_555
C2 H1 1_555 1_555
C3 C2 1_555 1_555
H2 C3 1_555 1_555
C4 C3 1_555 1_555
H3 C4 1_555 1_555
C5 N1 1_555 1_555
H4 C5 1_555 1_555
N2 N3 1_555 1_555
N3 Cd1 1_555 1_555
C6 C1 1_555 1_555
C7 C6 1_555 1_555
H5 C7 1_555 1_555
C8 N2 1_555 1_555
H6 C8 1_555 1_555
C9 N2 1_555 1_555
H7 C9 1_555 1_555
H8 C9 1_555 1_555
N4 C10 1_555 1_555
C10 C11 1_555 1_555
C11 H9 1_555 1_555
C12 C11 1_555 1_555
H10 C12 1_555 1_555
C13 C12 1_555 1_555
H11 C13 1_555 1_555
C14 N4 1_555 1_555
H12 C14 1_555 1_555
N5 N6 1_555 1_555
N6 Cd2 1_555 1_555
C15 C10 1_555 1_555
C16 C15 1_555 1_555
H13 C16 1_555 1_555
C17 N5 1_555 1_555
H14 C17 1_555 1_555
C18 N5 1_555 1_555
H15 C18 1_555 1_555
H16 C18 1_555 1_555
C19 H17 1_555 1_555
C20 C9 1_555 1_555
C21 C18 1_555 1_555
C22 C21 1_555 1_555
H18 C22 1_555 1_555
C23 C22 1_555 1_555
C24 C19 1_555 1_555
C25 C23 1_555 1_555
H19 C25 1_555 1_555
C26 C25 1_555 1_555
H20 C26 1_555 1_555
C27 C26 1_555 1_555
H21 C27 1_555 1_555
C28 C24 1_555 1_555
H22 C28 1_555 1_555
N7 Cd1 1_555 1_555
C29 N7 1_555 1_555
C30 C29 1_555 1_555
H23 C30 1_555 1_555
C31 C30 1_555 1_555
H24 C31 1_555 1_555
C32 C31 1_555 1_555
H25 C32 1_555 1_555
C33 N7 1_555 1_555
H26 C33 1_555 1_555
N8 N9 1_555 1_555
N9 Cd1 1_555 1_555
C34 C29 1_555 1_555
C35 C34 1_555 1_555
H27 C35 1_555 1_555
C36 N8 1_555 1_555
H28 C36 1_555 1_555
C37 N8 1_555 1_555
H29 C37 1_555 1_555
H30 C37 1_555 1_555
N10 C38 1_555 1_555
C38 C39 1_555 1_555
C39 H31 1_555 1_555
C40 C39 1_555 1_555
H32 C40 1_555 1_555
C41 C40 1_555 1_555
H33 C41 1_555 1_555
C42 N10 1_555 1_555
H34 C42 1_555 1_555
N11 N12 1_555 1_555
N12 Cd3 1_555 1_555
C43 C38 1_555 1_555
C44 C43 1_555 1_555
H35 C44 1_555 1_555
C45 N11 1_555 1_555
H36 C45 1_555 1_555
C46 N11 1_555 1_555
H37 C46 1_555 1_555
H38 C46 1_555 1_555
C47 H39 1_555 1_555
C48 C37 1_555 1_555
C49 C46 1_555 1_555
C50 C49 1_555 1_555
H40 C50 1_555 1_555
C51 C50 1_555 1_555
C52 C47 1_555 1_555
C53 C51 1_555 1_555
H41 C53 1_555 1_555
C54 C53 1_555 1_555
H42 C54 1_555 1_555
C55 C54 1_555 1_555
H43 C55 1_555 1_555
C56 C52 1_555 1_555
H44 C56 1_555 1_555
N13 Cd1 1_555 1_555
C57 N13 1_555 1_555
C58 C57 1_555 1_555
H45 C58 1_555 1_555
C59 C58 1_555 1_555
H46 C59 1_555 1_555
C60 C59 1_555 1_555
H47 C60 1_555 1_555
C61 N13 1_555 1_555
H48 C61 1_555 1_555
N14 Cd1 1_555 1_555
N15 N14 1_555 1_555
C62 N15 1_555 1_555
H49 C62 1_555 1_555
C63 C62 1_555 1_555
H50 C63 1_555 1_555
C64 C57 1_555 1_555
C65 N15 1_555 1_555
H51 C65 1_555 1_555
H52 C65 1_555 1_555
N16 C66 1_555 1_555
C66 C67 1_555 1_555
C67 H53 1_555 1_555
C68 C67 1_555 1_555
H54 C68 1_555 1_555
C69 C68 1_555 1_555
H55 C69 1_555 1_555
C70 N16 1_555 1_555
H56 C70 1_555 1_555
N17 N18 1_555 1_555
N18 Cd4 1_555 1_555
C71 C66 1_555 1_555
C72 C71 1_555 1_555
H57 C72 1_555 1_555
C73 N17 1_555 1_555
H58 C73 1_555 1_555
C74 N17 1_555 1_555
H59 C74 1_555 1_555
H60 C74 1_555 1_555
C75 H61 1_555 1_555
C76 C65 1_555 1_555
C77 C74 1_555 1_555
C78 C77 1_555 1_555
H62 C78 1_555 1_555
C79 C78 1_555 1_555
C80 C75 1_555 1_555
C81 C79 1_555 1_555
H63 C81 1_555 1_555
C82 C81 1_555 1_555
H64 C82 1_555 1_555
C83 C82 1_555 1_555
H65 C83 1_555 1_555
C84 C80 1_555 1_555
H66 C84 1_555 1_555
N19 Cd2 1_555 1_555
C85 N19 1_555 1_555
C86 C85 1_555 1_555
H67 C86 1_555 1_555
C87 C86 1_555 1_555
H68 C87 1_555 1_555
C88 C87 1_555 1_555
H69 C88 1_555 1_555
C89 N19 1_555 1_555
H70 C89 1_555 1_555
N20 N21 1_555 1_555
N21 Cd2 1_555 1_555
C90 C85 1_555 1_555
C91 C90 1_555 1_555
H71 C91 1_555 1_555
C92 N20 1_555 1_555
H72 C92 1_555 1_555
C93 N20 1_555 1_555
H73 C93 1_555 1_555
H74 C93 1_555 1_555
N22 Cd3 1_555 1_555
C94 N22 1_555 1_555
C95 C94 1_555 1_555
H75 C95 1_555 1_555
C96 C95 1_555 1_555
H76 C96 1_555 1_555
C97 C96 1_555 1_555
H77 C97 1_555 1_555
C98 N22 1_555 1_555
H78 C98 1_555 1_555
N23 N24 1_555 1_555
N24 Cd3 1_555 1_555
C99 C94 1_555 1_555
C100 C99 1_555 1_555
H79 C100 1_555 1_555
C101 N23 1_555 1_555
H80 C101 1_555 1_555
C102 N23 1_555 1_555
H81 C102 1_555 1_555
H82 C102 1_555 1_555
C103 H83 1_555 1_555
C104 C93 1_555 1_555
C105 C102 1_555 1_555
C106 C105 1_555 1_555
H84 C106 1_555 1_555
C107 C106 1_555 1_555
C108 C103 1_555 1_555
C109 C107 1_555 1_555
H85 C109 1_555 1_555
C110 C109 1_555 1_555
H86 C110 1_555 1_555
C111 C110 1_555 1_555
H87 C111 1_555 1_555
C112 C108 1_555 1_555
H88 C112 1_555 1_555
N25 Cd2 1_555 1_555
C113 N25 1_555 1_555
C114 C113 1_555 1_555
H89 C114 1_555 1_555
C115 C114 1_555 1_555
H90 C115 1_555 1_555
C116 C115 1_555 1_555
H91 C116 1_555 1_555
C117 N25 1_555 1_555
H92 C117 1_555 1_555
N26 N27 1_555 1_555
N27 Cd2 1_555 1_555
C118 C113 1_555 1_555
C119 C118 1_555 1_555
H93 C119 1_555 1_555
C120 N26 1_555 1_555
H94 C120 1_555 1_555
C121 N26 1_555 1_555
H95 C121 1_555 1_555
H96 C121 1_555 1_555
N28 Cd4 1_555 1_555
C122 N28 1_555 1_555
C123 C122 1_555 1_555
H97 C123 1_555 1_555
C124 C123 1_555 1_555
H98 C124 1_555 1_555
C125 C124 1_555 1_555
H99 C125 1_555 1_555
C126 N28 1_555 1_555
H100 C126 1_555 1_555
N29 N30 1_555 1_555
N30 Cd4 1_555 1_555
C127 C122 1_555 1_555
C128 C127 1_555 1_555
H101 C128 1_555 1_555
C129 N29 1_555 1_555
H102 C129 1_555 1_555
C130 N29 1_555 1_555
H103 C130 1_555 1_555
H104 C130 1_555 1_555
C131 H105 1_555 1_555
C132 C121 1_555 1_555
C133 C130 1_555 1_555
C134 C133 1_555 1_555
H106 C134 1_555 1_555
C135 C134 1_555 1_555
C136 C131 1_555 1_555
C137 C135 1_555 1_555
H107 C137 1_555 1_555
C138 C137 1_555 1_555
H108 C138 1_555 1_555
C139 C138 1_555 1_555
H109 C139 1_555 1_555
C140 C136 1_555 1_555
H110 C140 1_555 1_555
N31 Cd3 1_555 1_555
C141 N31 1_555 1_555
C142 C141 1_555 1_555
H111 C142 1_555 1_555
C143 C142 1_555 1_555
H112 C143 1_555 1_555
C144 C143 1_555 1_555
H113 C144 1_555 1_555
C145 N31 1_555 1_555
H114 C145 1_555 1_555
N32 N33 1_555 1_555
N33 Cd3 1_555 1_555
C146 C141 1_555 1_555
C147 C146 1_555 1_555
H115 C147 1_555 1_555
C148 N32 1_555 1_555
H116 C148 1_555 1_555
C149 N32 1_555 1_555
H117 C149 1_555 1_555
H118 C149 1_555 1_555
N34 Cd4 1_555 1_555
C150 N34 1_555 1_555
C151 C150 1_555 1_555
H119 C151 1_555 1_555
C152 C151 1_555 1_555
H120 C152 1_555 1_555
C153 C152 1_555 1_555
H121 C153 1_555 1_555
C154 N34 1_555 1_555
H122 C154 1_555 1_555
N35 N36 1_555 1_555
N36 Cd4 1_555 1_555
C155 C150 1_555 1_555
C156 C155 1_555 1_555
H123 C156 1_555 1_555
C157 N35 1_555 1_555
H124 C157 1_555 1_555
C158 N35 1_555 1_555
H125 C158 1_555 1_555
H126 C158 1_555 1_555
C159 H127 1_555 1_555
C160 C149 1_555 1_555
C161 C158 1_555 1_555
C162 C161 1_555 1_555
H128 C162 1_555 1_555
C163 C162 1_555 1_555
C164 C159 1_555 1_555
C165 C163 1_555 1_555
H129 C165 1_555 1_555
C166 C165 1_555 1_555
H130 C166 1_555 1_555
C167 C166 1_555 1_555
H131 C167 1_555 1_555
C168 C164 1_555 1_555
H132 C168 1_555 1_555
B1 F1 1_555 1_555
F2 B1 1_555 1_555
F3 B1 1_555 1_555
F4 B1 1_555 1_555
B2 F5 1_555 1_555
F6 B2 1_555 1_555
F7 B2 1_555 1_555
F8 B2 1_555 1_555
B3 F9 1_555 1_555
F10 B3 1_555 1_555
F11 B3 1_555 1_555
F12 B3 1_555 1_555
B4 F13 1_555 1_555
F14 B4 1_555 1_555
F15 B4 1_555 1_555
F16 B4 1_555 1_555
B5 F17 1_555 1_555
F18 B5 1_555 1_555
F19 B5 1_555 1_555
F20 B5 1_555 1_555
B6 F21 1_555 1_555
F22 B6 1_555 1_555
F23 B6 1_555 1_555
F24 B6 1_555 1_555
O1 C169 1_555 1_555
C169 H133 1_555 1_555
H134 C169 1_555 1_555
H135 C169 1_555 1_555
O2 C170 1_555 1_555
C170 H136 1_555 1_555
H137 C170 1_555 1_555
H138 C170 1_555 1_555
O3 C171 1_555 1_555
C171 H139 1_555 1_555
H140 C171 1_555 1_555
H141 C171 1_555 1_555
O4 C172 1_555 1_555
C172 H142 1_555 1_555
H143 C172 1_555 1_555
H144 C172 1_555 1_555
O5 C173 1_555 1_555
C173 H145 1_555 1_555
H146 C173 1_555 1_555
H147 C173 1_555 1_555
O6 C174 1_555 1_555
C174 H148 1_555 1_555
H149 C174 1_555 1_555
H150 C174 1_555 1_555
O7 C175 1_555 1_555
C175 H151 1_555 1_555
H152 C175 1_555 1_555
H153 C175 1_555 1_555
O8 C176 1_555 1_555
C176 H154 1_555 1_555
H155 C176 1_555 1_555
H156 C176 1_555 1_555
O9 C177 1_555 1_555
C177 H157 1_555 1_555
H158 C177 1_555 1_555
H159 C177 1_555 1_555
C4 C5 1_555 1_555
N3 C6 1_555 1_555
C7 C8 1_555 1_555
C13 C14 1_555 1_555
N6 C15 1_555 1_555
C16 C17 1_555 1_555
C19 C20 1_555 1_555
C20 C21 1_555 1_555
C23 C24 1_555 1_555
C27 C28 1_555 1_555
C32 C33 1_555 1_555
N9 C34 1_555 1_555
C35 C36 1_555 1_555
C41 C42 1_555 1_555
N12 C43 1_555 1_555
C44 C45 1_555 1_555
C47 C48 1_555 1_555
C48 C49 1_555 1_555
C51 C52 1_555 1_555
C55 C56 1_555 1_555
C60 C61 1_555 1_555
N14 C64 1_555 1_555
C63 C64 1_555 1_555
C69 C70 1_555 1_555
N18 C71 1_555 1_555
C72 C73 1_555 1_555
C75 C76 1_555 1_555
C76 C77 1_555 1_555
C79 C80 1_555 1_555
C83 C84 1_555 1_555
C88 C89 1_555 1_555
N21 C90 1_555 1_555
C91 C92 1_555 1_555
C97 C98 1_555 1_555
N24 C99 1_555 1_555
C100 C101 1_555 1_555
C103 C104 1_555 1_555
C104 C105 1_555 1_555
C107 C108 1_555 1_555
C111 C112 1_555 1_555
C116 C117 1_555 1_555
N27 C118 1_555 1_555
C119 C120 1_555 1_555
C125 C126 1_555 1_555
N30 C127 1_555 1_555
C128 C129 1_555 1_555
C131 C132 1_555 1_555
C132 C133 1_555 1_555
C135 C136 1_555 1_555
C139 C140 1_555 1_555
C144 C145 1_555 1_555
N33 C146 1_555 1_555
C147 C148 1_555 1_555
C153 C154 1_555 1_555
N36 C155 1_555 1_555
C156 C157 1_555 1_555
C159 C160 1_555 1_555
C160 C161 1_555 1_555
C163 C164 1_555 1_555
C167 C168 1_555 1_555

#END
