
#######################################################################
#
#                 Cambridge Crystallographic Data Centre
#                                CCDC 
#
#######################################################################
#
# If this CIF has been generated from an entry in the Cambridge 
# Structural Database, then it will include bibliographic, chemical, 
# crystal, experimental, refinement or atomic coordinate data resulting 
# from the CCDC's data processing and validation procedures.
#
#######################################################################

data_FOPKEB
_chemical_formula_moiety         'C66 H84 N12 Pt3 6+,6(N1 O3 1-),19.5(H2 O1)'
_chemical_name_systematic        
"tris(\m~2~-4,4'-(2,3,5,6-tetramethyl-1,4-phenylene)dipyridine)-tris(1,2-ethanediamine)-tri-platinum(ii) hexakis(nitrate) hydrate"
_symmetry_cell_setting           triclinic
_symmetry_space_group_name_H-M   'P -1'
_symmetry_Int_Tables_number      2
_space_group_name_Hall           '-P 1'
loop_
_symmetry_equiv_pos_site_id
_symmetry_equiv_pos_as_xyz
1 x,y,z
2 -x,-y,-z
_cell_length_a                   13.8836(18)
_cell_length_b                   18.679(3)
_cell_length_c                   19.283(3)
_cell_angle_alpha                92.901(2)
_cell_angle_beta                 94.205(2)
_cell_angle_gamma                100.971(2)
_cell_volume                     4885.43
_exptl_crystal_colour            colorless
_exptl_crystal_description       plate
_cell_formula_units_Z            2
loop_
_atom_site_label
_atom_site_type_symbol
_atom_site_fract_x
_atom_site_fract_y
_atom_site_fract_z
Pt1 Pt 0.017421(12) 0.210378(9) 0.583533(9)
Pt2 Pt -0.618810(12) 0.600050(10) 0.120990(9)
Pt3 Pt -0.241460(16) 0.921000(11) 0.850580(10)
N1 N -0.1719(3) 0.8368(2) 0.8342(2)
C1 C -0.2035(4) 0.7726(3) 0.8610(3)
H1 H -0.2518 0.7695 0.8937
C2 C -0.1678(4) 0.7104(3) 0.8423(3)
H2 H -0.1914 0.6657 0.8625
C3 C -0.0986(4) 0.7135(3) 0.7947(3)
C4 C -0.0623(4) 0.7815(3) 0.7703(3)
H3 H -0.0113 0.7867 0.7396
C5 C -0.1006(5) 0.8412(3) 0.7907(3)
H4 H -0.0755 0.8871 0.7733
C6 C -0.0683(3) 0.6465(2) 0.7661(3)
C7 C 0.0131(3) 0.6222(3) 0.7969(3)
C8 C 0.0374(3) 0.5579(3) 0.7702(3)
C9 C -0.0198(3) 0.5184(3) 0.7131(2)
C10 C -0.1010(3) 0.5428(3) 0.6814(2)
C11 C -0.1260(4) 0.6067(3) 0.7086(3)
C12 C 0.0723(4) 0.6635(3) 0.8605(3)
H5 H 0.1421 0.6746 0.8519
H6 H 0.0638 0.6335 0.9007
H7 H 0.0493 0.7092 0.8701
C13 C 0.1219(4) 0.5292(3) 0.8056(3)
H8 H 0.1822 0.5667 0.8076
H9 H 0.1314 0.4852 0.7792
H10 H 0.1069 0.5172 0.8530
C14 C -0.1621(4) 0.5005(3) 0.6191(3)
H11 H -0.1331 0.4587 0.6051
H12 H -0.1635 0.5325 0.5804
H13 H -0.2294 0.4830 0.6315
C15 C -0.2167(4) 0.6309(3) 0.6772(3)
H14 H -0.2270 0.6744 0.7040
H15 H -0.2742 0.5915 0.6784
H16 H -0.2078 0.6424 0.6288
N2 N 0.0206(3) 0.3095(2) 0.6320(2)
C16 C 0.0740(4) 0.3712(3) 0.6110(3)
H17 H 0.1191 0.3678 0.5767
C17 C 0.0653(4) 0.4392(3) 0.6376(3)
H18 H 0.1045 0.4816 0.6217
C18 C 0.0000(3) 0.4465(3) 0.6872(2)
C19 C -0.0506(4) 0.3822(3) 0.7110(3)
H19 H -0.0935 0.3843 0.7470
C20 C -0.0390(4) 0.3153(3) 0.6828(3)
H20 H -0.0743 0.2720 0.6999
N3 N -0.0684(3) 0.24108(19) 0.50476(19)
C21 C -0.0291(3) 0.2744(2) 0.4507(2)
H21 H 0.0394 0.2784 0.4463
C22 C -0.0858(3) 0.3035(3) 0.4007(2)
H22 H -0.0560 0.3271 0.3630
C23 C -0.1863(3) 0.2976(2) 0.4064(2)
C24 C -0.2267(3) 0.2608(2) 0.4615(2)
H23 H -0.2954 0.2545 0.4663
C25 C -0.1659(3) 0.2334(3) 0.5095(2)
H24 H -0.1942 0.2084 0.5470
C26 C -0.2484(3) 0.3322(2) 0.3569(2)
C27 C -0.2800(3) 0.2990(2) 0.2904(2)
C28 C -0.3389(3) 0.3330(3) 0.2450(2)
C29 C -0.3649(3) 0.3984(2) 0.2677(2)
C30 C -0.3329(3) 0.4320(2) 0.3342(2)
C31 C -0.2746(3) 0.3980(2) 0.3796(2)
C32 C -0.2536(4) 0.2273(3) 0.2675(3)
H25 H -0.2173 0.2094 0.3063
H26 H -0.2124 0.2344 0.2283
H27 H -0.3139 0.1915 0.2529
C33 C -0.3742(4) 0.2975(3) 0.1732(2)
H28 H -0.4116 0.3288 0.1476
H29 H -0.4166 0.2499 0.1774
H30 H -0.3174 0.2909 0.1480
C34 C -0.3616(4) 0.5030(3) 0.3577(3)
H31 H -0.4166 0.5116 0.3264
H32 H -0.3053 0.5433 0.3566
H33 H -0.3817 0.5000 0.4053
C35 C -0.2398(3) 0.4311(3) 0.4528(2)
H34 H -0.1744 0.4210 0.4661
H35 H -0.2862 0.4095 0.4855
H36 H -0.2363 0.4840 0.4542
C36 C -0.4278(3) 0.4364(3) 0.2211(2)
C37 C -0.3860(4) 0.4929(3) 0.1821(3)
H37 H -0.3169 0.5031 0.1788
C38 C -0.4446(4) 0.5343(3) 0.1483(3)
H38 H -0.4147 0.5722 0.1212
N4 N -0.5425(3) 0.5230(2) 0.1522(2)
C39 C -0.5843(4) 0.4657(3) 0.1855(3)
H39 H -0.6539 0.4552 0.1861
C40 C -0.5300(4) 0.4210(3) 0.2192(3)
H40 H -0.5625 0.3799 0.2411
N5 N -0.5998(3) 0.6437(3) 0.2206(2)
C41 C -0.5082(4) 0.6655(4) 0.2525(3)
H41 H -0.4530 0.6623 0.2271
C42 C -0.4930(4) 0.6923(4) 0.3208(3)
H42 H -0.4276 0.7054 0.3421
C43 C -0.5704(4) 0.7006(3) 0.3593(2)
C44 C -0.6630(4) 0.6790(5) 0.3258(3)
H43 H -0.7191 0.6840 0.3496
C45 C -0.6749(4) 0.6501(5) 0.2577(3)
H44 H -0.7398 0.6340 0.2365
C46 C -0.5486(3) 0.7298(3) 0.4337(2)
C47 C -0.5504(4) 0.8029(3) 0.4515(3)
C48 C -0.5166(3) 0.8318(3) 0.5195(3)
C49 C -0.4795(3) 0.7879(2) 0.5671(2)
C50 C -0.4802(3) 0.7140(2) 0.5497(2)
C51 C -0.5166(3) 0.6846(3) 0.4825(2)
C52 C -0.5834(5) 0.8526(3) 0.3991(3)
H45 H -0.5313 0.8957 0.3971
H46 H -0.6432 0.8678 0.4131
H47 H -0.5971 0.8263 0.3530
C53 C -0.5188(4) 0.9112(3) 0.5402(3)
H48 H -0.5133 0.9185 0.5912
H49 H -0.5809 0.9229 0.5212
H50 H -0.4636 0.9431 0.5216
C54 C -0.4363(4) 0.6667(3) 0.5997(3)
H51 H -0.3923 0.6406 0.5756
H52 H -0.4892 0.6314 0.6170
H53 H -0.3989 0.6976 0.6390
C55 C -0.5148(4) 0.6058(3) 0.4629(3)
H54 H -0.5408 0.5753 0.4998
H55 H -0.4469 0.6005 0.4571
H56 H -0.5554 0.5903 0.4191
N6 N -0.3259(3) 0.8844(2) 0.7603(2)
C56 C -0.4116(4) 0.8380(3) 0.7605(3)
H57 H -0.4370 0.8265 0.8039
C57 C -0.4648(4) 0.8059(3) 0.6997(3)
H58 H -0.5254 0.7727 0.7018
C58 C -0.4298(3) 0.8220(2) 0.6354(2)
C59 C -0.3414(4) 0.8714(3) 0.6365(3)
H59 H -0.3144 0.8845 0.5940
C60 C -0.2924(4) 0.9016(3) 0.6992(3)
H60 H -0.2325 0.9360 0.6987
N7 N 0.1025(4) 0.1763(2) 0.6607(2)
H61 H 0.1674 0.1978 0.6584
H62 H 0.0837 0.1899 0.7035
C61 C 0.0910(5) 0.0954(3) 0.6527(3)
H63 H 0.0301 0.0718 0.6727
H64 H 0.1477 0.0798 0.6775
C62 C 0.0856(4) 0.0736(3) 0.5766(3)
H65 H 0.1507 0.0896 0.5586
H66 H 0.0670 0.0198 0.5689
N8 N 0.0109(3) 0.1084(2) 0.5393(2)
H67 H -0.0509 0.0807 0.5417
H68 H 0.0228 0.1111 0.4931
N9 N -0.6411(3) 0.5615(2) 0.0193(2)
H69 H -0.5830 0.5716 -0.0016
H70 H -0.6628 0.5116 0.0164
C63 C -0.7157(4) 0.5971(3) -0.0165(3)
H71 H -0.7826 0.5716 -0.0079
H72 H -0.7098 0.5942 -0.0674
C64 C -0.7005(6) 0.6749(4) 0.0099(3)
H73 H -0.7564 0.6969 -0.0075
H74 H -0.6392 0.7029 -0.0062
N10 N -0.6934(4) 0.6767(3) 0.0878(2)
H75 H -0.7556 0.6679 0.1030
H76 H -0.6614 0.7222 0.1060
N11 N -0.3090(5) 1.0059(3) 0.8707(3)
H77 H -0.3167 1.0301 0.8309
H78 H -0.3704 0.9889 0.8853
C65 C -0.2477(13) 1.0568(8) 0.9262(7)
H79 H -0.1996 1.0930 0.9043
H80 H -0.2906 1.0837 0.9517
C66 C -0.1965(10) 1.0191(6) 0.9741(5)
H81 H -0.2416 0.9983 1.0085
H82 H -0.1413 1.0543 0.9996
N12 N -0.1579(5) 0.9605(4) 0.9397(3)
H83 H -0.1570 0.9235 0.9692
H84 H -0.0942 0.9780 0.9297
N13 N 0.2571(4) 0.9691(4) 0.5759(3)
O1 O 0.1895(4) 0.9175(3) 0.5560(3)
O2 O 0.2858(5) 0.9807(5) 0.6395(3)
O3 O 0.2961(3) 1.0129(3) 0.5346(3)
N14 N 0.4056(4) 0.3633(3) 0.0293(2)
O4 O 0.3193(4) 0.3320(3) 0.0301(4)
O5 O 0.4263(4) 0.4254(3) 0.0081(3)
O6 O 0.4744(4) 0.3346(3) 0.0498(3)
O8 O 0.7404(7) 0.6840(5) 0.4629(6)
O9 O 0.7349(8) 0.7992(6) 0.4769(6)
N19 N 0.0221(13) 0.7970(9) -0.0040(8)
O19 O 0.0992(13) 0.7822(7) 0.0072(7)
O20 O -0.046(2) 0.7571(15) 0.0276(14)
O21 O 0.0084(17) 0.8469(9) -0.0410(12)
N21 N 0.8075(8) 0.6470(7) 0.2038(9)
O25 O 0.8833(19) 0.650(3) 0.233(2)
O26 O 0.800(2) 0.6283(18) 0.1426(11)
O27 O 0.7434(15) 0.6752(12) 0.229(2)
N22 N 0.2214(13) 0.8736(9) 0.2854(8)
O28 O 0.1761(9) 0.8580(8) 0.3293(7)
O29 O 0.2654(15) 0.9394(9) 0.2920(11)
O30 O 0.2456(15) 0.8284(13) 0.2426(10)
N23 N 0.9703(14) 0.9395(11) 0.1446(9)
O31 O 0.9725(10) 0.9913(8) 0.1209(8)
O32 O 0.8854(16) 0.9029(16) 0.1613(17)
O33 O 1.0448(15) 0.9346(18) 0.1831(16)
O36 O 0.0868(4) 0.8933(3) 0.6819(3)
O37 O 0.4188(5) 0.1892(3) 0.0622(4)
O41 O 0.9482(8) 0.7787(6) 0.2022(4)
O42 O 0.965(2) 0.6187(16) 0.115(2)
O45 O 0.4267(7) 0.8167(4) 0.1521(7)
O46 O 0.6606(9) 0.7230(6) 0.1371(6)
O48 O -0.1680(11) 1.0641(8) 0.1716(8)
O49 O 0.7183(14) 0.8516(16) 0.0446(12)
O53 O 0.742(2) 0.1722(8) 0.0751(9)
O59 O 0.9082(16) 0.8585(11) 0.0435(16)
loop_
_geom_bond_atom_site_label_1
_geom_bond_atom_site_label_2
_geom_bond_site_symmetry_1
_geom_bond_site_symmetry_2
Pt1 N2 1_555 1_555
Pt2 N4 1_555 1_555
Pt3 N1 1_555 1_555
N1 C1 1_555 1_555
C1 H1 1_555 1_555
C2 C1 1_555 1_555
H2 C2 1_555 1_555
C3 C2 1_555 1_555
C4 C3 1_555 1_555
H3 C4 1_555 1_555
C5 N1 1_555 1_555
H4 C5 1_555 1_555
C6 C3 1_555 1_555
C7 C6 1_555 1_555
C8 C7 1_555 1_555
C9 C8 1_555 1_555
C10 C9 1_555 1_555
C11 C6 1_555 1_555
C12 C7 1_555 1_555
H5 C12 1_555 1_555
H6 C12 1_555 1_555
H7 C12 1_555 1_555
C13 C8 1_555 1_555
H8 C13 1_555 1_555
H9 C13 1_555 1_555
H10 C13 1_555 1_555
C14 C10 1_555 1_555
H11 C14 1_555 1_555
H12 C14 1_555 1_555
H13 C14 1_555 1_555
C15 C11 1_555 1_555
H14 C15 1_555 1_555
H15 C15 1_555 1_555
H16 C15 1_555 1_555
N2 C16 1_555 1_555
C16 H17 1_555 1_555
C17 C16 1_555 1_555
H18 C17 1_555 1_555
C18 C9 1_555 1_555
C19 C18 1_555 1_555
H19 C19 1_555 1_555
C20 N2 1_555 1_555
H20 C20 1_555 1_555
N3 Pt1 1_555 1_555
C21 N3 1_555 1_555
H21 C21 1_555 1_555
C22 C21 1_555 1_555
H22 C22 1_555 1_555
C23 C22 1_555 1_555
C24 C23 1_555 1_555
H23 C24 1_555 1_555
C25 N3 1_555 1_555
H24 C25 1_555 1_555
C26 C23 1_555 1_555
C27 C26 1_555 1_555
C28 C27 1_555 1_555
C29 C28 1_555 1_555
C30 C29 1_555 1_555
C31 C26 1_555 1_555
C32 C27 1_555 1_555
H25 C32 1_555 1_555
H26 C32 1_555 1_555
H27 C32 1_555 1_555
C33 C28 1_555 1_555
H28 C33 1_555 1_555
H29 C33 1_555 1_555
H30 C33 1_555 1_555
C34 C30 1_555 1_555
H31 C34 1_555 1_555
H32 C34 1_555 1_555
H33 C34 1_555 1_555
C35 C31 1_555 1_555
H34 C35 1_555 1_555
H35 C35 1_555 1_555
H36 C35 1_555 1_555
C36 C29 1_555 1_555
C37 C36 1_555 1_555
H37 C37 1_555 1_555
C38 C37 1_555 1_555
H38 C38 1_555 1_555
N4 C38 1_555 1_555
C39 N4 1_555 1_555
H39 C39 1_555 1_555
C40 C36 1_555 1_555
H40 C40 1_555 1_555
N5 Pt2 1_555 1_555
C41 N5 1_555 1_555
H41 C41 1_555 1_555
C42 C41 1_555 1_555
H42 C42 1_555 1_555
C43 C42 1_555 1_555
C44 C43 1_555 1_555
H43 C44 1_555 1_555
C45 N5 1_555 1_555
H44 C45 1_555 1_555
C46 C43 1_555 1_555
C47 C46 1_555 1_555
C48 C47 1_555 1_555
C49 C48 1_555 1_555
C50 C49 1_555 1_555
C51 C46 1_555 1_555
C52 C47 1_555 1_555
H45 C52 1_555 1_555
H46 C52 1_555 1_555
H47 C52 1_555 1_555
C53 C48 1_555 1_555
H48 C53 1_555 1_555
H49 C53 1_555 1_555
H50 C53 1_555 1_555
C54 C50 1_555 1_555
H51 C54 1_555 1_555
H52 C54 1_555 1_555
H53 C54 1_555 1_555
C55 C51 1_555 1_555
H54 C55 1_555 1_555
H55 C55 1_555 1_555
H56 C55 1_555 1_555
N6 Pt3 1_555 1_555
C56 N6 1_555 1_555
H57 C56 1_555 1_555
C57 C56 1_555 1_555
H58 C57 1_555 1_555
C58 C49 1_555 1_555
C59 C58 1_555 1_555
H59 C59 1_555 1_555
C60 N6 1_555 1_555
H60 C60 1_555 1_555
N7 Pt1 1_555 1_555
H61 N7 1_555 1_555
H62 N7 1_555 1_555
C61 N7 1_555 1_555
H63 C61 1_555 1_555
H64 C61 1_555 1_555
C62 C61 1_555 1_555
H65 C62 1_555 1_555
H66 C62 1_555 1_555
N8 Pt1 1_555 1_555
H67 N8 1_555 1_555
H68 N8 1_555 1_555
N9 Pt2 1_555 1_555
H69 N9 1_555 1_555
H70 N9 1_555 1_555
C63 N9 1_555 1_555
H71 C63 1_555 1_555
H72 C63 1_555 1_555
C64 C63 1_555 1_555
H73 C64 1_555 1_555
H74 C64 1_555 1_555
N10 Pt2 1_555 1_555
H75 N10 1_555 1_555
H76 N10 1_555 1_555
N11 Pt3 1_555 1_555
H77 N11 1_555 1_555
H78 N11 1_555 1_555
C65 N11 1_555 1_555
H79 C65 1_555 1_555
H80 C65 1_555 1_555
C66 C65 1_555 1_555
H81 C66 1_555 1_555
H82 C66 1_555 1_555
N12 Pt3 1_555 1_555
H83 N12 1_555 1_555
H84 N12 1_555 1_555
N13 O1 1_555 1_555
O2 N13 1_555 1_555
O3 N13 1_555 1_555
N14 O4 1_555 1_555
O5 N14 1_555 1_555
O6 N14 1_555 1_555
N19 O19 1_555 1_555
O20 N19 1_555 1_555
O21 N19 1_555 1_555
N21 O25 1_555 1_555
O26 N21 1_555 1_555
O27 N21 1_555 1_555
N22 O28 1_555 1_555
O29 N22 1_555 1_555
O30 N22 1_555 1_555
N23 O31 1_555 1_555
O32 N23 1_555 1_555
O33 N23 1_555 1_555
C4 C5 1_555 1_555
C10 C11 1_555 1_555
C17 C18 1_555 1_555
C19 C20 1_555 1_555
C24 C25 1_555 1_555
C30 C31 1_555 1_555
C39 C40 1_555 1_555
C44 C45 1_555 1_555
C50 C51 1_555 1_555
C57 C58 1_555 1_555
C59 C60 1_555 1_555
C62 N8 1_555 1_555
C64 N10 1_555 1_555
C66 N12 1_555 1_555

#END
