
#######################################################################
#
#                 Cambridge Crystallographic Data Centre
#                                CCDC 
#
#######################################################################
#
# If this CIF has been generated from an entry in the Cambridge 
# Structural Database, then it will include bibliographic, chemical, 
# crystal, experimental, refinement or atomic coordinate data resulting 
# from the CCDC's data processing and validation procedures.
#
#######################################################################

data_FUDRUR10
_chemical_formula_moiety         
'C36 H36 Fe1 N8 O12 3-,3(H4 Na1 O2 1+),11.5(H2 O1)'
_chemical_name_systematic        
"((N,N,N-tris(Aminoethyl)amine)tris(terephthaloyl-1,2-diolato)(N',N',N'-tris(aminoethyl)amine)-O,O',O'',O''',O'''',O''''')-iron(iii) tris(diaqua-sodium) hydrate"
_symmetry_cell_setting           hexagonal
_symmetry_space_group_name_H-M   'P 63/m'
_symmetry_Int_Tables_number      176
_space_group_name_Hall           '-P 6c'
loop_
_symmetry_equiv_pos_site_id
_symmetry_equiv_pos_as_xyz
1 x,y,z
2 -y,x-y,z
3 -x+y,-x,z
4 -x,-y,1/2+z
5 y,-x+y,1/2+z
6 x-y,x,1/2+z
7 -x,-y,-z
8 y,-x+y,-z
9 x-y,x,-z
10 x,y,1/2-z
11 -y,x-y,1/2-z
12 -x+y,-x,1/2-z
_cell_length_a                   13.785(3)
_cell_length_b                   13.785(3)
_cell_length_c                   16.244(5)
_cell_angle_alpha                90
_cell_angle_beta                 90
_cell_angle_gamma                120
_cell_volume                     2673.24
_exptl_crystal_colour            'deep red'
_cell_formula_units_Z            2
loop_
_atom_site_label
_atom_site_type_symbol
_atom_site_fract_x
_atom_site_fract_y
_atom_site_fract_z
Na1 Na 0.0000 0.0000 0.0000
O3 O 0.3737(3) 0.2619(2) 0.1234(2)
O6 O 0.2795(8) 0.3382(9) 0.2500
O8 O 0.229(5) 0.141(5) 0.2500
O9 O 0.086(2) -0.020(2) 0.2500
Fe1 Fe 0.6667 0.3333 0.2500
O1 O 0.6102(2) 0.4077(2) 0.1722(1)
O2 O 0.6704(2) 0.6906(2) 0.0351(1)
N1 N 0.6667 0.3333 -0.0587(3)
N2 N 0.6373(2) 0.5126(2) 0.0322(2)
C1 C 0.6175(2) 0.4994(2) 0.2058(2)
C2 C 0.6306(2) 0.5921(2) 0.1624(2)
C3 C 0.6469(2) 0.6013(2) 0.0722(2)
C4 C 0.6366(3) 0.6822(3) 0.2080(2)
C5 C 0.6612(3) 0.5147(3) -0.0557(2)
C6 C 0.6144(3) 0.3969(3) -0.0899(2)
H1 H 0.626(3) 0.453(3) 0.061(2)
H2 H 0.645(3) 0.741(3) 0.179(2)
H3 H 0.745(3) 0.557(3) -0.065(2)
H4 H 0.621(3) 0.545(3) -0.087(2)
H5 H 0.527(3) 0.346(3) -0.083(2)
H6 H 0.625(3) 0.394(3) -0.150(2)
O1A O 0.5923(2) 0.2025(3) 0.1722(1)
O1B O 0.7975(3) 0.3898(2) 0.1722(1)
O1I O 0.6102(2) 0.4077(2) 0.3278(1)
O1J O 0.5923(2) 0.2025(3) 0.3278(1)
O1K O 0.7975(3) 0.3898(2) 0.3278(1)
C1I C 0.6175(2) 0.4994(2) 0.2942(2)
C4I C 0.6366(3) 0.6822(3) 0.2920(2)
C6A C 0.6031(3) 0.2175(4) -0.0899(2)
C6B C 0.7825(4) 0.3856(3) -0.0899(2)
C1A C 0.5006(2) 0.1181(3) 0.2058(2)
C1B C 0.8819(3) 0.3825(2) 0.2058(2)
C1J C 0.5006(2) 0.1181(3) 0.2942(2)
C1K C 0.8819(3) 0.3825(2) 0.2942(2)
C2I C 0.6306(2) 0.5921(2) 0.3376(2)
H2I H 0.645(3) 0.741(3) 0.321(2)
C5A C 0.4853(3) 0.1465(4) -0.0557(2)
H5A H 0.654(3) 0.181(4) -0.083(2)
H6A H 0.606(3) 0.231(4) -0.150(2)
C5B C 0.8535(4) 0.3388(3) -0.0557(2)
H5B H 0.819(4) 0.473(3) -0.083(2)
H6B H 0.769(4) 0.375(3) -0.150(2)
C2A C 0.4079(2) 0.0385(3) 0.1624(2)
C2B C 0.9615(3) 0.3694(2) 0.1624(2)
C2J C 0.4079(2) 0.0385(3) 0.3376(2)
C2K C 0.9615(3) 0.3694(2) 0.3376(2)
C3I C 0.6469(2) 0.6013(2) 0.4278(2)
N2A N 0.4874(2) 0.1247(3) 0.0322(2)
H3A H 0.443(3) 0.188(4) -0.065(2)
H4A H 0.455(3) 0.076(4) -0.087(2)
N2B N 0.8753(3) 0.3627(2) 0.0322(2)
H3B H 0.812(4) 0.255(3) -0.065(2)
H4B H 0.924(4) 0.379(3) -0.087(2)
C3A C 0.3987(2) 0.0456(3) 0.0722(2)
C4A C 0.3178(3) -0.0456(4) 0.2080(2)
C3B C 0.9544(3) 0.3531(2) 0.0722(2)
C4B C 1.0456(4) 0.3634(3) 0.2080(2)
C3J C 0.3987(2) 0.0456(3) 0.4278(2)
C4J C 0.3178(3) -0.0456(4) 0.2920(2)
C3K C 0.9544(3) 0.3531(2) 0.4278(2)
C4K C 1.0456(4) 0.3634(3) 0.2920(2)
O2I O 0.6704(2) 0.6906(2) 0.4649(1)
N2I N 0.6373(2) 0.5126(2) 0.4678(2)
H1A H 0.547(3) 0.173(4) 0.061(2)
H1B H 0.827(4) 0.374(3) 0.061(2)
O2A O 0.3094(2) -0.0202(3) 0.0351(1)
H2A H 0.259(3) -0.096(4) 0.179(2)
O2B O 1.0202(3) 0.3296(2) 0.0351(1)
H2B H 1.096(4) 0.355(3) 0.179(2)
O2J O 0.3094(2) -0.0202(3) 0.4649(1)
N2J N 0.4874(2) 0.1247(3) 0.4678(2)
H2J H 0.259(3) -0.096(4) 0.321(2)
O2K O 1.0202(3) 0.3296(2) 0.4649(1)
N2K N 0.8753(3) 0.3627(2) 0.4678(2)
H2K H 1.096(4) 0.355(3) 0.321(2)
C5I C 0.6612(3) 0.5147(3) 0.5557(2)
H1I H 0.626(3) 0.453(3) 0.439(2)
C5J C 0.4853(3) 0.1465(4) 0.5557(2)
H1J H 0.547(3) 0.173(4) 0.439(2)
C5K C 0.8535(4) 0.3388(3) 0.5557(2)
H1K H 0.827(4) 0.374(3) 0.439(2)
C6I C 0.6144(3) 0.3969(3) 0.5899(2)
H3I H 0.745(3) 0.557(3) 0.565(2)
H4I H 0.621(3) 0.545(3) 0.587(2)
C6J C 0.6031(3) 0.2175(4) 0.5899(2)
H3J H 0.443(3) 0.188(4) 0.565(2)
H4J H 0.455(3) 0.076(4) 0.587(2)
C6K C 0.7825(4) 0.3856(3) 0.5899(2)
H3K H 0.812(4) 0.255(3) 0.565(2)
H4K H 0.924(4) 0.379(3) 0.587(2)
N1I N 0.6667 0.3333 0.5587(3)
H5I H 0.527(3) 0.346(3) 0.583(2)
H6I H 0.625(3) 0.394(3) 0.650(2)
H5J H 0.654(3) 0.181(4) 0.583(2)
H6J H 0.606(3) 0.231(4) 0.650(2)
H5K H 0.819(4) 0.473(3) 0.583(2)
H6K H 0.769(4) 0.375(3) 0.650(2)
loop_
_geom_bond_atom_site_label_1
_geom_bond_atom_site_label_2
_geom_bond_site_symmetry_1
_geom_bond_site_symmetry_2
Fe1 O1 1_555 1_555
O1 C1 1_555 1_555
O2 C3 1_555 1_555
N1 C6 1_555 1_555
N2 C3 1_555 1_555
C1 C2 1_555 1_555
C2 C3 1_555 1_555
C4 C2 1_555 1_555
C5 N2 1_555 1_555
C6 C5 1_555 1_555
H1 N2 1_555 1_555
H2 C4 1_555 1_555
H3 C5 1_555 1_555
H4 C5 1_555 1_555
H5 C6 1_555 1_555
H6 C6 1_555 1_555
O1A Fe1 1_555 1_555
O1B Fe1 1_555 1_555
O1I Fe1 1_555 1_555
O1J Fe1 1_555 1_555
O1K Fe1 1_555 1_555
C1I C1 1_555 1_555
C4I C4 1_555 1_555
C6A N1 1_555 1_555
C6B N1 1_555 1_555
C1A O1A 1_555 1_555
C1B O1B 1_555 1_555
C1J O1J 1_555 1_555
C1K O1K 1_555 1_555
C2I C1I 1_555 1_555
H2I C4I 1_555 1_555
C5A C6A 1_555 1_555
H5A C6A 1_555 1_555
H6A C6A 1_555 1_555
C5B C6B 1_555 1_555
H5B C6B 1_555 1_555
H6B C6B 1_555 1_555
C2A C1A 1_555 1_555
C2B C1B 1_555 1_555
C2J C1J 1_555 1_555
C2K C1K 1_555 1_555
C3I C2I 1_555 1_555
N2A C5A 1_555 1_555
H3A C5A 1_555 1_555
H4A C5A 1_555 1_555
N2B C5B 1_555 1_555
H3B C5B 1_555 1_555
H4B C5B 1_555 1_555
C3A C2A 1_555 1_555
C4A C2A 1_555 1_555
C3B C2B 1_555 1_555
C4B C2B 1_555 1_555
C3J C2J 1_555 1_555
C4J C2J 1_555 1_555
C3K C2K 1_555 1_555
C4K C2K 1_555 1_555
O2I C3I 1_555 1_555
N2I C3I 1_555 1_555
H1A N2A 1_555 1_555
H1B N2B 1_555 1_555
O2A C3A 1_555 1_555
H2A C4A 1_555 1_555
O2B C3B 1_555 1_555
H2B C4B 1_555 1_555
O2J C3J 1_555 1_555
N2J C3J 1_555 1_555
H2J C4J 1_555 1_555
O2K C3K 1_555 1_555
N2K C3K 1_555 1_555
H2K C4K 1_555 1_555
C5I N2I 1_555 1_555
H1I N2I 1_555 1_555
C5J N2J 1_555 1_555
H1J N2J 1_555 1_555
C5K N2K 1_555 1_555
H1K N2K 1_555 1_555
C6I C5I 1_555 1_555
H3I C5I 1_555 1_555
H4I C5I 1_555 1_555
C6J C5J 1_555 1_555
H3J C5J 1_555 1_555
H4J C5J 1_555 1_555
C6K C5K 1_555 1_555
H3K C5K 1_555 1_555
H4K C5K 1_555 1_555
N1I C6I 1_555 1_555
H5I C6I 1_555 1_555
H6I C6I 1_555 1_555
H5J C6J 1_555 1_555
H6J C6J 1_555 1_555
H5K C6K 1_555 1_555
H6K C6K 1_555 1_555
O1I C1I 1_555 1_555
C4I C2I 1_555 1_555
C1A C1J 1_555 1_555
C1B C1K 1_555 1_555
N2A C3A 1_555 1_555
N2B C3B 1_555 1_555
C4A C4J 1_555 1_555
C4B C4K 1_555 1_555
C6J N1I 1_555 1_555
C6K N1I 1_555 1_555

#END
