
#######################################################################
#
#                 Cambridge Crystallographic Data Centre
#                                CCDC 
#
#######################################################################
#
# If this CIF has been generated from an entry in the Cambridge 
# Structural Database, then it will include bibliographic, chemical, 
# crystal, experimental, refinement or atomic coordinate data resulting 
# from the CCDC's data processing and validation procedures.
#
#######################################################################

data_FUHXOX
_chemical_formula_moiety         
'C144 H112 N4 O8 Ru4 4+,4(C4 H10 O1),4(C1 F3 O3 S1 1-),2(C1 H4 O1)'
_chemical_name_systematic        
"bis(\m-4,4'-(pentacyclo[6.6.6.0^2,7^.0^9,14^.0^15,20^]icosa-2,4,6,9,11,13,15,17,19-nonaene-3,6-diyldiethyne-2,1-diyl)dipyridine)-bis(\m-6,12-dioxo-6,12-dihydrotetracene-5,11-diolato)-tetrakis(\h^6^-1-isopropyl-4-methylbenzene)-tetra-ruthenium tetrakis(trifluoromethanesulfonate) methanol diethyl ether solvate"
_symmetry_cell_setting           monoclinic
_symmetry_space_group_name_H-M   'P 21/n'
_symmetry_Int_Tables_number      14
_space_group_name_Hall           '-P 2yn'
loop_
_symmetry_equiv_pos_site_id
_symmetry_equiv_pos_as_xyz
1 x,y,z
2 1/2-x,1/2+y,1/2-z
3 -x,-y,-z
4 1/2+x,1/2-y,1/2+z
_cell_length_a                   17.581(4)
_cell_length_b                   25.642(5)
_cell_length_c                   19.481(4)
_cell_angle_alpha                90
_cell_angle_beta                 113.73(3)
_cell_angle_gamma                90
_cell_volume                     8039.75
_cell_formula_units_Z            2
loop_
_atom_site_label
_atom_site_type_symbol
_atom_site_fract_x
_atom_site_fract_y
_atom_site_fract_z
Ru1 Ru 0.11519(4) 0.18567(3) 0.60652(4)
Ru2 Ru 0.35301(5) 0.08820(4) 0.33404(4)
O1 O 0.2334(4) 0.1621(3) 0.6221(3)
O2 O 0.0905(4) 0.1858(2) 0.4949(3)
O3 O 0.2537(4) 0.1329(3) 0.3208(3)
O4 O 0.3873(4) 0.1026(3) 0.4447(4)
N1 N 0.1638(5) 0.2601(3) 0.6016(4)
N2 N 0.5851(5) 0.8402(4) 0.6606(5)
C1 C 0.3431(5) 0.1222(3) 0.4777(5)
C2 C 0.3890(6) 0.1240(3) 0.5616(5)
C3 C 0.4767(7) 0.1128(5) 0.5952(7)
H1 H 0.5070 0.1063 0.5652
C4 C 0.5123(8) 0.1118(6) 0.6665(7)
H2 H 0.5686 0.1006 0.6890
C5 C 0.4723(8) 0.1266(6) 0.7145(8)
H3 H 0.5030 0.1277 0.7673
C6 C 0.3939(6) 0.1385(5) 0.6858(5)
H4 H 0.3656 0.1474 0.7167
C7 C 0.3522(5) 0.1376(4) 0.6071(5)
C8 C 0.2615(5) 0.1531(3) 0.5751(5)
C9 C 0.2207(5) 0.1570(3) 0.4935(4)
C10 C 0.2651(5) 0.1417(3) 0.4479(5)
C11 C 0.2213(5) 0.1475(4) 0.3653(4)
C12 C 0.1377(6) 0.1762(3) 0.4610(5)
C13 C 0.1431(6) 0.1719(4) 0.3373(5)
C14 C 0.1078(7) 0.1822(4) 0.2593(6)
H5 H 0.1374 0.1731 0.2295
C15 C 0.1018(5) 0.1869(4) 0.3805(5)
C16 C 0.0202(6) 0.2129(4) 0.3449(5)
H6 H -0.0097 0.2226 0.3741
C17 C 0.0283(7) 0.2061(5) 0.2255(6)
H7 H 0.0020 0.2111 0.1728
C18 C -0.0103(7) 0.2224(5) 0.2737(6)
H8 H -0.0611 0.2411 0.2524
C19 C 0.1211(6) 0.2960(4) 0.5468(5)
H9 H 0.0688 0.2858 0.5096
C20 C 0.2390(6) 0.2736(4) 0.6525(6)
H10 H 0.2688 0.2496 0.6911
C21 C 0.1477(6) 0.3436(5) 0.5425(5)
H11 H 0.1132 0.3674 0.5057
C22 C 0.2751(6) 0.3219(4) 0.6506(5)
H12 H 0.3293 0.3296 0.6867
C23 C 0.2314(7) 0.3595(5) 0.5953(5)
C24 C 0.2649(7) 0.4081(4) 0.5941(6)
C25 C 0.2941(6) 0.4517(6) 0.5984(5)
C26 C 0.3292(6) 0.5024(4) 0.6076(5)
C27 C 0.2776(5) 0.5451(4) 0.5811(5)
H13 H 0.2194 0.5397 0.5564
C28 C 0.4144(5) 0.5091(4) 0.6420(4)
C29 C 0.4819(6) 0.4689(4) 0.6694(5)
H14 H 0.4604 0.4323 0.6600
C30 C 0.4462(5) 0.5607(4) 0.6525(5)
C31 C 0.3089(6) 0.5959(4) 0.5896(5)
H15 H 0.2720 0.6246 0.5714
C32 C 0.3935(6) 0.6043(4) 0.6245(5)
C33 C 0.4281(6) 0.6538(5) 0.6343(5)
C34 C 0.4594(6) 0.6966(5) 0.6403(6)
C35 C 0.5005(6) 0.7457(4) 0.6464(6)
C36 C 0.4638(7) 0.7889(5) 0.6102(8)
H16 H 0.4073 0.7872 0.5758
C37 C 0.5837(7) 0.7502(4) 0.6937(6)
H17 H 0.6136 0.7215 0.7230
C38 C 0.6226(7) 0.7985(5) 0.6969(6)
H18 H 0.6803 0.8010 0.7277
C39 C 0.5044(7) 0.8359(6) 0.6208(8)
H19 H 0.4734 0.8663 0.5986
C40 C 0.5419(6) 0.5629(5) 0.6944(5)
H20 H 0.5644 0.5992 0.7057
C41 C 0.5317(6) 0.4805(4) 0.7514(5)
C42 C 0.5610(5) 0.5302(4) 0.7628(5)
C43 C 0.5447(6) 0.4461(4) 0.8125(6)
H21 H 0.5229 0.4117 0.8037
C44 C 0.6056(7) 0.5478(5) 0.8370(6)
H22 H 0.6260 0.5826 0.8463
C45 C 0.5395(6) 0.4824(5) 0.6291(5)
C46 C 0.5733(7) 0.5331(5) 0.6440(6)
C47 C 0.5595(7) 0.4505(5) 0.5824(6)
H23 H 0.5388 0.4159 0.5710
C48 C 0.6234(6) 0.5517(6) 0.6092(6)
H24 H 0.6443 0.5863 0.6187
C49 C 0.5873(7) 0.4627(5) 0.8818(6)
H25 H 0.5964 0.4397 0.9226
C50 C 0.6192(6) 0.5135(6) 0.8962(6)
H26 H 0.6501 0.5245 0.9464
C51 C 0.6161(7) 0.4739(6) 0.5506(5)
H27 H 0.6335 0.4524 0.5198
C52 C 0.6428(7) 0.5208(6) 0.5618(7)
H28 H 0.6758 0.5340 0.5373
C53 C 0.0217(10) 0.2157(7) 0.6463(10)
C54 C 0.0974(9) 0.2009(6) 0.7102(7)
H29 H 0.1314 0.2285 0.7456
C55 C -0.0175(9) 0.1807(7) 0.5880(8)
H30 H -0.0612 0.1936 0.5398
C56 C 0.0163(6) 0.1278(5) 0.5917(6)
H31 H -0.0046 0.1058 0.5454
C57 C 0.0860(7) 0.1119(4) 0.6517(6)
C58 C 0.1320(6) 0.1500(4) 0.7127(5)
H32 H 0.1890 0.1416 0.7506
C59 C -0.0094(10) 0.2736(6) 0.6427(8)
H33 H -0.0515 0.2754 0.6637
H34 H -0.0336 0.2853 0.5905
H35 H 0.0376 0.2961 0.6719
C60 C 0.3904(13) 0.0506(8) 0.1144(11)
H36 H 0.4380 0.0294 0.1461
H37 H 0.4062 0.0723 0.0809
H38 H 0.3443 0.0277 0.0846
C61 C 0.1145(15) 0.0608(6) 0.6517(7)
H39 H 0.0688 0.0409 0.6581
C62 C 0.4378(7) 0.0443(6) 0.2979(8)
H40 H 0.4917 0.0616 0.3059
C63 C 0.4351(7) 0.0184(5) 0.3551(8)
H41 H 0.4864 0.0166 0.4026
C64 C 0.3567(7) 0.0040(4) 0.3567(9)
C65 C 0.2807(9) 0.0168(5) 0.2929(8)
H42 H 0.2265 0.0131 0.2978
C66 C 0.2827(7) 0.0453(5) 0.2285(7)
H43 H 0.2307 0.0603 0.1895
C67 C 0.3651(12) 0.0623(6) 0.2340(8)
C68 C 0.1094(9) 0.0382(5) 0.5789(6)
H44 H 0.0600 0.0518 0.5376
H45 H 0.1056 0.0001 0.5805
H46 H 0.1592 0.0478 0.5710
C69 C 0.1833(12) 0.0434(7) 0.7159(9)
H47 H 0.1805 0.0585 0.7610
H48 H 0.2350 0.0545 0.7122
H49 H 0.1822 0.0053 0.7187
C70 C 0.3501(11) -0.0195(6) 0.4287(12)
H50 H 0.3519 -0.0577 0.4268
H51 H 0.2976 -0.0085 0.4307
H52 H 0.3967 -0.0070 0.4735
C71 C 0.3620(15) 0.0870(10) 0.1660(11)
H53 H 0.4121 0.1099 0.1878
C72 C 0.2955(12) 0.1289(8) 0.1232(10)
H54 H 0.2911 0.1543 0.1590
H55 H 0.2416 0.1118 0.0968
H56 H 0.3119 0.1468 0.0868
Ru1B Ru 0.88481(4) 0.81433(3) 0.39348(4)
Ru2B Ru 0.64699(5) 0.91180(4) 0.66596(4)
O1B O 0.7666(4) 0.8379(3) 0.3779(3)
O2B O 0.9095(4) 0.8142(2) 0.5051(3)
O3B O 0.7463(4) 0.8671(3) 0.6792(3)
O4B O 0.6127(4) 0.8974(3) 0.5553(4)
N1B N 0.8362(5) 0.7399(3) 0.3984(4)
N2B N 0.4149(5) 0.1598(4) 0.3394(5)
C1B C 0.6569(5) 0.8778(3) 0.5223(5)
C2B C 0.6110(6) 0.8760(3) 0.4384(5)
C3B C 0.5233(7) 0.8872(5) 0.4048(7)
H1B H 0.4930 0.8937 0.4348
C4B C 0.4877(8) 0.8882(6) 0.3335(7)
H2B H 0.4314 0.8994 0.3110
C5B C 0.5277(8) 0.8734(6) 0.2855(8)
H3B H 0.4970 0.8723 0.2327
C6B C 0.6061(6) 0.8615(5) 0.3142(5)
H4B H 0.6344 0.8526 0.2833
C7B C 0.6478(5) 0.8624(4) 0.3929(5)
C8B C 0.7385(5) 0.8469(3) 0.4249(5)
C9B C 0.7793(5) 0.8430(3) 0.5065(4)
C10B C 0.7349(5) 0.8583(3) 0.5521(5)
C11B C 0.7787(5) 0.8525(4) 0.6347(4)
C12B C 0.8623(6) 0.8238(3) 0.5390(5)
C13B C 0.8569(6) 0.8281(4) 0.6627(5)
C14B C 0.8922(7) 0.8178(4) 0.7407(6)
H5B H 0.8626 0.8269 0.7705
C15B C 0.8982(5) 0.8131(4) 0.6195(5)
C16B C 0.9798(6) 0.7871(4) 0.6551(5)
H6B H 1.0097 0.7774 0.6259
C17B C 0.9717(7) 0.7939(5) 0.7745(6)
H7B H 0.9980 0.7889 0.8272
C18B C 1.0103(7) 0.7776(5) 0.7263(6)
H8B H 1.0611 0.7589 0.7476
C19B C 0.8789(6) 0.7040(4) 0.4532(5)
H9B H 0.9312 0.7142 0.4904
C20B C 0.7610(6) 0.7264(4) 0.3475(6)
H10B H 0.7312 0.7504 0.3089
C21B C 0.8523(6) 0.6564(5) 0.4575(5)
H11B H 0.8868 0.6326 0.4943
C22B C 0.7249(6) 0.6781(4) 0.3494(5)
H12B H 0.6707 0.6704 0.3133
C23B C 0.7686(7) 0.6405(5) 0.4047(5)
C24B C 0.7351(7) 0.5919(4) 0.4059(6)
C25B C 0.7059(6) 0.5483(6) 0.4016(5)
C26B C 0.6708(6) 0.4976(4) 0.3924(5)
C27B C 0.7224(5) 0.4549(4) 0.4189(5)
H13B H 0.7806 0.4603 0.4436
C28B C 0.5856(5) 0.4909(4) 0.3580(4)
C29B C 0.5181(6) 0.5311(4) 0.3306(5)
H14B H 0.5396 0.5677 0.3400
C30B C 0.5538(5) 0.4393(4) 0.3475(5)
C31B C 0.6911(6) 0.4041(4) 0.4104(5)
H15B H 0.7280 0.3754 0.4286
C32B C 0.6065(6) 0.3957(4) 0.3755(5)
C33B C 0.5719(6) 0.3462(5) 0.3657(5)
C34B C 0.5406(6) 0.3034(5) 0.3597(6)
C35B C 0.4995(6) 0.2543(4) 0.3536(6)
C36B C 0.5362(7) 0.2111(5) 0.3898(8)
H16B H 0.5927 0.2128 0.4242
C37B C 0.4163(7) 0.2498(4) 0.3063(6)
H17B H 0.3864 0.2785 0.2770
C38B C 0.3774(7) 0.2015(5) 0.3031(6)
H18B H 0.3197 0.1990 0.2723
C39B C 0.4956(7) 0.1641(6) 0.3792(8)
H19B H 0.5266 0.1337 0.4014
C40B C 0.4581(6) 0.4371(5) 0.3056(5)
H20B H 0.4356 0.4008 0.2943
C41B C 0.4683(6) 0.5195(4) 0.2486(5)
C42B C 0.4390(5) 0.4698(4) 0.2372(5)
C43B C 0.4553(6) 0.5539(4) 0.1875(6)
H21B H 0.4771 0.5883 0.1963
C44B C 0.3944(7) 0.4522(5) 0.1630(6)
H22B H 0.3740 0.4174 0.1537
C45B C 0.4605(6) 0.5176(5) 0.3709(5)
C46B C 0.4267(7) 0.4669(5) 0.3560(6)
C47B C 0.4405(7) 0.5495(5) 0.4176(6)
H23B H 0.4612 0.5841 0.4290
C48B C 0.3766(6) 0.4483(6) 0.3908(6)
H24B H 0.3557 0.4137 0.3813
C49B C 0.4127(7) 0.5373(5) 0.1182(6)
H25B H 0.4036 0.5603 0.0774
C50B C 0.3808(6) 0.4865(6) 0.1038(6)
H26B H 0.3499 0.4755 0.0536
C51B C 0.3839(7) 0.5261(6) 0.4494(5)
H27B H 0.3665 0.5476 0.4802
C52B C 0.3572(7) 0.4792(6) 0.4382(7)
H28B H 0.3242 0.4660 0.4627
C53B C 0.9783(10) 0.7843(7) 0.3537(10)
C54B C 0.9026(9) 0.7991(6) 0.2898(7)
H29B H 0.8686 0.7715 0.2544
C55B C 1.0175(9) 0.8193(7) 0.4120(8)
H30B H 1.0612 0.8064 0.4602
C56B C 0.9837(6) 0.8722(5) 0.4083(6)
H31B H 1.0046 0.8942 0.4546
C57B C 0.9140(7) 0.8881(4) 0.3483(6)
C58B C 0.8680(6) 0.8500(4) 0.2873(5)
H32B H 0.8110 0.8584 0.2494
C59B C 1.0094(10) 0.7264(6) 0.3573(8)
H33B H 1.0515 0.7246 0.3363
H34B H 1.0336 0.7147 0.4095
H35B H 0.9624 0.7039 0.3281
C60B C 0.6096(13) 0.9494(8) 0.8856(11)
H36B H 0.5620 0.9706 0.8539
H37B H 0.5938 0.9277 0.9191
H38B H 0.6557 0.9723 0.9154
C61B C 0.8855(15) 0.9392(6) 0.3483(7)
H39B H 0.9312 0.9591 0.3419
C62B C 0.5622(7) 0.9557(6) 0.7021(8)
H40B H 0.5083 0.9384 0.6941
C63B C 0.5649(7) 0.9816(5) 0.6449(8)
H41B H 0.5136 0.9834 0.5974
C64B C 0.6433(7) 0.9960(4) 0.6433(9)
C65B C 0.7193(9) 0.9832(5) 0.7071(8)
H42B H 0.7735 0.9869 0.7022
C66B C 0.7173(7) 0.9547(5) 0.7715(7)
H43B H 0.7693 0.9397 0.8105
C67B C 0.6349(12) 0.9377(6) 0.7660(8)
C68B C 0.8906(9) 0.9618(5) 0.4211(6)
H44B H 0.9400 0.9482 0.4624
H45B H 0.8944 0.9999 0.4195
H46B H 0.8408 0.9522 0.4290
C69B C 0.8167(12) 0.9566(7) 0.2841(9)
H47B H 0.8195 0.9415 0.2390
H48B H 0.7650 0.9455 0.2878
H49B H 0.8178 0.9947 0.2813
C70B C 0.6499(11) 1.0195(6) 0.5713(12)
H50B H 0.6481 1.0577 0.5732
H51B H 0.7024 1.0085 0.5693
H52B H 0.6033 1.0070 0.5265
C71B C 0.6380(15) 0.9130(10) 0.8340(11)
H53B H 0.5879 0.8901 0.8122
C72B C 0.7045(12) 0.8711(8) 0.8768(10)
H54B H 0.7089 0.8457 0.8410
H55B H 0.7584 0.8882 0.9032
H56B H 0.6881 0.8532 0.9132
S1 S 0.1448(2) 0.70791(14) 0.61649(18)
F1 F 0.0283(5) 0.6430(4) 0.6062(4)
F2 F 0.0932(5) 0.6274(3) 0.5355(4)
F3 F 0.1553(5) 0.6116(3) 0.6517(5)
O5 O 0.2225(4) 0.7028(4) 0.6084(6)
O6 O 0.0813(5) 0.7376(4) 0.5577(5)
O7 O 0.1563(6) 0.7183(4) 0.6929(4)
C73 C 0.1005(6) 0.6415(5) 0.6017(5)
S2 S 0.7672(5) 0.6681(3) 0.8722(5)
F4 F 0.9012(10) 0.7091(8) 0.8871(10)
F5 F 0.7907(11) 0.7448(7) 0.8111(10)
F6 F 0.8248(19) 0.7550(11) 0.9333(15)
O8 O 0.6853(10) 0.6895(7) 0.8628(10)
O9 O 0.7711(12) 0.6315(7) 0.8150(10)
O10 O 0.8139(12) 0.6468(7) 0.9491(9)
C74 C 0.8272(14) 0.7259(8) 0.8771(14)
O11 O 0.6828(10) 0.6810(6) 0.5613(7)
C75 C 0.6161(9) 0.7165(6) 0.5094(9)
H57 H 0.6296 0.7285 0.4673
H58 H 0.6080 0.7472 0.5365
C76 C 0.5382(13) 0.6805(9) 0.4812(17)
H59 H 0.4902 0.6999 0.4463
H60 H 0.5268 0.6688 0.5241
H61 H 0.5485 0.6501 0.4556
C77 C 0.7644(11) 0.7057(7) 0.6038(15)
H62 H 0.7630 0.7283 0.6444
H63 H 0.7832 0.7264 0.5706
C78 C 0.8201(14) 0.6572(9) 0.6354(14)
H64 H 0.8782 0.6681 0.6609
H65 H 0.8146 0.6335 0.5942
H66 H 0.8028 0.6392 0.6712
O12 O -0.2547(12) 0.1029(9) 0.2964(14)
C79 C -0.3489(16) 0.1158(13) 0.2615(17)
H67 H -0.3609 0.1490 0.2332
H68 H -0.3727 0.1169 0.2998
C80 C -0.380(2) 0.0670(13) 0.208(2)
H69 H -0.4401 0.0701 0.1783
H70 H -0.3692 0.0351 0.2386
H71 H -0.3509 0.0653 0.1749
C81 C -0.2057(17) 0.129(2) 0.370(2)
H72 H -0.2188 0.1128 0.4106
H73 H -0.2188 0.1664 0.3678
C82 C -0.1135(12) 0.1203(9) 0.3857(11)
H74 H -0.0794 0.1458 0.4228
H75 H -0.1057 0.1249 0.3390
H76 H -0.0968 0.0850 0.4049
O13 O 0.3757(8) -0.0533(6) 0.6014(8)
H77 H 0.3515 -0.0686 0.5601
C83 C 0.3257(18) -0.0033(11) 0.6035(17)
H78 H 0.2761 -0.0133 0.6114
H79 H 0.3091 0.0155 0.5558
H80 H 0.3607 0.0194 0.6446
loop_
_geom_bond_atom_site_label_1
_geom_bond_atom_site_label_2
_geom_bond_site_symmetry_1
_geom_bond_site_symmetry_2
Ru1 O1 1_555 1_555
Ru2 O3 1_555 1_555
O1 C8 1_555 1_555
O2 Ru1 1_555 1_555
O3 C11 1_555 1_555
O4 Ru2 1_555 1_555
N1 Ru1 1_555 1_555
N2 C38 1_555 1_555
C1 O4 1_555 1_555
C2 C1 1_555 1_555
C3 C2 1_555 1_555
H1 C3 1_555 1_555
C4 C3 1_555 1_555
H2 C4 1_555 1_555
C5 C4 1_555 1_555
H3 C5 1_555 1_555
C6 C5 1_555 1_555
H4 C6 1_555 1_555
C7 C2 1_555 1_555
C8 C7 1_555 1_555
C9 C8 1_555 1_555
C10 C1 1_555 1_555
C11 C10 1_555 1_555
C12 O2 1_555 1_555
C13 C11 1_555 1_555
C14 C13 1_555 1_555
H5 C14 1_555 1_555
C15 C12 1_555 1_555
C16 C15 1_555 1_555
H6 C16 1_555 1_555
C17 C14 1_555 1_555
H7 C17 1_555 1_555
C18 C16 1_555 1_555
H8 C18 1_555 1_555
C19 N1 1_555 1_555
H9 C19 1_555 1_555
C20 N1 1_555 1_555
H10 C20 1_555 1_555
C21 C19 1_555 1_555
H11 C21 1_555 1_555
C22 C20 1_555 1_555
H12 C22 1_555 1_555
C23 C21 1_555 1_555
C24 C23 1_555 1_555
C25 C24 1_555 1_555
C26 C25 1_555 1_555
C27 C26 1_555 1_555
H13 C27 1_555 1_555
C28 C26 1_555 1_555
C29 C28 1_555 1_555
H14 C29 1_555 1_555
C30 C28 1_555 1_555
C31 C27 1_555 1_555
H15 C31 1_555 1_555
C32 C30 1_555 1_555
C33 C32 1_555 1_555
C34 C33 1_555 1_555
C35 C34 1_555 1_555
C36 C35 1_555 1_555
H16 C36 1_555 1_555
C37 C35 1_555 1_555
H17 C37 1_555 1_555
C38 C37 1_555 1_555
H18 C38 1_555 1_555
C39 N2 1_555 1_555
H19 C39 1_555 1_555
C40 C30 1_555 1_555
H20 C40 1_555 1_555
C41 C29 1_555 1_555
C42 C40 1_555 1_555
C43 C41 1_555 1_555
H21 C43 1_555 1_555
C44 C42 1_555 1_555
H22 C44 1_555 1_555
C45 C29 1_555 1_555
C46 C40 1_555 1_555
C47 C45 1_555 1_555
H23 C47 1_555 1_555
C48 C46 1_555 1_555
H24 C48 1_555 1_555
C49 C43 1_555 1_555
H25 C49 1_555 1_555
C50 C44 1_555 1_555
H26 C50 1_555 1_555
C51 C47 1_555 1_555
H27 C51 1_555 1_555
C52 C48 1_555 1_555
H28 C52 1_555 1_555
C53 Ru1 1_555 1_555
C54 Ru1 1_555 1_555
H29 C54 1_555 1_555
C55 Ru1 1_555 1_555
H30 C55 1_555 1_555
C56 Ru1 1_555 1_555
H31 C56 1_555 1_555
C57 Ru1 1_555 1_555
C58 Ru1 1_555 1_555
H32 C58 1_555 1_555
C59 C53 1_555 1_555
H33 C59 1_555 1_555
H34 C59 1_555 1_555
H35 C59 1_555 1_555
C60 H36 1_555 1_555
H37 C60 1_555 1_555
H38 C60 1_555 1_555
C61 C57 1_555 1_555
H39 C61 1_555 1_555
C62 Ru2 1_555 1_555
H40 C62 1_555 1_555
C63 Ru2 1_555 1_555
H41 C63 1_555 1_555
C64 Ru2 1_555 1_555
C65 Ru2 1_555 1_555
H42 C65 1_555 1_555
C66 Ru2 1_555 1_555
H43 C66 1_555 1_555
C67 Ru2 1_555 1_555
C68 C61 1_555 1_555
H44 C68 1_555 1_555
H45 C68 1_555 1_555
H46 C68 1_555 1_555
C69 C61 1_555 1_555
H47 C69 1_555 1_555
H48 C69 1_555 1_555
H49 C69 1_555 1_555
C70 C64 1_555 1_555
H50 C70 1_555 1_555
H51 C70 1_555 1_555
H52 C70 1_555 1_555
C71 C60 1_555 1_555
H53 C71 1_555 1_555
C72 C71 1_555 1_555
H54 C72 1_555 1_555
H55 C72 1_555 1_555
H56 C72 1_555 1_555
S1 O5 1_555 1_555
F1 C73 1_555 1_555
F2 C73 1_555 1_555
F3 C73 1_555 1_555
O6 S1 1_555 1_555
O7 S1 1_555 1_555
C73 S1 1_555 1_555
S2 O8 1_555 1_555
F4 C74 1_555 1_555
F5 C74 1_555 1_555
F6 C74 1_555 1_555
O9 S2 1_555 1_555
O10 S2 1_555 1_555
C74 S2 1_555 1_555
O11 C75 1_555 1_555
C75 H57 1_555 1_555
H58 C75 1_555 1_555
C76 C75 1_555 1_555
H59 C76 1_555 1_555
H60 C76 1_555 1_555
H61 C76 1_555 1_555
C77 O11 1_555 1_555
H62 C77 1_555 1_555
H63 C77 1_555 1_555
C78 C77 1_555 1_555
H64 C78 1_555 1_555
H65 C78 1_555 1_555
H66 C78 1_555 1_555
O12 C79 1_555 1_555
C79 H67 1_555 1_555
H68 C79 1_555 1_555
C80 C79 1_555 1_555
H69 C80 1_555 1_555
H70 C80 1_555 1_555
H71 C80 1_555 1_555
C81 O12 1_555 1_555
H72 C81 1_555 1_555
H73 C81 1_555 1_555
C82 C81 1_555 1_555
H74 C82 1_555 1_555
H75 C82 1_555 1_555
H76 C82 1_555 1_555
O13 H77 1_555 1_555
C83 O13 1_555 1_555
H78 C83 1_555 1_555
H79 C83 1_555 1_555
H80 C83 1_555 1_555
Ru1B O1B 1_555 1_555
Ru2B N2 1_555 1_555
O1B C8B 1_555 1_555
O2B Ru1B 1_555 1_555
O3B Ru2B 1_555 1_555
O4B Ru2B 1_555 1_555
N1B Ru1B 1_555 1_555
N2B Ru2 1_555 1_555
C1B O4B 1_555 1_555
C2B C1B 1_555 1_555
C3B C2B 1_555 1_555
H1B C3B 1_555 1_555
C4B C3B 1_555 1_555
H2B C4B 1_555 1_555
C5B C4B 1_555 1_555
H3B C5B 1_555 1_555
C6B C5B 1_555 1_555
H4B C6B 1_555 1_555
C7B C2B 1_555 1_555
C8B C7B 1_555 1_555
C9B C8B 1_555 1_555
C10B C1B 1_555 1_555
C11B O3B 1_555 1_555
C12B O2B 1_555 1_555
C13B C11B 1_555 1_555
C14B C13B 1_555 1_555
H5B C14B 1_555 1_555
C15B C12B 1_555 1_555
C16B C15B 1_555 1_555
H6B C16B 1_555 1_555
C17B C14B 1_555 1_555
H7B C17B 1_555 1_555
C18B C16B 1_555 1_555
H8B C18B 1_555 1_555
C19B N1B 1_555 1_555
H9B C19B 1_555 1_555
C20B N1B 1_555 1_555
H10B C20B 1_555 1_555
C21B C19B 1_555 1_555
H11B C21B 1_555 1_555
C22B C20B 1_555 1_555
H12B C22B 1_555 1_555
C23B C21B 1_555 1_555
C24B C23B 1_555 1_555
C25B C24B 1_555 1_555
C26B C25B 1_555 1_555
C27B C26B 1_555 1_555
H13B C27B 1_555 1_555
C28B C26B 1_555 1_555
C29B C28B 1_555 1_555
H14B C29B 1_555 1_555
C30B C28B 1_555 1_555
C31B C27B 1_555 1_555
H15B C31B 1_555 1_555
C32B C30B 1_555 1_555
C33B C32B 1_555 1_555
C34B C33B 1_555 1_555
C35B C34B 1_555 1_555
C36B C35B 1_555 1_555
H16B C36B 1_555 1_555
C37B C35B 1_555 1_555
H17B C37B 1_555 1_555
C38B N2B 1_555 1_555
H18B C38B 1_555 1_555
C39B N2B 1_555 1_555
H19B C39B 1_555 1_555
C40B C30B 1_555 1_555
H20B C40B 1_555 1_555
C41B C29B 1_555 1_555
C42B C40B 1_555 1_555
C43B C41B 1_555 1_555
H21B C43B 1_555 1_555
C44B C42B 1_555 1_555
H22B C44B 1_555 1_555
C45B C29B 1_555 1_555
C46B C40B 1_555 1_555
C47B C45B 1_555 1_555
H23B C47B 1_555 1_555
C48B C46B 1_555 1_555
H24B C48B 1_555 1_555
C49B C43B 1_555 1_555
H25B C49B 1_555 1_555
C50B C44B 1_555 1_555
H26B C50B 1_555 1_555
C51B C47B 1_555 1_555
H27B C51B 1_555 1_555
C52B C48B 1_555 1_555
H28B C52B 1_555 1_555
C53B Ru1B 1_555 1_555
C54B Ru1B 1_555 1_555
H29B C54B 1_555 1_555
C55B Ru1B 1_555 1_555
H30B C55B 1_555 1_555
C56B Ru1B 1_555 1_555
H31B C56B 1_555 1_555
C57B Ru1B 1_555 1_555
C58B Ru1B 1_555 1_555
H32B C58B 1_555 1_555
C59B C53B 1_555 1_555
H33B C59B 1_555 1_555
H34B C59B 1_555 1_555
H35B C59B 1_555 1_555
C60B H36B 1_555 1_555
H37B C60B 1_555 1_555
H38B C60B 1_555 1_555
C61B C57B 1_555 1_555
H39B C61B 1_555 1_555
C62B Ru2B 1_555 1_555
H40B C62B 1_555 1_555
C63B Ru2B 1_555 1_555
H41B C63B 1_555 1_555
C64B Ru2B 1_555 1_555
C65B Ru2B 1_555 1_555
H42B C65B 1_555 1_555
C66B Ru2B 1_555 1_555
H43B C66B 1_555 1_555
C67B Ru2B 1_555 1_555
C68B C61B 1_555 1_555
H44B C68B 1_555 1_555
H45B C68B 1_555 1_555
H46B C68B 1_555 1_555
C69B C61B 1_555 1_555
H47B C69B 1_555 1_555
H48B C69B 1_555 1_555
H49B C69B 1_555 1_555
C70B C64B 1_555 1_555
H50B C70B 1_555 1_555
H51B C70B 1_555 1_555
H52B C70B 1_555 1_555
C71B C60B 1_555 1_555
H53B C71B 1_555 1_555
C72B C71B 1_555 1_555
H54B C72B 1_555 1_555
H55B C72B 1_555 1_555
H56B C72B 1_555 1_555
C6 C7 1_555 1_555
C9 C10 1_555 1_555
C9 C12 1_555 1_555
C13 C15 1_555 1_555
C17 C18 1_555 1_555
C22 C23 1_555 1_555
C31 C32 1_555 1_555
C36 C39 1_555 1_555
C41 C42 1_555 1_555
C45 C46 1_555 1_555
C49 C50 1_555 1_555
C51 C52 1_555 1_555
C53 C54 1_555 1_555
C53 C55 1_555 1_555
C54 C58 1_555 1_555
C55 C56 1_555 1_555
C56 C57 1_555 1_555
C57 C58 1_555 1_555
C62 C63 1_555 1_555
C62 C67 1_555 1_555
C63 C64 1_555 1_555
C64 C65 1_555 1_555
C65 C66 1_555 1_555
C66 C67 1_555 1_555
C67 C71 1_555 1_555
C6B C7B 1_555 1_555
C9B C10B 1_555 1_555
C9B C12B 1_555 1_555
C10B C11B 1_555 1_555
C13B C15B 1_555 1_555
C17B C18B 1_555 1_555
C22B C23B 1_555 1_555
C31B C32B 1_555 1_555
C36B C39B 1_555 1_555
C37B C38B 1_555 1_555
C41B C42B 1_555 1_555
C45B C46B 1_555 1_555
C49B C50B 1_555 1_555
C51B C52B 1_555 1_555
C53B C54B 1_555 1_555
C53B C55B 1_555 1_555
C54B C58B 1_555 1_555
C55B C56B 1_555 1_555
C56B C57B 1_555 1_555
C57B C58B 1_555 1_555
C62B C63B 1_555 1_555
C62B C67B 1_555 1_555
C63B C64B 1_555 1_555
C64B C65B 1_555 1_555
C65B C66B 1_555 1_555
C66B C67B 1_555 1_555
C67B C71B 1_555 1_555

#END
