
#######################################################################
#
#                 Cambridge Crystallographic Data Centre
#                                CCDC 
#
#######################################################################
#
# If this CIF has been generated from an entry in the Cambridge 
# Structural Database, then it will include bibliographic, chemical, 
# crystal, experimental, refinement or atomic coordinate data resulting 
# from the CCDC's data processing and validation procedures.
#
#######################################################################

data_FUNCUN
_chemical_formula_moiety         
'C90 H120 N30 Pd6 12+,2(C16 H8 O2),12(N1 O3 1-),27(H2 O1)'
_chemical_name_systematic        
"bis(\m~3~-2,4,6-tris(pyridin-4-yl)-1,3,5-triazine)-tris(\m~2~-2,2',6,6'-tetramethyl-4,4'-bipyridine)-hexakis(1,2-diaminoethane)-hexa-palladium(ii) bis(pyrene-4,5-dione) dodecanitrate heptacosahydrate"
_symmetry_cell_setting           monoclinic
_symmetry_space_group_name_H-M   'P 21/c'
_symmetry_Int_Tables_number      14
_space_group_name_Hall           '-P 2ybc'
loop_
_symmetry_equiv_pos_site_id
_symmetry_equiv_pos_as_xyz
1 x,y,z
2 -x,1/2+y,1/2-z
3 -x,-y,-z
4 x,1/2-y,1/2+z
_cell_length_a                   19.336(20)
_cell_length_b                   37.32(3)
_cell_length_c                   27.17(3)
_cell_angle_alpha                90
_cell_angle_beta                 100.48(4)
_cell_angle_gamma                90
_cell_volume                     19279.3
_exptl_crystal_colour            orange
_exptl_crystal_description       plate
_cell_formula_units_Z            4
loop_
_atom_site_label
_atom_site_type_symbol
_atom_site_fract_x
_atom_site_fract_y
_atom_site_fract_z
Pd1 Pd 1.14561(9) 0.19750(5) 1.03338(7)
Pd2 Pd 0.47782(14) 0.10245(7) 0.92425(8)
Pd3 Pd 0.66278(9) 0.44268(3) 0.94698(6)
Pd4 Pd 1.08640(8) 0.11634(4) 0.63601(7)
Pd5 Pd 0.40792(8) 0.17072(4) 0.52110(6)
Pd6 Pd 0.85241(13) 0.44462(5) 0.58627(7)
N1 N 1.1512(9) 0.2174(5) 1.1015(6)
H1 H 1.1519 0.2420 1.1001
H2 H 1.1119 0.2106 1.1139
N2 N 1.2477(9) 0.1880(5) 1.0594(7)
H3 H 1.2550 0.1639 1.0645
H4 H 1.2741 0.1956 1.0365
C1 C 1.2155(12) 0.2045(8) 1.1359(10)
H5 H 1.2261 0.2197 1.1662
H6 H 1.2098 0.1794 1.1461
C2 C 1.2691(12) 0.2074(6) 1.1067(9)
H7 H 1.3135 0.1972 1.1254
H8 H 1.2774 0.2329 1.0999
N3 N 0.5078(19) 0.0832(10) 0.9968(8)
H9 H 0.5487 0.0701 0.9995
H10 H 0.5153 0.1019 1.0192
N4 N 0.4087(11) 0.0603(6) 0.9190(7)
H11 H 0.3676 0.0678 0.9281
H12 H 0.3983 0.0526 0.8863
C3 C 0.452(2) 0.0608(12) 1.0070(10)
H13 H 0.4078 0.0748 1.0061
H14 H 0.4642 0.0491 1.0401
C4 C 0.4412(14) 0.0270(8) 0.9548(9)
H15 H 0.4860 0.0174 0.9476
H16 H 0.4072 0.0076 0.9576
N5 N 0.6196(9) 0.4393(4) 1.0114(6)
H17 H 0.5756 0.4292 1.0042
H18 H 0.6475 0.4252 1.0349
N6 N 0.6366(8) 0.4952(3) 0.9497(5)
H19 H 0.6768 0.5086 0.9588
H20 H 0.6147 0.5026 0.9184
C5 C 0.6153(11) 0.4742(4) 1.0302(7)
H21 H 0.6621 0.4818 1.0483
H22 H 0.5822 0.4745 1.0540
C6 C 0.5892(11) 0.5013(5) 0.9860(8)
H23 H 0.5397 0.4963 0.9704
H24 H 0.5927 0.5263 0.9982
N7 N 1.0773(9) 0.1060(5) 0.5621(7)
H25 H 1.0308 0.1020 0.5487
H26 H 1.0917 0.1258 0.5465
N8 N 1.1629(8) 0.0787(4) 0.6422(6)
H27 H 1.1996 0.0850 0.6672
H28 H 1.1456 0.0570 0.6504
C7 C 1.1164(13) 0.0767(6) 0.5522(9)
H29 H 1.1296 0.0791 0.5188
H30 H 1.0889 0.0544 0.5529
C8 C 1.1869(14) 0.0758(6) 0.5960(9)
H31 H 1.2130 0.0531 0.5946
H32 H 1.2185 0.0961 0.5919
N9 N 0.3957(8) 0.1860(5) 0.4491(6)
H33 H 0.3952 0.2107 0.4472
H34 H 0.4328 0.1778 0.4354
N10 N 0.3091(8) 0.1538(4) 0.5005(6)
H35 H 0.3085 0.1293 0.4968
H36 H 0.2836 0.1595 0.5249
C9 C 0.3284(12) 0.1714(8) 0.4203(9)
H37 H 0.3113 0.1868 0.3909
H38 H 0.3360 0.1470 0.4082
C10 C 0.2771(11) 0.1706(8) 0.4534(8)
H39 H 0.2351 0.1568 0.4376
H40 H 0.2620 0.1952 0.4596
N11 N 0.9022(18) 0.4362(7) 0.5246(10)
H41 H 0.9456 0.4256 0.5340
H42 H 0.8751 0.4224 0.5004
N12 N 0.8838(12) 0.4961(4) 0.5827(7)
H43 H 0.8460 0.5112 0.5819
H44 H 0.9168 0.5015 0.6106
C11 C 0.909(2) 0.4764(8) 0.5062(11)
H45 H 0.9495 0.4772 0.4888
H46 H 0.8664 0.4814 0.4807
C12 C 0.915(2) 0.5012(9) 0.5356(13)
H47 H 0.8936 0.5227 0.5178
H48 H 0.9662 0.5062 0.5460
N13 N 1.0411(8) 0.2097(4) 1.0132(6)
N14 N 0.5454(9) 0.1453(5) 0.9336(6)
N15 N 0.6906(7) 0.2553(3) 0.9487(4)
N16 N 0.6865(11) 0.3893(4) 0.9466(7)
N17 N 0.8106(7) 0.2717(3) 0.9707(4)
N18 N 0.7788(7) 0.2102(3) 0.9662(4)
C13 C 1.0197(13) 0.2432(5) 1.0135(8)
H49 H 1.0534 0.2614 1.0242
C14 C 0.9512(10) 0.2526(5) 0.9990(8)
H50 H 0.9384 0.2772 0.9975
C15 C 0.9004(10) 0.2270(5) 0.9866(6)
C16 C 0.9232(10) 0.1914(4) 0.9872(7)
H51 H 0.8906 0.1724 0.9780
C17 C 0.9929(10) 0.1844(5) 1.0013(7)
H52 H 1.0079 0.1601 1.0028
C18 C 0.6155(14) 0.1336(5) 0.9478(8)
H53 H 0.6263 0.1088 0.9514
C19 C 0.6681(11) 0.1589(4) 0.9562(6)
H54 H 0.7152 0.1518 0.9687
C20 C 0.6527(11) 0.1936(4) 0.9468(6)
C21 C 0.5848(10) 0.2029(4) 0.9322(6)
H55 H 0.5718 0.2274 0.9280
C22 C 0.5367(12) 0.1778(7) 0.9238(8)
H56 H 0.4907 0.1851 0.9087
C23 C 0.6399(11) 0.3644(4) 0.9382(7)
H57 H 0.5919 0.3714 0.9302
C24 C 0.6543(9) 0.3295(5) 0.9398(7)
H58 H 0.6173 0.3126 0.9310
C25 C 0.7232(9) 0.3174(4) 0.9543(6)
C26 C 0.7781(12) 0.3454(5) 0.9659(8)
H59 H 0.8265 0.3396 0.9762
C27 C 0.7553(15) 0.3792(5) 0.9607(8)
H60 H 0.7895 0.3977 0.9674
C28 C 0.8262(9) 0.2360(4) 0.9732(5)
C29 C 0.7131(8) 0.2209(4) 0.9533(5)
C30 C 0.7451(10) 0.2783(4) 0.9583(6)
N19 N 1.0044(8) 0.1518(5) 0.6259(7)
N20 N 0.5069(7) 0.1903(3) 0.5344(6)
N21 N 0.8366(12) 0.3889(5) 0.5889(6)
N22 N 0.7218(8) 0.2678(3) 0.5741(4)
N23 N 0.8442(8) 0.2590(4) 0.5977(5)
N24 N 0.7654(8) 0.2085(4) 0.5833(5)
C31 C 1.0069(13) 0.1900(6) 0.6318(7)
H61 H 1.0527 0.1997 0.6417
C32 C 0.9594(10) 0.2120(5) 0.6261(9)
H62 H 0.9669 0.2366 0.6344
C33 C 0.8927(9) 0.1979(5) 0.6064(6)
C34 C 0.8840(10) 0.1620(5) 0.5959(7)
H63 H 0.8402 0.1528 0.5792
C35 C 0.9404(10) 0.1401(6) 0.6103(8)
H64 H 0.9328 0.1150 0.6089
C36 C 0.5632(9) 0.1695(5) 0.5500(7)
H65 H 0.5552 0.1445 0.5525
C37 C 0.6320(10) 0.1814(4) 0.5627(6)
H66 H 0.6696 0.1651 0.5729
C38 C 0.6437(9) 0.2176(4) 0.5601(6)
C39 C 0.5851(10) 0.2405(5) 0.5440(7)
H67 H 0.5916 0.2657 0.5419
C40 C 0.5194(11) 0.2260(4) 0.5315(8)
H68 H 0.4809 0.2415 0.5203
C41 C 0.7662(16) 0.3794(5) 0.5791(7)
H69 H 0.7296 0.3966 0.5716
C42 C 0.7523(11) 0.3412(6) 0.5809(6)
H70 H 0.7051 0.3331 0.5773
C43 C 0.8037(10) 0.3176(4) 0.5876(6)
C44 C 0.8688(10) 0.3327(6) 0.5943(8)
H71 H 0.9084 0.3172 0.6012
C45 C 0.8805(14) 0.3669(6) 0.5920(10)
H72 H 0.9276 0.3746 0.5929
N25 N 1.1497(8) 0.1800(5) 0.9634(6)
N26 N 1.1063(7) 0.1270(3) 0.7118(6)
C46 C 1.1340(10) 0.1169(5) 0.9946(7)
H73 H 1.1250 0.0929 0.9802
H74 H 1.0961 0.1234 1.0124
H75 H 1.1790 0.1169 1.0180
C47 C 1.1369(10) 0.1446(7) 0.9515(11)
C48 C 1.1353(10) 0.1318(5) 0.9002(9)
H76 H 1.1316 0.1069 0.8931
C49 C 1.1392(9) 0.1549(5) 0.8640(9)
C50 C 1.1523(9) 0.1914(5) 0.8779(10)
H77 H 1.1582 0.2084 0.8530
C51 C 1.1568(11) 0.2031(6) 0.9295(11)
C52 C 1.1670(12) 0.2381(6) 0.9404(8)
H78 H 1.1747 0.2510 0.9104
H79 H 1.2082 0.2409 0.9670
H80 H 1.1254 0.2478 0.9516
C53 C 1.2054(9) 0.1650(6) 0.6955(8)
H81 H 1.2415 0.1804 0.7148
H82 H 1.1760 0.1792 0.6694
H83 H 1.2280 0.1456 0.6799
C54 C 1.1589(9) 0.1487(5) 0.7308(9)
C55 C 1.1683(9) 0.1592(5) 0.7799(8)
H84 H 1.2024 0.1770 0.7920
C56 C 1.1299(10) 0.1447(5) 0.8106(9)
C57 C 1.0784(8) 0.1192(4) 0.7897(8)
H85 H 1.0506 0.1079 0.8106
C58 C 1.0680(10) 0.1107(5) 0.7397(9)
C59 C 1.0102(11) 0.0868(5) 0.7161(9)
H86 H 0.9865 0.0767 0.7419
H87 H 1.0295 0.0673 0.6985
H88 H 0.9764 0.1006 0.6921
C60 C 0.8322(12) 0.2224(5) 0.5958(6)
C61 C 0.7125(9) 0.2320(4) 0.5742(5)
C62 C 0.7887(10) 0.2786(4) 0.5872(6)
N27 N 0.4608(12) 0.1094(5) 0.8474(7)
N28 N 0.4163(7) 0.1556(3) 0.5944(5)
C63 C 0.3529(12) 0.1477(8) 0.8641(8)
H89 H 0.3195 0.1651 0.8463
H90 H 0.3805 0.1589 0.8939
H91 H 0.3270 0.1272 0.8741
C64 C 0.4016(14) 0.1350(8) 0.8300(12)
C65 C 0.3937(10) 0.1435(5) 0.7772(7)
H92 H 0.3565 0.1589 0.7625
C66 C 0.4355(10) 0.1307(5) 0.7495(7)
C67 C 0.4903(10) 0.1025(5) 0.7709(9)
H93 H 0.5140 0.0894 0.7490
C68 C 0.5040(15) 0.0967(6) 0.8168(11)
C69 C 0.5514(12) 0.0732(5) 0.8462(9)
H94 H 0.5826 0.0625 0.8255
H95 H 0.5251 0.0542 0.8595
H96 H 0.5795 0.0865 0.8739
C70 C 0.4425(12) 0.0928(5) 0.5717(8)
H97 H 0.4522 0.0695 0.5882
H98 H 0.4825 0.0998 0.5562
H99 H 0.4001 0.0911 0.5459
C71 C 0.4312(11) 0.1215(5) 0.6112(9)
C72 C 0.4394(10) 0.1121(5) 0.6589(8)
H100 H 0.4543 0.0885 0.6689
C73 C 0.4256(10) 0.1373(5) 0.6953(8)
C74 C 0.4065(8) 0.1731(4) 0.6788(7)
H101 H 0.3968 0.1911 0.7014
C75 C 0.4030(9) 0.1798(5) 0.6295(9)
C76 C 0.3898(11) 0.2200(5) 0.6094(8)
H102 H 0.3791 0.2353 0.6364
H103 H 0.3502 0.2203 0.5812
H104 H 0.4321 0.2289 0.5983
N29 N 0.6974(8) 0.4501(3) 0.8811(6)
N30 N 0.8188(10) 0.4514(4) 0.6536(6)
C77 C 0.8103(10) 0.4718(5) 0.9284(7)
H105 H 0.8564 0.4786 0.9212
H106 H 0.8159 0.4518 0.9521
H107 H 0.7896 0.4923 0.9430
C78 C 0.7638(13) 0.4610(4) 0.8815(8)
C79 C 0.7901(11) 0.4635(4) 0.8357(9)
H108 H 0.8372 0.4709 0.8362
C80 C 0.7473(11) 0.4552(4) 0.7908(8)
C81 C 0.6779(11) 0.4453(4) 0.7951(7)
H109 H 0.6454 0.4411 0.7649
C82 C 0.6547(11) 0.4414(4) 0.8382(8)
C83 C 0.5823(10) 0.4297(4) 0.8395(9)
H110 H 0.5581 0.4241 0.8054
H111 H 0.5571 0.4489 0.8534
H112 H 0.5835 0.4083 0.8605
C84 C 0.7096(11) 0.4762(5) 0.6057(7)
H113 H 0.7358 0.4727 0.5784
H114 H 0.6980 0.5016 0.6080
H115 H 0.6661 0.4621 0.5990
C85 C 0.7549(10) 0.4639(4) 0.6554(8)
C86 C 0.7304(10) 0.4666(4) 0.6998(8)
H116 H 0.6848 0.4761 0.7000
C87 C 0.7721(10) 0.4556(4) 0.7442(8)
C88 C 0.8419(10) 0.4458(4) 0.7412(6)
H117 H 0.8742 0.4414 0.7714
C89 C 0.8645(11) 0.4423(4) 0.6974(7)
C90 C 0.9337(9) 0.4306(5) 0.6902(8)
H118 H 0.9626 0.4247 0.7227
H119 H 0.9564 0.4498 0.6744
H120 H 0.9289 0.4093 0.6687
O1 O 0.6925(11) 0.3658(3) 0.6859(5)
O2 O 0.5728(9) 0.3259(5) 0.6663(5)
C91 C 0.7032(7) 0.2552(3) 0.6951(3)
C92 C 0.6361(7) 0.2709(4) 0.6799(3)
C93 C 0.7085(7) 0.2173(3) 0.6970(3)
C94 C 0.7662(7) 0.2766(3) 0.7089(3)
C95 C 0.7632(8) 0.3145(3) 0.7076(3)
C96 C 0.8314(6) 0.2594(4) 0.7236(3)
C97 C 0.6291(8) 0.3106(4) 0.6776(4)
C98 C 0.6964(9) 0.3331(3) 0.6908(4)
C99 C 0.5769(7) 0.2500(5) 0.6664(4)
C100 C 0.5825(8) 0.2126(5) 0.6682(5)
C101 C 0.6466(8) 0.1965(4) 0.6835(4)
C102 C 0.8238(9) 0.3343(4) 0.7217(4)
C103 C 0.8887(8) 0.3173(4) 0.7366(5)
C104 C 0.8928(7) 0.2806(4) 0.7371(4)
C105 C 0.7762(8) 0.2013(3) 0.7116(3)
C106 C 0.8353(7) 0.2212(4) 0.7239(4)
N31 N 0.1989(12) 0.4464(6) 0.3262(10)
O3 O 0.2725(11) 0.4274(5) 0.3262(7)
O4 O 0.1668(13) 0.4553(6) 0.2882(9)
O5 O 0.1996(12) 0.4428(6) 0.3719(9)
N32 N 0.2522(19) 0.4375(10) 0.9834(13)
O6 O 0.2356(11) 0.4706(6) 0.9837(7)
O7 O 0.2163(14) 0.4146(7) 0.9532(10)
O8 O 0.3036(15) 0.4255(7) 1.0150(10)
N33 N 0.3757(12) 0.4716(5) 0.1680(8)
O9 O 0.4325(9) 0.4829(4) 0.1508(6)
O10 O 0.4017(13) 0.4669(6) 0.2143(10)
O11 O 0.3222(10) 0.4650(4) 0.1435(6)
N34 N 0.1829(17) 0.3087(9) 0.0607(10)
O12 O 0.1280(10) 0.3012(5) 0.0773(7)
O13 O 0.2251(13) 0.2859(6) 0.0506(8)
O14 O 0.1932(17) 0.3404(9) 0.0530(11)
N35 N 0.4552(14) 0.0872(7) 0.4378(9)
O15 O 0.4898(12) 0.1099(6) 0.4579(8)
O16 O 0.4716(10) 0.0559(5) 0.4371(7)
O17 O 0.408(2) 0.0951(10) 0.4006(15)
N36 N 0.355(2) 0.2236(10) 0.9720(15)
O18 O 0.3485(14) 0.2323(7) 1.0102(10)
O19 O 0.343(2) 0.1884(13) 0.9798(17)
O20 O 0.3913(14) 0.2356(7) 0.9434(10)
O21 O 0.638(2) 0.4690(11) 0.4720(15)
O22 O 0.933(2) 0.4128(9) 0.0025(13)
O23 O 0.9498(12) 0.9820(6) 0.1913(8)
O24 O 0.5047(15) 0.2896(7) 0.8849(10)
O25 O 0.4409(14) 0.2339(7) 0.8449(9)
O26 O 0.1001(15) 0.2406(7) 0.7227(10)
O27 O 0.599(3) 0.4017(12) 0.5900(17)
O28 O 0.453(3) 0.1364(17) 0.052(2)
O29 O 0.0639(8) 0.4817(4) 0.1359(5)
O30 O 0.835(2) 0.4303(11) 0.0527(16)
O31 O 0.017(2) 0.3626(10) 0.7801(14)
O32 O 0.2775(8) 0.4181(4) 0.2213(5)
O33 O 0.992(2) 0.5072(10) 0.0396(14)
O34 O 0.315(2) 0.3641(11) 0.4948(15)
O35 O 0.072(3) 0.3331(13) 0.9506(19)
O36 O 0.9875(17) 0.4188(8) 0.8354(11)
O37 O 0.4170(14) 0.0200(7) 0.8182(9)
O38 O 0.071(3) 0.3578(13) 0.6941(18)
O39 O 0.0323(12) 0.2935(6) 0.6582(8)
O40 O 0.4771(19) 0.9820(9) 0.8665(13)
O41 O 0.043(2) 0.4035(10) 0.5922(14)
O42 O 0.967(3) 0.1036(13) 0.9280(17)
O43 O 0.383(2) 0.2182(10) 0.2147(14)
O44 O 0.8280(18) 0.1125(8) 0.9462(12)
O45 O 0.6199(17) 0.0951(8) 0.6177(11)
O46 O 0.7795(16) 0.5228(8) 0.5099(10)
O47 O 0.5674(18) 0.3343(9) 0.5509(12)
O48 O 0.376(2) 0.0315(11) 0.3478(16)
O49 O 1.281(2) 0.1157(10) 1.1114(14)
O50 O -0.059(4) 0.3445(18) 0.981(2)
O51 O 0.132(2) 0.4925(11) 0.9308(15)
loop_
_geom_bond_atom_site_label_1
_geom_bond_atom_site_label_2
_geom_bond_site_symmetry_1
_geom_bond_site_symmetry_2
Pd1 N1 1_555 1_555
Pd2 N3 1_555 1_555
Pd3 N5 1_555 1_555
Pd4 N7 1_555 1_555
Pd5 N9 1_555 1_555
Pd6 N11 1_555 1_555
N1 H1 1_555 1_555
H2 N1 1_555 1_555
N2 Pd1 1_555 1_555
H3 N2 1_555 1_555
H4 N2 1_555 1_555
C1 N1 1_555 1_555
H5 C1 1_555 1_555
H6 C1 1_555 1_555
C2 N2 1_555 1_555
H7 C2 1_555 1_555
H8 C2 1_555 1_555
N3 H9 1_555 1_555
H10 N3 1_555 1_555
N4 Pd2 1_555 1_555
H11 N4 1_555 1_555
H12 N4 1_555 1_555
C3 N3 1_555 1_555
H13 C3 1_555 1_555
H14 C3 1_555 1_555
C4 N4 1_555 1_555
H15 C4 1_555 1_555
H16 C4 1_555 1_555
N5 H17 1_555 1_555
H18 N5 1_555 1_555
N6 Pd3 1_555 1_555
H19 N6 1_555 1_555
H20 N6 1_555 1_555
C5 N5 1_555 1_555
H21 C5 1_555 1_555
H22 C5 1_555 1_555
C6 N6 1_555 1_555
H23 C6 1_555 1_555
H24 C6 1_555 1_555
N7 H25 1_555 1_555
H26 N7 1_555 1_555
N8 Pd4 1_555 1_555
H27 N8 1_555 1_555
H28 N8 1_555 1_555
C7 N7 1_555 1_555
H29 C7 1_555 1_555
H30 C7 1_555 1_555
C8 N8 1_555 1_555
H31 C8 1_555 1_555
H32 C8 1_555 1_555
N9 H33 1_555 1_555
H34 N9 1_555 1_555
N10 Pd5 1_555 1_555
H35 N10 1_555 1_555
H36 N10 1_555 1_555
C9 N9 1_555 1_555
H37 C9 1_555 1_555
H38 C9 1_555 1_555
C10 N10 1_555 1_555
H39 C10 1_555 1_555
H40 C10 1_555 1_555
N11 H41 1_555 1_555
H42 N11 1_555 1_555
N12 Pd6 1_555 1_555
H43 N12 1_555 1_555
H44 N12 1_555 1_555
C11 N11 1_555 1_555
H45 C11 1_555 1_555
H46 C11 1_555 1_555
C12 N12 1_555 1_555
H47 C12 1_555 1_555
H48 C12 1_555 1_555
N13 Pd1 1_555 1_555
N14 Pd2 1_555 1_555
N15 C29 1_555 1_555
N16 Pd3 1_555 1_555
N17 C28 1_555 1_555
N18 C28 1_555 1_555
C13 N13 1_555 1_555
H49 C13 1_555 1_555
C14 C13 1_555 1_555
H50 C14 1_555 1_555
C15 C14 1_555 1_555
C16 C15 1_555 1_555
H51 C16 1_555 1_555
C17 N13 1_555 1_555
H52 C17 1_555 1_555
C18 N14 1_555 1_555
H53 C18 1_555 1_555
C19 C18 1_555 1_555
H54 C19 1_555 1_555
C20 C19 1_555 1_555
C21 C20 1_555 1_555
H55 C21 1_555 1_555
C22 N14 1_555 1_555
H56 C22 1_555 1_555
C23 N16 1_555 1_555
H57 C23 1_555 1_555
C24 C23 1_555 1_555
H58 C24 1_555 1_555
C25 C24 1_555 1_555
C26 C25 1_555 1_555
H59 C26 1_555 1_555
C27 N16 1_555 1_555
H60 C27 1_555 1_555
C28 C15 1_555 1_555
C29 N18 1_555 1_555
C30 N15 1_555 1_555
N19 Pd4 1_555 1_555
N20 Pd5 1_555 1_555
N21 Pd6 1_555 1_555
N22 C61 1_555 1_555
N23 C60 1_555 1_555
N24 C60 1_555 1_555
C31 N19 1_555 1_555
H61 C31 1_555 1_555
C32 C31 1_555 1_555
H62 C32 1_555 1_555
C33 C32 1_555 1_555
C34 C33 1_555 1_555
H63 C34 1_555 1_555
C35 N19 1_555 1_555
H64 C35 1_555 1_555
C36 N20 1_555 1_555
H65 C36 1_555 1_555
C37 C36 1_555 1_555
H66 C37 1_555 1_555
C38 C37 1_555 1_555
C39 C38 1_555 1_555
H67 C39 1_555 1_555
C40 N20 1_555 1_555
H68 C40 1_555 1_555
C41 N21 1_555 1_555
H69 C41 1_555 1_555
C42 C41 1_555 1_555
H70 C42 1_555 1_555
C43 C42 1_555 1_555
C44 C43 1_555 1_555
H71 C44 1_555 1_555
C45 N21 1_555 1_555
H72 C45 1_555 1_555
N25 Pd1 1_555 1_555
N26 Pd4 1_555 1_555
C46 H73 1_555 1_555
H74 C46 1_555 1_555
H75 C46 1_555 1_555
C47 N25 1_555 1_555
C48 C47 1_555 1_555
H76 C48 1_555 1_555
C49 C48 1_555 1_555
C50 C49 1_555 1_555
H77 C50 1_555 1_555
C51 N25 1_555 1_555
C52 C51 1_555 1_555
H78 C52 1_555 1_555
H79 C52 1_555 1_555
H80 C52 1_555 1_555
C53 H81 1_555 1_555
H82 C53 1_555 1_555
H83 C53 1_555 1_555
C54 N26 1_555 1_555
C55 C54 1_555 1_555
H84 C55 1_555 1_555
C56 C49 1_555 1_555
C57 C56 1_555 1_555
H85 C57 1_555 1_555
C58 N26 1_555 1_555
C59 C58 1_555 1_555
H86 C59 1_555 1_555
H87 C59 1_555 1_555
H88 C59 1_555 1_555
C60 C33 1_555 1_555
C61 N24 1_555 1_555
C62 N22 1_555 1_555
N27 Pd2 1_555 1_555
N28 Pd5 1_555 1_555
C63 H89 1_555 1_555
H90 C63 1_555 1_555
H91 C63 1_555 1_555
C64 N27 1_555 1_555
C65 C64 1_555 1_555
H92 C65 1_555 1_555
C66 C65 1_555 1_555
C67 C66 1_555 1_555
H93 C67 1_555 1_555
C68 N27 1_555 1_555
C69 C68 1_555 1_555
H94 C69 1_555 1_555
H95 C69 1_555 1_555
H96 C69 1_555 1_555
C70 H97 1_555 1_555
H98 C70 1_555 1_555
H99 C70 1_555 1_555
C71 N28 1_555 1_555
C72 C71 1_555 1_555
H100 C72 1_555 1_555
C73 C66 1_555 1_555
C74 C73 1_555 1_555
H101 C74 1_555 1_555
C75 N28 1_555 1_555
C76 C75 1_555 1_555
H102 C76 1_555 1_555
H103 C76 1_555 1_555
H104 C76 1_555 1_555
N29 Pd3 1_555 1_555
N30 Pd6 1_555 1_555
C77 H105 1_555 1_555
H106 C77 1_555 1_555
H107 C77 1_555 1_555
C78 N29 1_555 1_555
C79 C78 1_555 1_555
H108 C79 1_555 1_555
C80 C79 1_555 1_555
C81 C80 1_555 1_555
H109 C81 1_555 1_555
C82 N29 1_555 1_555
C83 C82 1_555 1_555
H110 C83 1_555 1_555
H111 C83 1_555 1_555
H112 C83 1_555 1_555
C84 H113 1_555 1_555
H114 C84 1_555 1_555
H115 C84 1_555 1_555
C85 N30 1_555 1_555
C86 C85 1_555 1_555
H116 C86 1_555 1_555
C87 C80 1_555 1_555
C88 C87 1_555 1_555
H117 C88 1_555 1_555
C89 N30 1_555 1_555
C90 C89 1_555 1_555
H118 C90 1_555 1_555
H119 C90 1_555 1_555
H120 C90 1_555 1_555
O1 C98 1_555 1_555
O2 C97 1_555 1_555
C91 C92 1_555 1_555
C92 C97 1_555 1_555
C93 C91 1_555 1_555
C94 C91 1_555 1_555
C95 C94 1_555 1_555
C96 C94 1_555 1_555
C97 C98 1_555 1_555
C98 C95 1_555 1_555
C99 C92 1_555 1_555
C100 C99 1_555 1_555
C101 C93 1_555 1_555
C102 C95 1_555 1_555
C103 C102 1_555 1_555
C104 C96 1_555 1_555
C105 C93 1_555 1_555
C106 C96 1_555 1_555
N31 O3 1_555 1_555
O4 N31 1_555 1_555
O5 N31 1_555 1_555
N32 O6 1_555 1_555
O7 N32 1_555 1_555
O8 N32 1_555 1_555
N33 O9 1_555 1_555
O10 N33 1_555 1_555
O11 N33 1_555 1_555
N34 O12 1_555 1_555
O13 N34 1_555 1_555
O14 N34 1_555 1_555
N35 O15 1_555 1_555
O16 N35 1_555 1_555
O17 N35 1_555 1_555
N36 O18 1_555 1_555
O19 N36 1_555 1_555
O20 N36 1_555 1_555
C1 C2 1_555 1_555
C3 C4 1_555 1_555
C5 C6 1_555 1_555
C7 C8 1_555 1_555
C9 C10 1_555 1_555
C11 C12 1_555 1_555
N17 C30 1_555 1_555
C16 C17 1_555 1_555
C20 C29 1_555 1_555
C21 C22 1_555 1_555
C25 C30 1_555 1_555
C26 C27 1_555 1_555
N23 C62 1_555 1_555
C34 C35 1_555 1_555
C38 C61 1_555 1_555
C39 C40 1_555 1_555
C43 C62 1_555 1_555
C44 C45 1_555 1_555
C46 C47 1_555 1_555
C50 C51 1_555 1_555
C53 C54 1_555 1_555
C55 C56 1_555 1_555
C57 C58 1_555 1_555
C63 C64 1_555 1_555
C67 C68 1_555 1_555
C70 C71 1_555 1_555
C72 C73 1_555 1_555
C74 C75 1_555 1_555
C77 C78 1_555 1_555
C81 C82 1_555 1_555
C84 C85 1_555 1_555
C86 C87 1_555 1_555
C88 C89 1_555 1_555
C100 C101 1_555 1_555
C103 C104 1_555 1_555
C105 C106 1_555 1_555

#END
