# generated using pymatgen
data_H120Pd6C187(N18O35)2
_symmetry_space_group_name_H-M   'P 1'
_cell_length_a   19.33600000
_cell_length_b   27.17000000
_cell_length_c   37.32000000
_cell_angle_alpha   90.00000000
_cell_angle_beta   90.00000000
_cell_angle_gamma   100.48000000
_symmetry_Int_Tables_number   1
_chemical_formula_structural   H120Pd6C187(N18O35)2
_chemical_formula_sum   'H480 Pd24 C748 N144 O280'
_cell_volume   19279.33737042
_cell_formula_units_Z   4
loop_
 _symmetry_equiv_pos_site_id
 _symmetry_equiv_pos_as_xyz
  1  'x, y, z'
loop_
 _atom_site_type_symbol
 _atom_site_label
 _atom_site_symmetry_multiplicity
 _atom_site_fract_x
 _atom_site_fract_y
 _atom_site_fract_z
 _atom_site_occupancy
  H  H1  1  0.848100  0.899900  0.758000  1
  H  H2  1  0.151900  0.600100  0.258000  1
  H  H3  1  0.151900  0.100100  0.242000  1
  H  H4  1  0.848100  0.399900  0.742000  1
  H  H5  1  0.888100  0.886100  0.789400  1
  H  H6  1  0.111900  0.613900  0.289400  1
  H  H7  1  0.111900  0.113900  0.210600  1
  H  H8  1  0.888100  0.386100  0.710600  1
  H  H9  1  0.745000  0.935500  0.836100  1
  H  H10  1  0.255000  0.564500  0.336100  1
  H  H11  1  0.255000  0.064500  0.163900  1
  H  H12  1  0.745000  0.435500  0.663900  1
  H  H13  1  0.725900  0.963500  0.804400  1
  H  H14  1  0.274100  0.536500  0.304400  1
  H  H15  1  0.274100  0.036500  0.195600  1
  H  H16  1  0.725900  0.463500  0.695600  1
  H  H17  1  0.773900  0.833800  0.780300  1
  H  H18  1  0.226100  0.666200  0.280300  1
  H  H19  1  0.226100  0.166200  0.219700  1
  H  H20  1  0.773900  0.333800  0.719700  1
  H  H21  1  0.790200  0.853900  0.820600  1
  H  H22  1  0.209800  0.646100  0.320600  1
  H  H23  1  0.209800  0.146100  0.179400  1
  H  H24  1  0.790200  0.353900  0.679400  1
  H  H25  1  0.686500  0.874600  0.802800  1
  H  H26  1  0.313500  0.625400  0.302800  1
  H  H27  1  0.313500  0.125400  0.197200  1
  H  H28  1  0.686500  0.374600  0.697200  1
  H  H29  1  0.722600  0.900100  0.767100  1
  H  H30  1  0.277400  0.599900  0.267100  1
  H  H31  1  0.277400  0.099900  0.232900  1
  H  H32  1  0.722600  0.400100  0.732900  1
  H  H33  1  0.451300  0.000500  0.929900  1
  H  H34  1  0.548700  0.499500  0.429900  1
  H  H35  1  0.548700  0.999500  0.070100  1
  H  H36  1  0.451300  0.500500  0.570100  1
  H  H37  1  0.484700  0.980800  0.898100  1
  H  H38  1  0.515300  0.519200  0.398100  1
  H  H39  1  0.515300  0.019200  0.101900  1
  H  H40  1  0.484700  0.480800  0.601900  1
  H  H41  1  0.632400  0.071900  0.932200  1
  H  H42  1  0.367600  0.428100  0.432200  1
  H  H43  1  0.367600  0.928100  0.067800  1
  H  H44  1  0.632400  0.571900  0.567800  1
  H  H45  1  0.601700  0.113700  0.947400  1
  H  H46  1  0.398300  0.386300  0.447400  1
  H  H47  1  0.398300  0.886300  0.052600  1
  H  H48  1  0.601700  0.613700  0.552600  1
  H  H49  1  0.592200  0.993900  0.925200  1
  H  H50  1  0.407800  0.506100  0.425200  1
  H  H51  1  0.407800  0.006100  0.074800  1
  H  H52  1  0.592200  0.493900  0.574800  1
  H  H53  1  0.535800  0.959900  0.950900  1
  H  H54  1  0.464200  0.540100  0.450900  1
  H  H55  1  0.464200  0.040100  0.049100  1
  H  H56  1  0.535800  0.459900  0.549100  1
  H  H57  1  0.514000  0.052400  0.982600  1
  H  H58  1  0.486000  0.447600  0.482600  1
  H  H59  1  0.486000  0.947600  0.017400  1
  H  H60  1  0.514000  0.552400  0.517400  1
  H  H61  1  0.592800  0.042400  0.992400  1
  H  H62  1  0.407200  0.457600  0.492400  1
  H  H63  1  0.407200  0.957600  0.007600  1
  H  H64  1  0.592800  0.542400  0.507600  1
  H  H65  1  0.424400  0.995800  0.570800  1
  H  H66  1  0.575600  0.504200  0.070800  1
  H  H67  1  0.575600  0.004200  0.429200  1
  H  H68  1  0.424400  0.495800  0.929200  1
  H  H69  1  0.352500  0.965100  0.574800  1
  H  H70  1  0.647500  0.534900  0.074800  1
  H  H71  1  0.647500  0.034900  0.425200  1
  H  H72  1  0.352500  0.465100  0.925200  1
  H  H73  1  0.323200  0.041200  0.491400  1
  H  H74  1  0.676800  0.458800  0.991400  1
  H  H75  1  0.676800  0.958800  0.508600  1
  H  H76  1  0.323200  0.541200  0.008600  1
  H  H77  1  0.385300  0.081600  0.497400  1
  H  H78  1  0.614700  0.418400  0.997400  1
  H  H79  1  0.614700  0.918400  0.502600  1
  H  H80  1  0.385300  0.581600  0.002600  1
  H  H81  1  0.337900  0.951700  0.518200  1
  H  H82  1  0.662100  0.548300  0.018200  1
  H  H83  1  0.662100  0.048300  0.481800  1
  H  H84  1  0.337900  0.451700  0.981800  1
  H  H85  1  0.417800  0.946000  0.525500  1
  H  H86  1  0.582200  0.554000  0.025500  1
  H  H87  1  0.582200  0.054000  0.474500  1
  H  H88  1  0.417800  0.446000  0.974500  1
  H  H89  1  0.460300  0.029600  0.503700  1
  H  H90  1  0.539700  0.470400  0.003700  1
  H  H91  1  0.539700  0.970400  0.496300  1
  H  H92  1  0.460300  0.529600  0.996300  1
  H  H93  1  0.407300  0.001800  0.473700  1
  H  H94  1  0.592700  0.498200  0.973700  1
  H  H95  1  0.592700  0.998200  0.526300  1
  H  H96  1  0.407300  0.501800  0.026300  1
  H  H97  1  0.969200  0.451300  0.898000  1
  H  H98  1  0.030800  0.048700  0.398000  1
  H  H99  1  0.030800  0.548700  0.102000  1
  H  H100  1  0.969200  0.951300  0.602000  1
  H  H101  1  0.908300  0.453500  0.874200  1
  H  H102  1  0.091700  0.046500  0.374200  1
  H  H103  1  0.091700  0.546500  0.125800  1
  H  H104  1  0.908300  0.953500  0.625800  1
  H  H105  1  0.800400  0.332800  0.915000  1
  H  H106  1  0.199600  0.167200  0.415000  1
  H  H107  1  0.199600  0.667200  0.085000  1
  H  H108  1  0.800400  0.832800  0.585000  1
  H  H109  1  0.854400  0.349600  0.943000  1
  H  H110  1  0.145600  0.150400  0.443000  1
  H  H111  1  0.145600  0.650400  0.057000  1
  H  H112  1  0.854400  0.849600  0.557000  1
  H  H113  1  0.870400  0.481200  0.920900  1
  H  H114  1  0.129600  0.018800  0.420900  1
  H  H115  1  0.129600  0.518800  0.079100  1
  H  H116  1  0.870400  0.981200  0.579100  1
  H  H117  1  0.911100  0.447100  0.945600  1
  H  H118  1  0.088900  0.052900  0.445600  1
  H  H119  1  0.088900  0.552900  0.054400  1
  H  H120  1  0.911100  0.947100  0.554400  1
  H  H121  1  0.787000  0.405400  0.946900  1
  H  H122  1  0.213000  0.094600  0.446900  1
  H  H123  1  0.213000  0.594600  0.053100  1
  H  H124  1  0.787000  0.905400  0.553100  1
  H  H125  1  0.781500  0.408100  0.903900  1
  H  H126  1  0.218500  0.091900  0.403900  1
  H  H127  1  0.218500  0.591900  0.096100  1
  H  H128  1  0.781500  0.908100  0.596100  1
  H  H129  1  0.604800  0.552800  0.789300  1
  H  H130  1  0.395200  0.947200  0.289300  1
  H  H131  1  0.395200  0.447200  0.210700  1
  H  H132  1  0.604800  0.052800  0.710700  1
  H  H133  1  0.567200  0.564600  0.822200  1
  H  H134  1  0.432800  0.935400  0.322200  1
  H  H135  1  0.432800  0.435400  0.177800  1
  H  H136  1  0.567200  0.064600  0.677800  1
  H  H137  1  0.691500  0.503200  0.870700  1
  H  H138  1  0.308500  0.996800  0.370700  1
  H  H139  1  0.308500  0.496800  0.129300  1
  H  H140  1  0.691500  0.003200  0.629300  1
  H  H141  1  0.716400  0.475100  0.840500  1
  H  H142  1  0.283600  0.024900  0.340500  1
  H  H143  1  0.283600  0.524900  0.159500  1
  H  H144  1  0.716400  0.975100  0.659500  1
  H  H145  1  0.688700  0.609100  0.813200  1
  H  H146  1  0.311300  0.890900  0.313200  1
  H  H147  1  0.311300  0.390900  0.186800  1
  H  H148  1  0.688700  0.109100  0.686800  1
  H  H149  1  0.664000  0.591800  0.853000  1
  H  H150  1  0.336000  0.908200  0.353000  1
  H  H151  1  0.336000  0.408200  0.147000  1
  H  H152  1  0.664000  0.091800  0.647000  1
  H  H153  1  0.764900  0.562400  0.843200  1
  H  H154  1  0.235100  0.937600  0.343200  1
  H  H155  1  0.235100  0.437600  0.156800  1
  H  H156  1  0.764900  0.062400  0.656800  1
  H  H157  1  0.738000  0.540400  0.804800  1
  H  H158  1  0.262000  0.959600  0.304800  1
  H  H159  1  0.262000  0.459600  0.195200  1
  H  H160  1  0.738000  0.040400  0.695200  1
  H  H161  1  0.054400  0.466000  0.574400  1
  H  H162  1  0.945600  0.034000  0.074400  1
  H  H163  1  0.945600  0.534000  0.425600  1
  H  H164  1  0.054400  0.966000  0.925600  1
  H  H165  1  0.124900  0.499600  0.577600  1
  H  H166  1  0.875100  0.000400  0.077600  1
  H  H167  1  0.875100  0.500400  0.422400  1
  H  H168  1  0.124900  0.999600  0.922400  1
  H  H169  1  0.154000  0.418100  0.488800  1
  H  H170  1  0.846000  0.081900  0.988800  1
  H  H171  1  0.846000  0.581900  0.511200  1
  H  H172  1  0.154000  0.918100  0.011200  1
  H  H173  1  0.083200  0.389400  0.498500  1
  H  H174  1  0.916800  0.110600  0.998500  1
  H  H175  1  0.916800  0.610600  0.501500  1
  H  H176  1  0.083200  0.889400  0.001500  1
  H  H177  1  0.050500  0.511200  0.522800  1
  H  H178  1  0.949500  0.988800  0.022800  1
  H  H179  1  0.949500  0.488800  0.477200  1
  H  H180  1  0.050500  0.011200  0.977200  1
  H  H181  1  0.133600  0.519300  0.518600  1
  H  H182  1  0.866400  0.980700  0.018600  1
  H  H183  1  0.866400  0.480700  0.481400  1
  H  H184  1  0.133600  0.019300  0.981400  1
  H  H185  1  0.106400  0.482200  0.477300  1
  H  H186  1  0.893600  0.017800  0.977300  1
  H  H187  1  0.893600  0.517800  0.522700  1
  H  H188  1  0.106400  0.982200  0.022700  1
  H  H189  1  0.033800  0.454000  0.493800  1
  H  H190  1  0.966200  0.046000  0.993800  1
  H  H191  1  0.966200  0.546000  0.506200  1
  H  H192  1  0.033800  0.954000  0.006200  1
  H  H193  1  0.946600  0.975800  0.738600  1
  H  H194  1  0.053400  0.524200  0.238600  1
  H  H195  1  0.053400  0.024200  0.261400  1
  H  H196  1  0.946600  0.475800  0.761400  1
  H  H197  1  0.061600  0.002500  0.722800  1
  H  H198  1  0.938400  0.497500  0.222800  1
  H  H199  1  0.938400  0.997500  0.277200  1
  H  H200  1  0.061600  0.502500  0.777200  1
  H  H201  1  0.109400  0.022000  0.827600  1
  H  H202  1  0.890600  0.478000  0.327600  1
  H  H203  1  0.890600  0.978000  0.172400  1
  H  H204  1  0.109400  0.522000  0.672400  1
  H  H205  1  0.992100  0.997200  0.839900  1
  H  H206  1  0.007900  0.502800  0.339900  1
  H  H207  1  0.007900  0.002800  0.160100  1
  H  H208  1  0.992100  0.497200  0.660100  1
  H  H209  1  0.373700  0.048600  0.891200  1
  H  H210  1  0.626300  0.451400  0.391200  1
  H  H211  1  0.626300  0.951400  0.108800  1
  H  H212  1  0.373700  0.548600  0.608800  1
  H  H213  1  0.284800  0.031300  0.848200  1
  H  H214  1  0.715200  0.468700  0.348200  1
  H  H215  1  0.715200  0.968700  0.151800  1
  H  H216  1  0.284800  0.531300  0.651800  1
  H  H217  1  0.428200  0.072000  0.772600  1
  H  H218  1  0.571800  0.428000  0.272600  1
  H  H219  1  0.571800  0.928000  0.227400  1
  H  H220  1  0.428200  0.572000  0.727400  1
  H  H221  1  0.509300  0.091300  0.814900  1
  H  H222  1  0.490700  0.408700  0.314900  1
  H  H223  1  0.490700  0.908700  0.185100  1
  H  H224  1  0.509300  0.591300  0.685100  1
  H  H225  1  0.408100  0.069800  0.628600  1
  H  H226  1  0.591900  0.430200  0.128600  1
  H  H227  1  0.591900  0.930200  0.371400  1
  H  H228  1  0.408100  0.569800  0.871400  1
  H  H229  1  0.382700  0.069000  0.687400  1
  H  H230  1  0.617300  0.431000  0.187400  1
  H  H231  1  0.617300  0.931000  0.312600  1
  H  H232  1  0.382700  0.569000  0.812600  1
  H  H233  1  0.173500  0.023800  0.660400  1
  H  H234  1  0.826500  0.476200  0.160400  1
  H  H235  1  0.826500  0.976200  0.339600  1
  H  H236  1  0.173500  0.523800  0.839600  1
  H  H237  1  0.210500  0.032600  0.602300  1
  H  H238  1  0.789500  0.467400  0.102300  1
  H  H239  1  0.789500  0.967400  0.397700  1
  H  H240  1  0.210500  0.532600  0.897700  1
  H  H241  1  0.947300  0.358300  0.800300  1
  H  H242  1  0.052700  0.141700  0.300300  1
  H  H243  1  0.052700  0.641700  0.199700  1
  H  H244  1  0.947300  0.858300  0.699700  1
  H  H245  1  0.033100  0.365600  0.763400  1
  H  H246  1  0.966900  0.134400  0.263400  1
  H  H247  1  0.966900  0.634400  0.236600  1
  H  H248  1  0.033100  0.865600  0.736600  1
  H  H249  1  0.159800  0.420800  0.847200  1
  H  H250  1  0.840200  0.079200  0.347200  1
  H  H251  1  0.840200  0.579200  0.152800  1
  H  H252  1  0.159800  0.920800  0.652800  1
  H  H253  1  0.067200  0.391100  0.885000  1
  H  H254  1  0.932800  0.108900  0.385000  1
  H  H255  1  0.932800  0.608900  0.115000  1
  H  H256  1  0.067200  0.891100  0.615000  1
  H  H257  1  0.444800  0.447500  0.855500  1
  H  H258  1  0.555200  0.052500  0.355500  1
  H  H259  1  0.555200  0.552500  0.144500  1
  H  H260  1  0.444800  0.947500  0.644500  1
  H  H261  1  0.330400  0.427100  0.834900  1
  H  H262  1  0.669600  0.072900  0.334900  1
  H  H263  1  0.669600  0.572900  0.165100  1
  H  H264  1  0.330400  0.927100  0.665100  1
  H  H265  1  0.408400  0.458100  0.734300  1
  H  H266  1  0.591600  0.041900  0.234300  1
  H  H267  1  0.591600  0.541900  0.265700  1
  H  H268  1  0.408400  0.958100  0.765700  1
  H  H269  1  0.519100  0.479700  0.758500  1
  H  H270  1  0.480900  0.020300  0.258500  1
  H  H271  1  0.480900  0.520300  0.241500  1
  H  H272  1  0.519100  0.979700  0.741500  1
  H  H273  1  0.270400  0.428400  0.603400  1
  H  H274  1  0.729600  0.071600  0.103400  1
  H  H275  1  0.729600  0.571600  0.396600  1
  H  H276  1  0.270400  0.928400  0.896600  1
  H  H277  1  0.294900  0.422700  0.666900  1
  H  H278  1  0.705100  0.077300  0.166900  1
  H  H279  1  0.705100  0.577300  0.333100  1
  H  H280  1  0.294900  0.922700  0.833100  1
  H  H281  1  0.091600  0.398800  0.682800  1
  H  H282  1  0.908400  0.101200  0.182800  1
  H  H283  1  0.908400  0.601200  0.317200  1
  H  H284  1  0.091600  0.898800  0.817200  1
  H  H285  1  0.072400  0.407100  0.625400  1
  H  H286  1  0.927600  0.092900  0.125400  1
  H  H287  1  0.927600  0.592900  0.374600  1
  H  H288  1  0.072400  0.907100  0.874600  1
  H  H289  1  0.875000  0.019800  0.907100  1
  H  H290  1  0.125000  0.480200  0.407100  1
  H  H291  1  0.125000  0.980200  0.092900  1
  H  H292  1  0.875000  0.519800  0.592900  1
  H  H293  1  0.903900  0.987600  0.876600  1
  H  H294  1  0.096100  0.512400  0.376600  1
  H  H295  1  0.096100  0.012400  0.123400  1
  H  H296  1  0.903900  0.487600  0.623400  1
  H  H297  1  0.821000  0.982000  0.883100  1
  H  H298  1  0.179000  0.518000  0.383100  1
  H  H299  1  0.179000  0.018000  0.116900  1
  H  H300  1  0.821000  0.482000  0.616900  1
  H  H301  1  0.868400  0.106900  0.893100  1
  H  H302  1  0.131600  0.393100  0.393100  1
  H  H303  1  0.131600  0.893100  0.106900  1
  H  H304  1  0.868400  0.606900  0.606900  1
  H  H305  1  0.841800  0.147000  0.791600  1
  H  H306  1  0.158200  0.353000  0.291600  1
  H  H307  1  0.158200  0.853000  0.208400  1
  H  H308  1  0.841800  0.647000  0.708400  1
  H  H309  1  0.825300  0.089600  0.749000  1
  H  H310  1  0.174700  0.410400  0.249000  1
  H  H311  1  0.174700  0.910400  0.251000  1
  H  H312  1  0.825300  0.589600  0.751000  1
  H  H313  1  0.791800  0.033000  0.759100  1
  H  H314  1  0.208200  0.467000  0.259100  1
  H  H315  1  0.208200  0.967000  0.240900  1
  H  H316  1  0.791800  0.533000  0.740900  1
  H  H317  1  0.874600  0.048400  0.752200  1
  H  H318  1  0.125400  0.451600  0.252200  1
  H  H319  1  0.125400  0.951600  0.247800  1
  H  H320  1  0.874600  0.548400  0.747800  1
  H  H321  1  0.758500  0.285200  0.819600  1
  H  H322  1  0.241500  0.214800  0.319600  1
  H  H323  1  0.241500  0.714800  0.180400  1
  H  H324  1  0.758500  0.785200  0.680400  1
  H  H325  1  0.824000  0.330600  0.820800  1
  H  H326  1  0.176000  0.169400  0.320800  1
  H  H327  1  0.176000  0.669400  0.179200  1
  H  H328  1  0.824000  0.830600  0.679200  1
  H  H329  1  0.772000  0.320100  0.854400  1
  H  H330  1  0.228000  0.179900  0.354400  1
  H  H331  1  0.228000  0.679900  0.145600  1
  H  H332  1  0.772000  0.820100  0.645600  1
  H  H333  1  0.797600  0.208000  0.823000  1
  H  H334  1  0.202400  0.292000  0.323000  1
  H  H335  1  0.202400  0.792000  0.177000  1
  H  H336  1  0.797600  0.708000  0.677000  1
  H  H337  1  0.949400  0.189400  0.892100  1
  H  H338  1  0.050600  0.310600  0.392100  1
  H  H339  1  0.050600  0.810600  0.107900  1
  H  H340  1  0.949400  0.689400  0.607900  1
  H  H341  1  0.013500  0.258100  0.923300  1
  H  H342  1  0.986500  0.241900  0.423300  1
  H  H343  1  0.986500  0.741900  0.076700  1
  H  H344  1  0.013500  0.758100  0.576700  1
  H  H345  1  0.970500  0.301500  0.932700  1
  H  H346  1  0.029500  0.198500  0.432700  1
  H  H347  1  0.029500  0.698500  0.067300  1
  H  H348  1  0.970500  0.801500  0.567300  1
  H  H349  1  0.023600  0.307900  0.899400  1
  H  H350  1  0.976400  0.192100  0.399400  1
  H  H351  1  0.976400  0.692100  0.100600  1
  H  H352  1  0.023600  0.807900  0.600600  1
  H  H353  1  0.680500  0.153700  0.834900  1
  H  H354  1  0.319500  0.346300  0.334900  1
  H  H355  1  0.319500  0.846300  0.165100  1
  H  H356  1  0.680500  0.653700  0.665100  1
  H  H357  1  0.619500  0.106100  0.841100  1
  H  H358  1  0.380500  0.393900  0.341100  1
  H  H359  1  0.380500  0.893900  0.158900  1
  H  H360  1  0.619500  0.606100  0.658900  1
  H  H361  1  0.673000  0.125900  0.872800  1
  H  H362  1  0.327000  0.374100  0.372800  1
  H  H363  1  0.327000  0.874100  0.127200  1
  H  H364  1  0.673000  0.625900  0.627200  1
  H  H365  1  0.643500  0.237500  0.841100  1
  H  H366  1  0.356500  0.262500  0.341100  1
  H  H367  1  0.356500  0.762500  0.158900  1
  H  H368  1  0.643500  0.737500  0.658900  1
  H  H369  1  0.486000  0.251000  0.910600  1
  H  H370  1  0.514000  0.249000  0.410600  1
  H  H371  1  0.514000  0.749000  0.089400  1
  H  H372  1  0.486000  0.751000  0.589400  1
  H  H373  1  0.417400  0.174500  0.937500  1
  H  H374  1  0.582600  0.325500  0.437500  1
  H  H375  1  0.582600  0.825500  0.062500  1
  H  H376  1  0.417400  0.674500  0.562500  1
  H  H377  1  0.474900  0.140500  0.945800  1
  H  H378  1  0.525100  0.359500  0.445800  1
  H  H379  1  0.525100  0.859500  0.054200  1
  H  H380  1  0.474900  0.640500  0.554200  1
  H  H381  1  0.420500  0.126100  0.913500  1
  H  H382  1  0.579500  0.373900  0.413500  1
  H  H383  1  0.579500  0.873900  0.086500  1
  H  H384  1  0.420500  0.626100  0.586500  1
  H  H385  1  0.547800  0.411800  0.930500  1
  H  H386  1  0.452200  0.088200  0.430500  1
  H  H387  1  0.452200  0.588200  0.069500  1
  H  H388  1  0.547800  0.911800  0.569500  1
  H  H389  1  0.517500  0.443800  0.900200  1
  H  H390  1  0.482500  0.056200  0.400200  1
  H  H391  1  0.482500  0.556200  0.099800  1
  H  H392  1  0.517500  0.943800  0.599800  1
  H  H393  1  0.599900  0.454100  0.908900  1
  H  H394  1  0.400100  0.045900  0.408900  1
  H  H395  1  0.400100  0.545900  0.091100  1
  H  H396  1  0.599900  0.954100  0.591100  1
  H  H397  1  0.545700  0.331100  0.911500  1
  H  H398  1  0.454300  0.168900  0.411500  1
  H  H399  1  0.454300  0.668900  0.088500  1
  H  H400  1  0.545700  0.831100  0.588500  1
  H  H401  1  0.603200  0.298600  0.808900  1
  H  H402  1  0.396800  0.201400  0.308900  1
  H  H403  1  0.396800  0.701400  0.191100  1
  H  H404  1  0.603200  0.798600  0.691100  1
  H  H405  1  0.620900  0.363600  0.764700  1
  H  H406  1  0.379100  0.136400  0.264700  1
  H  H407  1  0.379100  0.636400  0.235300  1
  H  H408  1  0.620900  0.863600  0.735300  1
  H  H409  1  0.649800  0.418800  0.779700  1
  H  H410  1  0.350200  0.081200  0.279700  1
  H  H411  1  0.350200  0.581200  0.220300  1
  H  H412  1  0.649800  0.918800  0.720300  1
  H  H413  1  0.567900  0.401700  0.771100  1
  H  H414  1  0.432100  0.098300  0.271100  1
  H  H415  1  0.432100  0.598300  0.228900  1
  H  H416  1  0.567900  0.901700  0.728900  1
  H  H417  1  0.143600  0.078800  0.521400  1
  H  H418  1  0.856400  0.421200  0.021400  1
  H  H419  1  0.856400  0.921200  0.478600  1
  H  H420  1  0.143600  0.578800  0.978600  1
  H  H421  1  0.184100  0.047900  0.548200  1
  H  H422  1  0.815900  0.452100  0.048200  1
  H  H423  1  0.815900  0.952100  0.451800  1
  H  H424  1  0.184100  0.547900  0.951800  1
  H  H425  1  0.210400  0.057000  0.507700  1
  H  H426  1  0.789600  0.443000  0.007700  1
  H  H427  1  0.789600  0.943000  0.492300  1
  H  H428  1  0.210400  0.557000  0.992300  1
  H  H429  1  0.162800  0.163800  0.529100  1
  H  H430  1  0.837200  0.336200  0.029100  1
  H  H431  1  0.837200  0.836200  0.470900  1
  H  H432  1  0.162800  0.663800  0.970900  1
  H  H433  1  0.354600  0.235100  0.558900  1
  H  H434  1  0.645400  0.264900  0.058900  1
  H  H435  1  0.645400  0.764900  0.441100  1
  H  H436  1  0.354600  0.735100  0.941100  1
  H  H437  1  0.441900  0.194600  0.575900  1
  H  H438  1  0.558100  0.305400  0.075900  1
  H  H439  1  0.558100  0.805400  0.424100  1
  H  H440  1  0.441900  0.694600  0.924100  1
  H  H441  1  0.442900  0.146600  0.551100  1
  H  H442  1  0.557100  0.353400  0.051100  1
  H  H443  1  0.557100  0.853400  0.448900  1
  H  H444  1  0.442900  0.646600  0.948900  1
  H  H445  1  0.416500  0.139500  0.591700  1
  H  H446  1  0.583500  0.360500  0.091700  1
  H  H447  1  0.583500  0.860500  0.408300  1
  H  H448  1  0.416500  0.639500  0.908300  1
  H  H449  1  0.264200  0.421600  0.527300  1
  H  H450  1  0.735800  0.078400  0.027300  1
  H  H451  1  0.735800  0.578400  0.472700  1
  H  H452  1  0.264200  0.921600  0.972700  1
  H  H453  1  0.302000  0.392000  0.498400  1
  H  H454  1  0.698000  0.108000  0.998400  1
  H  H455  1  0.698000  0.608000  0.501600  1
  H  H456  1  0.302000  0.892000  0.001600  1
  H  H457  1  0.333900  0.401000  0.537900  1
  H  H458  1  0.666100  0.099000  0.037900  1
  H  H459  1  0.666100  0.599000  0.462100  1
  H  H460  1  0.333900  0.901000  0.962100  1
  H  H461  1  0.315200  0.300000  0.523900  1
  H  H462  1  0.684800  0.200000  0.023900  1
  H  H463  1  0.684800  0.700000  0.476100  1
  H  H464  1  0.315200  0.800000  0.976100  1
  H  H465  1  0.125800  0.228600  0.558600  1
  H  H466  1  0.874200  0.271400  0.058600  1
  H  H467  1  0.874200  0.771400  0.441400  1
  H  H468  1  0.125800  0.728600  0.941400  1
  H  H469  1  0.037400  0.277300  0.575300  1
  H  H470  1  0.962600  0.222700  0.075300  1
  H  H471  1  0.962600  0.722700  0.424700  1
  H  H472  1  0.037400  0.777300  0.924700  1
  H  H473  1  0.043600  0.325600  0.550200  1
  H  H474  1  0.956400  0.174400  0.050200  1
  H  H475  1  0.956400  0.674400  0.449800  1
  H  H476  1  0.043600  0.825600  0.949800  1
  H  H477  1  0.071100  0.331300  0.590700  1
  H  H478  1  0.928900  0.168700  0.090700  1
  H  H479  1  0.928900  0.668700  0.409300  1
  H  H480  1  0.071100  0.831300  0.909300  1
  Pd  Pd481  1  0.854390  0.966620  0.802500  1
  Pd  Pd482  1  0.145610  0.533380  0.302500  1
  Pd  Pd483  1  0.145610  0.033380  0.197500  1
  Pd  Pd484  1  0.854390  0.466620  0.697500  1
  Pd  Pd485  1  0.522180  0.075750  0.897550  1
  Pd  Pd486  1  0.477820  0.424250  0.397550  1
  Pd  Pd487  1  0.477820  0.924250  0.102450  1
  Pd  Pd488  1  0.522180  0.575750  0.602450  1
  Pd  Pd489  1  0.337220  0.053020  0.557320  1
  Pd  Pd490  1  0.662780  0.446980  0.057320  1
  Pd  Pd491  1  0.662780  0.946980  0.442680  1
  Pd  Pd492  1  0.337220  0.553020  0.942680  1
  Pd  Pd493  1  0.913600  0.363990  0.883660  1
  Pd  Pd494  1  0.086400  0.136010  0.383660  1
  Pd  Pd495  1  0.086400  0.636010  0.116340  1
  Pd  Pd496  1  0.913600  0.863990  0.616340  1
  Pd  Pd497  1  0.592080  0.478900  0.829280  1
  Pd  Pd498  1  0.407920  0.021100  0.329280  1
  Pd  Pd499  1  0.407920  0.521100  0.170720  1
  Pd  Pd500  1  0.592080  0.978900  0.670720  1
  Pd  Pd501  1  0.147590  0.413730  0.555380  1
  Pd  Pd502  1  0.852410  0.086270  0.055380  1
  Pd  Pd503  1  0.852410  0.586270  0.444620  1
  Pd  Pd504  1  0.147590  0.913730  0.944620  1
  C  C505  1  0.784500  0.864100  0.795500  1
  C  C506  1  0.215500  0.635900  0.295500  1
  C  C507  1  0.215500  0.135900  0.204500  1
  C  C508  1  0.784500  0.364100  0.704500  1
  C  C509  1  0.730900  0.893300  0.792600  1
  C  C510  1  0.269100  0.606700  0.292600  1
  C  C511  1  0.269100  0.106700  0.207400  1
  C  C512  1  0.730900  0.393300  0.707400  1
  C  C513  1  0.548000  0.993000  0.939200  1
  C  C514  1  0.452000  0.507000  0.439200  1
  C  C515  1  0.452000  0.007000  0.060800  1
  C  C516  1  0.548000  0.493000  0.560800  1
  C  C517  1  0.558800  0.045200  0.973000  1
  C  C518  1  0.441200  0.454800  0.473000  1
  C  C519  1  0.441200  0.954800  0.027000  1
  C  C520  1  0.558800  0.545200  0.527000  1
  C  C521  1  0.384700  0.969800  0.525800  1
  C  C522  1  0.615300  0.530200  0.025800  1
  C  C523  1  0.615300  0.030200  0.474200  1
  C  C524  1  0.384700  0.469800  0.974200  1
  C  C525  1  0.410800  0.014000  0.498700  1
  C  C526  1  0.589200  0.486000  0.998700  1
  C  C527  1  0.589200  0.986000  0.501300  1
  C  C528  1  0.410800  0.514000  0.001300  1
  C  C529  1  0.883600  0.447800  0.923300  1
  C  C530  1  0.116400  0.052200  0.423300  1
  C  C531  1  0.116400  0.552200  0.076700  1
  C  C532  1  0.883600  0.947800  0.576700  1
  C  C533  1  0.813100  0.404000  0.924200  1
  C  C534  1  0.186900  0.096000  0.424200  1
  C  C535  1  0.186900  0.596000  0.075800  1
  C  C536  1  0.813100  0.904000  0.575800  1
  C  C537  1  0.671600  0.579700  0.828600  1
  C  C538  1  0.328400  0.920300  0.328600  1
  C  C539  1  0.328400  0.420300  0.171400  1
  C  C540  1  0.671600  0.079700  0.671400  1
  C  C541  1  0.722900  0.546600  0.829400  1
  C  C542  1  0.277100  0.953400  0.329400  1
  C  C543  1  0.277100  0.453400  0.170600  1
  C  C544  1  0.722900  0.046600  0.670600  1
  C  C545  1  0.091000  0.493800  0.523600  1
  C  C546  1  0.909000  0.006200  0.023600  1
  C  C547  1  0.909000  0.506200  0.476400  1
  C  C548  1  0.091000  0.993800  0.976400  1
  C  C549  1  0.085000  0.464400  0.498800  1
  C  C550  1  0.915000  0.035600  0.998800  1
  C  C551  1  0.915000  0.535600  0.501200  1
  C  C552  1  0.085000  0.964400  0.001200  1
  C  C553  1  0.980300  0.986500  0.756800  1
  C  C554  1  0.019700  0.513500  0.256800  1
  C  C555  1  0.019700  0.013500  0.243200  1
  C  C556  1  0.980300  0.486500  0.743200  1
  C  C557  1  0.048800  0.001000  0.747400  1
  C  C558  1  0.951200  0.499000  0.247400  1
  C  C559  1  0.951200  0.999000  0.252600  1
  C  C560  1  0.048800  0.501000  0.752600  1
  C  C561  1  0.099600  0.013400  0.773000  1
  C  C562  1  0.900400  0.486600  0.273000  1
  C  C563  1  0.900400  0.986600  0.227000  1
  C  C564  1  0.099600  0.513400  0.727000  1
  C  C565  1  0.076800  0.012800  0.808600  1
  C  C566  1  0.923200  0.487200  0.308600  1
  C  C567  1  0.923200  0.987200  0.191400  1
  C  C568  1  0.076800  0.512800  0.691400  1
  C  C569  1  0.007100  0.998700  0.815600  1
  C  C570  1  0.992900  0.501300  0.315600  1
  C  C571  1  0.992900  0.001300  0.184400  1
  C  C572  1  0.007100  0.498700  0.684400  1
  C  C573  1  0.384500  0.052200  0.866400  1
  C  C574  1  0.615500  0.447800  0.366400  1
  C  C575  1  0.615500  0.947800  0.133600  1
  C  C576  1  0.384500  0.552200  0.633600  1
  C  C577  1  0.331900  0.043800  0.841100  1
  C  C578  1  0.668100  0.456200  0.341100  1
  C  C579  1  0.668100  0.956200  0.158900  1
  C  C580  1  0.331900  0.543800  0.658900  1
  C  C581  1  0.347300  0.053200  0.806400  1
  C  C582  1  0.652700  0.446800  0.306400  1
  C  C583  1  0.652700  0.946800  0.193600  1
  C  C584  1  0.347300  0.553200  0.693600  1
  C  C585  1  0.415200  0.067800  0.797100  1
  C  C586  1  0.584800  0.432200  0.297100  1
  C  C587  1  0.584800  0.932200  0.202900  1
  C  C588  1  0.415200  0.567800  0.702900  1
  C  C589  1  0.463300  0.076200  0.822200  1
  C  C590  1  0.536700  0.423800  0.322200  1
  C  C591  1  0.536700  0.923800  0.177800  1
  C  C592  1  0.463300  0.576200  0.677800  1
  C  C593  1  0.360100  0.061800  0.635600  1
  C  C594  1  0.639900  0.438200  0.135600  1
  C  C595  1  0.639900  0.938200  0.364400  1
  C  C596  1  0.360100  0.561800  0.864400  1
  C  C597  1  0.345700  0.060200  0.670500  1
  C  C598  1  0.654300  0.439800  0.170500  1
  C  C599  1  0.654300  0.939800  0.329500  1
  C  C600  1  0.345700  0.560200  0.829500  1
  C  C601  1  0.276800  0.045700  0.682600  1
  C  C602  1  0.723200  0.454300  0.182600  1
  C  C603  1  0.723200  0.954300  0.317400  1
  C  C604  1  0.276800  0.545700  0.817400  1
  C  C605  1  0.221900  0.034100  0.654600  1
  C  C606  1  0.778100  0.465900  0.154600  1
  C  C607  1  0.778100  0.965900  0.345400  1
  C  C608  1  0.221900  0.534100  0.845400  1
  C  C609  1  0.244700  0.039300  0.620800  1
  C  C610  1  0.755300  0.460700  0.120800  1
  C  C611  1  0.755300  0.960700  0.379200  1
  C  C612  1  0.244700  0.539300  0.879200  1
  C  C613  1  0.173800  0.026800  0.764000  1
  C  C614  1  0.826200  0.473200  0.264000  1
  C  C615  1  0.826200  0.973200  0.236000  1
  C  C616  1  0.173800  0.526800  0.736000  1
  C  C617  1  0.286900  0.046700  0.779100  1
  C  C618  1  0.713100  0.453300  0.279100  1
  C  C619  1  0.713100  0.953300  0.220900  1
  C  C620  1  0.286900  0.546700  0.720900  1
  C  C621  1  0.254900  0.041700  0.721700  1
  C  C622  1  0.745100  0.458300  0.221700  1
  C  C623  1  0.745100  0.958300  0.278300  1
  C  C624  1  0.254900  0.541700  0.778300  1
  C  C625  1  0.993100  0.368200  0.810000  1
  C  C626  1  0.006900  0.131800  0.310000  1
  C  C627  1  0.006900  0.631800  0.190000  1
  C  C628  1  0.993100  0.868200  0.690000  1
  C  C629  1  0.040600  0.373900  0.788000  1
  C  C630  1  0.959400  0.126100  0.288000  1
  C  C631  1  0.959400  0.626100  0.212000  1
  C  C632  1  0.040600  0.873900  0.712000  1
  C  C633  1  0.107300  0.393600  0.802100  1
  C  C634  1  0.892700  0.106400  0.302100  1
  C  C635  1  0.892700  0.606400  0.197900  1
  C  C636  1  0.107300  0.893600  0.697900  1
  C  C637  1  0.116000  0.404100  0.838000  1
  C  C638  1  0.884000  0.095900  0.338000  1
  C  C639  1  0.884000  0.595900  0.162000  1
  C  C640  1  0.116000  0.904100  0.662000  1
  C  C641  1  0.059600  0.389700  0.859900  1
  C  C642  1  0.940400  0.110300  0.359900  1
  C  C643  1  0.940400  0.610300  0.140100  1
  C  C644  1  0.059600  0.889700  0.640100  1
  C  C645  1  0.436800  0.450000  0.830500  1
  C  C646  1  0.563200  0.050000  0.330500  1
  C  C647  1  0.563200  0.550000  0.169500  1
  C  C648  1  0.436800  0.950000  0.669500  1
  C  C649  1  0.368000  0.437300  0.818600  1
  C  C650  1  0.632000  0.062700  0.318600  1
  C  C651  1  0.632000  0.562700  0.181400  1
  C  C652  1  0.368000  0.937300  0.681400  1
  C  C653  1  0.356300  0.439900  0.782400  1
  C  C654  1  0.643700  0.060100  0.282400  1
  C  C655  1  0.643700  0.560100  0.217600  1
  C  C656  1  0.356300  0.939900  0.717600  1
  C  C657  1  0.414900  0.456000  0.759500  1
  C  C658  1  0.585100  0.044000  0.259500  1
  C  C659  1  0.585100  0.544000  0.240500  1
  C  C660  1  0.414900  0.956000  0.740500  1
  C  C661  1  0.480600  0.468500  0.774000  1
  C  C662  1  0.519400  0.031500  0.274000  1
  C  C663  1  0.519400  0.531500  0.226000  1
  C  C664  1  0.480600  0.968500  0.726000  1
  C  C665  1  0.233800  0.420900  0.620600  1
  C  C666  1  0.766200  0.079100  0.120600  1
  C  C667  1  0.766200  0.579100  0.379400  1
  C  C668  1  0.233800  0.920900  0.879400  1
  C  C669  1  0.247700  0.419100  0.658800  1
  C  C670  1  0.752300  0.080900  0.158800  1
  C  C671  1  0.752300  0.580900  0.341200  1
  C  C672  1  0.247700  0.919100  0.841200  1
  C  C673  1  0.196300  0.412400  0.682400  1
  C  C674  1  0.803700  0.087600  0.182400  1
  C  C675  1  0.803700  0.587600  0.317600  1
  C  C676  1  0.196300  0.912400  0.817600  1
  C  C677  1  0.131200  0.405700  0.667300  1
  C  C678  1  0.868800  0.094300  0.167300  1
  C  C679  1  0.868800  0.594300  0.332700  1
  C  C680  1  0.131200  0.905700  0.832700  1
  C  C681  1  0.119500  0.408000  0.633100  1
  C  C682  1  0.880500  0.092000  0.133100  1
  C  C683  1  0.880500  0.592000  0.366900  1
  C  C684  1  0.119500  0.908000  0.866900  1
  C  C685  1  0.866000  0.005400  0.883100  1
  C  C686  1  0.134000  0.494600  0.383100  1
  C  C687  1  0.134000  0.994600  0.116900  1
  C  C688  1  0.866000  0.505400  0.616900  1
  C  C689  1  0.863100  0.048500  0.855400  1
  C  C690  1  0.136900  0.451500  0.355400  1
  C  C691  1  0.136900  0.951500  0.144600  1
  C  C692  1  0.863100  0.548500  0.644600  1
  C  C693  1  0.864700  0.099800  0.868200  1
  C  C694  1  0.135300  0.400200  0.368200  1
  C  C695  1  0.135300  0.900200  0.131800  1
  C  C696  1  0.864700  0.599800  0.631800  1
  C  C697  1  0.860800  0.136000  0.845100  1
  C  C698  1  0.139200  0.364000  0.345100  1
  C  C699  1  0.139200  0.864000  0.154900  1
  C  C700  1  0.860800  0.636000  0.654900  1
  C  C701  1  0.847700  0.122100  0.808600  1
  C  C702  1  0.152300  0.377900  0.308600  1
  C  C703  1  0.152300  0.877900  0.191400  1
  C  C704  1  0.847700  0.622100  0.691400  1
  C  C705  1  0.843200  0.070500  0.796900  1
  C  C706  1  0.156800  0.429500  0.296900  1
  C  C707  1  0.156800  0.929500  0.203100  1
  C  C708  1  0.843200  0.570500  0.703100  1
  C  C709  1  0.833000  0.059600  0.761900  1
  C  C710  1  0.167000  0.440400  0.261900  1
  C  C711  1  0.167000  0.940400  0.238100  1
  C  C712  1  0.833000  0.559600  0.738100  1
  C  C713  1  0.794600  0.304500  0.835000  1
  C  C714  1  0.205400  0.195500  0.335000  1
  C  C715  1  0.205400  0.695500  0.165000  1
  C  C716  1  0.794600  0.804500  0.665000  1
  C  C717  1  0.841100  0.269200  0.851300  1
  C  C718  1  0.158900  0.230800  0.351300  1
  C  C719  1  0.158900  0.730800  0.148700  1
  C  C720  1  0.841100  0.769200  0.648700  1
  C  C721  1  0.831700  0.220100  0.840800  1
  C  C722  1  0.168300  0.279900  0.340800  1
  C  C723  1  0.168300  0.779900  0.159200  1
  C  C724  1  0.831700  0.720100  0.659200  1
  C  C725  1  0.870100  0.189400  0.855300  1
  C  C726  1  0.129900  0.310600  0.355300  1
  C  C727  1  0.129900  0.810600  0.144700  1
  C  C728  1  0.870100  0.689400  0.644700  1
  C  C729  1  0.921600  0.210300  0.880800  1
  C  C730  1  0.078400  0.289700  0.380800  1
  C  C731  1  0.078400  0.789700  0.119200  1
  C  C732  1  0.921600  0.710300  0.619200  1
  C  C733  1  0.932000  0.260300  0.889300  1
  C  C734  1  0.068000  0.239700  0.389300  1
  C  C735  1  0.068000  0.739700  0.110700  1
  C  C736  1  0.932000  0.760300  0.610700  1
  C  C737  1  0.989800  0.283900  0.913200  1
  C  C738  1  0.010200  0.216100  0.413200  1
  C  C739  1  0.010200  0.716100  0.086800  1
  C  C740  1  0.989800  0.783900  0.586800  1
  C  C741  1  0.167800  0.404200  0.777600  1
  C  C742  1  0.832200  0.095800  0.277600  1
  C  C743  1  0.832200  0.595800  0.222400  1
  C  C744  1  0.167800  0.904200  0.722400  1
  C  C745  1  0.287500  0.425800  0.768000  1
  C  C746  1  0.712500  0.074200  0.268000  1
  C  C747  1  0.712500  0.574200  0.232000  1
  C  C748  1  0.287500  0.925800  0.732000  1
  C  C749  1  0.211300  0.412800  0.721400  1
  C  C750  1  0.788700  0.087200  0.221400  1
  C  C751  1  0.788700  0.587200  0.278600  1
  C  C752  1  0.211300  0.912800  0.778600  1
  C  C753  1  0.647100  0.135900  0.852300  1
  C  C754  1  0.352900  0.364100  0.352300  1
  C  C755  1  0.352900  0.864100  0.147700  1
  C  C756  1  0.647100  0.635900  0.647700  1
  C  C757  1  0.598400  0.170000  0.865000  1
  C  C758  1  0.401600  0.330000  0.365000  1
  C  C759  1  0.401600  0.830000  0.135000  1
  C  C760  1  0.598400  0.670000  0.635000  1
  C  C761  1  0.606300  0.222800  0.856500  1
  C  C762  1  0.393700  0.277200  0.356500  1
  C  C763  1  0.393700  0.777200  0.143500  1
  C  C764  1  0.606300  0.722800  0.643500  1
  C  C765  1  0.564500  0.250500  0.869300  1
  C  C766  1  0.435500  0.249500  0.369300  1
  C  C767  1  0.435500  0.749500  0.130700  1
  C  C768  1  0.564500  0.750500  0.630700  1
  C  C769  1  0.509700  0.229100  0.897500  1
  C  C770  1  0.490300  0.270900  0.397500  1
  C  C771  1  0.490300  0.770900  0.102500  1
  C  C772  1  0.509700  0.729100  0.602500  1
  C  C773  1  0.496000  0.183200  0.903300  1
  C  C774  1  0.504000  0.316800  0.403300  1
  C  C775  1  0.504000  0.816800  0.096700  1
  C  C776  1  0.496000  0.683200  0.596700  1
  C  C777  1  0.448600  0.153800  0.926800  1
  C  C778  1  0.551400  0.346200  0.426800  1
  C  C779  1  0.551400  0.846200  0.073200  1
  C  C780  1  0.448600  0.653800  0.573200  1
  C  C781  1  0.557500  0.428300  0.907200  1
  C  C782  1  0.442500  0.071700  0.407200  1
  C  C783  1  0.442500  0.571700  0.092800  1
  C  C784  1  0.557500  0.928300  0.592800  1
  C  C785  1  0.568800  0.388800  0.878500  1
  C  C786  1  0.431200  0.111200  0.378500  1
  C  C787  1  0.431200  0.611200  0.121500  1
  C  C788  1  0.568800  0.888800  0.621500  1
  C  C789  1  0.560600  0.341100  0.887900  1
  C  C790  1  0.439400  0.158900  0.387900  1
  C  C791  1  0.439400  0.658900  0.112100  1
  C  C792  1  0.560600  0.841100  0.612100  1
  C  C793  1  0.574400  0.304700  0.862700  1
  C  C794  1  0.425600  0.195300  0.362700  1
  C  C795  1  0.425600  0.695300  0.137300  1
  C  C796  1  0.574400  0.804700  0.637300  1
  C  C797  1  0.593500  0.321200  0.826900  1
  C  C798  1  0.406500  0.178800  0.326900  1
  C  C799  1  0.406500  0.678800  0.173100  1
  C  C800  1  0.593500  0.821200  0.673100  1
  C  C801  1  0.597000  0.370500  0.820200  1
  C  C802  1  0.403000  0.129500  0.320200  1
  C  C803  1  0.403000  0.629500  0.179800  1
  C  C804  1  0.597000  0.870500  0.679800  1
  C  C805  1  0.610200  0.390600  0.780000  1
  C  C806  1  0.389800  0.109400  0.280000  1
  C  C807  1  0.389800  0.609400  0.220000  1
  C  C808  1  0.610200  0.890600  0.720000  1
  C  C809  1  0.189700  0.071600  0.528200  1
  C  C810  1  0.810300  0.428400  0.028200  1
  C  C811  1  0.810300  0.928400  0.471800  1
  C  C812  1  0.189700  0.571600  0.971800  1
  C  C813  1  0.236200  0.118500  0.539000  1
  C  C814  1  0.763800  0.381500  0.039000  1
  C  C815  1  0.763800  0.881500  0.461000  1
  C  C816  1  0.236200  0.618500  0.961000  1
  C  C817  1  0.209900  0.164300  0.536500  1
  C  C818  1  0.790100  0.335700  0.036500  1
  C  C819  1  0.790100  0.835700  0.463500  1
  C  C820  1  0.209900  0.664300  0.963500  1
  C  C821  1  0.252700  0.209200  0.544800  1
  C  C822  1  0.747300  0.290800  0.044800  1
  C  C823  1  0.747300  0.790800  0.455200  1
  C  C824  1  0.252700  0.709200  0.955200  1
  C  C825  1  0.322100  0.204900  0.554700  1
  C  C826  1  0.677900  0.295100  0.054700  1
  C  C827  1  0.677900  0.795100  0.445300  1
  C  C828  1  0.322100  0.704900  0.945300  1
  C  C829  1  0.345300  0.161800  0.558600  1
  C  C830  1  0.654700  0.338200  0.058600  1
  C  C831  1  0.654700  0.838200  0.441400  1
  C  C832  1  0.345300  0.661800  0.941400  1
  C  C833  1  0.417700  0.160500  0.570300  1
  C  C834  1  0.582300  0.339500  0.070300  1
  C  C835  1  0.582300  0.839500  0.429700  1
  C  C836  1  0.417700  0.660500  0.929700  1
  C  C837  1  0.290400  0.394300  0.523800  1
  C  C838  1  0.709600  0.105700  0.023800  1
  C  C839  1  0.709600  0.605700  0.476200  1
  C  C840  1  0.290400  0.894300  0.976200  1
  C  C841  1  0.245100  0.344600  0.536100  1
  C  C842  1  0.754900  0.155400  0.036100  1
  C  C843  1  0.754900  0.655400  0.463900  1
  C  C844  1  0.245100  0.844600  0.963900  1
  C  C845  1  0.269600  0.300200  0.533400  1
  C  C846  1  0.730400  0.199800  0.033400  1
  C  C847  1  0.730400  0.699800  0.466600  1
  C  C848  1  0.269600  0.800200  0.966600  1
  C  C849  1  0.227900  0.255800  0.544400  1
  C  C850  1  0.772100  0.244200  0.044400  1
  C  C851  1  0.772100  0.744200  0.455600  1
  C  C852  1  0.227900  0.755800  0.955600  1
  C  C853  1  0.158100  0.258800  0.554200  1
  C  C854  1  0.841900  0.241200  0.054200  1
  C  C855  1  0.841900  0.741200  0.445800  1
  C  C856  1  0.158100  0.758800  0.945800  1
  C  C857  1  0.135500  0.302600  0.557700  1
  C  C858  1  0.864500  0.197400  0.057700  1
  C  C859  1  0.864500  0.697400  0.442300  1
  C  C860  1  0.135500  0.802600  0.942300  1
  C  C861  1  0.066300  0.309800  0.569400  1
  C  C862  1  0.933700  0.190200  0.069400  1
  C  C863  1  0.933700  0.690200  0.430600  1
  C  C864  1  0.066300  0.809800  0.930600  1
  C  C865  1  0.296800  0.304900  0.744800  1
  C  C866  1  0.703200  0.195100  0.244800  1
  C  C867  1  0.703200  0.695100  0.255200  1
  C  C868  1  0.296800  0.804900  0.755200  1
  C  C869  1  0.363900  0.320100  0.729100  1
  C  C870  1  0.636100  0.179900  0.229100  1
  C  C871  1  0.636100  0.679900  0.270900  1
  C  C872  1  0.363900  0.820100  0.770900  1
  C  C873  1  0.291500  0.303000  0.782700  1
  C  C874  1  0.708500  0.197000  0.282700  1
  C  C875  1  0.708500  0.697000  0.217300  1
  C  C876  1  0.291500  0.803000  0.717300  1
  C  C877  1  0.233800  0.291100  0.723400  1
  C  C878  1  0.766200  0.208900  0.223400  1
  C  C879  1  0.766200  0.708900  0.276600  1
  C  C880  1  0.233800  0.791100  0.776600  1
  C  C881  1  0.236800  0.292400  0.685500  1
  C  C882  1  0.763200  0.207600  0.185500  1
  C  C883  1  0.763200  0.707600  0.314500  1
  C  C884  1  0.236800  0.792400  0.814500  1
  C  C885  1  0.168600  0.276400  0.740600  1
  C  C886  1  0.831400  0.223600  0.240600  1
  C  C887  1  0.831400  0.723600  0.259400  1
  C  C888  1  0.168600  0.776400  0.759400  1
  C  C889  1  0.370900  0.322400  0.689400  1
  C  C890  1  0.629100  0.177600  0.189400  1
  C  C891  1  0.629100  0.677600  0.310600  1
  C  C892  1  0.370900  0.822400  0.810600  1
  C  C893  1  0.303600  0.309200  0.666900  1
  C  C894  1  0.696400  0.190800  0.166900  1
  C  C895  1  0.696400  0.690800  0.333100  1
  C  C896  1  0.303600  0.809200  0.833100  1
  C  C897  1  0.423100  0.333600  0.750000  1
  C  C898  1  0.576900  0.166400  0.250000  1
  C  C899  1  0.576900  0.666400  0.250000  1
  C  C900  1  0.423100  0.833600  0.750000  1
  C  C901  1  0.417500  0.331800  0.787400  1
  C  C902  1  0.582500  0.168200  0.287400  1
  C  C903  1  0.582500  0.668200  0.212600  1
  C  C904  1  0.417500  0.831800  0.712600  1
  C  C905  1  0.353400  0.316500  0.803500  1
  C  C906  1  0.646600  0.183500  0.303500  1
  C  C907  1  0.646600  0.683500  0.196500  1
  C  C908  1  0.353400  0.816500  0.696500  1
  C  C909  1  0.176200  0.278300  0.665700  1
  C  C910  1  0.823800  0.221700  0.165700  1
  C  C911  1  0.823800  0.721700  0.334300  1
  C  C912  1  0.176200  0.778300  0.834300  1
  C  C913  1  0.111300  0.263400  0.682700  1
  C  C914  1  0.888700  0.236600  0.182700  1
  C  C915  1  0.888700  0.736600  0.317300  1
  C  C916  1  0.111300  0.763400  0.817300  1
  C  C917  1  0.107200  0.262900  0.719400  1
  C  C918  1  0.892800  0.237100  0.219400  1
  C  C919  1  0.892800  0.737100  0.280600  1
  C  C920  1  0.107200  0.762900  0.780600  1
  C  C921  1  0.223800  0.288400  0.798700  1
  C  C922  1  0.776200  0.211600  0.298700  1
  C  C923  1  0.776200  0.711600  0.201300  1
  C  C924  1  0.223800  0.788400  0.701300  1
  C  C925  1  0.164700  0.276100  0.778800  1
  C  C926  1  0.835300  0.223900  0.278800  1
  C  C927  1  0.835300  0.723900  0.221200  1
  C  C928  1  0.164700  0.776100  0.721200  1
  C  C929  1  0.248900  0.295300  0.735600  1
  C  C930  1  0.751100  0.204700  0.235600  1
  C  C931  1  0.751100  0.704700  0.264400  1
  C  C932  1  0.248900  0.795300  0.764400  1
  C  C933  1  0.213600  0.286600  0.768800  1
  C  C934  1  0.786400  0.213400  0.268800  1
  C  C935  1  0.786400  0.713400  0.231200  1
  C  C936  1  0.213600  0.786600  0.731200  1
  C  C937  1  0.208600  0.290500  0.703600  1
  C  C938  1  0.791400  0.209500  0.203600  1
  C  C939  1  0.791400  0.709500  0.296400  1
  C  C940  1  0.208600  0.790500  0.796400  1
  C  C941  1  0.324800  0.308600  0.733400  1
  C  C942  1  0.675200  0.191400  0.233400  1
  C  C943  1  0.675200  0.691400  0.266600  1
  C  C944  1  0.324800  0.808600  0.766600  1
  C  C945  1  0.367100  0.313700  0.764600  1
  C  C946  1  0.632900  0.186300  0.264600  1
  C  C947  1  0.632900  0.686300  0.235400  1
  C  C948  1  0.367100  0.813700  0.735400  1
  C  C949  1  0.356900  0.316900  0.699500  1
  C  C950  1  0.643100  0.183100  0.199500  1
  C  C951  1  0.643100  0.683100  0.300500  1
  C  C952  1  0.356900  0.816900  0.800500  1
  C  C953  1  0.254600  0.291400  0.802700  1
  C  C954  1  0.745400  0.208600  0.302700  1
  C  C955  1  0.745400  0.708600  0.197300  1
  C  C956  1  0.254600  0.791400  0.697300  1
  C  C957  1  0.334900  0.307100  0.800200  1
  C  C958  1  0.665100  0.192900  0.300200  1
  C  C959  1  0.665100  0.692900  0.199800  1
  C  C960  1  0.334900  0.807100  0.699800  1
  C  C961  1  0.141200  0.274500  0.770300  1
  C  C962  1  0.858800  0.225500  0.270300  1
  C  C963  1  0.858800  0.725500  0.229700  1
  C  C964  1  0.141200  0.774500  0.729700  1
  C  C965  1  0.101700  0.269900  0.738800  1
  C  C966  1  0.898300  0.230100  0.238800  1
  C  C967  1  0.898300  0.730100  0.261200  1
  C  C968  1  0.101700  0.769900  0.761200  1
  C  C969  1  0.134400  0.277300  0.706100  1
  C  C970  1  0.865600  0.222700  0.206100  1
  C  C971  1  0.865600  0.722700  0.293900  1
  C  C972  1  0.134400  0.777300  0.793900  1
  C  C973  1  0.439300  0.325700  0.761700  1
  C  C974  1  0.560700  0.174300  0.261700  1
  C  C975  1  0.560700  0.674300  0.238300  1
  C  C976  1  0.439300  0.825700  0.738300  1
  C  C977  1  0.471400  0.333700  0.728100  1
  C  C978  1  0.528600  0.166300  0.228100  1
  C  C979  1  0.528600  0.666300  0.271900  1
  C  C980  1  0.471400  0.833700  0.771900  1
  C  C981  1  0.431200  0.329900  0.697500  1
  C  C982  1  0.568800  0.170100  0.197500  1
  C  C983  1  0.568800  0.670100  0.302500  1
  C  C984  1  0.431200  0.829900  0.802500  1
  C  C985  1  0.244000  0.299800  0.670000  1
  C  C986  1  0.756000  0.200200  0.170000  1
  C  C987  1  0.756000  0.700200  0.330000  1
  C  C988  1  0.244000  0.799800  0.830000  1
  C  C989  1  0.314800  0.312900  0.667800  1
  C  C990  1  0.685200  0.187100  0.167800  1
  C  C991  1  0.685200  0.687100  0.332200  1
  C  C992  1  0.314800  0.812900  0.832200  1
  C  C993  1  0.238000  0.292600  0.756900  1
  C  C994  1  0.762000  0.207400  0.256900  1
  C  C995  1  0.762000  0.707400  0.243100  1
  C  C996  1  0.238000  0.792600  0.743100  1
  C  C997  1  0.178000  0.281300  0.779200  1
  C  C998  1  0.822000  0.218700  0.279200  1
  C  C999  1  0.822000  0.718700  0.220800  1
  C  C1000  1  0.178000  0.781300  0.720800  1
  C  C1001  1  0.305300  0.305400  0.773000  1
  C  C1002  1  0.694700  0.194600  0.273000  1
  C  C1003  1  0.694700  0.694600  0.227000  1
  C  C1004  1  0.305300  0.805400  0.727000  1
  C  C1005  1  0.232500  0.291800  0.718200  1
  C  C1006  1  0.767500  0.208200  0.218200  1
  C  C1007  1  0.767500  0.708200  0.281800  1
  C  C1008  1  0.232500  0.791800  0.781800  1
  C  C1009  1  0.166500  0.279400  0.700900  1
  C  C1010  1  0.833500  0.220600  0.200900  1
  C  C1011  1  0.833500  0.720600  0.299100  1
  C  C1012  1  0.166500  0.779400  0.799100  1
  C  C1013  1  0.294200  0.303400  0.697400  1
  C  C1014  1  0.705800  0.196600  0.197400  1
  C  C1015  1  0.705800  0.696600  0.302600  1
  C  C1016  1  0.294200  0.803400  0.802600  1
  C  C1017  1  0.106900  0.267800  0.762900  1
  C  C1018  1  0.893100  0.232200  0.262900  1
  C  C1019  1  0.893100  0.732200  0.237100  1
  C  C1020  1  0.106900  0.767800  0.737100  1
  C  C1021  1  0.101800  0.265500  0.721800  1
  C  C1022  1  0.898200  0.234500  0.221800  1
  C  C1023  1  0.898200  0.734500  0.278200  1
  C  C1024  1  0.101800  0.765500  0.778200  1
  C  C1025  1  0.184500  0.281700  0.816000  1
  C  C1026  1  0.815500  0.218300  0.316000  1
  C  C1027  1  0.815500  0.718300  0.184000  1
  C  C1028  1  0.184500  0.781700  0.684000  1
  C  C1029  1  0.251000  0.294200  0.831800  1
  C  C1030  1  0.749000  0.205800  0.331800  1
  C  C1031  1  0.749000  0.705800  0.168200  1
  C  C1032  1  0.251000  0.794200  0.668200  1
  C  C1033  1  0.310000  0.306200  0.810900  1
  C  C1034  1  0.690000  0.193800  0.310900  1
  C  C1035  1  0.690000  0.693800  0.189100  1
  C  C1036  1  0.310000  0.806200  0.689100  1
  C  C1037  1  0.162600  0.279700  0.664000  1
  C  C1038  1  0.837400  0.220300  0.164000  1
  C  C1039  1  0.837400  0.720300  0.336000  1
  C  C1040  1  0.162600  0.779700  0.836000  1
  C  C1041  1  0.223600  0.291400  0.643300  1
  C  C1042  1  0.776400  0.208600  0.143300  1
  C  C1043  1  0.776400  0.708600  0.356700  1
  C  C1044  1  0.223600  0.791400  0.856700  1
  C  C1045  1  0.288300  0.302600  0.659500  1
  C  C1046  1  0.711700  0.197400  0.159500  1
  C  C1047  1  0.711700  0.697400  0.340500  1
  C  C1048  1  0.288300  0.802600  0.840500  1
  C  C1049  1  0.366000  0.316200  0.750600  1
  C  C1050  1  0.634000  0.183800  0.250600  1
  C  C1051  1  0.634000  0.683800  0.249400  1
  C  C1052  1  0.366000  0.816200  0.749400  1
  C  C1053  1  0.361200  0.314900  0.714500  1
  C  C1054  1  0.638800  0.185100  0.214500  1
  C  C1055  1  0.638800  0.685100  0.285500  1
  C  C1056  1  0.361200  0.814900  0.785500  1
  C  C1057  1  0.248700  0.165500  0.728100  1
  C  C1058  1  0.751300  0.334500  0.228100  1
  C  C1059  1  0.751300  0.834500  0.271900  1
  C  C1060  1  0.248700  0.665500  0.771900  1
  C  C1061  1  0.245900  0.163800  0.766000  1
  C  C1062  1  0.754100  0.336200  0.266000  1
  C  C1063  1  0.754100  0.836200  0.234000  1
  C  C1064  1  0.245900  0.663800  0.734000  1
  C  C1065  1  0.315000  0.178900  0.711100  1
  C  C1066  1  0.685000  0.321100  0.211100  1
  C  C1067  1  0.685000  0.821100  0.288900  1
  C  C1068  1  0.315000  0.678900  0.788900  1
  C  C1069  1  0.185700  0.154100  0.706400  1
  C  C1070  1  0.814300  0.345900  0.206400  1
  C  C1071  1  0.814300  0.845900  0.293600  1
  C  C1072  1  0.185700  0.654100  0.793600  1
  C  C1073  1  0.118500  0.140700  0.722200  1
  C  C1074  1  0.881500  0.359300  0.222200  1
  C  C1075  1  0.881500  0.859300  0.277800  1
  C  C1076  1  0.118500  0.640700  0.777800  1
  C  C1077  1  0.191900  0.156400  0.668800  1
  C  C1078  1  0.808100  0.343600  0.168800  1
  C  C1079  1  0.808100  0.843600  0.331200  1
  C  C1080  1  0.191900  0.656400  0.831200  1
  C  C1081  1  0.177100  0.149900  0.784500  1
  C  C1082  1  0.822900  0.350100  0.284500  1
  C  C1083  1  0.822900  0.850100  0.215500  1
  C  C1084  1  0.177100  0.649900  0.715500  1
  C  C1085  1  0.110800  0.136400  0.761200  1
  C  C1086  1  0.889200  0.363600  0.261200  1
  C  C1087  1  0.889200  0.863600  0.238800  1
  C  C1088  1  0.110800  0.636400  0.738800  1
  C  C1089  1  0.306600  0.174200  0.786200  1
  C  C1090  1  0.693400  0.325800  0.286200  1
  C  C1091  1  0.693400  0.825800  0.213800  1
  C  C1092  1  0.306600  0.674200  0.713800  1
  C  C1093  1  0.371900  0.187300  0.769300  1
  C  C1094  1  0.628100  0.312700  0.269300  1
  C  C1095  1  0.628100  0.812700  0.230700  1
  C  C1096  1  0.371900  0.687300  0.730700  1
  C  C1097  1  0.376200  0.190000  0.732700  1
  C  C1098  1  0.623800  0.310000  0.232700  1
  C  C1099  1  0.623800  0.810000  0.267300  1
  C  C1100  1  0.376200  0.690000  0.767300  1
  C  C1101  1  0.059300  0.130800  0.700900  1
  C  C1102  1  0.940700  0.369200  0.200900  1
  C  C1103  1  0.940700  0.869200  0.299100  1
  C  C1104  1  0.059300  0.630800  0.799100  1
  C  C1105  1  0.065100  0.133200  0.663600  1
  C  C1106  1  0.934900  0.366800  0.163600  1
  C  C1107  1  0.934900  0.866800  0.336400  1
  C  C1108  1  0.065100  0.633200  0.836400  1
  C  C1109  1  0.130000  0.145300  0.647700  1
  C  C1110  1  0.870000  0.354700  0.147700  1
  C  C1111  1  0.870000  0.854700  0.352300  1
  C  C1112  1  0.130000  0.645300  0.852300  1
  C  C1113  1  0.318000  0.180000  0.672900  1
  C  C1114  1  0.682000  0.320000  0.172900  1
  C  C1115  1  0.682000  0.820000  0.327100  1
  C  C1116  1  0.318000  0.680000  0.827100  1
  C  C1117  1  0.259600  0.168800  0.652500  1
  C  C1118  1  0.740400  0.331200  0.152500  1
  C  C1119  1  0.740400  0.831200  0.347500  1
  C  C1120  1  0.259600  0.668800  0.847500  1
  C  C1121  1  0.317900  0.180500  0.761400  1
  C  C1122  1  0.682100  0.319500  0.261400  1
  C  C1123  1  0.682100  0.819500  0.238600  1
  C  C1124  1  0.317900  0.680500  0.738600  1
  C  C1125  1  0.386700  0.196500  0.775000  1
  C  C1126  1  0.613300  0.303500  0.275000  1
  C  C1127  1  0.613300  0.803500  0.225000  1
  C  C1128  1  0.386700  0.696500  0.725000  1
  C  C1129  1  0.262000  0.165500  0.785900  1
  C  C1130  1  0.738000  0.334500  0.285900  1
  C  C1131  1  0.738000  0.834500  0.214100  1
  C  C1132  1  0.262000  0.665500  0.714100  1
  C  C1133  1  0.303400  0.178700  0.723300  1
  C  C1134  1  0.696600  0.321300  0.223300  1
  C  C1135  1  0.696600  0.821300  0.276700  1
  C  C1136  1  0.303400  0.678700  0.776700  1
  C  C1137  1  0.357700  0.193200  0.698000  1
  C  C1138  1  0.642300  0.306800  0.198000  1
  C  C1139  1  0.642300  0.806800  0.302000  1
  C  C1140  1  0.357700  0.693200  0.802000  1
  C  C1141  1  0.233900  0.162500  0.711400  1
  C  C1142  1  0.766100  0.337500  0.211400  1
  C  C1143  1  0.766100  0.837500  0.288600  1
  C  C1144  1  0.233900  0.662500  0.788600  1
  C  C1145  1  0.446300  0.212400  0.750000  1
  C  C1146  1  0.553700  0.287600  0.250000  1
  C  C1147  1  0.553700  0.787600  0.250000  1
  C  C1148  1  0.446300  0.712400  0.750000  1
  C  C1149  1  0.430000  0.211900  0.709700  1
  C  C1150  1  0.570000  0.288100  0.209700  1
  C  C1151  1  0.570000  0.788100  0.290300  1
  C  C1152  1  0.430000  0.711900  0.790300  1
  C  C1153  1  0.399200  0.198400  0.811500  1
  C  C1154  1  0.600800  0.301600  0.311500  1
  C  C1155  1  0.600800  0.801600  0.188500  1
  C  C1156  1  0.399200  0.698400  0.688500  1
  C  C1157  1  0.343800  0.183700  0.835500  1
  C  C1158  1  0.656200  0.316300  0.335500  1
  C  C1159  1  0.656200  0.816300  0.164500  1
  C  C1160  1  0.343800  0.683700  0.664500  1
  C  C1161  1  0.276800  0.167200  0.823100  1
  C  C1162  1  0.723200  0.332800  0.323100  1
  C  C1163  1  0.723200  0.832800  0.176900  1
  C  C1164  1  0.276800  0.667200  0.676900  1
  C  C1165  1  0.342600  0.190400  0.661800  1
  C  C1166  1  0.657400  0.309600  0.161800  1
  C  C1167  1  0.657400  0.809600  0.338200  1
  C  C1168  1  0.342600  0.690400  0.838200  1
  C  C1169  1  0.273700  0.174100  0.649900  1
  C  C1170  1  0.726300  0.325900  0.149900  1
  C  C1171  1  0.726300  0.825900  0.350100  1
  C  C1172  1  0.273700  0.674100  0.850100  1
  C  C1173  1  0.220100  0.160800  0.674100  1
  C  C1174  1  0.779900  0.339200  0.174100  1
  C  C1175  1  0.779900  0.839200  0.325900  1
  C  C1176  1  0.220100  0.660800  0.825900  1
  C  C1177  1  0.192500  0.149900  0.772300  1
  C  C1178  1  0.807500  0.350100  0.272300  1
  C  C1179  1  0.807500  0.850100  0.227700  1
  C  C1180  1  0.192500  0.649900  0.727700  1
  C  C1181  1  0.178500  0.148800  0.736800  1
  C  C1182  1  0.821500  0.351200  0.236800  1
  C  C1183  1  0.821500  0.851200  0.263200  1
  C  C1184  1  0.178500  0.648800  0.763200  1
  C  C1185  1  0.155000  0.148200  0.757500  1
  C  C1186  1  0.845000  0.351800  0.257500  1
  C  C1187  1  0.845000  0.851800  0.242500  1
  C  C1188  1  0.155000  0.648200  0.742500  1
  C  C1189  1  0.090000  0.137500  0.739000  1
  C  C1190  1  0.910000  0.362500  0.239000  1
  C  C1191  1  0.910000  0.862500  0.261000  1
  C  C1192  1  0.090000  0.637500  0.761000  1
  C  C1193  1  0.154600  0.147400  0.795500  1
  C  C1194  1  0.845400  0.352600  0.295500  1
  C  C1195  1  0.845400  0.852600  0.204500  1
  C  C1196  1  0.154600  0.647400  0.704500  1
  C  C1197  1  0.221400  0.160100  0.738700  1
  C  C1198  1  0.778600  0.339900  0.238700  1
  C  C1199  1  0.778600  0.839900  0.261300  1
  C  C1200  1  0.221400  0.660100  0.761300  1
  C  C1201  1  0.224200  0.161400  0.700800  1
  C  C1202  1  0.775800  0.338600  0.200800  1
  C  C1203  1  0.775800  0.838600  0.299200  1
  C  C1204  1  0.224200  0.661400  0.799200  1
  C  C1205  1  0.284300  0.170400  0.758500  1
  C  C1206  1  0.715700  0.329600  0.258500  1
  C  C1207  1  0.715700  0.829600  0.241500  1
  C  C1208  1  0.284300  0.670400  0.741500  1
  C  C1209  1  0.088900  0.138000  0.699200  1
  C  C1210  1  0.911100  0.362000  0.199200  1
  C  C1211  1  0.911100  0.862000  0.300800  1
  C  C1212  1  0.088900  0.638000  0.800800  1
  C  C1213  1  0.159700  0.149200  0.679500  1
  C  C1214  1  0.840300  0.350800  0.179500  1
  C  C1215  1  0.840300  0.850800  0.320500  1
  C  C1216  1  0.159700  0.649200  0.820500  1
  C  C1217  1  0.027400  0.125700  0.757500  1
  C  C1218  1  0.972600  0.374300  0.257500  1
  C  C1219  1  0.972600  0.874300  0.242500  1
  C  C1220  1  0.027400  0.625700  0.742500  1
  C  C1221  1  0.027300  0.124800  0.795000  1
  C  C1222  1  0.972700  0.375200  0.295000  1
  C  C1223  1  0.972700  0.875200  0.205000  1
  C  C1224  1  0.027300  0.624800  0.705000  1
  C  C1225  1  0.089300  0.135900  0.813600  1
  C  C1226  1  0.910700  0.364100  0.313600  1
  C  C1227  1  0.910700  0.864100  0.186400  1
  C  C1228  1  0.089300  0.635900  0.686400  1
  C  C1229  1  0.288000  0.173700  0.683500  1
  C  C1230  1  0.712000  0.326300  0.183500  1
  C  C1231  1  0.712000  0.826300  0.316500  1
  C  C1232  1  0.288000  0.673700  0.816500  1
  C  C1233  1  0.350600  0.184100  0.703200  1
  C  C1234  1  0.649400  0.315900  0.203200  1
  C  C1235  1  0.649400  0.815900  0.296800  1
  C  C1236  1  0.350600  0.684100  0.796800  1
  C  C1237  1  0.349100  0.182100  0.739900  1
  C  C1238  1  0.650900  0.317900  0.239900  1
  C  C1239  1  0.650900  0.817900  0.260100  1
  C  C1240  1  0.349100  0.682100  0.760100  1
  C  C1241  1  0.220100  0.157600  0.814200  1
  C  C1242  1  0.779900  0.342400  0.314200  1
  C  C1243  1  0.779900  0.842400  0.185800  1
  C  C1244  1  0.220100  0.657600  0.685800  1
  C  C1245  1  0.282300  0.168100  0.796700  1
  C  C1246  1  0.717700  0.331900  0.296700  1
  C  C1247  1  0.717700  0.831900  0.203300  1
  C  C1248  1  0.282300  0.668100  0.703300  1
  C  C1249  1  0.719300  0.060600  0.924700  1
  C  C1250  1  0.280700  0.439400  0.424700  1
  C  C1251  1  0.280700  0.939400  0.075300  1
  C  C1252  1  0.719300  0.560600  0.575300  1
  N  N1253  1  0.848800  0.898500  0.782600  1
  N  N1254  1  0.151200  0.601500  0.282600  1
  N  N1255  1  0.151200  0.101500  0.217400  1
  N  N1256  1  0.848800  0.398500  0.717400  1
  N  N1257  1  0.752300  0.940600  0.812000  1
  N  N1258  1  0.247700  0.559400  0.312000  1
  N  N1259  1  0.247700  0.059400  0.188000  1
  N  N1260  1  0.752300  0.440600  0.688000  1
  N  N1261  1  0.492200  0.003200  0.916800  1
  N  N1262  1  0.507800  0.496800  0.416800  1
  N  N1263  1  0.507800  0.996800  0.083200  1
  N  N1264  1  0.492200  0.503200  0.583200  1
  N  N1265  1  0.591300  0.081000  0.939700  1
  N  N1266  1  0.408700  0.419000  0.439700  1
  N  N1267  1  0.408700  0.919000  0.060300  1
  N  N1268  1  0.591300  0.581000  0.560300  1
  N  N1269  1  0.380400  0.988600  0.560700  1
  N  N1270  1  0.619600  0.511400  0.060700  1
  N  N1271  1  0.619600  0.011400  0.439300  1
  N  N1272  1  0.380400  0.488600  0.939300  1
  N  N1273  1  0.363400  0.050300  0.504800  1
  N  N1274  1  0.636600  0.449700  0.004800  1
  N  N1275  1  0.636600  0.949700  0.495200  1
  N  N1276  1  0.363400  0.550300  0.995200  1
  N  N1277  1  0.922700  0.437900  0.894000  1
  N  N1278  1  0.077300  0.062100  0.394000  1
  N  N1279  1  0.077300  0.562100  0.106000  1
  N  N1280  1  0.922700  0.937900  0.606000  1
  N  N1281  1  0.837100  0.357800  0.921300  1
  N  N1282  1  0.162900  0.142200  0.421300  1
  N  N1283  1  0.162900  0.642200  0.078700  1
  N  N1284  1  0.837100  0.857800  0.578700  1
  N  N1285  1  0.604300  0.550900  0.814000  1
  N  N1286  1  0.395700  0.949100  0.314000  1
  N  N1287  1  0.395700  0.449100  0.186000  1
  N  N1288  1  0.604300  0.050900  0.686000  1
  N  N1289  1  0.690900  0.499500  0.846200  1
  N  N1290  1  0.309100  0.000500  0.346200  1
  N  N1291  1  0.309100  0.500500  0.153800  1
  N  N1292  1  0.690900  0.999500  0.653800  1
  N  N1293  1  0.097800  0.475400  0.563800  1
  N  N1294  1  0.902200  0.024600  0.063800  1
  N  N1295  1  0.902200  0.524600  0.436200  1
  N  N1296  1  0.097800  0.975400  0.936200  1
  N  N1297  1  0.116200  0.417300  0.503900  1
  N  N1298  1  0.883800  0.082700  0.003900  1
  N  N1299  1  0.883800  0.582700  0.496100  1
  N  N1300  1  0.116200  0.917300  0.996100  1
  N  N1301  1  0.958900  0.986800  0.790300  1
  N  N1302  1  0.041100  0.513200  0.290300  1
  N  N1303  1  0.041100  0.013200  0.209700  1
  N  N1304  1  0.958900  0.486800  0.709700  1
  N  N1305  1  0.454600  0.066400  0.854700  1
  N  N1306  1  0.545400  0.433600  0.354700  1
  N  N1307  1  0.545400  0.933600  0.145300  1
  N  N1308  1  0.454600  0.566400  0.645300  1
  N  N1309  1  0.309400  0.051300  0.744700  1
  N  N1310  1  0.690600  0.448700  0.244700  1
  N  N1311  1  0.690600  0.948700  0.255300  1
  N  N1312  1  0.309400  0.551300  0.755300  1
  N  N1313  1  0.313500  0.053400  0.610700  1
  N  N1314  1  0.686500  0.446600  0.110700  1
  N  N1315  1  0.686500  0.946600  0.389300  1
  N  N1316  1  0.313500  0.553400  0.889300  1
  N  N1317  1  0.189400  0.029300  0.728300  1
  N  N1318  1  0.810600  0.470700  0.228300  1
  N  N1319  1  0.810600  0.970700  0.271700  1
  N  N1320  1  0.189400  0.529300  0.771700  1
  N  N1321  1  0.221200  0.033800  0.789800  1
  N  N1322  1  0.778800  0.466200  0.289800  1
  N  N1323  1  0.778800  0.966200  0.210200  1
  N  N1324  1  0.221200  0.533800  0.710200  1
  N  N1325  1  0.995600  0.374100  0.848200  1
  N  N1326  1  0.004400  0.125900  0.348200  1
  N  N1327  1  0.004400  0.625900  0.151800  1
  N  N1328  1  0.995600  0.874100  0.651800  1
  N  N1329  1  0.493100  0.465600  0.809700  1
  N  N1330  1  0.506900  0.034400  0.309700  1
  N  N1331  1  0.506900  0.534400  0.190300  1
  N  N1332  1  0.493100  0.965600  0.690300  1
  N  N1333  1  0.163400  0.411100  0.611100  1
  N  N1334  1  0.836600  0.088900  0.111100  1
  N  N1335  1  0.836600  0.588900  0.388900  1
  N  N1336  1  0.163400  0.911100  0.888900  1
  N  N1337  1  0.278200  0.425900  0.732200  1
  N  N1338  1  0.721800  0.074100  0.232200  1
  N  N1339  1  0.721800  0.574100  0.267800  1
  N  N1340  1  0.278200  0.925900  0.767800  1
  N  N1341  1  0.155800  0.402300  0.741000  1
  N  N1342  1  0.844200  0.097700  0.241000  1
  N  N1343  1  0.844200  0.597700  0.259000  1
  N  N1344  1  0.155800  0.902300  0.759000  1
  N  N1345  1  0.234600  0.416700  0.791500  1
  N  N1346  1  0.765400  0.083300  0.291500  1
  N  N1347  1  0.765400  0.583300  0.208500  1
  N  N1348  1  0.234600  0.916700  0.708500  1
  N  N1349  1  0.850300  0.036600  0.820000  1
  N  N1350  1  0.149700  0.463400  0.320000  1
  N  N1351  1  0.149700  0.963400  0.180000  1
  N  N1352  1  0.850300  0.536600  0.680000  1
  N  N1353  1  0.893700  0.288200  0.873000  1
  N  N1354  1  0.106300  0.211800  0.373000  1
  N  N1355  1  0.106300  0.711800  0.127000  1
  N  N1356  1  0.893700  0.788200  0.627000  1
  N  N1357  1  0.539200  0.152600  0.890600  1
  N  N1358  1  0.460800  0.347400  0.390600  1
  N  N1359  1  0.460800  0.847400  0.109400  1
  N  N1360  1  0.539200  0.652600  0.609400  1
  N  N1361  1  0.583700  0.405600  0.844400  1
  N  N1362  1  0.416300  0.094400  0.344400  1
  N  N1363  1  0.416300  0.594400  0.155600  1
  N  N1364  1  0.583700  0.905600  0.655600  1
  N  N1365  1  0.302600  0.118900  0.549900  1
  N  N1366  1  0.697400  0.381100  0.049900  1
  N  N1367  1  0.697400  0.881100  0.450100  1
  N  N1368  1  0.302600  0.618900  0.950100  1
  N  N1369  1  0.181200  0.346400  0.548600  1
  N  N1370  1  0.818800  0.153600  0.048600  1
  N  N1371  1  0.818800  0.653600  0.451400  1
  N  N1372  1  0.181200  0.846400  0.951400  1
  N  N1373  1  0.801100  0.673800  0.553600  1
  N  N1374  1  0.198900  0.826200  0.053600  1
  N  N1375  1  0.198900  0.326200  0.446400  1
  N  N1376  1  0.801100  0.173800  0.946400  1
  N  N1377  1  0.747800  0.016600  0.562500  1
  N  N1378  1  0.252200  0.483400  0.062500  1
  N  N1379  1  0.252200  0.983400  0.437500  1
  N  N1380  1  0.747800  0.516600  0.937500  1
  N  N1381  1  0.624300  0.832000  0.528400  1
  N  N1382  1  0.375700  0.668000  0.028400  1
  N  N1383  1  0.375700  0.168000  0.471600  1
  N  N1384  1  0.624300  0.332000  0.971600  1
  N  N1385  1  0.817100  0.939300  0.691300  1
  N  N1386  1  0.182900  0.560700  0.191300  1
  N  N1387  1  0.182900  0.060700  0.308700  1
  N  N1388  1  0.817100  0.439300  0.808700  1
  N  N1389  1  0.544800  0.562200  0.912800  1
  N  N1390  1  0.455200  0.937800  0.412800  1
  N  N1391  1  0.455200  0.437800  0.087200  1
  N  N1392  1  0.544800  0.062200  0.587200  1
  N  N1393  1  0.645000  0.028000  0.776400  1
  N  N1394  1  0.355000  0.472000  0.276400  1
  N  N1395  1  0.355000  0.972000  0.223600  1
  N  N1396  1  0.645000  0.528000  0.723600  1
  O  O1397  1  0.307500  0.314100  0.634200  1
  O  O1398  1  0.692500  0.185900  0.134200  1
  O  O1399  1  0.692500  0.685900  0.365800  1
  O  O1400  1  0.307500  0.814100  0.865800  1
  O  O1401  1  0.427200  0.333700  0.674100  1
  O  O1402  1  0.572800  0.166300  0.174100  1
  O  O1403  1  0.572800  0.666300  0.325900  1
  O  O1404  1  0.427200  0.833700  0.825900  1
  O  O1405  1  0.727500  0.673800  0.572600  1
  O  O1406  1  0.272500  0.826200  0.072600  1
  O  O1407  1  0.272500  0.326200  0.427400  1
  O  O1408  1  0.727500  0.173800  0.927400  1
  O  O1409  1  0.833200  0.711800  0.544700  1
  O  O1410  1  0.166800  0.788200  0.044700  1
  O  O1411  1  0.166800  0.288200  0.455300  1
  O  O1412  1  0.833200  0.211800  0.955300  1
  O  O1413  1  0.800400  0.628100  0.557200  1
  O  O1414  1  0.199600  0.871900  0.057200  1
  O  O1415  1  0.199600  0.371900  0.442800  1
  O  O1416  1  0.800400  0.128100  0.942800  1
  O  O1417  1  0.764400  0.016300  0.529400  1
  O  O1418  1  0.235600  0.483700  0.029400  1
  O  O1419  1  0.235600  0.983700  0.470600  1
  O  O1420  1  0.764400  0.516300  0.970600  1
  O  O1421  1  0.783700  0.046800  0.585400  1
  O  O1422  1  0.216300  0.453200  0.085400  1
  O  O1423  1  0.216300  0.953200  0.414600  1
  O  O1424  1  0.783700  0.546800  0.914600  1
  O  O1425  1  0.696400  0.985000  0.574500  1
  O  O1426  1  0.303600  0.515000  0.074500  1
  O  O1427  1  0.303600  0.015000  0.425500  1
  O  O1428  1  0.696400  0.485000  0.925500  1
  O  O1429  1  0.567500  0.849200  0.517100  1
  O  O1430  1  0.432500  0.650800  0.017100  1
  O  O1431  1  0.432500  0.150800  0.482900  1
  O  O1432  1  0.567500  0.349200  0.982900  1
  O  O1433  1  0.598300  0.785700  0.533100  1
  O  O1434  1  0.401700  0.714300  0.033100  1
  O  O1435  1  0.401700  0.214300  0.466900  1
  O  O1436  1  0.598300  0.285700  0.966900  1
  O  O1437  1  0.677800  0.856500  0.535000  1
  O  O1438  1  0.322200  0.643500  0.035000  1
  O  O1439  1  0.322200  0.143500  0.465000  1
  O  O1440  1  0.677800  0.356500  0.965000  1
  O  O1441  1  0.872000  0.922700  0.698800  1
  O  O1442  1  0.128000  0.577300  0.198800  1
  O  O1443  1  0.128000  0.077300  0.301200  1
  O  O1444  1  0.872000  0.422700  0.801200  1
  O  O1445  1  0.774900  0.949400  0.714100  1
  O  O1446  1  0.225100  0.550600  0.214100  1
  O  O1447  1  0.225100  0.050600  0.285900  1
  O  O1448  1  0.774900  0.449400  0.785900  1
  O  O1449  1  0.806800  0.947000  0.659600  1
  O  O1450  1  0.193200  0.553000  0.159600  1
  O  O1451  1  0.193200  0.053000  0.340400  1
  O  O1452  1  0.806800  0.447000  0.840400  1
  O  O1453  1  0.510200  0.542100  0.890100  1
  O  O1454  1  0.489800  0.957900  0.390100  1
  O  O1455  1  0.489800  0.457900  0.109900  1
  O  O1456  1  0.510200  0.042100  0.609900  1
  O  O1457  1  0.528400  0.562900  0.944100  1
  O  O1458  1  0.471600  0.937100  0.444100  1
  O  O1459  1  0.471600  0.437100  0.055900  1
  O  O1460  1  0.528400  0.062900  0.555900  1
  O  O1461  1  0.592000  0.599400  0.904900  1
  O  O1462  1  0.408000  0.900600  0.404900  1
  O  O1463  1  0.408000  0.400600  0.095100  1
  O  O1464  1  0.592000  0.099400  0.595100  1
  O  O1465  1  0.651500  0.989800  0.767700  1
  O  O1466  1  0.348500  0.510200  0.267700  1
  O  O1467  1  0.348500  0.010200  0.232300  1
  O  O1468  1  0.651500  0.489800  0.732300  1
  O  O1469  1  0.657000  0.020200  0.811600  1
  O  O1470  1  0.343000  0.479800  0.311600  1
  O  O1471  1  0.343000  0.979800  0.188400  1
  O  O1472  1  0.657000  0.520200  0.688400  1
  O  O1473  1  0.608700  0.056600  0.764400  1
  O  O1474  1  0.391300  0.443400  0.264400  1
  O  O1475  1  0.391300  0.943400  0.235600  1
  O  O1476  1  0.608700  0.556600  0.735600  1
  O  O1477  1  0.362000  0.528000  0.531000  1
  O  O1478  1  0.638000  0.972000  0.031000  1
  O  O1479  1  0.638000  0.472000  0.469000  1
  O  O1480  1  0.362000  0.028000  0.969000  1
  O  O1481  1  0.067000  0.997500  0.587200  1
  O  O1482  1  0.933000  0.502500  0.087200  1
  O  O1483  1  0.933000  0.002500  0.412800  1
  O  O1484  1  0.067000  0.497500  0.912800  1
  O  O1485  1  0.050200  0.808700  0.018000  1
  O  O1486  1  0.949800  0.691300  0.518000  1
  O  O1487  1  0.949800  0.191300  0.982000  1
  O  O1488  1  0.050200  0.308700  0.482000  1
  O  O1489  1  0.495300  0.115100  0.710400  1
  O  O1490  1  0.504700  0.384900  0.210400  1
  O  O1491  1  0.504700  0.884900  0.289600  1
  O  O1492  1  0.495300  0.615100  0.789600  1
  O  O1493  1  0.559100  0.155100  0.766100  1
  O  O1494  1  0.440900  0.344900  0.266100  1
  O  O1495  1  0.440900  0.844900  0.233900  1
  O  O1496  1  0.559100  0.655100  0.733900  1
  O  O1497  1  0.899900  0.277300  0.759400  1
  O  O1498  1  0.100100  0.222700  0.259400  1
  O  O1499  1  0.100100  0.722700  0.240600  1
  O  O1500  1  0.899900  0.777300  0.740600  1
  O  O1501  1  0.401000  0.410000  0.598300  1
  O  O1502  1  0.599000  0.090000  0.098300  1
  O  O1503  1  0.599000  0.590000  0.401700  1
  O  O1504  1  0.401000  0.910000  0.901700  1
  O  O1505  1  0.547000  0.948000  0.863600  1
  O  O1506  1  0.453000  0.552000  0.363600  1
  O  O1507  1  0.453000  0.052000  0.136400  1
  O  O1508  1  0.547000  0.448000  0.636400  1
  O  O1509  1  0.936100  0.864100  0.518300  1
  O  O1510  1  0.063900  0.635900  0.018300  1
  O  O1511  1  0.063900  0.135900  0.481700  1
  O  O1512  1  0.936100  0.364100  0.981700  1
  O  O1513  1  0.165000  0.947300  0.569700  1
  O  O1514  1  0.835000  0.552700  0.069700  1
  O  O1515  1  0.835000  0.052700  0.430300  1
  O  O1516  1  0.165000  0.447300  0.930300  1
  O  O1517  1  0.983000  0.219900  0.637400  1
  O  O1518  1  0.017000  0.280100  0.137400  1
  O  O1519  1  0.017000  0.780100  0.362600  1
  O  O1520  1  0.983000  0.719900  0.862600  1
  O  O1521  1  0.722500  0.778700  0.581900  1
  O  O1522  1  0.277500  0.721300  0.081900  1
  O  O1523  1  0.277500  0.221300  0.418100  1
  O  O1524  1  0.722500  0.278700  0.918100  1
  O  O1525  1  0.008000  0.960400  0.492800  1
  O  O1526  1  0.992000  0.539600  0.992800  1
  O  O1527  1  0.992000  0.039600  0.507200  1
  O  O1528  1  0.008000  0.460400  0.007200  1
  O  O1529  1  0.685000  0.505200  0.635900  1
  O  O1530  1  0.315000  0.994800  0.135900  1
  O  O1531  1  0.315000  0.494800  0.364100  1
  O  O1532  1  0.685000  0.005200  0.864100  1
  O  O1533  1  0.928000  0.049400  0.666900  1
  O  O1534  1  0.072000  0.450600  0.166900  1
  O  O1535  1  0.072000  0.950600  0.333100  1
  O  O1536  1  0.928000  0.549400  0.833100  1
  O  O1537  1  0.012500  0.164600  0.581200  1
  O  O1538  1  0.987500  0.335400  0.081200  1
  O  O1539  1  0.987500  0.835400  0.418800  1
  O  O1540  1  0.012500  0.664600  0.918800  1
  O  O1541  1  0.583000  0.181800  0.980000  1
  O  O1542  1  0.417000  0.318200  0.480000  1
  O  O1543  1  0.417000  0.818200  0.020000  1
  O  O1544  1  0.583000  0.681800  0.520000  1
  O  O1545  1  0.929000  0.305900  0.642200  1
  O  O1546  1  0.071000  0.194100  0.142200  1
  O  O1547  1  0.071000  0.694100  0.357800  1
  O  O1548  1  0.929000  0.805900  0.857800  1
  O  O1549  1  0.967700  0.341800  0.706500  1
  O  O1550  1  0.032300  0.158200  0.206500  1
  O  O1551  1  0.032300  0.658200  0.293500  1
  O  O1552  1  0.967700  0.841800  0.793500  1
  O  O1553  1  0.522900  0.133500  0.018000  1
  O  O1554  1  0.477100  0.366500  0.518000  1
  O  O1555  1  0.477100  0.866500  0.982000  1
  O  O1556  1  0.522900  0.633500  0.482000  1
  O  O1557  1  0.957000  0.407800  0.596500  1
  O  O1558  1  0.043000  0.092200  0.096500  1
  O  O1559  1  0.043000  0.592200  0.403500  1
  O  O1560  1  0.957000  0.907800  0.903500  1
  O  O1561  1  0.033000  0.072000  0.896400  1
  O  O1562  1  0.967000  0.428000  0.396400  1
  O  O1563  1  0.967000  0.928000  0.103600  1
  O  O1564  1  0.033000  0.572000  0.603600  1
  O  O1565  1  0.617000  0.785300  0.781800  1
  O  O1566  1  0.383000  0.714700  0.281800  1
  O  O1567  1  0.383000  0.214700  0.218200  1
  O  O1568  1  0.617000  0.285300  0.718200  1
  O  O1569  1  0.172000  0.053800  0.887500  1
  O  O1570  1  0.828000  0.446200  0.387500  1
  O  O1571  1  0.828000  0.946200  0.112500  1
  O  O1572  1  0.172000  0.553800  0.612500  1
  O  O1573  1  0.380100  0.382300  0.904900  1
  O  O1574  1  0.619900  0.117700  0.404900  1
  O  O1575  1  0.619900  0.617700  0.095100  1
  O  O1576  1  0.380100  0.882300  0.595100  1
  O  O1577  1  0.220500  0.490100  0.477200  1
  O  O1578  1  0.779500  0.009900  0.977200  1
  O  O1579  1  0.779500  0.509900  0.522800  1
  O  O1580  1  0.220500  0.990100  0.022800  1
  O  O1581  1  0.432600  0.449100  0.665700  1
  O  O1582  1  0.567400  0.050900  0.165700  1
  O  O1583  1  0.567400  0.550900  0.334300  1
  O  O1584  1  0.432600  0.949100  0.834300  1
  O  O1585  1  0.624000  0.652200  0.968500  1
  O  O1586  1  0.376000  0.847800  0.468500  1
  O  O1587  1  0.376000  0.347800  0.031500  1
  O  O1588  1  0.624000  0.152200  0.531500  1
  O  O1589  1  0.719000  0.888600  0.884300  1
  O  O1590  1  0.281000  0.611400  0.384300  1
  O  O1591  1  0.281000  0.111400  0.115700  1
  O  O1592  1  0.719000  0.388600  0.615700  1
  O  O1593  1  0.059000  0.019000  0.655500  1
  O  O1594  1  0.941000  0.481000  0.155500  1
  O  O1595  1  0.941000  0.981000  0.344500  1
  O  O1596  1  0.059000  0.519000  0.844500  1
  O  O1597  1  0.868000  0.069200  0.507500  1
  O  O1598  1  0.132000  0.430800  0.007500  1
  O  O1599  1  0.132000  0.930800  0.492500  1
  O  O1600  1  0.868000  0.569200  0.992500  1
  O  O1601  1  0.369400  0.314600  0.827900  1
  O  O1602  1  0.630600  0.185400  0.327900  1
  O  O1603  1  0.630600  0.685400  0.172100  1
  O  O1604  1  0.369400  0.814600  0.672100  1
  O  O1605  1  0.227700  0.283000  0.832100  1
  O  O1606  1  0.772300  0.217000  0.332100  1
  O  O1607  1  0.772300  0.717000  0.167900  1
  O  O1608  1  0.227700  0.783000  0.667900  1
  O  O1609  1  0.044200  0.251200  0.707900  1
  O  O1610  1  0.955800  0.248800  0.207900  1
  O  O1611  1  0.955800  0.748800  0.292100  1
  O  O1612  1  0.044200  0.751200  0.792100  1
  O  O1613  1  0.053000  0.259100  0.780500  1
  O  O1614  1  0.947000  0.240900  0.280500  1
  O  O1615  1  0.947000  0.740900  0.219500  1
  O  O1616  1  0.053000  0.759100  0.719500  1
  O  O1617  1  0.054000  0.121500  0.775800  1
  O  O1618  1  0.946000  0.378500  0.275800  1
  O  O1619  1  0.946000  0.878500  0.224200  1
  O  O1620  1  0.054000  0.621500  0.724200  1
  O  O1621  1  0.170800  0.149200  0.817000  1
  O  O1622  1  0.829200  0.350800  0.317000  1
  O  O1623  1  0.829200  0.850800  0.183000  1
  O  O1624  1  0.170800  0.649200  0.683000  1
  O  O1625  1  0.477500  0.228100  0.688600  1
  O  O1626  1  0.522500  0.271900  0.188600  1
  O  O1627  1  0.522500  0.771900  0.311400  1
  O  O1628  1  0.477500  0.728100  0.811400  1
  O  O1629  1  0.506900  0.225200  0.759800  1
  O  O1630  1  0.493100  0.274800  0.259800  1
  O  O1631  1  0.493100  0.774800  0.240200  1
  O  O1632  1  0.506900  0.725200  0.740200  1
  O  O1633  1  0.160300  0.146500  0.646700  1
  O  O1634  1  0.839700  0.353500  0.146700  1
  O  O1635  1  0.839700  0.853500  0.353300  1
  O  O1636  1  0.160300  0.646500  0.853300  1
  O  O1637  1  0.034800  0.130700  0.681700  1
  O  O1638  1  0.965200  0.369300  0.181700  1
  O  O1639  1  0.965200  0.869300  0.318300  1
  O  O1640  1  0.034800  0.630700  0.818300  1
  O  O1641  1  0.008000  0.795200  0.489900  1
  O  O1642  1  0.992000  0.704800  0.989900  1
  O  O1643  1  0.992000  0.204800  0.510100  1
  O  O1644  1  0.008000  0.295200  0.010100  1
  O  O1645  1  0.380000  0.113800  0.025400  1
  O  O1646  1  0.620000  0.386200  0.525400  1
  O  O1647  1  0.620000  0.886200  0.974600  1
  O  O1648  1  0.380000  0.613800  0.474600  1
  O  O1649  1  0.889000  0.431600  0.554400  1
  O  O1650  1  0.111000  0.068400  0.054400  1
  O  O1651  1  0.111000  0.568400  0.445600  1
  O  O1652  1  0.889000  0.931600  0.945600  1
  O  O1653  1  0.008000  0.088000  0.920900  1
  O  O1654  1  0.992000  0.412000  0.420900  1
  O  O1655  1  0.992000  0.912000  0.079100  1
  O  O1656  1  0.008000  0.588000  0.579100  1
  O  O1657  1  0.662000  0.739200  0.731600  1
  O  O1658  1  0.338000  0.760800  0.231600  1
  O  O1659  1  0.338000  0.260800  0.268400  1
  O  O1660  1  0.662000  0.239200  0.768400  1
  O  O1661  1  0.230000  0.088000  0.916100  1
  O  O1662  1  0.770000  0.412000  0.416100  1
  O  O1663  1  0.770000  0.912000  0.083900  1
  O  O1664  1  0.230000  0.588000  0.583900  1
  O  O1665  1  0.281000  0.418700  0.896900  1
  O  O1666  1  0.719000  0.081300  0.396900  1
  O  O1667  1  0.719000  0.581300  0.103100  1
  O  O1668  1  0.281000  0.918700  0.603100  1
  O  O1669  1  0.315000  0.532500  0.516800  1
  O  O1670  1  0.685000  0.967500  0.016800  1
  O  O1671  1  0.685000  0.467500  0.483200  1
  O  O1672  1  0.315000  0.032500  0.983200  1
  O  O1673  1  0.522000  0.434300  0.694100  1
  O  O1674  1  0.478000  0.065700  0.194100  1
  O  O1675  1  0.478000  0.565700  0.305900  1
  O  O1676  1  0.522000  0.934300  0.805900  1
