
#######################################################################
#
#                 Cambridge Crystallographic Data Centre
#                                CCDC 
#
#######################################################################
#
# If this CIF has been generated from an entry in the Cambridge 
# Structural Database, then it will include bibliographic, chemical, 
# crystal, experimental, refinement or atomic coordinate data resulting 
# from the CCDC's data processing and validation procedures.
#
#######################################################################

data_GACVUC
_chemical_formula_moiety         'C144 H228 N6 P12 Pt6 6+,6(N1 O3 1-)'
_chemical_name_systematic        
"Cyclo-(tris(\m~2~-4,4'-bipyridyl)-tris(\m~2~-phenanthrene-2,9-diyl)-hexakis(bis(triethylphosphine)-platinum)) hexanitrate"
_symmetry_cell_setting           monoclinic
_symmetry_space_group_name_H-M   'P 21/m'
_symmetry_Int_Tables_number      11
_space_group_name_Hall           '-P 2yb'
loop_
_symmetry_equiv_pos_site_id
_symmetry_equiv_pos_as_xyz
1 x,y,z
2 -x,1/2+y,-z
3 -x,-y,-z
4 x,1/2-y,z
_cell_length_a                   10.4887(2)
_cell_length_b                   41.3852(10)
_cell_length_c                   23.0853(6)
_cell_angle_alpha                90
_cell_angle_beta                 99.3660(10)
_cell_angle_gamma                90
_cell_volume                     9887.21
_exptl_crystal_colour            yellow
_cell_formula_units_Z            2
_exptl_crystal_recrystallization_method dichloromethane/acetone/n-pentane
loop_
_atom_site_label
_atom_site_type_symbol
_atom_site_fract_x
_atom_site_fract_y
_atom_site_fract_z
Pt1 Pt 0.23791(10) 0.113898(18) 0.92952(4)
Pt2 Pt 0.50962(7) -0.001617(17) 0.71624(4)
Pt3 Pt 1.07042(9) 0.154222(18) 0.44462(5)
N1 N 0.2576(16) 0.1661(4) 0.9297(8)
N2 N 0.6212(16) 0.0256(4) 0.6631(7)
N3 N 0.9736(16) 0.1245(4) 0.4965(9)
C1 C 0.2042(19) 0.0646(6) 0.9302(10)
C2 C 0.163(2) 0.0503(7) 0.9855(12)
H1 H 0.1591 0.0623 1.0202
C3 C 0.134(3) 0.0190(5) 0.9791(16)
H2 H 0.0730 0.0102 1.0010
C4 C 0.190(2) -0.0019(6) 0.9412(10)
C5 C 0.1522(19) -0.0357(6) 0.9406(10)
H3 H 0.1151 -0.0442 0.9722
C6 C 0.170(2) -0.0552(5) 0.8948(10)
H4 H 0.1278 -0.0756 0.8895
C7 C 0.2552(19) -0.0442(4) 0.8536(9)
C8 C 0.2965(19) -0.0669(5) 0.8163(9)
H5 H 0.2740 -0.0892 0.8170
C9 C 0.3730(16) -0.0546(4) 0.7781(9)
H6 H 0.4056 -0.0695 0.7529
C10 C 0.4069(13) -0.0219(4) 0.7731(7)
C11 C 0.3595(16) -0.0010(4) 0.8094(8)
H7 H 0.3772 0.0214 0.8064
C12 C 0.2797(15) -0.0118(4) 0.8546(9)
C13 C 0.241(2) 0.0114(4) 0.8979(9)
C14 C 0.2620(15) 0.0434(4) 0.8956(8)
H8 H 0.3170 0.0516 0.8702
C15 C 0.6706(16) 0.0131(5) 0.6212(10)
H9 H 0.6622 -0.0094 0.6140
C16 C 0.7349(19) 0.0316(6) 0.5867(10)
H10 H 0.7661 0.0220 0.5544
C17 C 0.7559(18) 0.0643(4) 0.5977(8)
C18 C 0.694(2) 0.0761(4) 0.6430(9)
H11 H 0.6987 0.0984 0.6525
C19 C 0.6309(18) 0.0561(6) 0.6724(9)
H12 H 0.5895 0.0649 0.7025
C20 C 0.830(2) 0.0864(4) 0.5596(10)
C21 C 0.9151(17) 0.0728(4) 0.5291(8)
H13 H 0.9310 0.0502 0.5306
C22 C 0.9782(15) 0.0930(4) 0.4957(8)
H14 H 1.0292 0.0833 0.4700
C23 C 0.894(3) 0.1397(9) 0.5259(13)
H15 H 0.8783 0.1623 0.5216
C24 C 0.823(2) 0.1175 0.5705(12)
H16 H 0.7811 0.1262 0.6006
C25 C 1.1761(17) 0.1793(4) 0.3957(9)
C26 C 1.247(2) 0.1650(5) 0.3585(12)
H17 H 1.2533 0.1421 0.3593
C27 C 1.308(2) 0.1810(4) 0.3209(11)
H18 H 1.3413 0.1701 0.2903
C28 C 1.3224(18) 0.2170(5) 0.3287(9)
C29 C 1.2472(16) 0.2326(3) 0.3612(7)
C30 C 1.399(2) 0.2342(5) 0.2942(13)
H19 H 1.4502 0.2227 0.2708
C31 C 1.1776(15) 0.2140(4) 0.3941(9)
H20 H 1.1259 0.2251 0.4179
C32 C 0.196(2) 0.1830(6) 0.9649(10)
H21 H 0.1516 0.1717 0.9914
C33 C 0.193(2) 0.2151(4) 0.9647(10)
H22 H 0.1406 0.2267 0.9875
C34 C 0.2690(16) 0.2312(4) 0.9304(8)
C35 C 0.340(2) 0.2133(5) 0.8966(10)
H23 H 0.3988 0.2232 0.8746
C36 C 0.3225(19) 0.1819(4) 0.8967(10)
H24 H 0.3616 0.1697 0.8694
P1 P 0.4340(9) 0.10668(16) 0.9970(4)
C37 C 0.541(3) 0.1438(6) 1.0087(13)
C38 C 0.680(3) 0.1495(12) 1.041(2)
C39 C 0.529(2) 0.0745(6) 0.9646(12)
H25 H 0.5007 0.0721 0.9219
H26 H 0.6234 0.0791 0.9724
C40 C 0.496(3) 0.0451(9) 0.9982(16)
H27 H 0.5420 0.0263 0.9868
H28 H 0.4022 0.0412 0.9891
H29 H 0.5203 0.0490 1.0404
C41 C 0.416(4) 0.1018(12) 1.0743(10)
H30 H 0.3767 0.0808 1.0818
H31 H 0.4990 0.1045 1.1011
C42 C 0.324(6) 0.1299(15) 1.079(3)
H32 H 0.3019 0.1306 1.1182
H33 H 0.2456 0.1270 1.0498
H34 H 0.3664 0.1502 1.0707
P2 P 0.0550(8) 0.11916(17) 0.8611(5)
C43 C -0.088(5) 0.1440(17) 0.874(3)
H35 H -0.0630 0.1661 0.8877
H36 H -0.1553 0.1452 0.8384
C44 C -0.132(7) 0.1234(18) 0.922(3)
H37 H -0.2085 0.1333 0.9346
H38 H -0.0624 0.1221 0.9560
H39 H -0.1540 0.1016 0.9073
C45 C 0.048(4) 0.0944(9) 0.7925(12)
H40 H 0.1327 0.0964 0.7790
H41 H 0.0378 0.0715 0.8030
C46 C -0.054(5) 0.1021(14) 0.742(2)
H42 H -0.0493 0.0867 0.7104
H43 H -0.0404 0.1241 0.7283
H44 H -0.1385 0.1007 0.7545
C47 C 0.057(5) 0.1552(9) 0.8122(19)
H45 H -0.0312 0.1591 0.7910
H46 H 0.0842 0.1744 0.8367
C48 C 0.149(4) 0.1507(11) 0.767(2)
H47 H 0.1450 0.1698 0.7421
H48 H 0.1238 0.1315 0.7435
H49 H 0.2378 0.1480 0.7882
P3 P 0.3229(6) 0.00480(15) 0.6480(3)
C49 C 0.287(4) 0.0476(6) 0.629(2)
H50 H 0.3681 0.0604 0.6338
H51 H 0.2418 0.0497 0.5885
C50 C 0.202(4) 0.0591(12) 0.673(2)
H52 H 0.1727 0.0813 0.6630
H53 H 0.2506 0.0586 0.7127
H54 H 0.1262 0.0449 0.6704
C51 C 0.162(3) -0.0107(11) 0.655(2)
H55 H 0.1730 -0.0344 0.6595
H56 H 0.1468 -0.0029 0.6944
C52 C 0.032(5) -0.0064(16) 0.616(3)
H57 H -0.0367 -0.0157 0.6346
H58 H 0.0339 -0.0175 0.5782
H59 H 0.0153 0.0167 0.6084
C53 C 0.330(3) -0.0146(6) 0.5763(9)
H60 H 0.2448 -0.0130 0.5510
H61 H 0.3940 -0.0031 0.5566
C54 C 0.368(2) -0.0499(6) 0.5841(12)
H62 H 0.3761 -0.0593 0.5459
H63 H 0.3022 -0.0616 0.6012
H64 H 0.4515 -0.0516 0.6104
P4 P 0.6925(5) -0.01800(15) 0.7803(3)
C55 C 0.699(3) -0.0086(6) 0.8599(8)
H65 H 0.6233 -0.0175 0.8748
H66 H 0.7789 -0.0174 0.8835
C56 C 0.699(3) 0.0280(7) 0.8616(14)
H67 H 0.7015 0.0353 0.9021
H68 H 0.6204 0.0361 0.8371
H69 H 0.7750 0.0362 0.8466
C57 C 0.851(2) -0.0052(8) 0.7617(16)
H70 H 0.8513 -0.0088 0.7193
H71 H 0.8640 0.0181 0.7699
C58 C 0.962(4) -0.0244(11) 0.7976(18)
H72 H 1.0445 -0.0169 0.7878
H73 H 0.9511 -0.0475 0.7882
H74 H 0.9612 -0.0211 0.8395
C59 C 0.707(2) -0.0631(4) 0.7823(9)
H75 H 0.7888 -0.0689 0.8082
H76 H 0.6352 -0.0720 0.8002
C60 C 0.706(3) -0.0792(7) 0.7227(11)
H77 H 0.7100 -0.1027 0.7277
H78 H 0.7806 -0.0719 0.7057
H79 H 0.6261 -0.0734 0.6964
P5 P 1.2467(9) 0.15883(16) 0.5173(4)
C61 C 1.411(2) 0.1598(9) 0.5023(15)
H80 H 1.4252 0.1768 0.4737
H81 H 1.4765 0.1617 0.5383
C62 C 1.403(4) 0.1263(10) 0.476(2)
H82 H 1.4854 0.1210 0.4633
H83 H 1.3333 0.1255 0.4426
H84 H 1.3864 0.1107 0.5059
C63 C 1.267(3) 0.1313(8) 0.5829(12)
H85 H 1.1918 0.1348 0.6029
H86 H 1.2604 0.1089 0.5677
C64 C 1.384(3) 0.1325(9) 0.6291(14)
H87 H 1.3750 0.1171 0.6604
H88 H 1.3945 0.1544 0.6456
H89 H 1.4609 0.1269 0.6118
C65 C 1.264(4) 0.2003(7) 0.5508(19)
H90 H 1.3408 0.2014 0.5818
H91 H 1.2725 0.2167 0.5206
C66 C 1.142(4) 0.2063(14) 0.577(2)
H92 H 1.1437 0.2283 0.5925
H93 H 1.1377 0.1907 0.6084
H94 H 1.0663 0.2036 0.5462
P6 P 0.8996(6) 0.15414(14) 0.3693(4)
C67 C 0.824(6) 0.1946(8) 0.381(2)
H95 H 0.7312 0.1934 0.3841
H96 H 0.8724 0.2073 0.4139
C68 C 0.850(4) 0.2044(12) 0.322(2)
H97 H 0.8243 0.2270 0.3149
H98 H 0.8008 0.1906 0.2923
H99 H 0.9426 0.2021 0.3210
C69 C 0.7548(19) 0.1344(7) 0.3874(12)
H100 H 0.7772 0.1120 0.4004
H101 H 0.7269 0.1460 0.4207
C70 C 0.643(3) 0.1333(9) 0.3368(13)
H102 H 0.5702 0.1216 0.3490
H103 H 0.6697 0.1222 0.3033
H104 H 0.6155 0.1554 0.3254
C71 C 0.935(3) 0.1336(8) 0.2996(11)
H105 H 0.8580 0.1355 0.2684
H106 H 1.0079 0.1446 0.2858
C72 C 0.967(3) 0.0980(7) 0.3112(13)
H107 H 0.9903 0.0882 0.2757
H108 H 0.8919 0.0869 0.3219
H109 H 1.0401 0.0962 0.3435
C34C C 0.2690(16) 0.2688(4) 0.9304(8)
C33C C 0.193(2) 0.2849(4) 0.9647(10)
C32C C 0.196(2) 0.3170(6) 0.9649(10)
N1C N 0.2576(16) 0.3339(4) 0.9297(8)
Pt1C Pt 0.23791(10) 0.386102(18) 0.92952(4)
C1C C 0.2042(19) 0.4354(6) 0.9302(10)
C2C C 0.163(2) 0.4497(7) 0.9855(12)
H1C H 0.1591 0.4377 1.0202
C3C C 0.134(3) 0.4810(5) 0.9791(16)
H2C H 0.0730 0.4898 1.0010
C4C C 0.190(2) 0.5019(6) 0.9412(10)
C5C C 0.1522(19) 0.5357(6) 0.9406(10)
H3C H 0.1151 0.5442 0.9722
C6C C 0.170(2) 0.5552(5) 0.8948(10)
H4C H 0.1278 0.5756 0.8895
C7C C 0.2552(19) 0.5442(4) 0.8536(9)
C8C C 0.2965(19) 0.5669(5) 0.8163(9)
H5C H 0.2740 0.5892 0.8170
C9C C 0.3730(16) 0.5546(4) 0.7781(9)
H6C H 0.4056 0.5695 0.7529
C10C C 0.4069(13) 0.5219(4) 0.7731(7)
Pt2C Pt 0.50962(7) 0.501617(17) 0.71624(4)
N2C N 0.6212(16) 0.4744(4) 0.6631(7)
C15C C 0.6706(16) 0.4869(5) 0.6212(10)
H9C H 0.6622 0.5094 0.6140
C16C C 0.7349(19) 0.4684(6) 0.5867(10)
H10C H 0.7661 0.4780 0.5544
C17C C 0.7559(18) 0.4357(4) 0.5977(8)
C18C C 0.694(2) 0.4239(4) 0.6430(9)
H11C H 0.6987 0.4016 0.6525
C19C C 0.6309(18) 0.4439(6) 0.6724(9)
H12C H 0.5895 0.4351 0.7025
C20C C 0.830(2) 0.4136(4) 0.5596(10)
C21C C 0.9151(17) 0.4272(4) 0.5291(8)
H13C H 0.9310 0.4498 0.5306
C22C C 0.9782(15) 0.4070(4) 0.4957(8)
N3C N 0.9736(16) 0.3755(4) 0.4965(9)
Pt3C Pt 1.07042(9) 0.345778(18) 0.44462(5)
C25C C 1.1761(17) 0.3207(4) 0.3957(9)
C26C C 1.247(2) 0.3350(5) 0.3585(12)
H17C H 1.2533 0.3579 0.3593
C27C C 1.308(2) 0.3190(4) 0.3209(11)
H18C H 1.3413 0.3299 0.2903
C28C C 1.3224(18) 0.2830(5) 0.3287(9)
C29C C 1.2472(16) 0.2674(3) 0.3612(7)
C30C C 1.399(2) 0.2658(5) 0.2942(13)
H19C H 1.4502 0.2773 0.2708
C31C C 1.1776(15) 0.2860(4) 0.3941(9)
H20C H 1.1259 0.2749 0.4179
P5C P 1.2467(9) 0.34117(16) 0.5173(4)
C61C C 1.411(2) 0.3402(9) 0.5023(15)
H80C H 1.4252 0.3232 0.4737
H81C H 1.4765 0.3383 0.5383
C62C C 1.403(4) 0.3737(10) 0.476(2)
H82C H 1.4854 0.3790 0.4633
H83C H 1.3333 0.3745 0.4426
H84C H 1.3864 0.3893 0.5059
C63C C 1.267(3) 0.3687(8) 0.5829(12)
H85C H 1.1918 0.3652 0.6029
H86C H 1.2604 0.3911 0.5677
C64C C 1.384(3) 0.3675(9) 0.6291(14)
H87C H 1.3750 0.3829 0.6604
H88C H 1.3945 0.3456 0.6456
H89C H 1.4609 0.3731 0.6118
C65C C 1.264(4) 0.2997(7) 0.5508(19)
H90C H 1.3408 0.2986 0.5818
H91C H 1.2725 0.2833 0.5206
C66C C 1.142(4) 0.2937(14) 0.577(2)
H92C H 1.1437 0.2717 0.5925
H93C H 1.1377 0.3093 0.6084
H94C H 1.0663 0.2964 0.5462
P6C P 0.8996(6) 0.34586(14) 0.3693(4)
C67C C 0.824(6) 0.3054(8) 0.381(2)
H95C H 0.7312 0.3066 0.3841
H96C H 0.8724 0.2927 0.4139
C68C C 0.850(4) 0.2956(12) 0.322(2)
H97C H 0.8243 0.2730 0.3149
H98C H 0.8008 0.3094 0.2923
H99C H 0.9426 0.2979 0.3210
C69C C 0.7548(19) 0.3656(7) 0.3874(12)
H100C H 0.7772 0.3880 0.4004
H101C H 0.7269 0.3540 0.4207
C70C C 0.643(3) 0.3667(9) 0.3368(13)
H102C H 0.5702 0.3784 0.3490
H103C H 0.6697 0.3778 0.3033
H104C H 0.6155 0.3446 0.3254
C71C C 0.935(3) 0.3664(8) 0.2996(11)
H105C H 0.8580 0.3645 0.2684
H106C H 1.0079 0.3554 0.2858
C72C C 0.967(3) 0.4020(7) 0.3112(13)
H107C H 0.9903 0.4118 0.2757
H108C H 0.8919 0.4131 0.3219
H109C H 1.0401 0.4038 0.3435
C23C C 0.894(3) 0.3603(9) 0.5259(13)
H15C H 0.8783 0.3377 0.5216
C24C C 0.823(2) 0.3825 0.5705(12)
H16C H 0.7811 0.3738 0.6006
H14C H 1.0292 0.4167 0.4700
P3C P 0.3229(6) 0.49520(15) 0.6480(3)
C49C C 0.287(4) 0.4524(6) 0.629(2)
H50C H 0.3681 0.4396 0.6338
H51C H 0.2418 0.4503 0.5885
C50C C 0.202(4) 0.4409(12) 0.673(2)
H52C H 0.1727 0.4187 0.6630
H53C H 0.2506 0.4414 0.7127
H54C H 0.1262 0.4551 0.6704
C51C C 0.162(3) 0.5107(11) 0.655(2)
H55C H 0.1730 0.5344 0.6595
H56C H 0.1468 0.5029 0.6944
C52C C 0.032(5) 0.5064(16) 0.616(3)
H57C H -0.0367 0.5157 0.6346
H58C H 0.0339 0.5175 0.5782
H59C H 0.0153 0.4833 0.6084
C53C C 0.330(3) 0.5146(6) 0.5763(9)
H60C H 0.2448 0.5130 0.5510
H61C H 0.3940 0.5031 0.5566
C54C C 0.368(2) 0.5499(6) 0.5841(12)
H62C H 0.3761 0.5593 0.5459
H63C H 0.3022 0.5616 0.6012
H64C H 0.4515 0.5516 0.6104
P4C P 0.6925(5) 0.51800(15) 0.7803(3)
C55C C 0.699(3) 0.5086(6) 0.8599(8)
H65C H 0.6233 0.5175 0.8748
H66C H 0.7789 0.5174 0.8835
C56C C 0.699(3) 0.4720(7) 0.8616(14)
H67C H 0.7015 0.4647 0.9021
H68C H 0.6204 0.4639 0.8371
H69C H 0.7750 0.4638 0.8466
C57C C 0.851(2) 0.5052(8) 0.7617(16)
H70C H 0.8513 0.5088 0.7193
H71C H 0.8640 0.4819 0.7699
C58C C 0.962(4) 0.5244(11) 0.7976(18)
H72C H 1.0445 0.5169 0.7878
H73C H 0.9511 0.5475 0.7882
H74C H 0.9612 0.5211 0.8395
C59C C 0.707(2) 0.5631(4) 0.7823(9)
H75C H 0.7888 0.5689 0.8082
H76C H 0.6352 0.5720 0.8002
C60C C 0.706(3) 0.5792(7) 0.7227(11)
H77C H 0.7100 0.6027 0.7277
H78C H 0.7806 0.5719 0.7057
H79C H 0.6261 0.5734 0.6964
C11C C 0.3595(16) 0.5010(4) 0.8094(8)
H7C H 0.3772 0.4786 0.8064
C12C C 0.2797(15) 0.5118(4) 0.8546(9)
C13C C 0.241(2) 0.4886(4) 0.8979(9)
C14C C 0.2620(15) 0.4566(4) 0.8956(8)
H8C H 0.3170 0.4484 0.8702
P1C P 0.4340(9) 0.39332(16) 0.9970(4)
C37C C 0.541(3) 0.3562(6) 1.0087(13)
C38C C 0.680(3) 0.3505(12) 1.041(2)
C39C C 0.529(2) 0.4255(6) 0.9646(12)
H25C H 0.5007 0.4279 0.9219
H26C H 0.6234 0.4209 0.9724
C40C C 0.496(3) 0.4549(9) 0.9982(16)
H27C H 0.5420 0.4737 0.9868
H28C H 0.4022 0.4588 0.9891
H29C H 0.5203 0.4510 1.0404
C41C C 0.416(4) 0.3982(12) 1.0743(10)
H30C H 0.3767 0.4192 1.0818
H31C H 0.4990 0.3955 1.1011
C42C C 0.324(6) 0.3701(15) 1.079(3)
H32C H 0.3019 0.3694 1.1182
H33C H 0.2456 0.3730 1.0498
H34C H 0.3664 0.3498 1.0707
P2C P 0.0550(8) 0.38084(17) 0.8611(5)
C43C C -0.088(5) 0.3560(17) 0.874(3)
H35C H -0.0630 0.3339 0.8877
H36C H -0.1553 0.3548 0.8384
C44C C -0.132(7) 0.3766(18) 0.922(3)
H37C H -0.2085 0.3667 0.9346
H38C H -0.0624 0.3779 0.9560
H39C H -0.1540 0.3984 0.9073
C45C C 0.048(4) 0.4056(9) 0.7925(12)
H40C H 0.1327 0.4036 0.7790
H41C H 0.0378 0.4285 0.8030
C46C C -0.054(5) 0.3979(14) 0.742(2)
H42C H -0.0493 0.4133 0.7104
H43C H -0.0404 0.3759 0.7283
H44C H -0.1385 0.3993 0.7545
C47C C 0.057(5) 0.3448(9) 0.8122(19)
H45C H -0.0312 0.3409 0.7910
H46C H 0.0842 0.3256 0.8367
C48C C 0.149(4) 0.3493(11) 0.767(2)
H47C H 0.1450 0.3302 0.7421
H48C H 0.1238 0.3685 0.7435
H49C H 0.2378 0.3520 0.7882
C36C C 0.3225(19) 0.3181(4) 0.8967(10)
C35C C 0.340(2) 0.2867(5) 0.8966(10)
H23C H 0.3988 0.2768 0.8746
H24C H 0.3616 0.3303 0.8694
H21C H 0.1516 0.3283 0.9914
H22C H 0.1406 0.2733 0.9875
N4 N 0.492(3) -0.1021(8) 0.1913(17)
O1 O 0.553(3) -0.0777(7) 0.2047(12)
O2 O 0.409(4) -0.1099(8) 0.2215(15)
O3 O 0.475(3) -0.1264(9) 0.1611(15)
N5 N -0.238(4) -0.0457(7) 0.5432(15)
O4 O -0.202(3) -0.0618(10) 0.5887(17)
O5 O -0.153(3) -0.0331(8) 0.5198(13)
O6 O -0.353(4) -0.0412(11) 0.527(2)
loop_
_geom_bond_atom_site_label_1
_geom_bond_atom_site_label_2
_geom_bond_site_symmetry_1
_geom_bond_site_symmetry_2
Pt1 N1 1_555 1_555
Pt2 N2 1_555 1_555
Pt3 N3 1_555 1_555
N1 C32 1_555 1_555
N2 C15 1_555 1_555
N3 C22 1_555 1_555
C1 Pt1 1_555 1_555
C2 C1 1_555 1_555
H1 C2 1_555 1_555
C3 C2 1_555 1_555
H2 C3 1_555 1_555
C4 C3 1_555 1_555
C5 C4 1_555 1_555
H3 C5 1_555 1_555
C6 C5 1_555 1_555
H4 C6 1_555 1_555
C7 C6 1_555 1_555
C8 C7 1_555 1_555
H5 C8 1_555 1_555
C9 C8 1_555 1_555
H6 C9 1_555 1_555
C10 Pt2 1_555 1_555
C11 C10 1_555 1_555
H7 C11 1_555 1_555
C12 C7 1_555 1_555
C13 C4 1_555 1_555
C14 C1 1_555 1_555
H8 C14 1_555 1_555
C15 H9 1_555 1_555
C16 C15 1_555 1_555
H10 C16 1_555 1_555
C17 C16 1_555 1_555
C18 C17 1_555 1_555
H11 C18 1_555 1_555
C19 N2 1_555 1_555
H12 C19 1_555 1_555
C20 C17 1_555 1_555
C21 C20 1_555 1_555
H13 C21 1_555 1_555
C22 C21 1_555 1_555
H14 C22 1_555 1_555
C23 N3 1_555 1_555
H15 C23 1_555 1_555
C24 C20 1_555 1_555
H16 C24 1_555 1_555
C25 Pt3 1_555 1_555
C26 C25 1_555 1_555
H17 C26 1_555 1_555
C27 C26 1_555 1_555
H18 C27 1_555 1_555
C28 C27 1_555 1_555
C29 C28 1_555 1_555
C30 C28 1_555 1_555
H19 C30 1_555 1_555
C31 C25 1_555 1_555
H20 C31 1_555 1_555
C32 H21 1_555 1_555
C33 C32 1_555 1_555
H22 C33 1_555 1_555
C34 C33 1_555 1_555
C35 C34 1_555 1_555
H23 C35 1_555 1_555
C36 N1 1_555 1_555
H24 C36 1_555 1_555
P1 Pt1 1_555 1_555
C37 P1 1_555 1_555
C38 C37 1_555 1_555
C39 P1 1_555 1_555
H25 C39 1_555 1_555
H26 C39 1_555 1_555
C40 C39 1_555 1_555
H27 C40 1_555 1_555
H28 C40 1_555 1_555
H29 C40 1_555 1_555
C41 P1 1_555 1_555
H30 C41 1_555 1_555
H31 C41 1_555 1_555
C42 C41 1_555 1_555
H32 C42 1_555 1_555
H33 C42 1_555 1_555
H34 C42 1_555 1_555
P2 Pt1 1_555 1_555
C43 P2 1_555 1_555
H35 C43 1_555 1_555
H36 C43 1_555 1_555
C44 C43 1_555 1_555
H37 C44 1_555 1_555
H38 C44 1_555 1_555
H39 C44 1_555 1_555
C45 P2 1_555 1_555
H40 C45 1_555 1_555
H41 C45 1_555 1_555
C46 C45 1_555 1_555
H42 C46 1_555 1_555
H43 C46 1_555 1_555
H44 C46 1_555 1_555
C47 P2 1_555 1_555
H45 C47 1_555 1_555
H46 C47 1_555 1_555
C48 C47 1_555 1_555
H47 C48 1_555 1_555
H48 C48 1_555 1_555
H49 C48 1_555 1_555
P3 Pt2 1_555 1_555
C49 P3 1_555 1_555
H50 C49 1_555 1_555
H51 C49 1_555 1_555
C50 C49 1_555 1_555
H52 C50 1_555 1_555
H53 C50 1_555 1_555
H54 C50 1_555 1_555
C51 P3 1_555 1_555
H55 C51 1_555 1_555
H56 C51 1_555 1_555
C52 C51 1_555 1_555
H57 C52 1_555 1_555
H58 C52 1_555 1_555
H59 C52 1_555 1_555
C53 P3 1_555 1_555
H60 C53 1_555 1_555
H61 C53 1_555 1_555
C54 C53 1_555 1_555
H62 C54 1_555 1_555
H63 C54 1_555 1_555
H64 C54 1_555 1_555
P4 Pt2 1_555 1_555
C55 P4 1_555 1_555
H65 C55 1_555 1_555
H66 C55 1_555 1_555
C56 C55 1_555 1_555
H67 C56 1_555 1_555
H68 C56 1_555 1_555
H69 C56 1_555 1_555
C57 P4 1_555 1_555
H70 C57 1_555 1_555
H71 C57 1_555 1_555
C58 C57 1_555 1_555
H72 C58 1_555 1_555
H73 C58 1_555 1_555
H74 C58 1_555 1_555
C59 P4 1_555 1_555
H75 C59 1_555 1_555
H76 C59 1_555 1_555
C60 C59 1_555 1_555
H77 C60 1_555 1_555
H78 C60 1_555 1_555
H79 C60 1_555 1_555
P5 Pt3 1_555 1_555
C61 P5 1_555 1_555
H80 C61 1_555 1_555
H81 C61 1_555 1_555
C62 C61 1_555 1_555
H82 C62 1_555 1_555
H83 C62 1_555 1_555
H84 C62 1_555 1_555
C63 P5 1_555 1_555
H85 C63 1_555 1_555
H86 C63 1_555 1_555
C64 C63 1_555 1_555
H87 C64 1_555 1_555
H88 C64 1_555 1_555
H89 C64 1_555 1_555
C65 P5 1_555 1_555
H90 C65 1_555 1_555
H91 C65 1_555 1_555
C66 C65 1_555 1_555
H92 C66 1_555 1_555
H93 C66 1_555 1_555
H94 C66 1_555 1_555
P6 Pt3 1_555 1_555
C67 P6 1_555 1_555
H95 C67 1_555 1_555
H96 C67 1_555 1_555
C68 C67 1_555 1_555
H97 C68 1_555 1_555
H98 C68 1_555 1_555
H99 C68 1_555 1_555
C69 P6 1_555 1_555
H100 C69 1_555 1_555
H101 C69 1_555 1_555
C70 C69 1_555 1_555
H102 C70 1_555 1_555
H103 C70 1_555 1_555
H104 C70 1_555 1_555
C71 P6 1_555 1_555
H105 C71 1_555 1_555
H106 C71 1_555 1_555
C72 C71 1_555 1_555
H107 C72 1_555 1_555
H108 C72 1_555 1_555
H109 C72 1_555 1_555
N4 O1 1_555 1_555
O2 N4 1_555 1_555
O3 N4 1_555 1_555
N5 O4 1_555 1_555
O5 N5 1_555 1_555
O6 N5 1_555 1_555
C34C C34 1_555 1_555
C33C C34C 1_555 1_555
C32C C33C 1_555 1_555
N1C C32C 1_555 1_555
Pt1C N1C 1_555 1_555
C1C Pt1C 1_555 1_555
C2C C1C 1_555 1_555
H1C C2C 1_555 1_555
C3C C2C 1_555 1_555
H2C C3C 1_555 1_555
C4C C3C 1_555 1_555
C5C C4C 1_555 1_555
H3C C5C 1_555 1_555
C6C C5C 1_555 1_555
H4C C6C 1_555 1_555
C7C C6C 1_555 1_555
C8C C7C 1_555 1_555
H5C C8C 1_555 1_555
C9C C8C 1_555 1_555
H6C C9C 1_555 1_555
C10C C9C 1_555 1_555
Pt2C C10C 1_555 1_555
N2C Pt2C 1_555 1_555
C15C N2C 1_555 1_555
H9C C15C 1_555 1_555
C16C C15C 1_555 1_555
H10C C16C 1_555 1_555
C17C C16C 1_555 1_555
C18C C17C 1_555 1_555
H11C C18C 1_555 1_555
C19C N2C 1_555 1_555
H12C C19C 1_555 1_555
C20C C17C 1_555 1_555
C21C C20C 1_555 1_555
H13C C21C 1_555 1_555
C22C C21C 1_555 1_555
N3C C22C 1_555 1_555
Pt3C N3C 1_555 1_555
C25C Pt3C 1_555 1_555
C26C C25C 1_555 1_555
H17C C26C 1_555 1_555
C27C C26C 1_555 1_555
H18C C27C 1_555 1_555
C28C C27C 1_555 1_555
C29C C29 1_555 1_555
C30C C30 1_555 1_555
H19C C30C 1_555 1_555
C31C C25C 1_555 1_555
H20C C31C 1_555 1_555
P5C Pt3C 1_555 1_555
C61C P5C 1_555 1_555
H80C C61C 1_555 1_555
H81C C61C 1_555 1_555
C62C C61C 1_555 1_555
H82C C62C 1_555 1_555
H83C C62C 1_555 1_555
H84C C62C 1_555 1_555
C63C P5C 1_555 1_555
H85C C63C 1_555 1_555
H86C C63C 1_555 1_555
C64C C63C 1_555 1_555
H87C C64C 1_555 1_555
H88C C64C 1_555 1_555
H89C C64C 1_555 1_555
C65C P5C 1_555 1_555
H90C C65C 1_555 1_555
H91C C65C 1_555 1_555
C66C C65C 1_555 1_555
H92C C66C 1_555 1_555
H93C C66C 1_555 1_555
H94C C66C 1_555 1_555
P6C Pt3C 1_555 1_555
C67C P6C 1_555 1_555
H95C C67C 1_555 1_555
H96C C67C 1_555 1_555
C68C C67C 1_555 1_555
H97C C68C 1_555 1_555
H98C C68C 1_555 1_555
H99C C68C 1_555 1_555
C69C P6C 1_555 1_555
H100C C69C 1_555 1_555
H101C C69C 1_555 1_555
C70C C69C 1_555 1_555
H102C C70C 1_555 1_555
H103C C70C 1_555 1_555
H104C C70C 1_555 1_555
C71C P6C 1_555 1_555
H105C C71C 1_555 1_555
H106C C71C 1_555 1_555
C72C C71C 1_555 1_555
H107C C72C 1_555 1_555
H108C C72C 1_555 1_555
H109C C72C 1_555 1_555
C23C N3C 1_555 1_555
H15C C23C 1_555 1_555
C24C C20C 1_555 1_555
H16C C24C 1_555 1_555
H14C C22C 1_555 1_555
P3C Pt2C 1_555 1_555
C49C P3C 1_555 1_555
H50C C49C 1_555 1_555
H51C C49C 1_555 1_555
C50C C49C 1_555 1_555
H52C C50C 1_555 1_555
H53C C50C 1_555 1_555
H54C C50C 1_555 1_555
C51C P3C 1_555 1_555
H55C C51C 1_555 1_555
H56C C51C 1_555 1_555
C52C C51C 1_555 1_555
H57C C52C 1_555 1_555
H58C C52C 1_555 1_555
H59C C52C 1_555 1_555
C53C P3C 1_555 1_555
H60C C53C 1_555 1_555
H61C C53C 1_555 1_555
C54C C53C 1_555 1_555
H62C C54C 1_555 1_555
H63C C54C 1_555 1_555
H64C C54C 1_555 1_555
P4C Pt2C 1_555 1_555
C55C P4C 1_555 1_555
H65C C55C 1_555 1_555
H66C C55C 1_555 1_555
C56C C55C 1_555 1_555
H67C C56C 1_555 1_555
H68C C56C 1_555 1_555
H69C C56C 1_555 1_555
C57C P4C 1_555 1_555
H70C C57C 1_555 1_555
H71C C57C 1_555 1_555
C58C C57C 1_555 1_555
H72C C58C 1_555 1_555
H73C C58C 1_555 1_555
H74C C58C 1_555 1_555
C59C P4C 1_555 1_555
H75C C59C 1_555 1_555
H76C C59C 1_555 1_555
C60C C59C 1_555 1_555
H77C C60C 1_555 1_555
H78C C60C 1_555 1_555
H79C C60C 1_555 1_555
C11C C10C 1_555 1_555
H7C C11C 1_555 1_555
C12C C7C 1_555 1_555
C13C C4C 1_555 1_555
C14C C1C 1_555 1_555
H8C C14C 1_555 1_555
P1C Pt1C 1_555 1_555
C37C P1C 1_555 1_555
C38C C37C 1_555 1_555
C39C P1C 1_555 1_555
H25C C39C 1_555 1_555
H26C C39C 1_555 1_555
C40C C39C 1_555 1_555
H27C C40C 1_555 1_555
H28C C40C 1_555 1_555
H29C C40C 1_555 1_555
C41C P1C 1_555 1_555
H30C C41C 1_555 1_555
H31C C41C 1_555 1_555
C42C C41C 1_555 1_555
H32C C42C 1_555 1_555
H33C C42C 1_555 1_555
H34C C42C 1_555 1_555
P2C Pt1C 1_555 1_555
C43C P2C 1_555 1_555
H35C C43C 1_555 1_555
H36C C43C 1_555 1_555
C44C C43C 1_555 1_555
H37C C44C 1_555 1_555
H38C C44C 1_555 1_555
H39C C44C 1_555 1_555
C45C P2C 1_555 1_555
H40C C45C 1_555 1_555
H41C C45C 1_555 1_555
C46C C45C 1_555 1_555
H42C C46C 1_555 1_555
H43C C46C 1_555 1_555
H44C C46C 1_555 1_555
C47C P2C 1_555 1_555
H45C C47C 1_555 1_555
H46C C47C 1_555 1_555
C48C C47C 1_555 1_555
H47C C48C 1_555 1_555
H48C C48C 1_555 1_555
H49C C48C 1_555 1_555
C36C N1C 1_555 1_555
C35C C34C 1_555 1_555
H23C C35C 1_555 1_555
H24C C36C 1_555 1_555
H21C C32C 1_555 1_555
H22C C33C 1_555 1_555
C9 C10 1_555 1_555
C11 C12 1_555 1_555
C12 C13 1_555 1_555
C13 C14 1_555 1_555
C18 C19 1_555 1_555
C23 C24 1_555 1_555
C29 C31 1_555 1_555
C35 C36 1_555 1_555
C18C C19C 1_555 1_555
C28C C29C 1_555 1_555
C28C C30C 1_555 1_555
C29C C31C 1_555 1_555
C23C C24C 1_555 1_555
C11C C12C 1_555 1_555
C12C C13C 1_555 1_555
C13C C14C 1_555 1_555
C36C C35C 1_555 1_555

#END
