# generated using pymatgen
data_Co2B6P3H117Ru2C138S6N39O2F51
_symmetry_space_group_name_H-M   'P 1'
_cell_length_a   17.30910000
_cell_length_b   22.23360000
_cell_length_c   42.87400000
_cell_angle_alpha   90.00000000
_cell_angle_beta   90.00000000
_cell_angle_gamma   103.10100000
_symmetry_Int_Tables_number   1
_chemical_formula_structural   Co2B6P3H117Ru2C138S6N39O2F51
_chemical_formula_sum   'Co8 B24 P12 Ru8 H468 C552 S24 N156 O8 F204'
_cell_volume   16070.32854256
_cell_formula_units_Z   4
loop_
 _symmetry_equiv_pos_site_id
 _symmetry_equiv_pos_as_xyz
  1  'x, y, z'
loop_
 _atom_site_type_symbol
 _atom_site_label
 _atom_site_symmetry_multiplicity
 _atom_site_fract_x
 _atom_site_fract_y
 _atom_site_fract_z
 _atom_site_occupancy
  B  B1  1  0.880400  0.901000  0.712200  1
  B  B2  1  0.119600  0.599000  0.212200  1
  B  B3  1  0.119600  0.099000  0.287800  1
  B  B4  1  0.880400  0.401000  0.787800  1
  B  B5  1  0.732000  0.547000  0.325900  1
  B  B6  1  0.268000  0.953000  0.825900  1
  B  B7  1  0.268000  0.453000  0.674100  1
  B  B8  1  0.732000  0.047000  0.174100  1
  B  B9  1  0.113900  0.928000  0.473700  1
  B  B10  1  0.886100  0.572000  0.973700  1
  B  B11  1  0.886100  0.072000  0.526300  1
  B  B12  1  0.113900  0.428000  0.026300  1
  B  B13  1  0.511400  0.978700  0.423900  1
  B  B14  1  0.488600  0.521300  0.923900  1
  B  B15  1  0.488600  0.021300  0.576100  1
  B  B16  1  0.511400  0.478700  0.076100  1
  B  B17  1  0.487800  0.981500  0.429100  1
  B  B18  1  0.512200  0.518500  0.929100  1
  B  B19  1  0.512200  0.018500  0.570900  1
  B  B20  1  0.487800  0.481500  0.070900  1
  Co  Co21  1  0.709090  0.790400  0.548150  0.5
  Ru  Ru22  1  0.709090  0.790400  0.548150  0.5
  Co  Co23  1  0.290910  0.709600  0.048150  0.5
  Ru  Ru24  1  0.290910  0.709600  0.048150  0.5
  Co  Co25  1  0.290910  0.209600  0.451850  0.5
  Ru  Ru26  1  0.290910  0.209600  0.451850  0.5
  Co  Co27  1  0.709090  0.290400  0.951850  0.5
  Ru  Ru28  1  0.709090  0.290400  0.951850  0.5
  Co  Co29  1  0.150710  0.690940  0.611930  0.5
  Ru  Ru30  1  0.150710  0.690940  0.611930  0.5
  Co  Co31  1  0.849290  0.809060  0.111930  0.5
  Ru  Ru32  1  0.849290  0.809060  0.111930  0.5
  Co  Co33  1  0.849290  0.309060  0.388070  0.5
  Ru  Ru34  1  0.849290  0.309060  0.388070  0.5
  Co  Co35  1  0.150710  0.190940  0.888070  0.5
  Ru  Ru36  1  0.150710  0.190940  0.888070  0.5
  Co  Co37  1  0.371060  0.721220  0.368520  0.5
  Ru  Ru38  1  0.371060  0.721220  0.368520  0.5
  Co  Co39  1  0.628940  0.778780  0.868520  0.5
  Ru  Ru40  1  0.628940  0.778780  0.868520  0.5
  Co  Co41  1  0.628940  0.278780  0.631480  0.5
  Ru  Ru42  1  0.628940  0.278780  0.631480  0.5
  Co  Co43  1  0.371060  0.221220  0.131480  0.5
  Ru  Ru44  1  0.371060  0.221220  0.131480  0.5
  Co  Co45  1  0.921460  0.826460  0.307440  0.5
  Ru  Ru46  1  0.921460  0.826460  0.307440  0.5
  Co  Co47  1  0.078540  0.673540  0.807440  0.5
  Ru  Ru48  1  0.078540  0.673540  0.807440  0.5
  Co  Co49  1  0.078540  0.173540  0.692560  0.5
  Ru  Ru50  1  0.078540  0.173540  0.692560  0.5
  Co  Co51  1  0.921460  0.326460  0.192560  0.5
  Ru  Ru52  1  0.921460  0.326460  0.192560  0.5
  B  B53  1  0.046500  0.423900  0.550220  0.5
  P  P54  1  0.046500  0.423900  0.550220  0.5
  B  B55  1  0.953500  0.076100  0.050220  0.5
  P  P56  1  0.953500  0.076100  0.050220  0.5
  B  B57  1  0.953500  0.576100  0.449780  0.5
  P  P58  1  0.953500  0.576100  0.449780  0.5
  B  B59  1  0.046500  0.923900  0.949780  0.5
  P  P60  1  0.046500  0.923900  0.949780  0.5
  B  B61  1  0.255300  0.951100  0.203700  0.5
  P  P62  1  0.255300  0.951100  0.203700  0.5
  B  B63  1  0.744700  0.548900  0.703700  0.5
  P  P64  1  0.744700  0.548900  0.703700  0.5
  B  B65  1  0.744700  0.048900  0.796300  0.5
  P  P66  1  0.744700  0.048900  0.796300  0.5
  B  B67  1  0.255300  0.451100  0.296300  0.5
  P  P68  1  0.255300  0.451100  0.296300  0.5
  P  P69  1  0.518000  0.512800  0.573800  1
  P  P70  1  0.482000  0.987200  0.073800  1
  P  P71  1  0.482000  0.487200  0.426200  1
  P  P72  1  0.518000  0.012800  0.926200  1
  P  P73  1  0.257400  0.959600  0.675760  1
  P  P74  1  0.742600  0.540400  0.175760  1
  P  P75  1  0.742600  0.040400  0.324240  1
  P  P76  1  0.257400  0.459600  0.824240  1
  H  H77  1  0.435000  0.823300  0.535300  1
  H  H78  1  0.565000  0.676700  0.035300  1
  H  H79  1  0.565000  0.176700  0.464700  1
  H  H80  1  0.435000  0.323300  0.964700  1
  H  H81  1  0.379800  0.768400  0.580100  1
  H  H82  1  0.620200  0.731600  0.080100  1
  H  H83  1  0.620200  0.231600  0.419900  1
  H  H84  1  0.379800  0.268400  0.919900  1
  H  H85  1  0.461900  0.730800  0.615500  1
  H  H86  1  0.538100  0.769200  0.115500  1
  H  H87  1  0.538100  0.269200  0.384500  1
  H  H88  1  0.461900  0.230800  0.884500  1
  H  H89  1  0.592300  0.738400  0.602900  1
  H  H90  1  0.407700  0.761600  0.102900  1
  H  H91  1  0.407700  0.261600  0.397100  1
  H  H92  1  0.592300  0.238400  0.897100  1
  H  H93  1  0.509800  0.882000  0.488500  1
  H  H94  1  0.490200  0.618000  0.988500  1
  H  H95  1  0.490200  0.118000  0.511500  1
  H  H96  1  0.509800  0.382000  0.011500  1
  H  H97  1  0.628600  0.913000  0.453700  1
  H  H98  1  0.371400  0.587000  0.953700  1
  H  H99  1  0.371400  0.087000  0.546300  1
  H  H100  1  0.628600  0.413000  0.046300  1
  H  H101  1  0.801200  0.861600  0.484600  1
  H  H102  1  0.198800  0.638400  0.984600  1
  H  H103  1  0.198800  0.138400  0.515400  1
  H  H104  1  0.801200  0.361600  0.015400  1
  H  H105  1  0.792600  0.930300  0.477100  1
  H  H106  1  0.207400  0.569700  0.977100  1
  H  H107  1  0.207400  0.069700  0.522900  1
  H  H108  1  0.792600  0.430300  0.022900  1
  H  H109  1  0.749700  0.933200  0.244600  1
  H  H110  1  0.250300  0.566800  0.744600  1
  H  H111  1  0.250300  0.066800  0.755400  1
  H  H112  1  0.749700  0.433200  0.255400  1
  H  H113  1  0.840000  0.979700  0.208200  1
  H  H114  1  0.160000  0.520300  0.708200  1
  H  H115  1  0.160000  0.020300  0.791800  1
  H  H116  1  0.840000  0.479700  0.291800  1
  H  H117  1  0.971100  0.964700  0.209000  1
  H  H118  1  0.028900  0.535300  0.709000  1
  H  H119  1  0.028900  0.035300  0.791000  1
  H  H120  1  0.971100  0.464700  0.291000  1
  H  H121  1  0.006900  0.903700  0.248900  1
  H  H122  1  0.993100  0.596300  0.748900  1
  H  H123  1  0.993100  0.096300  0.751100  1
  H  H124  1  0.006900  0.403700  0.251100  1
  H  H125  1  0.652000  0.857200  0.279600  1
  H  H126  1  0.348000  0.642800  0.779600  1
  H  H127  1  0.348000  0.142800  0.720400  1
  H  H128  1  0.652000  0.357200  0.220400  1
  H  H129  1  0.619700  0.793600  0.327800  1
  H  H130  1  0.380300  0.706400  0.827800  1
  H  H131  1  0.380300  0.206400  0.672200  1
  H  H132  1  0.619700  0.293600  0.172200  1
  H  H133  1  0.701900  0.740900  0.366500  1
  H  H134  1  0.298100  0.759100  0.866500  1
  H  H135  1  0.298100  0.259100  0.633500  1
  H  H136  1  0.701900  0.240900  0.133500  1
  H  H137  1  0.795800  0.754900  0.361000  1
  H  H138  1  0.204200  0.745100  0.861000  1
  H  H139  1  0.204200  0.245100  0.639000  1
  H  H140  1  0.795800  0.254900  0.139000  1
  H  H141  1  0.766000  0.904200  0.366300  1
  H  H142  1  0.234000  0.595800  0.866300  1
  H  H143  1  0.234000  0.095800  0.633700  1
  H  H144  1  0.766000  0.404200  0.133700  1
  H  H145  1  0.785400  0.956500  0.418000  1
  H  H146  1  0.214600  0.543500  0.918000  1
  H  H147  1  0.214600  0.043500  0.582000  1
  H  H148  1  0.785400  0.456500  0.082000  1
  H  H149  1  0.800000  0.896200  0.649500  1
  H  H150  1  0.200000  0.603800  0.149500  1
  H  H151  1  0.200000  0.103800  0.350500  1
  H  H152  1  0.800000  0.396200  0.850500  1
  H  H153  1  0.797200  0.997500  0.634800  1
  H  H154  1  0.202800  0.502500  0.134800  1
  H  H155  1  0.202800  0.002500  0.365200  1
  H  H156  1  0.797200  0.497500  0.865200  1
  H  H157  1  0.761100  0.017600  0.583100  1
  H  H158  1  0.238900  0.482400  0.083100  1
  H  H159  1  0.238900  0.982400  0.416900  1
  H  H160  1  0.761100  0.517600  0.916900  1
  H  H161  1  0.726100  0.935200  0.548600  1
  H  H162  1  0.273900  0.564800  0.048600  1
  H  H163  1  0.273900  0.064800  0.451400  1
  H  H164  1  0.726100  0.435200  0.951400  1
  H  H165  1  0.785700  0.782800  0.661800  1
  H  H166  1  0.214300  0.717200  0.161800  1
  H  H167  1  0.214300  0.217200  0.338200  1
  H  H168  1  0.785700  0.282800  0.838200  1
  H  H169  1  0.752200  0.669500  0.650100  1
  H  H170  1  0.247800  0.830500  0.150100  1
  H  H171  1  0.247800  0.330500  0.349900  1
  H  H172  1  0.752200  0.169500  0.849900  1
  H  H173  1  0.671800  0.642700  0.572300  1
  H  H174  1  0.328200  0.857300  0.072300  1
  H  H175  1  0.328200  0.357300  0.427700  1
  H  H176  1  0.671800  0.142700  0.927700  1
  H  H177  1  0.690900  0.606200  0.602400  1
  H  H178  1  0.309100  0.893800  0.102400  1
  H  H179  1  0.309100  0.393800  0.397600  1
  H  H180  1  0.690900  0.106200  0.897600  1
  H  H181  1  0.232900  0.856000  0.531900  1
  H  H182  1  0.767100  0.644000  0.031900  1
  H  H183  1  0.767100  0.144000  0.468100  1
  H  H184  1  0.232900  0.356000  0.968100  1
  H  H185  1  0.327400  0.925500  0.561400  1
  H  H186  1  0.672600  0.574500  0.061400  1
  H  H187  1  0.672600  0.074500  0.438600  1
  H  H188  1  0.327400  0.425500  0.938600  1
  H  H189  1  0.350000  0.899400  0.613900  1
  H  H190  1  0.650000  0.600600  0.113900  1
  H  H191  1  0.650000  0.100600  0.386100  1
  H  H192  1  0.350000  0.399400  0.886100  1
  H  H193  1  0.278500  0.808600  0.634200  1
  H  H194  1  0.721500  0.691400  0.134200  1
  H  H195  1  0.721500  0.191400  0.365800  1
  H  H196  1  0.278500  0.308600  0.865800  1
  H  H197  1  0.126200  0.779800  0.504700  1
  H  H198  1  0.873800  0.720200  0.004700  1
  H  H199  1  0.873800  0.220200  0.495300  1
  H  H200  1  0.126200  0.279800  0.995300  1
  H  H201  1  0.027000  0.679200  0.500000  1
  H  H202  1  0.973000  0.820800  0.000000  1
  H  H203  1  0.973000  0.320800  0.500000  1
  H  H204  1  0.027000  0.179200  0.000000  1
  H  H205  1  0.014900  0.590900  0.573500  1
  H  H206  1  0.985100  0.909100  0.073500  1
  H  H207  1  0.985100  0.409100  0.426500  1
  H  H208  1  0.014900  0.090900  0.926500  1
  H  H209  1  0.006300  0.575600  0.537100  1
  H  H210  1  0.993700  0.924400  0.037100  1
  H  H211  1  0.993700  0.424400  0.462900  1
  H  H212  1  0.006300  0.075600  0.962900  1
  H  H213  1  0.859300  0.549500  0.519900  1
  H  H214  1  0.140700  0.950500  0.019900  1
  H  H215  1  0.140700  0.450500  0.480100  1
  H  H216  1  0.859300  0.049500  0.980100  1
  H  H217  1  0.730100  0.565100  0.535700  1
  H  H218  1  0.269900  0.934900  0.035700  1
  H  H219  1  0.269900  0.434900  0.464300  1
  H  H220  1  0.730100  0.065100  0.964300  1
  H  H221  1  0.762300  0.636400  0.469600  1
  H  H222  1  0.237700  0.863600  0.969600  1
  H  H223  1  0.237700  0.363600  0.530400  1
  H  H224  1  0.762300  0.136400  0.030400  1
  H  H225  1  0.637200  0.578100  0.465300  1
  H  H226  1  0.362800  0.921900  0.965300  1
  H  H227  1  0.362800  0.421900  0.534700  1
  H  H228  1  0.637200  0.078100  0.034700  1
  H  H229  1  0.535000  0.597300  0.498200  1
  H  H230  1  0.465000  0.902700  0.998200  1
  H  H231  1  0.465000  0.402700  0.501800  1
  H  H232  1  0.535000  0.097300  0.001800  1
  H  H233  1  0.563500  0.676600  0.532800  1
  H  H234  1  0.436500  0.823400  0.032800  1
  H  H235  1  0.436500  0.323400  0.467200  1
  H  H236  1  0.563500  0.176600  0.967200  1
  H  H237  1  0.895500  0.715000  0.474600  1
  H  H238  1  0.104500  0.785000  0.974600  1
  H  H239  1  0.104500  0.285000  0.525400  1
  H  H240  1  0.895500  0.215000  0.025400  1
  H  H241  1  0.984400  0.810900  0.495100  1
  H  H242  1  0.015600  0.689100  0.995100  1
  H  H243  1  0.015600  0.189100  0.504900  1
  H  H244  1  0.984400  0.310900  0.004900  1
  H  H245  1  0.877000  0.893300  0.548800  1
  H  H246  1  0.123000  0.606700  0.048800  1
  H  H247  1  0.123000  0.106700  0.451200  1
  H  H248  1  0.877000  0.393300  0.951200  1
  H  H249  1  0.945800  0.911100  0.523400  1
  H  H250  1  0.054200  0.588900  0.023400  1
  H  H251  1  0.054200  0.088900  0.476600  1
  H  H252  1  0.945800  0.411100  0.976600  1
  H  H253  1  0.910700  0.558000  0.659400  1
  H  H254  1  0.089300  0.942000  0.159400  1
  H  H255  1  0.089300  0.442000  0.340600  1
  H  H256  1  0.910700  0.058000  0.840600  1
  H  H257  1  0.939500  0.460900  0.649400  1
  H  H258  1  0.060500  0.039100  0.149400  1
  H  H259  1  0.060500  0.539100  0.350600  1
  H  H260  1  0.939500  0.960900  0.850600  1
  H  H261  1  0.060000  0.457000  0.626400  1
  H  H262  1  0.940000  0.043000  0.126400  1
  H  H263  1  0.940000  0.543000  0.373600  1
  H  H264  1  0.060000  0.957000  0.873600  1
  H  H265  1  0.140600  0.547200  0.609800  1
  H  H266  1  0.859400  0.952800  0.109800  1
  H  H267  1  0.859400  0.452800  0.390200  1
  H  H268  1  0.140600  0.047200  0.890200  1
  H  H269  1  0.903200  0.664800  0.676500  1
  H  H270  1  0.096800  0.835200  0.176500  1
  H  H271  1  0.096800  0.335200  0.323500  1
  H  H272  1  0.903200  0.164800  0.823500  1
  H  H273  1  0.946400  0.781100  0.676500  1
  H  H274  1  0.053600  0.718900  0.176500  1
  H  H275  1  0.053600  0.218900  0.323500  1
  H  H276  1  0.946400  0.281100  0.823500  1
  H  H277  1  0.137600  0.831700  0.640800  1
  H  H278  1  0.862400  0.668300  0.140800  1
  H  H279  1  0.862400  0.168300  0.359200  1
  H  H280  1  0.137600  0.331700  0.859200  1
  H  H281  1  0.070400  0.858700  0.657800  1
  H  H282  1  0.929600  0.641300  0.157800  1
  H  H283  1  0.929600  0.141300  0.342200  1
  H  H284  1  0.070400  0.358700  0.842200  1
  H  H285  1  0.150900  0.917600  0.596400  1
  H  H286  1  0.849100  0.582400  0.096400  1
  H  H287  1  0.849100  0.082400  0.403600  1
  H  H288  1  0.150900  0.417600  0.903600  1
  H  H289  1  0.080700  0.941400  0.549900  1
  H  H290  1  0.919300  0.558600  0.049900  1
  H  H291  1  0.919300  0.058600  0.450100  1
  H  H292  1  0.080700  0.441400  0.950100  1
  H  H293  1  0.610600  0.631300  0.362400  1
  H  H294  1  0.389400  0.868700  0.862400  1
  H  H295  1  0.389400  0.368700  0.637600  1
  H  H296  1  0.610600  0.131300  0.137600  1
  H  H297  1  0.599100  0.602400  0.308500  1
  H  H298  1  0.400900  0.897600  0.808500  1
  H  H299  1  0.400900  0.397600  0.691500  1
  H  H300  1  0.599100  0.102400  0.191500  1
  H  H301  1  0.494800  0.618700  0.280000  1
  H  H302  1  0.505200  0.881300  0.780000  1
  H  H303  1  0.505200  0.381300  0.720000  1
  H  H304  1  0.494800  0.118700  0.220000  1
  H  H305  1  0.405300  0.671000  0.302100  1
  H  H306  1  0.594700  0.829000  0.802100  1
  H  H307  1  0.594700  0.329000  0.697900  1
  H  H308  1  0.405300  0.171000  0.197900  1
  H  H309  1  0.621000  0.683700  0.415800  1
  H  H310  1  0.379000  0.816300  0.915800  1
  H  H311  1  0.379000  0.316300  0.584200  1
  H  H312  1  0.621000  0.183700  0.084200  1
  H  H313  1  0.567200  0.730000  0.461400  1
  H  H314  1  0.432800  0.770000  0.961400  1
  H  H315  1  0.432800  0.270000  0.538600  1
  H  H316  1  0.567200  0.230000  0.038600  1
  H  H317  1  0.376100  0.767600  0.440100  1
  H  H318  1  0.623900  0.732400  0.940100  1
  H  H319  1  0.623900  0.232400  0.559900  1
  H  H320  1  0.376100  0.267600  0.059900  1
  H  H321  1  0.441900  0.785100  0.466800  1
  H  H322  1  0.558100  0.714900  0.966800  1
  H  H323  1  0.558100  0.214900  0.533200  1
  H  H324  1  0.441900  0.285100  0.033200  1
  H  H325  1  0.374000  0.644900  0.672700  1
  H  H326  1  0.626000  0.855100  0.172700  1
  H  H327  1  0.626000  0.355100  0.327300  1
  H  H328  1  0.374000  0.144900  0.827300  1
  H  H329  1  0.356000  0.692000  0.719100  1
  H  H330  1  0.644000  0.808000  0.219100  1
  H  H331  1  0.644000  0.308000  0.280900  1
  H  H332  1  0.356000  0.192000  0.780900  1
  H  H333  1  0.242700  0.732800  0.725200  1
  H  H334  1  0.757300  0.767200  0.225200  1
  H  H335  1  0.757300  0.267200  0.274800  1
  H  H336  1  0.242700  0.232800  0.774800  1
  H  H337  1  0.161000  0.733100  0.682200  1
  H  H338  1  0.839000  0.766900  0.182200  1
  H  H339  1  0.839000  0.266900  0.317800  1
  H  H340  1  0.161000  0.233100  0.817800  1
  H  H341  1  0.397300  0.603000  0.618400  1
  H  H342  1  0.602700  0.897000  0.118400  1
  H  H343  1  0.602700  0.397000  0.381600  1
  H  H344  1  0.397300  0.103000  0.881600  1
  H  H345  1  0.365600  0.587800  0.561700  1
  H  H346  1  0.634400  0.912200  0.061700  1
  H  H347  1  0.634400  0.412200  0.438300  1
  H  H348  1  0.365600  0.087800  0.938300  1
  H  H349  1  0.183700  0.638300  0.540900  1
  H  H350  1  0.816300  0.861700  0.040900  1
  H  H351  1  0.816300  0.361700  0.459100  1
  H  H352  1  0.183700  0.138300  0.959100  1
  H  H353  1  0.201100  0.570800  0.538200  1
  H  H354  1  0.798900  0.929200  0.038200  1
  H  H355  1  0.798900  0.429200  0.461800  1
  H  H356  1  0.201100  0.070800  0.961800  1
  H  H357  1  0.307400  0.557700  0.495100  1
  H  H358  1  0.692600  0.942300  0.995100  1
  H  H359  1  0.692600  0.442300  0.504900  1
  H  H360  1  0.307400  0.057700  0.004900  1
  H  H361  1  0.393300  0.620900  0.455900  1
  H  H362  1  0.606700  0.879100  0.955900  1
  H  H363  1  0.606700  0.379100  0.544100  1
  H  H364  1  0.393300  0.120900  0.044100  1
  H  H365  1  0.140900  0.588700  0.424100  1
  H  H366  1  0.859100  0.911300  0.924100  1
  H  H367  1  0.859100  0.411300  0.575900  1
  H  H368  1  0.140900  0.088700  0.075900  1
  H  H369  1  0.158000  0.490800  0.407900  1
  H  H370  1  0.842000  0.009200  0.907900  1
  H  H371  1  0.842000  0.509200  0.592100  1
  H  H372  1  0.158000  0.990800  0.092100  1
  H  H373  1  0.267100  0.485100  0.377600  1
  H  H374  1  0.732900  0.014900  0.877600  1
  H  H375  1  0.732900  0.514900  0.622400  1
  H  H376  1  0.267100  0.985100  0.122400  1
  H  H377  1  0.357300  0.575600  0.363700  1
  H  H378  1  0.642700  0.924400  0.863700  1
  H  H379  1  0.642700  0.424400  0.636300  1
  H  H380  1  0.357300  0.075600  0.136300  1
  H  H381  1  0.132500  0.696700  0.440300  1
  H  H382  1  0.867500  0.803300  0.940300  1
  H  H383  1  0.867500  0.303300  0.559700  1
  H  H384  1  0.132500  0.196700  0.059700  1
  H  H385  1  0.171800  0.811100  0.436600  1
  H  H386  1  0.828200  0.688900  0.936600  1
  H  H387  1  0.828200  0.188900  0.563400  1
  H  H388  1  0.171800  0.311100  0.063400  1
  H  H389  1  0.361000  0.862800  0.399500  1
  H  H390  1  0.639000  0.637200  0.899500  1
  H  H391  1  0.639000  0.137200  0.600500  1
  H  H392  1  0.361000  0.362800  0.100500  1
  H  H393  1  0.292800  0.888600  0.416400  1
  H  H394  1  0.707200  0.611400  0.916400  1
  H  H395  1  0.707200  0.111400  0.583600  1
  H  H396  1  0.292800  0.388600  0.083600  1
  H  H397  1  0.974100  0.669800  0.230700  1
  H  H398  1  0.025900  0.830200  0.730700  1
  H  H399  1  0.025900  0.330200  0.769300  1
  H  H400  1  0.974100  0.169800  0.269300  1
  H  H401  1  0.847800  0.608400  0.226600  1
  H  H402  1  0.152200  0.891600  0.726600  1
  H  H403  1  0.152200  0.391600  0.773400  1
  H  H404  1  0.847800  0.108400  0.273400  1
  H  H405  1  0.747100  0.631600  0.257400  1
  H  H406  1  0.252900  0.868400  0.757400  1
  H  H407  1  0.252900  0.368400  0.742600  1
  H  H408  1  0.747100  0.131600  0.242600  1
  H  H409  1  0.779000  0.713100  0.291500  1
  H  H410  1  0.221000  0.786900  0.791500  1
  H  H411  1  0.221000  0.286900  0.708500  1
  H  H412  1  0.779000  0.213100  0.208500  1
  H  H413  1  0.106700  0.747300  0.235800  1
  H  H414  1  0.893300  0.752700  0.735800  1
  H  H415  1  0.893300  0.252700  0.764200  1
  H  H416  1  0.106700  0.247300  0.264200  1
  H  H417  1  0.202900  0.842200  0.256700  1
  H  H418  1  0.797100  0.657800  0.756700  1
  H  H419  1  0.797100  0.157800  0.743300  1
  H  H420  1  0.202900  0.342200  0.243300  1
  H  H421  1  0.089200  0.919900  0.312900  1
  H  H422  1  0.910800  0.580100  0.812900  1
  H  H423  1  0.910800  0.080100  0.687100  1
  H  H424  1  0.089200  0.419900  0.187100  1
  H  H425  1  0.152600  0.945000  0.286100  1
  H  H426  1  0.847400  0.555000  0.786100  1
  H  H427  1  0.847400  0.055000  0.713900  1
  H  H428  1  0.152600  0.445000  0.213900  1
  H  H429  1  0.299800  0.964500  0.305800  1
  H  H430  1  0.700200  0.535500  0.805800  1
  H  H431  1  0.700200  0.035500  0.694200  1
  H  H432  1  0.299800  0.464500  0.194200  1
  H  H433  1  0.378400  0.941200  0.352000  1
  H  H434  1  0.621600  0.558800  0.852000  1
  H  H435  1  0.621600  0.058800  0.648000  1
  H  H436  1  0.378400  0.441200  0.148000  1
  H  H437  1  0.457000  0.891900  0.290500  1
  H  H438  1  0.543000  0.608100  0.790500  1
  H  H439  1  0.543000  0.108100  0.709500  1
  H  H440  1  0.457000  0.391900  0.209500  1
  H  H441  1  0.566000  0.946300  0.317000  1
  H  H442  1  0.434000  0.553700  0.817000  1
  H  H443  1  0.434000  0.053700  0.683000  1
  H  H444  1  0.566000  0.446300  0.183000  1
  H  H445  1  0.589100  0.923000  0.367800  1
  H  H446  1  0.410900  0.577000  0.867800  1
  H  H447  1  0.410900  0.077000  0.632200  1
  H  H448  1  0.589100  0.423000  0.132200  1
  H  H449  1  0.513000  0.827900  0.389600  1
  H  H450  1  0.487000  0.672100  0.889600  1
  H  H451  1  0.487000  0.172100  0.610400  1
  H  H452  1  0.513000  0.327900  0.110400  1
  H  H453  1  0.339500  0.815600  0.264100  1
  H  H454  1  0.660500  0.684400  0.764100  1
  H  H455  1  0.660500  0.184400  0.735900  1
  H  H456  1  0.339500  0.315600  0.235900  1
  H  H457  1  0.235400  0.720000  0.260000  1
  H  H458  1  0.764600  0.780000  0.760000  1
  H  H459  1  0.764600  0.280000  0.740000  1
  H  H460  1  0.235400  0.220000  0.240000  1
  H  H461  1  0.225300  0.631000  0.333700  1
  H  H462  1  0.774700  0.869000  0.833700  1
  H  H463  1  0.774700  0.369000  0.666300  1
  H  H464  1  0.225300  0.131000  0.166300  1
  H  H465  1  0.214800  0.614900  0.297500  1
  H  H466  1  0.785200  0.885100  0.797500  1
  H  H467  1  0.785200  0.385100  0.702500  1
  H  H468  1  0.214800  0.114900  0.202500  1
  H  H469  1  0.019400  0.935800  0.407000  1
  H  H470  1  0.980600  0.564200  0.907000  1
  H  H471  1  0.980600  0.064200  0.593000  1
  H  H472  1  0.019400  0.435800  0.093000  1
  H  H473  1  0.025700  0.040100  0.389800  1
  H  H474  1  0.974300  0.459900  0.889800  1
  H  H475  1  0.974300  0.959900  0.610200  1
  H  H476  1  0.025700  0.540100  0.110200  1
  H  H477  1  0.991200  0.056000  0.338300  1
  H  H478  1  0.008800  0.444000  0.838300  1
  H  H479  1  0.008800  0.944000  0.661700  1
  H  H480  1  0.991200  0.556000  0.161700  1
  H  H481  1  0.947800  0.972200  0.306000  1
  H  H482  1  0.052200  0.527800  0.806000  1
  H  H483  1  0.052200  0.027800  0.694000  1
  H  H484  1  0.947800  0.472200  0.194000  1
  H  H485  1  0.000100  0.826100  0.422000  1
  H  H486  1  0.999900  0.673900  0.922000  1
  H  H487  1  0.999900  0.173900  0.578000  1
  H  H488  1  0.000100  0.326100  0.078000  1
  H  H489  1  0.968600  0.714000  0.411700  1
  H  H490  1  0.031400  0.786000  0.911700  1
  H  H491  1  0.031400  0.286000  0.588300  1
  H  H492  1  0.968600  0.214000  0.088300  1
  H  H493  1  0.880100  0.676400  0.335000  1
  H  H494  1  0.119900  0.823600  0.835000  1
  H  H495  1  0.119900  0.323600  0.665000  1
  H  H496  1  0.880100  0.176400  0.165000  1
  H  H497  1  0.902300  0.642500  0.365500  1
  H  H498  1  0.097700  0.857500  0.865500  1
  H  H499  1  0.097700  0.357500  0.634500  1
  H  H500  1  0.902300  0.142500  0.134500  1
  H  H501  1  0.939700  0.601000  0.298300  1
  H  H502  1  0.060300  0.899000  0.798300  1
  H  H503  1  0.060300  0.399000  0.701700  1
  H  H504  1  0.939700  0.101000  0.201700  1
  H  H505  1  0.070300  0.590700  0.280800  1
  H  H506  1  0.929700  0.909300  0.780800  1
  H  H507  1  0.929700  0.409300  0.719200  1
  H  H508  1  0.070300  0.090700  0.219200  1
  H  H509  1  0.298000  0.976700  0.496500  1
  H  H510  1  0.702000  0.523300  0.996500  1
  H  H511  1  0.702000  0.023300  0.503500  1
  H  H512  1  0.298000  0.476700  0.003500  1
  H  H513  1  0.370600  0.994600  0.472600  1
  H  H514  1  0.629400  0.505400  0.972600  1
  H  H515  1  0.629400  0.005400  0.527400  1
  H  H516  1  0.370600  0.494600  0.027400  1
  H  H517  1  0.387200  0.985500  0.508800  1
  H  H518  1  0.612800  0.514500  0.008800  1
  H  H519  1  0.612800  0.014500  0.491200  1
  H  H520  1  0.387200  0.485500  0.991200  1
  H  H521  1  0.530800  0.544400  0.690200  1
  H  H522  1  0.469200  0.955600  0.190200  1
  H  H523  1  0.469200  0.455600  0.309800  1
  H  H524  1  0.530800  0.044400  0.809800  1
  H  H525  1  0.565000  0.522900  0.658400  1
  H  H526  1  0.435000  0.977100  0.158400  1
  H  H527  1  0.435000  0.477100  0.341600  1
  H  H528  1  0.565000  0.022900  0.841600  1
  H  H529  1  0.472400  0.521300  0.661500  1
  H  H530  1  0.527600  0.978700  0.161500  1
  H  H531  1  0.527600  0.478700  0.338500  1
  H  H532  1  0.472400  0.021300  0.838500  1
  H  H533  1  0.775800  0.536100  0.426600  1
  H  H534  1  0.224200  0.963900  0.926600  1
  H  H535  1  0.224200  0.463900  0.573400  1
  H  H536  1  0.775800  0.036100  0.073400  1
  H  H537  1  0.757600  0.525200  0.390200  1
  H  H538  1  0.242400  0.974800  0.890200  1
  H  H539  1  0.242400  0.474800  0.609800  1
  H  H540  1  0.757600  0.025200  0.109800  1
  H  H541  1  0.686600  0.525000  0.414100  1
  H  H542  1  0.313400  0.975000  0.914100  1
  H  H543  1  0.313400  0.475000  0.585900  1
  H  H544  1  0.686600  0.025000  0.085900  1
  C  C545  1  0.547800  0.811500  0.543700  1
  C  C546  1  0.452200  0.688500  0.043700  1
  C  C547  1  0.452200  0.188500  0.456300  1
  C  C548  1  0.547800  0.311500  0.956300  1
  C  C549  1  0.466800  0.806000  0.549200  1
  C  C550  1  0.533200  0.694000  0.049200  1
  C  C551  1  0.533200  0.194000  0.450800  1
  C  C552  1  0.466800  0.306000  0.950800  1
  C  C553  1  0.434900  0.774100  0.575900  1
  C  C554  1  0.565100  0.725900  0.075900  1
  C  C555  1  0.565100  0.225900  0.424100  1
  C  C556  1  0.434900  0.274100  0.924100  1
  C  C557  1  0.483100  0.750300  0.596700  1
  C  C558  1  0.516900  0.749700  0.096700  1
  C  C559  1  0.516900  0.249700  0.403300  1
  C  C560  1  0.483100  0.250300  0.903300  1
  C  C561  1  0.560100  0.755900  0.589300  1
  C  C562  1  0.439900  0.744100  0.089300  1
  C  C563  1  0.439900  0.244100  0.410700  1
  C  C564  1  0.560100  0.255900  0.910700  1
  C  C565  1  0.588800  0.842000  0.517100  1
  C  C566  1  0.411200  0.658000  0.017100  1
  C  C567  1  0.411200  0.158000  0.482900  1
  C  C568  1  0.588800  0.342000  0.982900  1
  C  C569  1  0.561000  0.874200  0.491500  1
  C  C570  1  0.439000  0.625800  0.991500  1
  C  C571  1  0.439000  0.125800  0.508500  1
  C  C572  1  0.561000  0.374200  0.008500  1
  C  C573  1  0.626600  0.890600  0.472600  1
  C  C574  1  0.373400  0.609400  0.972600  1
  C  C575  1  0.373400  0.109400  0.527400  1
  C  C576  1  0.626600  0.390600  0.027400  1
  C  C577  1  0.769200  0.886000  0.473200  1
  C  C578  1  0.230800  0.614000  0.973200  1
  C  C579  1  0.230800  0.114000  0.526800  1
  C  C580  1  0.769200  0.386000  0.026800  1
  C  C581  1  0.824900  0.890300  0.267100  1
  C  C582  1  0.175100  0.609700  0.767100  1
  C  C583  1  0.175100  0.109700  0.732900  1
  C  C584  1  0.824900  0.390300  0.232900  1
  C  C585  1  0.802300  0.927100  0.244900  1
  C  C586  1  0.197700  0.572900  0.744900  1
  C  C587  1  0.197700  0.072900  0.755100  1
  C  C588  1  0.802300  0.427100  0.255100  1
  C  C589  1  0.855200  0.954200  0.223800  1
  C  C590  1  0.144800  0.545800  0.723800  1
  C  C591  1  0.144800  0.045800  0.776200  1
  C  C592  1  0.855200  0.454200  0.276200  1
  C  C593  1  0.933400  0.945600  0.224200  1
  C  C594  1  0.066600  0.554400  0.724200  1
  C  C595  1  0.066600  0.054400  0.775800  1
  C  C596  1  0.933400  0.445600  0.275800  1
  C  C597  1  0.953700  0.908400  0.247400  1
  C  C598  1  0.046300  0.591600  0.747400  1
  C  C599  1  0.046300  0.091600  0.752600  1
  C  C600  1  0.953700  0.408400  0.252600  1
  C  C601  1  0.768800  0.856400  0.290200  1
  C  C602  1  0.231200  0.643600  0.790200  1
  C  C603  1  0.231200  0.143600  0.709800  1
  C  C604  1  0.768800  0.356400  0.209800  1
  C  C605  1  0.688500  0.844200  0.293100  1
  C  C606  1  0.311500  0.655800  0.793100  1
  C  C607  1  0.311500  0.155800  0.706900  1
  C  C608  1  0.688500  0.344200  0.206900  1
  C  C609  1  0.671100  0.809400  0.319500  1
  C  C610  1  0.328900  0.690600  0.819500  1
  C  C611  1  0.328900  0.190600  0.680500  1
  C  C612  1  0.671100  0.309400  0.180500  1
  C  C613  1  0.749400  0.773900  0.361900  1
  C  C614  1  0.250600  0.726100  0.861900  1
  C  C615  1  0.250600  0.226100  0.638100  1
  C  C616  1  0.749400  0.273900  0.138100  1
  C  C617  1  0.772300  0.873200  0.439100  1
  C  C618  1  0.227700  0.626800  0.939100  1
  C  C619  1  0.227700  0.126800  0.560900  1
  C  C620  1  0.772300  0.373200  0.060900  1
  C  C621  1  0.761000  0.819600  0.386900  1
  C  C622  1  0.239000  0.680400  0.886900  1
  C  C623  1  0.239000  0.180400  0.613100  1
  C  C624  1  0.761000  0.319600  0.113100  1
  C  C625  1  0.767500  0.882800  0.385300  1
  C  C626  1  0.232500  0.617200  0.885300  1
  C  C627  1  0.232500  0.117200  0.614700  1
  C  C628  1  0.767500  0.382800  0.114700  1
  C  C629  1  0.776900  0.913100  0.415400  1
  C  C630  1  0.223100  0.586900  0.915400  1
  C  C631  1  0.223100  0.086900  0.584600  1
  C  C632  1  0.776900  0.413100  0.084600  1
  C  C633  1  0.763500  0.859100  0.606300  1
  C  C634  1  0.236500  0.640900  0.106300  1
  C  C635  1  0.236500  0.140900  0.393700  1
  C  C636  1  0.763500  0.359100  0.893700  1
  C  C637  1  0.785100  0.905400  0.629000  1
  C  C638  1  0.214900  0.594600  0.129000  1
  C  C639  1  0.214900  0.094600  0.371000  1
  C  C640  1  0.785100  0.405400  0.871000  1
  C  C641  1  0.783600  0.964700  0.620200  1
  C  C642  1  0.216400  0.535300  0.120200  1
  C  C643  1  0.216400  0.035300  0.379800  1
  C  C644  1  0.783600  0.464700  0.879800  1
  C  C645  1  0.762000  0.976900  0.589600  1
  C  C646  1  0.238000  0.523100  0.089600  1
  C  C647  1  0.238000  0.023100  0.410400  1
  C  C648  1  0.762000  0.476900  0.910400  1
  C  C649  1  0.742000  0.927200  0.569100  1
  C  C650  1  0.258000  0.572800  0.069100  1
  C  C651  1  0.258000  0.072800  0.430900  1
  C  C652  1  0.742000  0.427200  0.930900  1
  C  C653  1  0.761800  0.796700  0.614100  1
  C  C654  1  0.238200  0.703300  0.114100  1
  C  C655  1  0.238200  0.203300  0.385900  1
  C  C656  1  0.761800  0.296700  0.885900  1
  C  C657  1  0.770300  0.764400  0.642100  1
  C  C658  1  0.229700  0.735600  0.142100  1
  C  C659  1  0.229700  0.235600  0.357900  1
  C  C660  1  0.770300  0.264400  0.857900  1
  C  C661  1  0.752400  0.702200  0.635800  1
  C  C662  1  0.247600  0.797800  0.135800  1
  C  C663  1  0.247600  0.297800  0.364200  1
  C  C664  1  0.752400  0.202200  0.864200  1
  C  C665  1  0.713600  0.639800  0.587600  1
  C  C666  1  0.286400  0.860200  0.087600  1
  C  C667  1  0.286400  0.360200  0.412400  1
  C  C668  1  0.713600  0.139800  0.912400  1
  C  C669  1  0.200200  0.794800  0.567300  1
  C  C670  1  0.799800  0.705200  0.067300  1
  C  C671  1  0.799800  0.205200  0.432700  1
  C  C672  1  0.200200  0.294800  0.932700  1
  C  C673  1  0.242300  0.847500  0.553100  1
  C  C674  1  0.757700  0.652500  0.053100  1
  C  C675  1  0.757700  0.152500  0.446900  1
  C  C676  1  0.242300  0.347500  0.946900  1
  C  C677  1  0.298400  0.888000  0.570300  1
  C  C678  1  0.701600  0.612000  0.070300  1
  C  C679  1  0.701600  0.112000  0.429700  1
  C  C680  1  0.298400  0.388000  0.929700  1
  C  C681  1  0.311700  0.872400  0.601400  1
  C  C682  1  0.688300  0.627600  0.101400  1
  C  C683  1  0.688300  0.127600  0.398600  1
  C  C684  1  0.311700  0.372400  0.898600  1
  C  C685  1  0.269400  0.818700  0.613200  1
  C  C686  1  0.730600  0.681300  0.113200  1
  C  C687  1  0.730600  0.181300  0.386800  1
  C  C688  1  0.269400  0.318700  0.886800  1
  C  C689  1  0.140500  0.750600  0.551000  1
  C  C690  1  0.859500  0.749400  0.051000  1
  C  C691  1  0.859500  0.249400  0.449000  1
  C  C692  1  0.140500  0.250600  0.949000  1
  C  C693  1  0.111200  0.749200  0.520400  1
  C  C694  1  0.888800  0.750800  0.020400  1
  C  C695  1  0.888800  0.250800  0.479600  1
  C  C696  1  0.111200  0.249200  0.979600  1
  C  C697  1  0.056400  0.694500  0.518100  1
  C  C698  1  0.943600  0.805500  0.018100  1
  C  C699  1  0.943600  0.305500  0.481900  1
  C  C700  1  0.056400  0.194500  0.981900  1
  C  C701  1  0.998700  0.605500  0.553300  1
  C  C702  1  0.001300  0.894500  0.053300  1
  C  C703  1  0.001300  0.394500  0.446700  1
  C  C704  1  0.998700  0.105500  0.946700  1
  C  C705  1  0.782100  0.622700  0.570500  1
  C  C706  1  0.217900  0.877300  0.070500  1
  C  C707  1  0.217900  0.377300  0.429500  1
  C  C708  1  0.782100  0.122700  0.929500  1
  C  C709  1  0.912800  0.605900  0.554900  1
  C  C710  1  0.087200  0.894100  0.054900  1
  C  C711  1  0.087200  0.394100  0.445100  1
  C  C712  1  0.912800  0.105900  0.945100  1
  C  C713  1  0.852100  0.575000  0.536900  1
  C  C714  1  0.147900  0.925000  0.036900  1
  C  C715  1  0.147900  0.425000  0.463100  1
  C  C716  1  0.852100  0.075000  0.963100  1
  C  C717  1  0.778200  0.584000  0.545800  1
  C  C718  1  0.221800  0.916000  0.045800  1
  C  C719  1  0.221800  0.416000  0.454200  1
  C  C720  1  0.778200  0.084000  0.954200  1
  C  C721  1  0.735800  0.697200  0.501800  1
  C  C722  1  0.264200  0.802800  0.001800  1
  C  C723  1  0.264200  0.302800  0.498200  1
  C  C724  1  0.735800  0.197200  0.998200  1
  C  C725  1  0.720700  0.645900  0.481700  1
  C  C726  1  0.279300  0.854100  0.981700  1
  C  C727  1  0.279300  0.354100  0.518300  1
  C  C728  1  0.720700  0.145900  0.018300  1
  C  C729  1  0.648400  0.611200  0.479900  1
  C  C730  1  0.351600  0.888800  0.979900  1
  C  C731  1  0.351600  0.388800  0.520100  1
  C  C732  1  0.648400  0.111200  0.020100  1
  C  C733  1  0.587000  0.622800  0.499300  1
  C  C734  1  0.413000  0.877200  0.999300  1
  C  C735  1  0.413000  0.377200  0.500700  1
  C  C736  1  0.587000  0.122800  0.000700  1
  C  C737  1  0.604100  0.670200  0.519100  1
  C  C738  1  0.395900  0.829800  0.019100  1
  C  C739  1  0.395900  0.329800  0.480900  1
  C  C740  1  0.604100  0.170200  0.980900  1
  C  C741  1  0.811900  0.740400  0.505300  1
  C  C742  1  0.188100  0.759600  0.005300  1
  C  C743  1  0.188100  0.259600  0.494700  1
  C  C744  1  0.811900  0.240400  0.994700  1
  C  C745  1  0.883400  0.742900  0.489600  1
  C  C746  1  0.116600  0.757100  0.989600  1
  C  C747  1  0.116600  0.257100  0.510400  1
  C  C748  1  0.883400  0.242900  0.010400  1
  C  C749  1  0.930800  0.794900  0.501100  1
  C  C750  1  0.069200  0.705100  0.001100  1
  C  C751  1  0.069200  0.205100  0.498900  1
  C  C752  1  0.930800  0.294900  0.998900  1
  C  C753  1  0.921600  0.879500  0.538900  1
  C  C754  1  0.078400  0.620500  0.038900  1
  C  C755  1  0.078400  0.120500  0.461100  1
  C  C756  1  0.921600  0.379500  0.961100  1
  C  C757  1  0.012100  0.607600  0.641800  1
  C  C758  1  0.987900  0.892400  0.141800  1
  C  C759  1  0.987900  0.392400  0.358200  1
  C  C760  1  0.012100  0.107600  0.858200  1
  C  C761  1  0.959300  0.555600  0.649700  1
  C  C762  1  0.040700  0.944400  0.149700  1
  C  C763  1  0.040700  0.444400  0.350300  1
  C  C764  1  0.959300  0.055600  0.850300  1
  C  C765  1  0.976300  0.497800  0.643700  1
  C  C766  1  0.023700  0.002200  0.143700  1
  C  C767  1  0.023700  0.502200  0.356300  1
  C  C768  1  0.976300  0.997800  0.856300  1
  C  C769  1  0.045800  0.495300  0.629800  1
  C  C770  1  0.954200  0.004700  0.129800  1
  C  C771  1  0.954200  0.504700  0.370200  1
  C  C772  1  0.045800  0.995300  0.870200  1
  C  C773  1  0.093900  0.549200  0.621000  1
  C  C774  1  0.906100  0.950800  0.121000  1
  C  C775  1  0.906100  0.450800  0.379000  1
  C  C776  1  0.093900  0.049200  0.879000  1
  C  C777  1  0.002600  0.669100  0.648200  1
  C  C778  1  0.997400  0.830900  0.148200  1
  C  C779  1  0.997400  0.330900  0.351800  1
  C  C780  1  0.002600  0.169100  0.851800  1
  C  C781  1  0.947800  0.689300  0.666100  1
  C  C782  1  0.052200  0.810700  0.166100  1
  C  C783  1  0.052200  0.310700  0.333900  1
  C  C784  1  0.947800  0.189300  0.833900  1
  C  C785  1  0.971600  0.753300  0.665900  1
  C  C786  1  0.028400  0.746700  0.165900  1
  C  C787  1  0.028400  0.246700  0.334100  1
  C  C788  1  0.971600  0.253300  0.834100  1
  C  C789  1  0.080100  0.830700  0.641100  1
  C  C790  1  0.919900  0.669300  0.141100  1
  C  C791  1  0.919900  0.169300  0.358900  1
  C  C792  1  0.080100  0.330700  0.858900  1
  C  C793  1  0.981800  0.876100  0.563200  1
  C  C794  1  0.018200  0.623900  0.063200  1
  C  C795  1  0.018200  0.123900  0.436800  1
  C  C796  1  0.981800  0.376100  0.936800  1
  C  C797  1  0.056200  0.853800  0.609700  1
  C  C798  1  0.943800  0.646200  0.109700  1
  C  C799  1  0.943800  0.146200  0.390300  1
  C  C800  1  0.056200  0.353800  0.890300  1
  C  C801  1  0.097800  0.897200  0.591700  1
  C  C802  1  0.902200  0.602800  0.091700  1
  C  C803  1  0.902200  0.102800  0.408300  1
  C  C804  1  0.097800  0.397200  0.908300  1
  C  C805  1  0.057700  0.911200  0.565000  1
  C  C806  1  0.942300  0.588800  0.065000  1
  C  C807  1  0.942300  0.088800  0.435000  1
  C  C808  1  0.057700  0.411200  0.935000  1
  C  C809  1  0.511800  0.667700  0.361700  1
  C  C810  1  0.488200  0.832300  0.861700  1
  C  C811  1  0.488200  0.332300  0.638300  1
  C  C812  1  0.511800  0.167700  0.138300  1
  C  C813  1  0.568700  0.639000  0.349800  1
  C  C814  1  0.431300  0.861000  0.849800  1
  C  C815  1  0.431300  0.361000  0.650200  1
  C  C816  1  0.568700  0.139000  0.150200  1
  C  C817  1  0.561100  0.621600  0.317800  1
  C  C818  1  0.438900  0.878400  0.817800  1
  C  C819  1  0.438900  0.378400  0.682200  1
  C  C820  1  0.561100  0.121600  0.182200  1
  C  C821  1  0.501100  0.632000  0.301100  1
  C  C822  1  0.498900  0.868000  0.801100  1
  C  C823  1  0.498900  0.368000  0.698900  1
  C  C824  1  0.501100  0.132000  0.198900  1
  C  C825  1  0.446900  0.662700  0.314600  1
  C  C826  1  0.553100  0.837300  0.814600  1
  C  C827  1  0.553100  0.337300  0.685400  1
  C  C828  1  0.446900  0.162700  0.185400  1
  C  C829  1  0.513900  0.689400  0.393400  1
  C  C830  1  0.486100  0.810600  0.893400  1
  C  C831  1  0.486100  0.310600  0.606600  1
  C  C832  1  0.513900  0.189400  0.106600  1
  C  C833  1  0.571500  0.695300  0.417000  1
  C  C834  1  0.428500  0.804700  0.917000  1
  C  C835  1  0.428500  0.304700  0.583000  1
  C  C836  1  0.571500  0.195300  0.083000  1
  C  C837  1  0.542100  0.720900  0.441700  1
  C  C838  1  0.457900  0.779100  0.941700  1
  C  C839  1  0.457900  0.279100  0.558300  1
  C  C840  1  0.542100  0.220900  0.058300  1
  C  C841  1  0.413700  0.751200  0.453200  1
  C  C842  1  0.586300  0.748800  0.953200  1
  C  C843  1  0.586300  0.248800  0.546800  1
  C  C844  1  0.413700  0.251200  0.046800  1
  C  C845  1  0.282200  0.666667  0.650300  1
  C  C846  1  0.717800  0.833333  0.150300  1
  C  C847  1  0.717800  0.333333  0.349700  1
  C  C848  1  0.282200  0.166667  0.849700  1
  C  C849  1  0.331200  0.664800  0.674900  1
  C  C850  1  0.668800  0.835200  0.174900  1
  C  C851  1  0.668800  0.335200  0.325100  1
  C  C852  1  0.331200  0.164800  0.825100  1
  C  C853  1  0.319700  0.690900  0.702400  1
  C  C854  1  0.680300  0.809100  0.202400  1
  C  C855  1  0.680300  0.309100  0.297600  1
  C  C856  1  0.319700  0.190900  0.797600  1
  C  C857  1  0.254200  0.716000  0.705800  1
  C  C858  1  0.745800  0.784000  0.205800  1
  C  C859  1  0.745800  0.284000  0.294200  1
  C  C860  1  0.254200  0.216000  0.794200  1
  C  C861  1  0.206000  0.715700  0.680000  1
  C  C862  1  0.794000  0.784300  0.180000  1
  C  C863  1  0.794000  0.284300  0.320000  1
  C  C864  1  0.206000  0.215700  0.820000  1
  C  C865  1  0.294500  0.641300  0.619700  1
  C  C866  1  0.705500  0.858700  0.119700  1
  C  C867  1  0.705500  0.358700  0.380300  1
  C  C868  1  0.294500  0.141300  0.880300  1
  C  C869  1  0.354400  0.613400  0.607500  1
  C  C870  1  0.645600  0.886600  0.107500  1
  C  C871  1  0.645600  0.386600  0.392500  1
  C  C872  1  0.354400  0.113400  0.892500  1
  C  C873  1  0.336200  0.605000  0.576500  1
  C  C874  1  0.663800  0.895000  0.076500  1
  C  C875  1  0.663800  0.395000  0.423500  1
  C  C876  1  0.336200  0.105000  0.923500  1
  C  C877  1  0.226300  0.615200  0.540500  1
  C  C878  1  0.773700  0.884800  0.040500  1
  C  C879  1  0.773700  0.384800  0.459500  1
  C  C880  1  0.226300  0.115200  0.959500  1
  C  C881  1  0.367500  0.699300  0.473400  1
  C  C882  1  0.632500  0.800700  0.973400  1
  C  C883  1  0.632500  0.300700  0.526600  1
  C  C884  1  0.367500  0.199300  0.026600  1
  C  C885  1  0.279900  0.636300  0.513000  1
  C  C886  1  0.720100  0.863700  0.013000  1
  C  C887  1  0.720100  0.363700  0.487000  1
  C  C888  1  0.279900  0.136300  0.987000  1
  C  C889  1  0.315200  0.601300  0.493600  1
  C  C890  1  0.684800  0.898700  0.993600  1
  C  C891  1  0.684800  0.398700  0.506400  1
  C  C892  1  0.315200  0.101300  0.006400  1
  C  C893  1  0.364600  0.637800  0.471200  1
  C  C894  1  0.635400  0.862200  0.971200  1
  C  C895  1  0.635400  0.362200  0.528800  1
  C  C896  1  0.364600  0.137800  0.028800  1
  C  C897  1  0.236500  0.637900  0.401200  1
  C  C898  1  0.763500  0.862100  0.901200  1
  C  C899  1  0.763500  0.362100  0.598800  1
  C  C900  1  0.236500  0.137900  0.098800  1
  C  C901  1  0.184200  0.585700  0.411100  1
  C  C902  1  0.815800  0.914300  0.911100  1
  C  C903  1  0.815800  0.414300  0.588900  1
  C  C904  1  0.184200  0.085700  0.088900  1
  C  C905  1  0.195000  0.527400  0.401800  1
  C  C906  1  0.805000  0.972600  0.901800  1
  C  C907  1  0.805000  0.472600  0.598200  1
  C  C908  1  0.195000  0.027400  0.098200  1
  C  C909  1  0.258600  0.524000  0.384000  1
  C  C910  1  0.741400  0.976000  0.884000  1
  C  C911  1  0.741400  0.476000  0.616000  1
  C  C912  1  0.258600  0.024000  0.116000  1
  C  C913  1  0.311500  0.578300  0.375300  1
  C  C914  1  0.688500  0.921700  0.875300  1
  C  C915  1  0.688500  0.421700  0.624700  1
  C  C916  1  0.311500  0.078300  0.124700  1
  C  C917  1  0.226800  0.699000  0.408900  1
  C  C918  1  0.773200  0.801000  0.908900  1
  C  C919  1  0.773200  0.301000  0.591100  1
  C  C920  1  0.226800  0.199000  0.091100  1
  C  C921  1  0.174800  0.720600  0.428300  1
  C  C922  1  0.825200  0.779400  0.928300  1
  C  C923  1  0.825200  0.279400  0.571700  1
  C  C924  1  0.174800  0.220600  0.071700  1
  C  C925  1  0.197400  0.782800  0.426500  1
  C  C926  1  0.802600  0.717200  0.926500  1
  C  C927  1  0.802600  0.217200  0.573500  1
  C  C928  1  0.197400  0.282800  0.073500  1
  C  C929  1  0.303200  0.860300  0.399900  1
  C  C930  1  0.696800  0.639700  0.899900  1
  C  C931  1  0.696800  0.139700  0.600100  1
  C  C932  1  0.303200  0.360300  0.100100  1
  C  C933  1  0.949700  0.731300  0.263400  1
  C  C934  1  0.050300  0.768700  0.763400  1
  C  C935  1  0.050300  0.268700  0.736600  1
  C  C936  1  0.949700  0.231300  0.236600  1
  C  C937  1  0.932500  0.679100  0.242900  1
  C  C938  1  0.067500  0.820900  0.742900  1
  C  C939  1  0.067500  0.320900  0.757100  1
  C  C940  1  0.932500  0.179100  0.257100  1
  C  C941  1  0.858000  0.642500  0.240500  1
  C  C942  1  0.142000  0.857500  0.740500  1
  C  C943  1  0.142000  0.357500  0.759500  1
  C  C944  1  0.858000  0.142500  0.259500  1
  C  C945  1  0.799900  0.655800  0.258400  1
  C  C946  1  0.200100  0.844200  0.758400  1
  C  C947  1  0.200100  0.344200  0.741600  1
  C  C948  1  0.799900  0.155800  0.241600  1
  C  C949  1  0.819800  0.705900  0.278200  1
  C  C950  1  0.180200  0.794100  0.778200  1
  C  C951  1  0.180200  0.294100  0.721800  1
  C  C952  1  0.819800  0.205900  0.221800  1
  C  C953  1  0.026100  0.773500  0.266400  1
  C  C954  1  0.973900  0.726500  0.766400  1
  C  C955  1  0.973900  0.226500  0.733600  1
  C  C956  1  0.026100  0.273500  0.233600  1
  C  C957  1  0.096300  0.775500  0.251000  1
  C  C958  1  0.903700  0.724500  0.751000  1
  C  C959  1  0.903700  0.224500  0.749000  1
  C  C960  1  0.096300  0.275500  0.249000  1
  C  C961  1  0.148900  0.827700  0.262400  1
  C  C962  1  0.851100  0.672300  0.762400  1
  C  C963  1  0.851100  0.172300  0.737600  1
  C  C964  1  0.148900  0.327700  0.237600  1
  C  C965  1  0.134100  0.910700  0.300900  1
  C  C966  1  0.865900  0.589300  0.800900  1
  C  C967  1  0.865900  0.089300  0.699100  1
  C  C968  1  0.134100  0.410700  0.199100  1
  C  C969  1  0.278800  0.881600  0.369100  1
  C  C970  1  0.721200  0.618400  0.869100  1
  C  C971  1  0.721200  0.118400  0.630900  1
  C  C972  1  0.278800  0.381600  0.130900  1
  C  C973  1  0.202000  0.907500  0.323600  1
  C  C974  1  0.798000  0.592500  0.823600  1
  C  C975  1  0.798000  0.092500  0.676400  1
  C  C976  1  0.202000  0.407500  0.176400  1
  C  C977  1  0.277800  0.937300  0.322200  1
  C  C978  1  0.722200  0.562700  0.822200  1
  C  C979  1  0.722200  0.062700  0.677800  1
  C  C980  1  0.277800  0.437300  0.177800  1
  C  C981  1  0.323600  0.923300  0.349000  1
  C  C982  1  0.676400  0.576700  0.849000  1
  C  C983  1  0.676400  0.076700  0.651000  1
  C  C984  1  0.323600  0.423300  0.151000  1
  C  C985  1  0.423000  0.825500  0.325000  1
  C  C986  1  0.577000  0.674500  0.825000  1
  C  C987  1  0.577000  0.174500  0.675000  1
  C  C988  1  0.423000  0.325500  0.175000  1
  C  C989  1  0.469600  0.879400  0.310700  1
  C  C990  1  0.530400  0.620600  0.810700  1
  C  C991  1  0.530400  0.120600  0.689300  1
  C  C992  1  0.469600  0.379400  0.189300  1
  C  C993  1  0.532000  0.911800  0.326700  1
  C  C994  1  0.468000  0.588200  0.826700  1
  C  C995  1  0.468000  0.088200  0.673300  1
  C  C996  1  0.532000  0.411800  0.173300  1
  C  C997  1  0.547900  0.897200  0.356200  1
  C  C998  1  0.452100  0.602800  0.856200  1
  C  C999  1  0.452100  0.102800  0.643800  1
  C  C1000  1  0.547900  0.397200  0.143800  1
  C  C1001  1  0.500400  0.841100  0.369500  1
  C  C1002  1  0.499600  0.658900  0.869500  1
  C  C1003  1  0.499600  0.158900  0.630500  1
  C  C1004  1  0.500400  0.341100  0.130500  1
  C  C1005  1  0.356300  0.785000  0.309700  1
  C  C1006  1  0.643700  0.715000  0.809700  1
  C  C1007  1  0.643700  0.215000  0.690300  1
  C  C1008  1  0.356300  0.285000  0.190300  1
  C  C1009  1  0.324000  0.785100  0.279800  1
  C  C1010  1  0.676000  0.714900  0.779800  1
  C  C1011  1  0.676000  0.214900  0.720200  1
  C  C1012  1  0.324000  0.285100  0.220200  1
  C  C1013  1  0.266900  0.733700  0.277900  1
  C  C1014  1  0.733100  0.766300  0.777900  1
  C  C1015  1  0.733100  0.266300  0.722100  1
  C  C1016  1  0.266900  0.233700  0.222100  1
  C  C1017  1  0.208600  0.645500  0.313500  1
  C  C1018  1  0.791400  0.854500  0.813500  1
  C  C1019  1  0.791400  0.354500  0.686500  1
  C  C1020  1  0.208600  0.145500  0.186500  1
  C  C1021  1  0.977000  0.897600  0.365700  1
  C  C1022  1  0.023000  0.602400  0.865700  1
  C  C1023  1  0.023000  0.102400  0.634300  1
  C  C1024  1  0.977000  0.397600  0.134300  1
  C  C1025  1  0.004100  0.944100  0.386500  1
  C  C1026  1  0.995900  0.555900  0.886500  1
  C  C1027  1  0.995900  0.055900  0.613500  1
  C  C1028  1  0.004100  0.444100  0.113500  1
  C  C1029  1  0.008700  0.006100  0.376100  1
  C  C1030  1  0.991300  0.493900  0.876100  1
  C  C1031  1  0.991300  0.993900  0.623900  1
  C  C1032  1  0.008700  0.506100  0.123900  1
  C  C1033  1  0.987900  0.015400  0.345900  1
  C  C1034  1  0.012100  0.484600  0.845900  1
  C  C1035  1  0.012100  0.984600  0.654100  1
  C  C1036  1  0.987900  0.515400  0.154100  1
  C  C1037  1  0.962300  0.965300  0.326800  1
  C  C1038  1  0.037700  0.534700  0.826800  1
  C  C1039  1  0.037700  0.034700  0.673200  1
  C  C1040  1  0.962300  0.465300  0.173200  1
  C  C1041  1  0.971800  0.833800  0.374300  1
  C  C1042  1  0.028200  0.666200  0.874300  1
  C  C1043  1  0.028200  0.166200  0.625700  1
  C  C1044  1  0.971800  0.333800  0.125700  1
  C  C1045  1  0.983500  0.806100  0.402800  1
  C  C1046  1  0.016500  0.693900  0.902800  1
  C  C1047  1  0.016500  0.193900  0.597200  1
  C  C1048  1  0.983500  0.306100  0.097200  1
  C  C1049  1  0.966000  0.745300  0.396900  1
  C  C1050  1  0.034000  0.754700  0.896900  1
  C  C1051  1  0.034000  0.254700  0.603100  1
  C  C1052  1  0.966000  0.245300  0.103100  1
  C  C1053  1  0.923000  0.675500  0.350200  1
  C  C1054  1  0.077000  0.824500  0.850200  1
  C  C1055  1  0.077000  0.324500  0.649800  1
  C  C1056  1  0.923000  0.175500  0.149800  1
  C  C1057  1  0.123200  0.646800  0.315600  1
  C  C1058  1  0.876800  0.853200  0.815600  1
  C  C1059  1  0.876800  0.353200  0.684400  1
  C  C1060  1  0.123200  0.146800  0.184400  1
  C  C1061  1  0.991200  0.660400  0.333500  1
  C  C1062  1  0.008800  0.839600  0.833500  1
  C  C1063  1  0.008800  0.339600  0.666500  1
  C  C1064  1  0.991200  0.160400  0.166500  1
  C  C1065  1  0.987800  0.621300  0.308000  1
  C  C1066  1  0.012200  0.878700  0.808000  1
  C  C1067  1  0.012200  0.378700  0.692000  1
  C  C1068  1  0.987800  0.121300  0.192000  1
  C  C1069  1  0.062700  0.615200  0.298200  1
  C  C1070  1  0.937300  0.884800  0.798200  1
  C  C1071  1  0.937300  0.384800  0.701800  1
  C  C1072  1  0.062700  0.115200  0.201800  1
  C  C1073  1  0.347300  0.906400  0.485900  1
  C  C1074  1  0.652700  0.593600  0.985900  1
  C  C1075  1  0.652700  0.093600  0.514100  1
  C  C1076  1  0.347300  0.406400  0.014100  1
  C  C1077  1  0.351100  0.971000  0.491400  1
  C  C1078  1  0.648900  0.529000  0.991400  1
  C  C1079  1  0.648900  0.029000  0.508600  1
  C  C1080  1  0.351100  0.471000  0.008600  1
  C  C1081  1  0.540000  0.607400  0.655500  1
  C  C1082  1  0.460000  0.892600  0.155500  1
  C  C1083  1  0.460000  0.392600  0.344500  1
  C  C1084  1  0.540000  0.107400  0.844500  1
  C  C1085  1  0.526000  0.543700  0.667400  1
  C  C1086  1  0.474000  0.956300  0.167400  1
  C  C1087  1  0.474000  0.456300  0.332600  1
  C  C1088  1  0.526000  0.043700  0.832600  1
  C  C1089  1  0.752100  0.610300  0.404800  1
  C  C1090  1  0.247900  0.889700  0.904800  1
  C  C1091  1  0.247900  0.389700  0.595200  1
  C  C1092  1  0.752100  0.110300  0.095200  1
  C  C1093  1  0.742200  0.543600  0.409300  1
  C  C1094  1  0.257800  0.956400  0.909300  1
  C  C1095  1  0.257800  0.456400  0.590700  1
  C  C1096  1  0.742200  0.043600  0.090700  1
  S  S1097  1  0.763100  0.797600  0.426040  1
  S  S1098  1  0.236900  0.702400  0.926040  1
  S  S1099  1  0.236900  0.202400  0.573960  1
  S  S1100  1  0.763100  0.297600  0.073960  1
  S  S1101  1  0.878300  0.649040  0.583690  1
  S  S1102  1  0.121700  0.850960  0.083690  1
  S  S1103  1  0.121700  0.350960  0.416310  1
  S  S1104  1  0.878300  0.149040  0.916310  1
  S  S1105  1  0.961900  0.826310  0.594370  1
  S  S1106  1  0.038100  0.673690  0.094370  1
  S  S1107  1  0.038100  0.173690  0.405630  1
  S  S1108  1  0.961900  0.326310  0.905630  1
  S  S1109  1  0.306500  0.712900  0.503080  1
  S  S1110  1  0.693500  0.787100  0.003080  1
  S  S1111  1  0.693500  0.287100  0.496920  1
  S  S1112  1  0.306500  0.212900  0.996920  1
  S  S1113  1  0.181000  0.860120  0.356870  1
  S  S1114  1  0.819000  0.639880  0.856870  1
  S  S1115  1  0.819000  0.139880  0.643130  1
  S  S1116  1  0.181000  0.360120  0.143130  1
  S  S1117  1  0.087600  0.686470  0.345460  1
  S  S1118  1  0.912400  0.813530  0.845460  1
  S  S1119  1  0.912400  0.313530  0.654540  1
  S  S1120  1  0.087600  0.186470  0.154540  1
  N  N1121  1  0.593200  0.785100  0.563700  1
  N  N1122  1  0.406800  0.714900  0.063700  1
  N  N1123  1  0.406800  0.214900  0.436300  1
  N  N1124  1  0.593200  0.285100  0.936300  1
  N  N1125  1  0.687100  0.870400  0.484900  1
  N  N1126  1  0.312900  0.629600  0.984900  1
  N  N1127  1  0.312900  0.129600  0.515100  1
  N  N1128  1  0.687100  0.370400  0.015100  1
  N  N1129  1  0.664100  0.840300  0.512300  1
  N  N1130  1  0.335900  0.659700  0.012300  1
  N  N1131  1  0.335900  0.159700  0.487700  1
  N  N1132  1  0.664100  0.340300  0.987700  1
  N  N1133  1  0.897200  0.877800  0.268400  1
  N  N1134  1  0.102800  0.622200  0.768400  1
  N  N1135  1  0.102800  0.122200  0.731600  1
  N  N1136  1  0.897200  0.377800  0.231600  1
  N  N1137  1  0.739200  0.801600  0.331500  1
  N  N1138  1  0.260800  0.698400  0.831500  1
  N  N1139  1  0.260800  0.198400  0.668500  1
  N  N1140  1  0.739200  0.301600  0.168500  1
  N  N1141  1  0.802000  0.830100  0.314100  1
  N  N1142  1  0.198000  0.669900  0.814100  1
  N  N1143  1  0.198000  0.169900  0.685900  1
  N  N1144  1  0.802000  0.330100  0.185900  1
  N  N1145  1  0.743700  0.869000  0.576400  1
  N  N1146  1  0.256300  0.631000  0.076400  1
  N  N1147  1  0.256300  0.131000  0.423600  1
  N  N1148  1  0.743700  0.369000  0.923600  1
  N  N1149  1  0.735000  0.697200  0.604600  1
  N  N1150  1  0.265000  0.802800  0.104600  1
  N  N1151  1  0.265000  0.302800  0.395400  1
  N  N1152  1  0.735000  0.197200  0.895400  1
  N  N1153  1  0.739900  0.753500  0.590900  1
  N  N1154  1  0.260100  0.746500  0.090900  1
  N  N1155  1  0.260100  0.246500  0.409100  1
  N  N1156  1  0.739900  0.253500  0.909100  1
  N  N1157  1  0.215200  0.779200  0.596500  1
  N  N1158  1  0.784800  0.720800  0.096500  1
  N  N1159  1  0.784800  0.220800  0.403500  1
  N  N1160  1  0.215200  0.279200  0.903500  1
  N  N1161  1  0.051000  0.665600  0.546200  1
  N  N1162  1  0.949000  0.834400  0.046200  1
  N  N1163  1  0.949000  0.334400  0.453800  1
  N  N1164  1  0.051000  0.165600  0.953800  1
  N  N1165  1  0.101900  0.699300  0.566800  1
  N  N1166  1  0.898100  0.800700  0.066800  1
  N  N1167  1  0.898100  0.300700  0.433200  1
  N  N1168  1  0.101900  0.199300  0.933200  1
  N  N1169  1  0.676300  0.709700  0.520900  1
  N  N1170  1  0.323700  0.790300  0.020900  1
  N  N1171  1  0.323700  0.290300  0.479100  1
  N  N1172  1  0.676300  0.209700  0.979100  1
  N  N1173  1  0.890100  0.820900  0.522500  1
  N  N1174  1  0.109900  0.679100  0.022500  1
  N  N1175  1  0.109900  0.179100  0.477500  1
  N  N1176  1  0.890100  0.320900  0.977500  1
  N  N1177  1  0.817100  0.787800  0.525700  1
  N  N1178  1  0.182900  0.712200  0.025700  1
  N  N1179  1  0.182900  0.212200  0.474300  1
  N  N1180  1  0.817100  0.287800  0.974300  1
  N  N1181  1  0.081100  0.605200  0.627000  1
  N  N1182  1  0.918900  0.894800  0.127000  1
  N  N1183  1  0.918900  0.394800  0.373000  1
  N  N1184  1  0.081100  0.105200  0.873000  1
  N  N1185  1  0.036800  0.769000  0.647800  1
  N  N1186  1  0.963200  0.731000  0.147800  1
  N  N1187  1  0.963200  0.231000  0.352200  1
  N  N1188  1  0.036800  0.269000  0.852200  1
  N  N1189  1  0.057600  0.716800  0.637000  1
  N  N1190  1  0.942400  0.783200  0.137000  1
  N  N1191  1  0.942400  0.283200  0.363000  1
  N  N1192  1  0.057600  0.216800  0.863000  1
  N  N1193  1  0.451500  0.680700  0.344200  1
  N  N1194  1  0.548500  0.819300  0.844200  1
  N  N1195  1  0.548500  0.319300  0.655800  1
  N  N1196  1  0.451500  0.180700  0.155800  1
  N  N1197  1  0.470500  0.731100  0.433300  1
  N  N1198  1  0.529500  0.768900  0.933300  1
  N  N1199  1  0.529500  0.268900  0.566700  1
  N  N1200  1  0.470500  0.231100  0.066700  1
  N  N1201  1  0.452900  0.712000  0.403800  1
  N  N1202  1  0.547100  0.788000  0.903800  1
  N  N1203  1  0.547100  0.288000  0.596200  1
  N  N1204  1  0.452900  0.212000  0.096200  1
  N  N1205  1  0.218900  0.692700  0.652700  1
  N  N1206  1  0.781100  0.807300  0.152700  1
  N  N1207  1  0.781100  0.307300  0.347300  1
  N  N1208  1  0.218900  0.192700  0.847300  1
  N  N1209  1  0.270400  0.625000  0.570500  1
  N  N1210  1  0.729600  0.875000  0.070500  1
  N  N1211  1  0.729600  0.375000  0.429500  1
  N  N1212  1  0.270400  0.125000  0.929500  1
  N  N1213  1  0.243000  0.648200  0.596300  1
  N  N1214  1  0.757000  0.851800  0.096300  1
  N  N1215  1  0.757000  0.351800  0.403700  1
  N  N1216  1  0.243000  0.148200  0.903700  1
  N  N1217  1  0.300000  0.635600  0.382800  1
  N  N1218  1  0.700000  0.864400  0.882800  1
  N  N1219  1  0.700000  0.364400  0.617200  1
  N  N1220  1  0.300000  0.135600  0.117200  1
  N  N1221  1  0.263200  0.798600  0.407900  1
  N  N1222  1  0.736800  0.701400  0.907900  1
  N  N1223  1  0.736800  0.201400  0.592100  1
  N  N1224  1  0.263200  0.298600  0.092100  1
  N  N1225  1  0.281700  0.745900  0.396300  1
  N  N1226  1  0.718300  0.754100  0.896300  1
  N  N1227  1  0.718300  0.254100  0.603700  1
  N  N1228  1  0.281700  0.245900  0.103700  1
  N  N1229  1  0.889100  0.744500  0.280600  1
  N  N1230  1  0.110900  0.755500  0.780600  1
  N  N1231  1  0.110900  0.255500  0.719400  1
  N  N1232  1  0.889100  0.244500  0.219400  1
  N  N1233  1  0.106800  0.854500  0.283800  1
  N  N1234  1  0.893200  0.645500  0.783800  1
  N  N1235  1  0.893200  0.145500  0.716200  1
  N  N1236  1  0.106800  0.354500  0.216200  1
  N  N1237  1  0.030500  0.820000  0.287100  1
  N  N1238  1  0.969500  0.680000  0.787100  1
  N  N1239  1  0.969500  0.180000  0.712900  1
  N  N1240  1  0.030500  0.320000  0.212900  1
  N  N1241  1  0.439400  0.808200  0.353900  1
  N  N1242  1  0.560600  0.691800  0.853900  1
  N  N1243  1  0.560600  0.191800  0.646100  1
  N  N1244  1  0.439400  0.308200  0.146100  1
  N  N1245  1  0.261200  0.704000  0.305900  1
  N  N1246  1  0.738800  0.796000  0.805900  1
  N  N1247  1  0.738800  0.296000  0.694100  1
  N  N1248  1  0.261200  0.204000  0.194100  1
  N  N1249  1  0.316400  0.735300  0.325900  1
  N  N1250  1  0.683600  0.764700  0.825900  1
  N  N1251  1  0.683600  0.264700  0.674100  1
  N  N1252  1  0.316400  0.235300  0.174100  1
  N  N1253  1  0.956800  0.906000  0.336400  1
  N  N1254  1  0.043200  0.594000  0.836400  1
  N  N1255  1  0.043200  0.094000  0.663600  1
  N  N1256  1  0.956800  0.406000  0.163600  1
  N  N1257  1  0.943700  0.734800  0.366400  1
  N  N1258  1  0.056300  0.765200  0.866400  1
  N  N1259  1  0.056300  0.265200  0.633600  1
  N  N1260  1  0.943700  0.234800  0.133600  1
  N  N1261  1  0.947000  0.789600  0.352000  1
  N  N1262  1  0.053000  0.710400  0.852000  1
  N  N1263  1  0.053000  0.210400  0.648000  1
  N  N1264  1  0.947000  0.289600  0.148000  1
  N  N1265  1  0.344000  0.856700  0.482900  1
  N  N1266  1  0.656000  0.643300  0.982900  1
  N  N1267  1  0.656000  0.143300  0.517100  1
  N  N1268  1  0.344000  0.356700  0.017100  1
  N  N1269  1  0.550000  0.654600  0.649400  1
  N  N1270  1  0.450000  0.845400  0.149400  1
  N  N1271  1  0.450000  0.345400  0.350600  1
  N  N1272  1  0.550000  0.154600  0.850600  1
  N  N1273  1  0.761000  0.661400  0.401800  1
  N  N1274  1  0.239000  0.838600  0.901800  1
  N  N1275  1  0.239000  0.338600  0.598200  1
  N  N1276  1  0.761000  0.161400  0.098200  1
  O  O1277  1  0.571000  0.419800  0.262000  1
  O  O1278  1  0.429000  0.080200  0.762000  1
  O  O1279  1  0.429000  0.580200  0.738000  1
  O  O1280  1  0.571000  0.919800  0.238000  1
  O  O1281  1  0.420000  0.820000  0.667500  1
  O  O1282  1  0.580000  0.680000  0.167500  1
  O  O1283  1  0.580000  0.180000  0.332500  1
  O  O1284  1  0.420000  0.320000  0.832500  1
  F  F1285  1  0.456200  0.519900  0.546700  1
  F  F1286  1  0.543800  0.980100  0.046700  1
  F  F1287  1  0.543800  0.480100  0.453300  1
  F  F1288  1  0.456200  0.019900  0.953300  1
  F  F1289  1  0.529200  0.585100  0.580000  1
  F  F1290  1  0.470800  0.914900  0.080000  1
  F  F1291  1  0.470800  0.414900  0.420000  1
  F  F1292  1  0.529200  0.085100  0.920000  1
  F  F1293  1  0.445400  0.498300  0.596100  1
  F  F1294  1  0.554600  0.001700  0.096100  1
  F  F1295  1  0.554600  0.501700  0.403900  1
  F  F1296  1  0.445400  0.998300  0.903900  1
  F  F1297  1  0.504300  0.440600  0.568900  1
  F  F1298  1  0.495700  0.059400  0.068900  1
  F  F1299  1  0.495700  0.559400  0.431100  1
  F  F1300  1  0.504300  0.940600  0.931100  1
  F  F1301  1  0.588500  0.523900  0.550700  1
  F  F1302  1  0.411500  0.976100  0.050700  1
  F  F1303  1  0.411500  0.476100  0.449300  1
  F  F1304  1  0.588500  0.023900  0.949300  1
  F  F1305  1  0.576500  0.508100  0.601900  1
  F  F1306  1  0.423500  0.991900  0.101900  1
  F  F1307  1  0.423500  0.491900  0.398100  1
  F  F1308  1  0.576500  0.008100  0.898100  1
  F  F1309  1  0.241400  0.888800  0.676700  1
  F  F1310  1  0.758600  0.611200  0.176700  1
  F  F1311  1  0.758600  0.111200  0.323300  1
  F  F1312  1  0.241400  0.388800  0.823300  1
  F  F1313  1  0.274200  0.032800  0.674900  1
  F  F1314  1  0.725800  0.467200  0.174900  1
  F  F1315  1  0.725800  0.967200  0.325100  1
  F  F1316  1  0.274200  0.532800  0.825100  1
  F  F1317  1  0.235600  0.965300  0.641000  1
  F  F1318  1  0.764400  0.534700  0.141000  1
  F  F1319  1  0.764400  0.034700  0.359000  1
  F  F1320  1  0.235600  0.465300  0.859000  1
  F  F1321  1  0.287300  0.968700  0.709600  1
  F  F1322  1  0.712700  0.531300  0.209600  1
  F  F1323  1  0.712700  0.031300  0.290400  1
  F  F1324  1  0.287300  0.468700  0.790400  1
  F  F1325  1  0.346800  0.961000  0.666200  1
  F  F1326  1  0.653200  0.539000  0.166200  1
  F  F1327  1  0.653200  0.039000  0.333800  1
  F  F1328  1  0.346800  0.461000  0.833800  1
  F  F1329  1  0.169300  0.958700  0.684700  1
  F  F1330  1  0.830700  0.541300  0.184700  1
  F  F1331  1  0.830700  0.041300  0.315300  1
  F  F1332  1  0.169300  0.458700  0.815300  1
  F  F1333  1  0.845000  0.942600  0.697400  1
  F  F1334  1  0.155000  0.557400  0.197400  1
  F  F1335  1  0.155000  0.057400  0.302600  1
  F  F1336  1  0.845000  0.442600  0.802600  1
  F  F1337  1  0.897300  0.860200  0.690300  1
  F  F1338  1  0.102700  0.639800  0.190300  1
  F  F1339  1  0.102700  0.139800  0.309700  1
  F  F1340  1  0.897300  0.360200  0.809700  1
  F  F1341  1  0.951300  0.932500  0.725400  1
  F  F1342  1  0.048700  0.567500  0.225400  1
  F  F1343  1  0.048700  0.067500  0.274600  1
  F  F1344  1  0.951300  0.432500  0.774600  1
  F  F1345  1  0.832000  0.869900  0.734900  1
  F  F1346  1  0.168000  0.630100  0.234900  1
  F  F1347  1  0.168000  0.130100  0.265100  1
  F  F1348  1  0.832000  0.369900  0.765100  1
  F  F1349  1  0.110000  0.487600  0.552000  1
  F  F1350  1  0.890000  0.012400  0.052000  1
  F  F1351  1  0.890000  0.512400  0.448000  1
  F  F1352  1  0.110000  0.987600  0.948000  1
  F  F1353  1  0.984700  0.360600  0.548400  1
  F  F1354  1  0.015300  0.139400  0.048400  1
  F  F1355  1  0.015300  0.639400  0.451600  1
  F  F1356  1  0.984700  0.860600  0.951600  1
  F  F1357  1  0.109600  0.394800  0.532600  1
  F  F1358  1  0.890400  0.105200  0.032600  1
  F  F1359  1  0.890400  0.605200  0.467400  1
  F  F1360  1  0.109600  0.894800  0.967400  1
  F  F1361  1  0.984900  0.454200  0.567600  1
  F  F1362  1  0.015100  0.045800  0.067600  1
  F  F1363  1  0.015100  0.545800  0.432400  1
  F  F1364  1  0.984900  0.954200  0.932400  1
  F  F1365  1  0.017000  0.444200  0.517900  1
  F  F1366  1  0.983000  0.055800  0.017900  1
  F  F1367  1  0.983000  0.555800  0.482100  1
  F  F1368  1  0.017000  0.944200  0.982100  1
  F  F1369  1  0.078000  0.404600  0.582500  1
  F  F1370  1  0.922000  0.095400  0.082500  1
  F  F1371  1  0.922000  0.595400  0.417500  1
  F  F1372  1  0.078000  0.904600  0.917500  1
  F  F1373  1  0.737400  0.609800  0.329100  1
  F  F1374  1  0.262600  0.890200  0.829100  1
  F  F1375  1  0.262600  0.390200  0.670900  1
  F  F1376  1  0.737400  0.109800  0.170900  1
  F  F1377  1  0.801500  0.534100  0.336800  1
  F  F1378  1  0.198500  0.965900  0.836800  1
  F  F1379  1  0.198500  0.465900  0.663200  1
  F  F1380  1  0.801500  0.034100  0.163200  1
  F  F1381  1  0.720200  0.530000  0.295200  1
  F  F1382  1  0.279800  0.970000  0.795200  1
  F  F1383  1  0.279800  0.470000  0.704800  1
  F  F1384  1  0.720200  0.030000  0.204800  1
  F  F1385  1  0.668400  0.515900  0.343300  1
  F  F1386  1  0.331600  0.984100  0.843300  1
  F  F1387  1  0.331600  0.484100  0.656700  1
  F  F1388  1  0.668400  0.015900  0.156700  1
  F  F1389  1  0.119400  0.882700  0.495800  1
  F  F1390  1  0.880600  0.617300  0.995800  1
  F  F1391  1  0.880600  0.117300  0.504200  1
  F  F1392  1  0.119400  0.382700  0.004200  1
  F  F1393  1  0.144100  0.910600  0.446100  1
  F  F1394  1  0.855900  0.589400  0.946100  1
  F  F1395  1  0.855900  0.089400  0.553900  1
  F  F1396  1  0.144100  0.410600  0.053900  1
  F  F1397  1  0.156700  0.983200  0.483700  1
  F  F1398  1  0.843300  0.516800  0.983700  1
  F  F1399  1  0.843300  0.016800  0.516300  1
  F  F1400  1  0.156700  0.483200  0.016300  1
  F  F1401  1  0.035000  0.927100  0.470000  1
  F  F1402  1  0.965000  0.572900  0.970000  1
  F  F1403  1  0.965000  0.072900  0.530000  1
  F  F1404  1  0.035000  0.427100  0.030000  1
  F  F1405  1  0.480200  0.917500  0.431600  1
  F  F1406  1  0.519800  0.582500  0.931600  1
  F  F1407  1  0.519800  0.082500  0.568400  1
  F  F1408  1  0.480200  0.417500  0.068400  1
  F  F1409  1  0.475400  0.993100  0.397200  1
  F  F1410  1  0.524600  0.506900  0.897200  1
  F  F1411  1  0.524600  0.006900  0.602800  1
  F  F1412  1  0.475400  0.493100  0.102800  1
  F  F1413  1  0.591300  0.984200  0.418600  1
  F  F1414  1  0.408700  0.515800  0.918600  1
  F  F1415  1  0.408700  0.015800  0.581400  1
  F  F1416  1  0.591300  0.484200  0.081400  1
  F  F1417  1  0.501100  0.017200  0.447600  1
  F  F1418  1  0.498900  0.482800  0.947600  1
  F  F1419  1  0.498900  0.982800  0.552400  1
  F  F1420  1  0.501100  0.517200  0.052400  1
  F  F1421  1  0.234200  0.916000  0.176900  1
  F  F1422  1  0.765800  0.584000  0.676900  1
  F  F1423  1  0.765800  0.084000  0.823100  1
  F  F1424  1  0.234200  0.416000  0.323100  1
  F  F1425  1  0.296700  0.923800  0.223800  1
  F  F1426  1  0.703300  0.576200  0.723800  1
  F  F1427  1  0.703300  0.076200  0.776200  1
  F  F1428  1  0.296700  0.423800  0.276200  1
  F  F1429  1  0.183300  0.956100  0.217300  1
  F  F1430  1  0.816700  0.543900  0.717300  1
  F  F1431  1  0.816700  0.043900  0.782700  1
  F  F1432  1  0.183300  0.456100  0.282700  1
  F  F1433  1  0.296900  0.009300  0.195400  1
  F  F1434  1  0.703100  0.490700  0.695400  1
  F  F1435  1  0.703100  0.990700  0.804600  1
  F  F1436  1  0.296900  0.509300  0.304600  1
  F  F1437  1  0.017400  0.395300  0.578100  1
  F  F1438  1  0.982600  0.104700  0.078100  1
  F  F1439  1  0.982600  0.604700  0.421900  1
  F  F1440  1  0.017400  0.895300  0.921900  1
  F  F1441  1  0.978800  0.423100  0.531700  1
  F  F1442  1  0.021200  0.076900  0.031700  1
  F  F1443  1  0.021200  0.576900  0.468300  1
  F  F1444  1  0.978800  0.923100  0.968300  1
  F  F1445  1  0.088500  0.481400  0.554100  1
  F  F1446  1  0.911500  0.018600  0.054100  1
  F  F1447  1  0.911500  0.518600  0.445900  1
  F  F1448  1  0.088500  0.981400  0.945900  1
  F  F1449  1  0.088200  0.386100  0.535100  1
  F  F1450  1  0.911800  0.113900  0.035100  1
  F  F1451  1  0.911800  0.613900  0.464900  1
  F  F1452  1  0.088200  0.886100  0.964900  1
  F  F1453  1  0.413500  0.990700  0.423400  1
  F  F1454  1  0.586500  0.509300  0.923400  1
  F  F1455  1  0.586500  0.009300  0.576600  1
  F  F1456  1  0.413500  0.490700  0.076600  1
  F  F1457  1  0.538300  0.004200  0.405400  1
  F  F1458  1  0.461700  0.495800  0.905400  1
  F  F1459  1  0.461700  0.995800  0.594600  1
  F  F1460  1  0.538300  0.504200  0.094600  1
  F  F1461  1  0.516600  0.007100  0.457200  1
  F  F1462  1  0.483400  0.492900  0.957200  1
  F  F1463  1  0.483400  0.992900  0.542800  1
  F  F1464  1  0.516600  0.507100  0.042800  1
  F  F1465  1  0.273500  0.933400  0.169200  1
  F  F1466  1  0.726500  0.566600  0.669200  1
  F  F1467  1  0.726500  0.066600  0.830800  1
  F  F1468  1  0.273500  0.433400  0.330800  1
  F  F1469  1  0.240500  0.969000  0.238500  1
  F  F1470  1  0.759500  0.531000  0.738500  1
  F  F1471  1  0.759500  0.031000  0.761500  1
  F  F1472  1  0.240500  0.469000  0.261500  1
  F  F1473  1  0.297600  0.899700  0.216200  1
  F  F1474  1  0.702400  0.600300  0.716200  1
  F  F1475  1  0.702400  0.100300  0.783800  1
  F  F1476  1  0.297600  0.399700  0.283800  1
  F  F1477  1  0.214200  0.002400  0.191300  1
  F  F1478  1  0.785800  0.497600  0.691300  1
  F  F1479  1  0.785800  0.997600  0.808700  1
  F  F1480  1  0.214200  0.502400  0.308700  1
  F  F1481  1  0.173900  0.902800  0.203200  1
  F  F1482  1  0.826100  0.597200  0.703200  1
  F  F1483  1  0.826100  0.097200  0.796800  1
  F  F1484  1  0.173900  0.402800  0.296800  1
  F  F1485  1  0.338200  0.999700  0.204300  1
  F  F1486  1  0.661800  0.500300  0.704300  1
  F  F1487  1  0.661800  0.000300  0.795700  1
  F  F1488  1  0.338200  0.499700  0.295700  1
