# generated using pymatgen
data_Co6B16H393Ru6C443N119O25F64
_symmetry_space_group_name_H-M   'P 1'
_cell_length_a   26.03600000
_cell_length_b   27.06800000
_cell_length_c   42.86900000
_cell_angle_alpha   84.34000000
_cell_angle_beta   88.76400000
_cell_angle_gamma   87.33600000
_symmetry_Int_Tables_number   1
_chemical_formula_structural   Co6B16H393Ru6C443N119O25F64
_chemical_formula_sum   'Co12 B32 Ru12.0 H786 C886 N238 O50 F128'
_cell_volume   30027.43597936
_cell_formula_units_Z   2
loop_
 _symmetry_equiv_pos_site_id
 _symmetry_equiv_pos_as_xyz
  1  'x, y, z'
loop_
 _atom_site_type_symbol
 _atom_site_label
 _atom_site_symmetry_multiplicity
 _atom_site_fract_x
 _atom_site_fract_y
 _atom_site_fract_z
 _atom_site_occupancy
  Co  Co1  1  0.180710  0.410060  0.352020  0.526
  Ru  Ru2  1  0.180710  0.410060  0.352020  0.474
  Co  Co3  1  0.819290  0.589940  0.647980  0.526
  Ru  Ru4  1  0.819290  0.589940  0.647980  0.474
  Co  Co5  1  0.186900  0.816760  0.015870  0.526
  Ru  Ru6  1  0.186900  0.816760  0.015870  0.474
  Co  Co7  1  0.813100  0.183240  0.984130  0.526
  Ru  Ru8  1  0.813100  0.183240  0.984130  0.474
  Co  Co9  1  0.993690  0.892420  0.322920  0.526
  Ru  Ru10  1  0.993690  0.892420  0.322920  0.474
  Co  Co11  1  0.006310  0.107580  0.677080  0.526
  Ru  Ru12  1  0.006310  0.107580  0.677080  0.474
  Co  Co13  1  0.492820  0.612520  0.335310  0.501
  Ru  Ru14  1  0.492820  0.612520  0.335310  0.499
  Co  Co15  1  0.507180  0.387480  0.664690  0.501
  Ru  Ru16  1  0.507180  0.387480  0.664690  0.499
  Co  Co17  1  0.708370  0.685370  0.034200  0.501
  Ru  Ru18  1  0.708370  0.685370  0.034200  0.499
  Co  Co19  1  0.291630  0.314630  0.965800  0.501
  Ru  Ru20  1  0.291630  0.314630  0.965800  0.499
  Co  Co21  1  0.633690  0.099760  0.307910  0.501
  Ru  Ru22  1  0.633690  0.099760  0.307910  0.499
  Co  Co23  1  0.366310  0.900240  0.692090  0.501
  Ru  Ru24  1  0.366310  0.900240  0.692090  0.499
  B  B25  1  0.645400  0.846200  0.273900  1.0
  B  B26  1  0.354600  0.153800  0.726100  1.0
  B  B27  1  0.976100  0.889500  0.108600  1.0
  B  B28  1  0.023900  0.110500  0.891400  1.0
  B  B29  1  0.155300  0.700600  0.314100  1.0
  B  B30  1  0.844700  0.299400  0.685900  1.0
  B  B31  1  0.890600  0.760700  0.481100  1.0
  B  B32  1  0.109400  0.239300  0.518900  1.0
  B  B33  1  0.655700  0.657900  0.219400  1.0
  B  B34  1  0.344300  0.342100  0.780600  1.0
  B  B35  1  0.398600  0.461600  0.471300  1.0
  B  B36  1  0.601400  0.538400  0.528700  1.0
  B  B37  1  0.942800  0.126800  0.158000  1.0
  B  B38  1  0.057200  0.873200  0.842000  1.0
  B  B39  1  0.158900  0.793100  0.183400  1.0
  B  B40  1  0.841100  0.206900  0.816600  1.0
  B  B41  1  0.496800  0.585200  0.150000  1.0
  B  B42  1  0.503200  0.414800  0.850000  1.0
  B  B43  1  0.759000  0.453800  0.352400  1.0
  B  B44  1  0.241000  0.546200  0.647600  1.0
  B  B45  1  0.909000  0.742500  0.015800  1.0
  B  B46  1  0.091000  0.257500  0.984200  1.0
  B  B47  1  0.390800  0.031700  0.027300  1.0
  B  B48  1  0.609200  0.968300  0.972700  1.0
  B  B49  1  0.967100  0.372100  0.346200  1.0
  B  B50  1  0.032900  0.627900  0.653800  1.0
  B  B51  1  0.485700  0.199100  0.145500  0.5
  B  B52  1  0.514300  0.800900  0.854500  0.5
  B  B53  1  0.503900  0.738100  0.021200  0.5
  B  B54  1  0.496100  0.261900  0.978800  0.5
  B  B55  1  0.478400  0.769900  0.472200  0.5
  B  B56  1  0.521600  0.230100  0.527800  0.5
  B  B57  1  0.330000  0.164300  0.306700  0.5
  B  B58  1  0.670000  0.835700  0.693300  0.5
  B  B59  1  0.465300  0.904800  0.341700  0.5
  B  B60  1  0.534700  0.095200  0.658300  0.5
  B  B61  1  0.265000  0.932000  0.403600  0.5
  B  B62  1  0.735000  0.068000  0.596400  0.5
  Co  Co63  1  0.486170  0.887640  0.158570  0.499
  Ru  Ru64  1  0.486170  0.887640  0.158570  0.501
  Co  Co65  1  0.513830  0.112360  0.841430  0.499
  Ru  Ru66  1  0.513830  0.112360  0.841430  0.501
  Co  Co67  1  0.681980  0.815850  0.459080  0.499
  Ru  Ru68  1  0.681980  0.815850  0.459080  0.501
  Co  Co69  1  0.318020  0.184150  0.540920  0.499
  Ru  Ru70  1  0.318020  0.184150  0.540920  0.501
  Co  Co71  1  0.671090  0.405400  0.184080  0.499
  Ru  Ru72  1  0.671090  0.405400  0.184080  0.501
  Co  Co73  1  0.328910  0.594600  0.815920  0.499
  Ru  Ru74  1  0.328910  0.594600  0.815920  0.501
  Co  Co75  1  0.161480  0.084500  0.149330  0.474
  Ru  Ru76  1  0.161480  0.084500  0.149330  0.526
  Co  Co77  1  0.838520  0.915500  0.850670  0.474
  Ru  Ru78  1  0.838520  0.915500  0.850670  0.526
  Co  Co79  1  0.176160  0.677020  0.483260  0.474
  Ru  Ru80  1  0.176160  0.677020  0.483260  0.526
  Co  Co81  1  0.823840  0.322980  0.516740  0.474
  Ru  Ru82  1  0.823840  0.322980  0.516740  0.526
  Co  Co83  1  0.012180  0.604440  0.175390  0.474
  Ru  Ru84  1  0.012180  0.604440  0.175390  0.526
  Co  Co85  1  0.987820  0.395560  0.824610  0.474
  Ru  Ru86  1  0.987820  0.395560  0.824610  0.526
  H  H87  1  0.216500  0.238600  0.319600  1.0
  H  H88  1  0.783500  0.761400  0.680400  1.0
  H  H89  1  0.285000  0.214200  0.352900  1.0
  H  H90  1  0.715000  0.785800  0.647100  1.0
  H  H91  1  0.315700  0.269900  0.385700  1.0
  H  H92  1  0.684300  0.730100  0.614300  1.0
  H  H93  1  0.277800  0.350100  0.385300  1.0
  H  H94  1  0.722200  0.649900  0.614700  1.0
  H  H95  1  0.145800  0.276800  0.280500  1.0
  H  H96  1  0.854200  0.723200  0.719500  1.0
  H  H97  1  0.083200  0.344800  0.257800  1.0
  H  H98  1  0.916800  0.655200  0.742200  1.0
  H  H99  1  0.080500  0.451000  0.305500  1.0
  H  H100  1  0.919500  0.549000  0.694500  1.0
  H  H101  1  0.054800  0.434500  0.274800  1.0
  H  H102  1  0.945200  0.565500  0.725200  1.0
  H  H103  1  0.876800  0.633300  0.256900  1.0
  H  H104  1  0.123200  0.366700  0.743100  1.0
  H  H105  1  0.804200  0.636300  0.225400  1.0
  H  H106  1  0.195800  0.363700  0.774600  1.0
  H  H107  1  0.813400  0.625300  0.172100  1.0
  H  H108  1  0.186600  0.374700  0.827900  1.0
  H  H109  1  0.895300  0.611400  0.150200  1.0
  H  H110  1  0.104700  0.388600  0.849800  1.0
  H  H111  1  0.959500  0.630800  0.287900  1.0
  H  H112  1  0.040500  0.369200  0.712100  1.0
  H  H113  1  0.056500  0.629100  0.292600  1.0
  H  H114  1  0.943500  0.370900  0.707400  1.0
  H  H115  1  0.070200  0.531900  0.270200  1.0
  H  H116  1  0.929800  0.468100  0.729800  1.0
  H  H117  1  0.194100  0.563600  0.214200  1.0
  H  H118  1  0.805900  0.436400  0.785800  1.0
  H  H119  1  0.224400  0.480600  0.222500  1.0
  H  H120  1  0.775600  0.519400  0.777500  1.0
  H  H121  1  0.177500  0.423400  0.254700  1.0
  H  H122  1  0.822500  0.576600  0.745300  1.0
  H  H123  1  0.133500  0.629500  0.250000  1.0
  H  H124  1  0.866500  0.370500  0.750000  1.0
  H  H125  1  0.119000  0.623400  0.214500  1.0
  H  H126  1  0.881000  0.376600  0.785500  1.0
  H  H127  1  0.144800  0.328300  0.458900  1.0
  H  H128  1  0.855200  0.671700  0.541100  1.0
  H  H129  1  0.075600  0.282200  0.446500  1.0
  H  H130  1  0.924400  0.717800  0.553500  1.0
  H  H131  1  0.042800  0.291900  0.395800  1.0
  H  H132  1  0.957200  0.708100  0.604200  1.0
  H  H133  1  0.079300  0.347900  0.357400  1.0
  H  H134  1  0.920700  0.652100  0.642600  1.0
  H  H135  1  0.218600  0.379600  0.467500  1.0
  H  H136  1  0.781400  0.620400  0.532500  1.0
  H  H137  1  0.291100  0.436500  0.450800  1.0
  H  H138  1  0.708900  0.563500  0.549200  1.0
  H  H139  1  0.275000  0.477700  0.364800  1.0
  H  H140  1  0.725000  0.522300  0.635200  1.0
  H  H141  1  0.323600  0.462600  0.386400  1.0
  H  H142  1  0.676400  0.537400  0.613600  1.0
  H  H143  1  0.211600  0.851300  0.441500  1.0
  H  H144  1  0.788400  0.148700  0.558500  1.0
  H  H145  1  0.193100  0.889800  0.487200  1.0
  H  H146  1  0.806900  0.110200  0.512800  1.0
  H  H147  1  0.164500  0.842800  0.532500  1.0
  H  H148  1  0.835500  0.157200  0.467500  1.0
  H  H149  1  0.154600  0.757400  0.532000  1.0
  H  H150  1  0.845400  0.242600  0.468000  1.0
  H  H151  1  0.227900  0.801700  0.394600  1.0
  H  H152  1  0.772100  0.198300  0.605400  1.0
  H  H153  1  0.224000  0.725400  0.365000  1.0
  H  H154  1  0.776000  0.274600  0.635000  1.0
  H  H155  1  0.211200  0.546200  0.388400  1.0
  H  H156  1  0.788800  0.453800  0.611600  1.0
  H  H157  1  0.287500  0.659400  0.418400  1.0
  H  H158  1  0.712500  0.340600  0.581600  1.0
  H  H159  1  0.363500  0.609600  0.420600  1.0
  H  H160  1  0.636500  0.390400  0.579400  1.0
  H  H161  1  0.363400  0.528200  0.406700  1.0
  H  H162  1  0.636600  0.471800  0.593300  1.0
  H  H163  1  0.176000  0.636700  0.381000  1.0
  H  H164  1  0.824000  0.363300  0.619000  1.0
  H  H165  1  0.167100  0.622200  0.417800  1.0
  H  H166  1  0.832900  0.377800  0.582200  1.0
  H  H167  1  0.238500  0.569600  0.295500  1.0
  H  H168  1  0.761500  0.430400  0.704500  1.0
  H  H169  1  0.312700  0.537800  0.271500  1.0
  H  H170  1  0.687300  0.462200  0.728500  1.0
  H  H171  1  0.334200  0.452500  0.278600  1.0
  H  H172  1  0.665800  0.547500  0.721400  1.0
  H  H173  1  0.281400  0.399200  0.309700  1.0
  H  H174  1  0.718600  0.600800  0.690300  1.0
  H  H175  1  0.153900  0.595800  0.320300  1.0
  H  H176  1  0.846100  0.404200  0.679700  1.0
  H  H177  1  0.071900  0.580000  0.352000  1.0
  H  H178  1  0.928100  0.420000  0.648000  1.0
  H  H179  1  0.061700  0.442400  0.373400  1.0
  H  H180  1  0.938300  0.557600  0.626600  1.0
  H  H181  1  0.025200  0.491600  0.371900  1.0
  H  H182  1  0.974800  0.508400  0.628100  1.0
  H  H183  1  0.339600  0.575200  0.490300  1.0
  H  H184  1  0.660400  0.424800  0.509700  1.0
  H  H185  1  0.395400  0.637500  0.499300  1.0
  H  H186  1  0.604600  0.362500  0.500700  1.0
  H  H187  1  0.363500  0.719400  0.501000  1.0
  H  H188  1  0.636500  0.280600  0.499000  1.0
  H  H189  1  0.275900  0.739200  0.493700  1.0
  H  H190  1  0.724100  0.260800  0.506300  1.0
  H  H191  1  0.274100  0.511500  0.479100  1.0
  H  H192  1  0.725900  0.488500  0.520900  1.0
  H  H193  1  0.183900  0.486500  0.468600  1.0
  H  H194  1  0.816100  0.513500  0.531400  1.0
  H  H195  1  0.102900  0.544200  0.411800  1.0
  H  H196  1  0.897100  0.455800  0.588200  1.0
  H  H197  1  0.060900  0.485200  0.498700  1.0
  H  H198  1  0.939100  0.514800  0.501300  1.0
  H  H199  1  0.024900  0.419100  0.476900  1.0
  H  H200  1  0.975100  0.580900  0.523100  1.0
  H  H201  1  0.027900  0.415600  0.422500  1.0
  H  H202  1  0.972100  0.584400  0.577500  1.0
  H  H203  1  0.097500  0.595400  0.454600  1.0
  H  H204  1  0.902500  0.404600  0.545400  1.0
  H  H205  1  0.090400  0.570800  0.489800  1.0
  H  H206  1  0.909600  0.429200  0.510200  1.0
  H  H207  1  0.100600  0.434600  0.180700  1.0
  H  H208  1  0.899400  0.565400  0.819300  1.0
  H  H209  1  0.034300  0.389300  0.205500  1.0
  H  H210  1  0.965700  0.610700  0.794500  1.0
  H  H211  1  0.956900  0.430200  0.218800  1.0
  H  H212  1  0.043100  0.569800  0.781200  1.0
  H  H213  1  0.945800  0.516300  0.207300  1.0
  H  H214  1  0.054200  0.483700  0.792700  1.0
  H  H215  1  0.163900  0.489900  0.154500  1.0
  H  H216  1  0.836100  0.510100  0.845500  1.0
  H  H217  1  0.202600  0.572200  0.135900  1.0
  H  H218  1  0.797400  0.427800  0.864100  1.0
  H  H219  1  0.168600  0.668400  0.140900  1.0
  H  H220  1  0.831400  0.331600  0.859100  1.0
  H  H221  1  0.112800  0.676000  0.156400  1.0
  H  H222  1  0.887200  0.324000  0.843600  1.0
  H  H223  1  0.078700  0.849700  0.920600  1.0
  H  H224  1  0.921300  0.150300  0.079400  1.0
  H  H225  1  0.144600  0.860900  0.882900  1.0
  H  H226  1  0.855400  0.139100  0.117100  1.0
  H  H227  1  0.230600  0.854900  0.898300  1.0
  H  H228  1  0.769400  0.145100  0.101700  1.0
  H  H229  1  0.250600  0.837600  0.951300  1.0
  H  H230  1  0.749400  0.162400  0.048700  1.0
  H  H231  1  0.013700  0.836700  0.965100  1.0
  H  H232  1  0.986300  0.163300  0.034900  1.0
  H  H233  1  0.985400  0.816800  0.021700  1.0
  H  H234  1  0.014600  0.183200  0.978300  1.0
  H  H235  1  0.107100  0.747200  0.115800  1.0
  H  H236  1  0.892900  0.252800  0.884200  1.0
  H  H237  1  0.060500  0.719500  0.029900  1.0
  H  H238  1  0.939500  0.280500  0.970100  1.0
  H  H239  1  0.077100  0.634400  0.042900  1.0
  H  H240  1  0.922900  0.365600  0.957100  1.0
  H  H241  1  0.108800  0.605600  0.092400  1.0
  H  H242  1  0.891200  0.394400  0.907600  1.0
  H  H243  1  0.038700  0.805900  0.076800  1.0
  H  H244  1  0.961300  0.194100  0.923200  1.0
  H  H245  1  0.099000  0.814900  0.073300  1.0
  H  H246  1  0.901000  0.185100  0.926700  1.0
  H  H247  1  0.944700  0.676300  0.071600  1.0
  H  H248  1  0.055300  0.323700  0.928400  1.0
  H  H249  1  0.941400  0.602500  0.047700  1.0
  H  H250  1  0.058600  0.397500  0.952300  1.0
  H  H251  1  0.969200  0.527000  0.074700  1.0
  H  H252  1  0.030800  0.473000  0.925300  1.0
  H  H253  1  0.000300  0.525200  0.125600  1.0
  H  H254  1  0.999700  0.474800  0.874400  1.0
  H  H255  1  0.954900  0.752600  0.101000  1.0
  H  H256  1  0.045100  0.247400  0.899000  1.0
  H  H257  1  0.987500  0.797000  0.145600  1.0
  H  H258  1  0.012500  0.203000  0.854400  1.0
  H  H259  1  0.057100  0.763800  0.189400  1.0
  H  H260  1  0.942900  0.236200  0.810600  1.0
  H  H261  1  0.061300  0.705300  0.199300  1.0
  H  H262  1  0.938700  0.294700  0.800700  1.0
  H  H263  1  0.926000  0.826000  0.428100  1.0
  H  H264  1  0.074000  0.174000  0.571900  1.0
  H  H265  1  0.917300  0.901000  0.451000  1.0
  H  H266  1  0.082700  0.099000  0.549000  1.0
  H  H267  1  0.941400  0.975000  0.422700  1.0
  H  H268  1  0.058600  0.025000  0.577300  1.0
  H  H269  1  0.974200  0.973900  0.371500  1.0
  H  H270  1  0.025800  0.026100  0.628500  1.0
  H  H271  1  0.944000  0.748300  0.399700  1.0
  H  H272  1  0.056000  0.251700  0.600300  1.0
  H  H273  1  0.982700  0.700400  0.356300  1.0
  H  H274  1  0.017300  0.299600  0.643700  1.0
  H  H275  1  0.063600  0.748100  0.250400  1.0
  H  H276  1  0.936400  0.251900  0.749600  1.0
  H  H277  1  0.925800  0.758300  0.295600  1.0
  H  H278  1  0.074200  0.241700  0.704400  1.0
  H  H279  1  0.883900  0.746700  0.249300  1.0
  H  H280  1  0.116100  0.253300  0.750700  1.0
  H  H281  1  0.931900  0.735800  0.203500  1.0
  H  H282  1  0.068100  0.264200  0.796500  1.0
  H  H283  1  0.050900  0.728800  0.311800  1.0
  H  H284  1  0.949100  0.271200  0.688200  1.0
  H  H285  1  0.054100  0.786900  0.301600  1.0
  H  H286  1  0.945900  0.213100  0.698400  1.0
  H  H287  1  0.346300  0.912400  0.004600  1.0
  H  H288  1  0.653700  0.087600  0.995400  1.0
  H  H289  1  0.405000  0.846700  0.996300  1.0
  H  H290  1  0.595000  0.153300  0.003700  1.0
  H  H291  1  0.376800  0.765700  0.997700  1.0
  H  H292  1  0.623200  0.234300  0.002300  1.0
  H  H293  1  0.289900  0.750400  0.007400  1.0
  H  H294  1  0.710100  0.249600  0.992600  1.0
  H  H295  1  0.273700  0.979500  0.016200  1.0
  H  H296  1  0.726300  0.020500  0.983800  1.0
  H  H297  1  0.181200  0.007900  0.026400  1.0
  H  H298  1  0.818800  0.992100  0.973600  1.0
  H  H299  1  0.099300  0.900000  0.041700  1.0
  H  H300  1  0.900700  0.100000  0.958300  1.0
  H  H301  1  0.093100  0.927700  0.007100  1.0
  H  H302  1  0.906900  0.072300  0.992900  1.0
  H  H303  1  0.229000  0.923400  0.204400  1.0
  H  H304  1  0.771000  0.076600  0.795600  1.0
  H  H305  1  0.298700  0.953400  0.229200  1.0
  H  H306  1  0.701300  0.046600  0.770800  1.0
  H  H307  1  0.313900  0.038400  0.223100  1.0
  H  H308  1  0.686100  0.961600  0.776900  1.0
  H  H309  1  0.259500  0.093300  0.192100  1.0
  H  H310  1  0.740500  0.906700  0.807900  1.0
  H  H311  1  0.146300  0.899300  0.178000  1.0
  H  H312  1  0.853700  0.100700  0.822000  1.0
  H  H313  1  0.066300  0.918000  0.145300  1.0
  H  H314  1  0.933700  0.082000  0.854700  1.0
  H  H315  1  0.098800  0.952000  0.087500  1.0
  H  H316  1  0.901200  0.048000  0.912500  1.0
  H  H317  1  0.017700  0.083700  0.075500  1.0
  H  H318  1  0.982300  0.916300  0.924500  1.0
  H  H319  1  0.020800  0.080200  0.021200  1.0
  H  H320  1  0.979200  0.919800  0.978800  1.0
  H  H321  1  0.062900  0.012600  0.000000  1.0
  H  H322  1  0.937100  0.987400  0.000000  1.0
  H  H323  1  0.047300  0.054400  0.126500  1.0
  H  H324  1  0.952700  0.945600  0.873500  1.0
  H  H325  1  0.015700  0.005000  0.127500  1.0
  H  H326  1  0.984300  0.995000  0.872500  1.0
  H  H327  1  0.225900  0.639700  0.058100  1.0
  H  H328  1  0.774100  0.360300  0.941900  1.0
  H  H329  1  0.205100  0.601300  0.013700  1.0
  H  H330  1  0.794900  0.398700  0.986300  1.0
  H  H331  1  0.175100  0.649400  0.968900  1.0
  H  H332  1  0.824900  0.350600  0.031100  1.0
  H  H333  1  0.166000  0.735900  0.968400  1.0
  H  H334  1  0.834000  0.264100  0.031600  1.0
  H  H335  1  0.245800  0.693300  0.104000  1.0
  H  H336  1  0.754200  0.306700  0.896000  1.0
  H  H337  1  0.234800  0.770500  0.133000  1.0
  H  H338  1  0.765200  0.229500  0.867000  1.0
  H  H339  1  0.179000  0.858800  0.117600  1.0
  H  H340  1  0.821000  0.141200  0.882400  1.0
  H  H341  1  0.171600  0.874200  0.081000  1.0
  H  H342  1  0.828400  0.125800  0.919000  1.0
  H  H343  1  0.118900  0.173300  0.044500  1.0
  H  H344  1  0.881100  0.826700  0.955500  1.0
  H  H345  1  0.046900  0.220800  0.059500  1.0
  H  H346  1  0.953100  0.779200  0.940500  1.0
  H  H347  1  0.014700  0.209600  0.111000  1.0
  H  H348  1  0.985300  0.790400  0.889000  1.0
  H  H349  1  0.054600  0.150800  0.147500  1.0
  H  H350  1  0.945400  0.849200  0.852500  1.0
  H  H351  1  0.196100  0.116300  0.032700  1.0
  H  H352  1  0.803900  0.883700  0.967300  1.0
  H  H353  1  0.271300  0.056000  0.047000  1.0
  H  H354  1  0.728700  0.944000  0.953000  1.0
  H  H355  1  0.293300  0.836600  0.079400  1.0
  H  H356  1  0.706700  0.163400  0.920600  1.0
  H  H357  1  0.363000  0.888600  0.075000  1.0
  H  H358  1  0.637000  0.111400  0.925000  1.0
  H  H359  1  0.352900  0.970000  0.088900  1.0
  H  H360  1  0.647100  0.030000  0.911100  1.0
  H  H361  1  0.203300  0.947500  0.111700  1.0
  H  H362  1  0.796700  0.052500  0.888300  1.0
  H  H363  1  0.263200  0.015300  0.133800  1.0
  H  H364  1  0.736800  0.984700  0.866200  1.0
  H  H365  1  0.309500  0.030100  0.110100  1.0
  H  H366  1  0.690500  0.969900  0.889900  1.0
  H  H367  1  0.186300  0.251300  0.187700  1.0
  H  H368  1  0.813700  0.748700  0.812300  1.0
  H  H369  1  0.253400  0.276300  0.153400  1.0
  H  H370  1  0.746600  0.723700  0.846600  1.0
  H  H371  1  0.287300  0.222700  0.117800  1.0
  H  H372  1  0.712700  0.777300  0.882200  1.0
  H  H373  1  0.254000  0.144100  0.116400  1.0
  H  H374  1  0.746000  0.855900  0.883600  1.0
  H  H375  1  0.117000  0.212000  0.226100  1.0
  H  H376  1  0.883000  0.788000  0.773900  1.0
  H  H377  1  0.054800  0.146100  0.245700  1.0
  H  H378  1  0.945200  0.853900  0.754300  1.0
  H  H379  1  0.064600  0.044400  0.192600  1.0
  H  H380  1  0.935400  0.955600  0.807400  1.0
  H  H381  1  0.031200  0.058800  0.222400  1.0
  H  H382  1  0.968800  0.941200  0.777600  1.0
  H  H383  1  0.865800  0.861400  0.243000  1.0
  H  H384  1  0.134200  0.138600  0.757000  1.0
  H  H385  1  0.791600  0.861500  0.274800  1.0
  H  H386  1  0.208400  0.138500  0.725200  1.0
  H  H387  1  0.796900  0.875600  0.327600  1.0
  H  H388  1  0.203100  0.124400  0.672400  1.0
  H  H389  1  0.876500  0.889700  0.348600  1.0
  H  H390  1  0.123500  0.110300  0.651400  1.0
  H  H391  1  0.949400  0.865000  0.211600  1.0
  H  H392  1  0.050600  0.135000  0.788400  1.0
  H  H393  1  0.046800  0.862800  0.206900  1.0
  H  H394  1  0.953200  0.137200  0.793100  1.0
  H  H395  1  0.053900  0.962100  0.230100  1.0
  H  H396  1  0.946100  0.037900  0.769900  1.0
  H  H397  1  0.176800  0.923600  0.285100  1.0
  H  H398  1  0.823200  0.076400  0.714900  1.0
  H  H399  1  0.203600  0.005300  0.277400  1.0
  H  H400  1  0.796400  0.994700  0.722600  1.0
  H  H401  1  0.155600  0.065400  0.246000  1.0
  H  H402  1  0.844400  0.934600  0.754000  1.0
  H  H403  1  0.123200  0.862400  0.250500  1.0
  H  H404  1  0.876800  0.137600  0.749500  1.0
  H  H405  1  0.104700  0.870000  0.285600  1.0
  H  H406  1  0.895300  0.130000  0.714400  1.0
  H  H407  1  0.065500  0.062200  0.313800  1.0
  H  H408  1  0.934500  0.937800  0.686200  1.0
  H  H409  1  0.996100  0.106900  0.289000  1.0
  H  H410  1  0.003900  0.893100  0.711000  1.0
  H  H411  1  0.923300  0.065500  0.276700  1.0
  H  H412  1  0.076700  0.934500  0.723300  1.0
  H  H413  1  0.919900  0.979600  0.289200  1.0
  H  H414  1  0.080100  0.020400  0.710800  1.0
  H  H415  1  0.131900  0.006500  0.345000  1.0
  H  H416  1  0.868100  0.993500  0.655000  1.0
  H  H417  1  0.176900  0.924500  0.364700  1.0
  H  H418  1  0.823100  0.075500  0.635300  1.0
  H  H419  1  0.152300  0.827100  0.358200  1.0
  H  H420  1  0.847700  0.172900  0.641800  1.0
  H  H421  1  0.097600  0.820800  0.343300  1.0
  H  H422  1  0.902400  0.179200  0.656700  1.0
  H  H423  1  0.064500  0.650900  0.579700  1.0
  H  H424  1  0.935500  0.349100  0.420300  1.0
  H  H425  1  0.129700  0.635000  0.616500  1.0
  H  H426  1  0.870300  0.365000  0.383500  1.0
  H  H427  1  0.216000  0.635400  0.600100  1.0
  H  H428  1  0.784000  0.364600  0.399900  1.0
  H  H429  1  0.237100  0.651700  0.546900  1.0
  H  H430  1  0.762900  0.348300  0.453100  1.0
  H  H431  1  0.000300  0.668000  0.534300  1.0
  H  H432  1  0.999700  0.332000  0.465700  1.0
  H  H433  1  0.974300  0.684700  0.477400  1.0
  H  H434  1  0.025700  0.315300  0.522600  1.0
  H  H435  1  0.094700  0.750400  0.383200  1.0
  H  H436  1  0.905300  0.249600  0.616800  1.0
  H  H437  1  0.046400  0.780000  0.470200  1.0
  H  H438  1  0.953600  0.220000  0.529800  1.0
  H  H439  1  0.058100  0.864600  0.456700  1.0
  H  H440  1  0.941900  0.135400  0.543300  1.0
  H  H441  1  0.088200  0.892200  0.406400  1.0
  H  H442  1  0.911800  0.107800  0.593600  1.0
  H  H443  1  0.033100  0.693500  0.421200  1.0
  H  H444  1  0.966900  0.306500  0.578800  1.0
  H  H445  1  0.093800  0.684300  0.425800  1.0
  H  H446  1  0.906200  0.315700  0.574200  1.0
  H  H447  1  0.492400  0.222400  0.334800  1.0
  H  H448  1  0.507600  0.777600  0.665200  1.0
  H  H449  1  0.543600  0.283600  0.351100  1.0
  H  H450  1  0.456400  0.716400  0.648900  1.0
  H  H451  1  0.633200  0.271600  0.350900  1.0
  H  H452  1  0.366800  0.728400  0.649100  1.0
  H  H453  1  0.671600  0.198600  0.334500  1.0
  H  H454  1  0.328400  0.801400  0.665500  1.0
  H  H455  1  0.444400  0.146600  0.320000  1.0
  H  H456  1  0.555600  0.853400  0.680000  1.0
  H  H457  1  0.438100  0.059900  0.303100  1.0
  H  H458  1  0.561900  0.940100  0.696900  1.0
  H  H459  1  0.511200  0.985900  0.295300  1.0
  H  H460  1  0.488800  0.014100  0.704700  1.0
  H  H461  1  0.569800  0.000000  0.298300  1.0
  H  H462  1  0.430200  0.000000  0.701700  1.0
  H  H463  1  0.565600  0.916900  0.050900  1.0
  H  H464  1  0.434400  0.083100  0.949100  1.0
  H  H465  1  0.510500  0.870600  0.024000  1.0
  H  H466  1  0.489500  0.129400  0.976000  1.0
  H  H467  1  0.443900  0.828800  0.051200  1.0
  H  H468  1  0.556100  0.171200  0.948800  1.0
  H  H469  1  0.432400  0.833300  0.105100  1.0
  H  H470  1  0.567600  0.166700  0.894900  1.0
  H  H471  1  0.619500  0.965900  0.084500  1.0
  H  H472  1  0.380500  0.034100  0.915500  1.0
  H  H473  1  0.652900  0.988300  0.136300  1.0
  H  H474  1  0.347100  0.011700  0.863700  1.0
  H  H475  1  0.579100  0.952500  0.249100  1.0
  H  H476  1  0.420900  0.047500  0.750900  1.0
  H  H477  1  0.505700  0.088300  0.245400  1.0
  H  H478  1  0.494300  0.911700  0.754600  1.0
  H  H479  1  0.513400  0.095900  0.190700  1.0
  H  H480  1  0.486600  0.904100  0.809300  1.0
  H  H481  1  0.554000  0.031800  0.165200  1.0
  H  H482  1  0.446000  0.968200  0.834800  1.0
  H  H483  1  0.586600  0.914500  0.203000  1.0
  H  H484  1  0.413400  0.085500  0.797000  1.0
  H  H485  1  0.635300  0.948300  0.197300  1.0
  H  H486  1  0.364700  0.051700  0.802700  1.0
  H  H487  1  0.666667  0.084600  0.193700  1.0
  H  H488  1  0.333333  0.915400  0.806300  1.0
  H  H489  1  0.626900  0.160100  0.173500  1.0
  H  H490  1  0.373100  0.839900  0.826500  1.0
  H  H491  1  0.588100  0.213700  0.207600  1.0
  H  H492  1  0.411900  0.786300  0.792400  1.0
  H  H493  1  0.589100  0.191900  0.261800  1.0
  H  H494  1  0.410900  0.808100  0.738200  1.0
  H  H495  1  0.706100  0.002500  0.221400  1.0
  H  H496  1  0.293900  0.997500  0.778600  1.0
  H  H497  1  0.716600  0.935900  0.267100  1.0
  H  H498  1  0.283400  0.064100  0.732900  1.0
  H  H499  1  0.664000  0.930100  0.326600  1.0
  H  H500  1  0.336000  0.069900  0.673400  1.0
  H  H501  1  0.647700  0.983100  0.338300  1.0
  H  H502  1  0.352300  0.016900  0.661700  1.0
  H  H503  1  0.611800  0.950200  0.522300  1.0
  H  H504  1  0.388200  0.049800  0.477700  1.0
  H  H505  1  0.549600  0.904600  0.551200  1.0
  H  H506  1  0.450400  0.095400  0.448800  1.0
  H  H507  1  0.537000  0.822500  0.541600  1.0
  H  H508  1  0.463000  0.177500  0.458400  1.0
  H  H509  1  0.586600  0.785800  0.503200  1.0
  H  H510  1  0.413400  0.214200  0.496800  1.0
  H  H511  1  0.678100  0.993800  0.487000  1.0
  H  H512  1  0.321900  0.006200  0.513000  1.0
  H  H513  1  0.753400  0.996600  0.448400  1.0
  H  H514  1  0.246600  0.003400  0.551600  1.0
  H  H515  1  0.699300  0.918800  0.380900  1.0
  H  H516  1  0.300700  0.081200  0.619100  1.0
  H  H517  1  0.844100  0.963900  0.389700  1.0
  H  H518  1  0.155900  0.036100  0.610300  1.0
  H  H519  1  0.838400  0.009900  0.340600  1.0
  H  H520  1  0.161600  0.990100  0.659400  1.0
  H  H521  1  0.763200  0.010300  0.311700  1.0
  H  H522  1  0.236800  0.989700  0.688300  1.0
  H  H523  1  0.773000  0.872300  0.418000  1.0
  H  H524  1  0.227000  0.127700  0.582000  1.0
  H  H525  1  0.810500  0.911800  0.429300  1.0
  H  H526  1  0.189500  0.088200  0.570700  1.0
  H  H527  1  0.737800  0.707900  0.555900  1.0
  H  H528  1  0.262200  0.292100  0.444100  1.0
  H  H529  1  0.798900  0.759200  0.573300  1.0
  H  H530  1  0.201100  0.240800  0.426700  1.0
  H  H531  1  0.817200  0.833800  0.543700  1.0
  H  H532  1  0.182800  0.166200  0.456300  1.0
  H  H533  1  0.774500  0.857200  0.496800  1.0
  H  H534  1  0.225500  0.142800  0.503200  1.0
  H  H535  1  0.671700  0.656100  0.531200  1.0
  H  H536  1  0.328300  0.343900  0.468800  1.0
  H  H537  1  0.605200  0.640700  0.491300  1.0
  H  H538  1  0.394800  0.359300  0.508700  1.0
  H  H539  1  0.587800  0.755000  0.434200  1.0
  H  H540  1  0.412200  0.245000  0.565800  1.0
  H  H541  1  0.561900  0.702500  0.441900  1.0
  H  H542  1  0.438100  0.297500  0.558100  1.0
  H  H543  1  0.368500  0.760500  0.322500  1.0
  H  H544  1  0.631500  0.239500  0.677500  1.0
  H  H545  1  0.292200  0.717700  0.324800  1.0
  H  H546  1  0.707800  0.282300  0.675200  1.0
  H  H547  1  0.295400  0.630700  0.330900  1.0
  H  H548  1  0.704600  0.369300  0.669100  1.0
  H  H549  1  0.374800  0.586600  0.334700  1.0
  H  H550  1  0.625200  0.413400  0.665300  1.0
  H  H551  1  0.456300  0.798500  0.324800  1.0
  H  H552  1  0.543700  0.201500  0.675200  1.0
  H  H553  1  0.553800  0.795500  0.321700  1.0
  H  H554  1  0.446200  0.204500  0.678300  1.0
  H  H555  1  0.568700  0.722300  0.381000  1.0
  H  H556  1  0.431300  0.277700  0.619000  1.0
  H  H557  1  0.688100  0.649100  0.340800  1.0
  H  H558  1  0.311900  0.350900  0.659200  1.0
  H  H559  1  0.729400  0.637500  0.389100  1.0
  H  H560  1  0.270600  0.362500  0.610900  1.0
  H  H561  1  0.690300  0.668300  0.433400  1.0
  H  H562  1  0.309700  0.331700  0.566600  1.0
  H  H563  1  0.622800  0.718000  0.310100  1.0
  H  H564  1  0.377200  0.282000  0.689900  1.0
  H  H565  1  0.600500  0.663700  0.314500  1.0
  H  H566  1  0.399500  0.336300  0.685500  1.0
  H  H567  1  0.568600  0.579500  0.442600  1.0
  H  H568  1  0.431400  0.420500  0.557400  1.0
  H  H569  1  0.506800  0.623400  0.470700  1.0
  H  H570  1  0.493200  0.376600  0.529300  1.0
  H  H571  1  0.437600  0.666100  0.444600  1.0
  H  H572  1  0.562400  0.333900  0.555400  1.0
  H  H573  1  0.430200  0.664900  0.390400  1.0
  H  H574  1  0.569800  0.335100  0.609600  1.0
  H  H575  1  0.628100  0.530900  0.407600  1.0
  H  H576  1  0.371900  0.469100  0.592400  1.0
  H  H577  1  0.668700  0.511700  0.355600  1.0
  H  H578  1  0.331300  0.488300  0.644400  1.0
  H  H579  1  0.650500  0.557400  0.296600  1.0
  H  H580  1  0.349500  0.442600  0.703400  1.0
  H  H581  1  0.598500  0.591000  0.292800  1.0
  H  H582  1  0.401500  0.409000  0.707200  1.0
  H  H583  1  0.542100  0.295800  0.144400  1.0
  H  H584  1  0.457900  0.704200  0.855600  1.0
  H  H585  1  0.599100  0.232400  0.129800  1.0
  H  H586  1  0.400900  0.767600  0.870200  1.0
  H  H587  1  0.687400  0.236800  0.137600  1.0
  H  H588  1  0.312600  0.763200  0.862400  1.0
  H  H589  1  0.718700  0.304400  0.160200  1.0
  H  H590  1  0.281300  0.695600  0.839800  1.0
  H  H591  1  0.486900  0.373600  0.157800  1.0
  H  H592  1  0.513100  0.626400  0.842200  1.0
  H  H593  1  0.474300  0.457900  0.178600  1.0
  H  H594  1  0.525700  0.542100  0.821400  1.0
  H  H595  1  0.597400  0.551100  0.241800  1.0
  H  H596  1  0.402600  0.448900  0.758200  1.0
  H  H597  1  0.537300  0.415200  0.244500  1.0
  H  H598  1  0.462700  0.584800  0.755500  1.0
  H  H599  1  0.541000  0.407100  0.299300  1.0
  H  H600  1  0.459000  0.592900  0.700700  1.0
  H  H601  1  0.572900  0.470900  0.325300  1.0
  H  H602  1  0.427100  0.529100  0.674700  1.0
  H  H603  1  0.537500  0.520200  0.199100  1.0
  H  H604  1  0.462500  0.479800  0.800900  1.0
  H  H605  1  0.597700  0.507000  0.196300  1.0
  H  H606  1  0.402300  0.493000  0.803700  1.0
  H  H607  1  0.843200  0.399400  0.130700  1.0
  H  H608  1  0.156800  0.600600  0.869300  1.0
  H  H609  1  0.892000  0.361600  0.172400  1.0
  H  H610  1  0.108000  0.638400  0.827600  1.0
  H  H611  1  0.852000  0.337700  0.220600  1.0
  H  H612  1  0.148000  0.662300  0.779400  1.0
  H  H613  1  0.763200  0.351600  0.227100  1.0
  H  H614  1  0.236800  0.648400  0.772900  1.0
  H  H615  1  0.781300  0.431000  0.085000  1.0
  H  H616  1  0.218700  0.569000  0.915000  1.0
  H  H617  1  0.695900  0.467500  0.064200  1.0
  H  H618  1  0.304100  0.532500  0.935800  1.0
  H  H619  1  0.599900  0.475600  0.128700  1.0
  H  H620  1  0.400100  0.524400  0.871300  1.0
  H  H621  1  0.594700  0.430100  0.107800  1.0
  H  H622  1  0.405300  0.569900  0.892200  1.0
  H  H623  1  0.747900  0.708300  0.145700  1.0
  H  H624  1  0.252100  0.291700  0.854300  1.0
  H  H625  1  0.827300  0.744800  0.136800  1.0
  H  H626  1  0.172700  0.255200  0.863200  1.0
  H  H627  1  0.860100  0.759500  0.085700  1.0
  H  H628  1  0.139900  0.240500  0.914300  1.0
  H  H629  1  0.813400  0.737700  0.043400  1.0
  H  H630  1  0.186600  0.262300  0.956600  1.0
  H  H631  1  0.658000  0.677000  0.148800  1.0
  H  H632  1  0.342000  0.323000  0.851200  1.0
  H  H633  1  0.577600  0.644600  0.127000  1.0
  H  H634  1  0.422400  0.355400  0.873000  1.0
  H  H635  1  0.610100  0.561100  0.102000  1.0
  H  H636  1  0.389900  0.438900  0.898000  1.0
  H  H637  1  0.554800  0.588100  0.014100  1.0
  H  H638  1  0.445200  0.411900  0.985900  1.0
  H  H639  1  0.555700  0.502600  0.009600  1.0
  H  H640  1  0.444300  0.497400  0.990400  1.0
  H  H641  1  0.583800  0.446300  0.051400  1.0
  H  H642  1  0.416200  0.553700  0.948600  1.0
  H  H643  1  0.587800  0.654000  0.039300  1.0
  H  H644  1  0.412200  0.346000  0.960700  1.0
  H  H645  1  0.544500  0.647800  0.066300  1.0
  H  H646  1  0.455500  0.352200  0.933700  1.0
  H  H647  1  0.798700  0.111700  0.365000  1.0
  H  H648  1  0.201300  0.888300  0.635000  1.0
  H  H649  1  0.845900  0.151100  0.323400  1.0
  H  H650  1  0.154100  0.848900  0.676600  1.0
  H  H651  1  0.808300  0.169600  0.274300  1.0
  H  H652  1  0.191700  0.830400  0.725700  1.0
  H  H653  1  0.723500  0.148800  0.266800  1.0
  H  H654  1  0.276500  0.851200  0.733200  1.0
  H  H655  1  0.737200  0.070200  0.407400  1.0
  H  H656  1  0.262800  0.929800  0.592600  1.0
  H  H657  1  0.652800  0.034700  0.427300  1.0
  H  H658  1  0.347200  0.965300  0.572700  1.0
  H  H659  1  0.565000  0.029600  0.361600  1.0
  H  H660  1  0.435000  0.970400  0.638400  1.0
  H  H661  1  0.552700  0.072700  0.383900  1.0
  H  H662  1  0.447300  0.927300  0.616100  1.0
  H  H663  1  0.741900  0.787800  0.349500  1.0
  H  H664  1  0.258100  0.212200  0.650500  1.0
  H  H665  1  0.821500  0.747700  0.361700  1.0
  H  H666  1  0.178500  0.252300  0.638300  1.0
  H  H667  1  0.846400  0.732700  0.414100  1.0
  H  H668  1  0.153600  0.267300  0.585900  1.0
  H  H669  1  0.791700  0.757800  0.454100  1.0
  H  H670  1  0.208300  0.242200  0.545900  1.0
  H  H671  1  0.654600  0.822800  0.342300  1.0
  H  H672  1  0.345400  0.177200  0.657700  1.0
  H  H673  1  0.567200  0.858200  0.358600  1.0
  H  H674  1  0.432800  0.141800  0.641400  1.0
  H  H675  1  0.579900  0.944200  0.384400  1.0
  H  H676  1  0.420100  0.055800  0.615600  1.0
  H  H677  1  0.521900  0.912000  0.472100  1.0
  H  H678  1  0.478100  0.088000  0.527900  1.0
  H  H679  1  0.510400  0.997000  0.477700  1.0
  H  H680  1  0.489600  0.003000  0.522300  1.0
  H  H681  1  0.533700  0.055600  0.436600  1.0
  H  H682  1  0.466300  0.944400  0.563400  1.0
  H  H683  1  0.560100  0.847100  0.446600  1.0
  H  H684  1  0.439900  0.152900  0.553400  1.0
  H  H685  1  0.521500  0.854500  0.417800  1.0
  H  H686  1  0.478500  0.145500  0.582200  1.0
  H  H687  1  0.399200  0.040800  0.194700  1.0
  H  H688  1  0.600800  0.959200  0.805300  1.0
  H  H689  1  0.386200  0.086000  0.145900  1.0
  H  H690  1  0.613800  0.914000  0.854100  1.0
  H  H691  1  0.415000  0.052500  0.100000  1.0
  H  H692  1  0.585000  0.947500  0.900000  1.0
  H  H693  1  0.456800  0.973800  0.103000  1.0
  H  H694  1  0.543200  0.026200  0.897000  1.0
  H  H695  1  0.413800  0.984500  0.245700  1.0
  H  H696  1  0.586200  0.015500  0.754300  1.0
  H  H697  1  0.454700  0.909900  0.278000  1.0
  H  H698  1  0.545300  0.090100  0.722000  1.0
  H  H699  1  0.529100  0.843600  0.263200  1.0
  H  H700  1  0.470900  0.156400  0.736800  1.0
  H  H701  1  0.540900  0.839200  0.226800  1.0
  H  H702  1  0.459100  0.160800  0.773200  1.0
  H  H703  1  0.423300  0.459600  0.297700  1.0
  H  H704  1  0.576700  0.540400  0.702300  1.0
  H  H705  1  0.411800  0.413700  0.346300  1.0
  H  H706  1  0.588200  0.586300  0.653700  1.0
  H  H707  1  0.432900  0.447100  0.392400  1.0
  H  H708  1  0.567100  0.552900  0.607600  1.0
  H  H709  1  0.465500  0.526500  0.389900  1.0
  H  H710  1  0.534500  0.473500  0.610100  1.0
  H  H711  1  0.435800  0.518200  0.246900  1.0
  H  H712  1  0.564200  0.481800  0.753100  1.0
  H  H713  1  0.472800  0.593200  0.215600  1.0
  H  H714  1  0.527200  0.406800  0.784400  1.0
  H  H715  1  0.549700  0.750900  0.247200  1.0
  H  H716  1  0.450300  0.249100  0.752800  1.0
  H  H717  1  0.418700  0.675100  0.251800  1.0
  H  H718  1  0.581300  0.324900  0.748200  1.0
  H  H719  1  0.370000  0.750200  0.247200  1.0
  H  H720  1  0.630000  0.249800  0.752800  1.0
  H  H721  1  0.411100  0.825700  0.242600  1.0
  H  H722  1  0.588900  0.174300  0.757400  1.0
  H  H723  1  0.541000  0.656500  0.231100  1.0
  H  H724  1  0.459000  0.343500  0.768900  1.0
  H  H725  1  0.549800  0.660500  0.267600  1.0
  H  H726  1  0.450200  0.339500  0.732400  1.0
  H  H727  1  0.661500  0.553400  0.967500  1.0
  H  H728  1  0.338500  0.446600  0.032500  1.0
  H  H729  1  0.606500  0.601900  0.933200  1.0
  H  H730  1  0.393500  0.398100  0.066800  1.0
  H  H731  1  0.587900  0.685400  0.940500  1.0
  H  H732  1  0.412100  0.314600  0.059500  1.0
  H  H733  1  0.624500  0.720500  0.982100  1.0
  H  H734  1  0.375500  0.279500  0.017900  1.0
  H  H735  1  0.724200  0.509900  0.001600  1.0
  H  H736  1  0.275800  0.490100  0.998400  1.0
  H  H737  1  0.793200  0.501900  0.042900  1.0
  H  H738  1  0.206800  0.498100  0.957100  1.0
  H  H739  1  0.797700  0.629200  0.073900  1.0
  H  H740  1  0.202300  0.370800  0.926100  1.0
  H  H741  1  0.841800  0.590200  0.064100  1.0
  H  H742  1  0.158200  0.409800  0.935900  1.0
  H  H743  1  0.694700  0.417300  0.297800  1.0
  H  H744  1  0.305300  0.582700  0.702200  1.0
  H  H745  1  0.663800  0.340300  0.317300  1.0
  H  H746  1  0.336200  0.659700  0.682700  1.0
  H  H747  1  0.633600  0.286800  0.282800  1.0
  H  H748  1  0.366400  0.713200  0.717200  1.0
  H  H749  1  0.634300  0.310400  0.228800  1.0
  H  H750  1  0.365700  0.689600  0.771200  1.0
  H  H751  1  0.722700  0.501200  0.272700  1.0
  H  H752  1  0.277300  0.498800  0.727300  1.0
  H  H753  1  0.728700  0.568700  0.227500  1.0
  H  H754  1  0.271300  0.431300  0.772500  1.0
  H  H755  1  0.724900  0.582300  0.112800  1.0
  H  H756  1  0.275100  0.417700  0.887200  1.0
  H  H757  1  0.790900  0.495200  0.184600  1.0
  H  H758  1  0.209100  0.504800  0.815400  1.0
  H  H759  1  0.868700  0.493300  0.156400  1.0
  H  H760  1  0.131300  0.506700  0.843600  1.0
  H  H761  1  0.874700  0.535900  0.106300  1.0
  H  H762  1  0.125300  0.464100  0.893700  1.0
  H  H763  1  0.687900  0.574200  0.168800  1.0
  H  H764  1  0.312100  0.425800  0.831200  1.0
  H  H765  1  0.675800  0.522500  0.156100  1.0
  H  H766  1  0.324200  0.477500  0.843900  1.0
  H  H767  1  0.378500  0.739100  0.173600  1.0
  H  H768  1  0.621500  0.260900  0.826400  1.0
  H  H769  1  0.297400  0.780200  0.173500  1.0
  H  H770  1  0.702600  0.219800  0.826500  1.0
  H  H771  1  0.290500  0.867100  0.167500  1.0
  H  H772  1  0.709500  0.132900  0.832500  1.0
  H  H773  1  0.364700  0.912900  0.161400  1.0
  H  H774  1  0.635300  0.087100  0.838600  1.0
  H  H775  1  0.469600  0.701100  0.170100  1.0
  H  H776  1  0.530400  0.298900  0.829900  1.0
  H  H777  1  0.566700  0.704300  0.172900  1.0
  H  H778  1  0.433300  0.295700  0.827100  1.0
  H  H779  1  0.626300  0.782600  0.183900  1.0
  H  H780  1  0.373700  0.217400  0.816100  1.0
  H  H781  1  0.598300  0.836600  0.179200  1.0
  H  H782  1  0.401700  0.163400  0.820800  1.0
  H  H783  1  0.766600  0.795200  0.940600  1.0
  H  H784  1  0.233400  0.204800  0.059400  1.0
  H  H785  1  0.831200  0.741800  0.922400  1.0
  H  H786  1  0.168800  0.258200  0.077600  1.0
  H  H787  1  0.850700  0.665000  0.950600  1.0
  H  H788  1  0.149300  0.335000  0.049400  1.0
  H  H789  1  0.805700  0.641700  0.997200  1.0
  H  H790  1  0.194300  0.358300  0.002800  1.0
  H  H791  1  0.697400  0.848900  0.966100  1.0
  H  H792  1  0.302600  0.151100  0.033900  1.0
  H  H793  1  0.624900  0.864700  0.004900  1.0
  H  H794  1  0.375100  0.135300  0.995100  1.0
  H  H795  1  0.578000  0.778200  0.112500  1.0
  H  H796  1  0.422000  0.221800  0.887500  1.0
  H  H797  1  0.699400  0.834700  0.062500  1.0
  H  H798  1  0.300600  0.165300  0.937500  1.0
  H  H799  1  0.730500  0.863800  0.107800  1.0
  H  H800  1  0.269500  0.136200  0.892200  1.0
  H  H801  1  0.685400  0.850100  0.155400  1.0
  H  H802  1  0.314600  0.149900  0.844600  1.0
  H  H803  1  0.610600  0.750100  0.058600  1.0
  H  H804  1  0.389400  0.249900  0.941400  1.0
  H  H805  1  0.581600  0.802700  0.050300  1.0
  H  H806  1  0.418400  0.197300  0.949700  1.0
  H  H807  1  0.095300  0.049800  0.832900  1.0
  H  H808  1  0.904700  0.950200  0.167100  1.0
  H  H809  1  0.125400  0.004600  0.818000  1.0
  H  H810  1  0.874600  0.995400  0.182000  1.0
  H  H811  1  0.086600  0.993900  0.847100  1.0
  H  H812  1  0.913400  0.006100  0.152900  1.0
  H  H813  1  0.535100  0.454800  0.495500  1.0
  H  H814  1  0.464900  0.545200  0.504500  1.0
  H  H815  1  0.520100  0.497700  0.468400  1.0
  H  H816  1  0.479900  0.502300  0.531600  1.0
  H  H817  1  0.579000  0.479500  0.473300  1.0
  H  H818  1  0.421000  0.520500  0.526700  1.0
  H  H819  1  0.888300  0.510900  0.318100  1.0
  H  H820  1  0.111700  0.489100  0.681900  1.0
  H  H821  1  0.925500  0.534200  0.341400  1.0
  H  H822  1  0.074500  0.465800  0.658600  1.0
  H  H823  1  0.923200  0.475200  0.341800  1.0
  H  H824  1  0.076800  0.524800  0.658200  1.0
  H  H825  1  0.739500  0.544700  0.423100  1.0
  H  H826  1  0.260500  0.455300  0.576900  1.0
  H  H827  1  0.759000  0.533800  0.458400  1.0
  H  H828  1  0.241000  0.466200  0.541600  1.0
  H  H829  1  0.702100  0.557000  0.451700  1.0
  H  H830  1  0.297900  0.443000  0.548300  1.0
  H  H831  1  0.398300  0.668800  0.105300  1.0
  H  H832  1  0.601700  0.331200  0.894700  1.0
  H  H833  1  0.432600  0.715100  0.109500  1.0
  H  H834  1  0.567400  0.284900  0.890500  1.0
  H  H835  1  0.436200  0.689100  0.077600  1.0
  H  H836  1  0.563800  0.310900  0.922400  1.0
  H  H837  1  0.575700  0.865800  0.943800  1.0
  H  H838  1  0.424300  0.134200  0.056200  1.0
  H  H839  1  0.558800  0.809400  0.945900  1.0
  H  H840  1  0.441200  0.190600  0.054100  1.0
  H  H841  1  0.548200  0.845900  0.914800  1.0
  H  H842  1  0.451800  0.154100  0.085200  1.0
  H  H843  1  0.413800  0.792300  0.389700  1.0
  H  H844  1  0.586200  0.207700  0.610300  1.0
  H  H845  1  0.406500  0.821500  0.420200  1.0
  H  H846  1  0.593500  0.178500  0.579800  1.0
  H  H847  1  0.366200  0.831200  0.392400  1.0
  H  H848  1  0.633800  0.168800  0.607600  1.0
  H  H849  1  0.531800  0.044000  0.003900  1.0
  H  H850  1  0.468200  0.956000  0.996100  1.0
  H  H851  1  0.521400  0.002500  0.032300  1.0
  H  H852  1  0.478600  0.997500  0.967700  1.0
  H  H853  1  0.577500  0.023900  0.026900  1.0
  H  H854  1  0.422500  0.976100  0.973100  1.0
  H  H855  1  0.107500  0.484800  0.601800  1.0
  H  H856  1  0.892500  0.515200  0.398200  1.0
  H  H857  1  0.120800  0.542100  0.600200  1.0
  H  H858  1  0.879200  0.457900  0.399800  1.0
  H  H859  1  0.165200  0.500900  0.594700  1.0
  H  H860  1  0.834800  0.499100  0.405300  1.0
  H  H861  1  0.132400  0.019200  0.897900  1.0
  H  H862  1  0.867600  0.980800  0.102100  1.0
  H  H863  1  0.107100  0.966800  0.895800  1.0
  H  H864  1  0.892900  0.033200  0.104200  1.0
  H  H865  1  0.167400  0.968800  0.901800  1.0
  H  H866  1  0.832600  0.031200  0.098200  1.0
  H  H867  1  0.231000  0.678400  0.262800  0.5
  H  H868  1  0.769000  0.321600  0.737200  0.5
  H  H869  1  0.226500  0.633500  0.241400  0.5
  H  H870  1  0.773500  0.366500  0.758600  0.5
  H  H871  1  0.223200  0.689700  0.225800  0.5
  H  H872  1  0.776800  0.310300  0.774200  0.5
  H  H873  1  0.346500  0.585600  0.150300  0.5
  H  H874  1  0.653500  0.414400  0.849700  0.5
  H  H875  1  0.327200  0.577500  0.186100  0.5
  H  H876  1  0.672800  0.422500  0.813900  0.5
  H  H877  1  0.370400  0.616500  0.176000  0.5
  H  H878  1  0.629600  0.383500  0.824000  0.5
  C  C879  1  0.206400  0.308900  0.332600  1.0
  C  C880  1  0.793600  0.691100  0.667400  1.0
  C  C881  1  0.228900  0.261300  0.332900  1.0
  C  C882  1  0.771100  0.738700  0.667100  1.0
  C  C883  1  0.269600  0.246700  0.352700  1.0
  C  C884  1  0.730400  0.753300  0.647300  1.0
  C  C885  1  0.287900  0.279800  0.372200  1.0
  C  C886  1  0.712100  0.720200  0.627800  1.0
  C  C887  1  0.265400  0.327500  0.371900  1.0
  C  C888  1  0.734600  0.672500  0.628100  1.0
  C  C889  1  0.167500  0.327700  0.311900  1.0
  C  C890  1  0.832500  0.672300  0.688100  1.0
  C  C891  1  0.141000  0.309100  0.287300  1.0
  C  C892  1  0.859000  0.690900  0.712700  1.0
  C  C893  1  0.105900  0.347200  0.274600  1.0
  C  C894  1  0.894100  0.652800  0.725400  1.0
  C  C895  1  0.088000  0.437100  0.285200  1.0
  C  C896  1  0.912000  0.562900  0.714800  1.0
  C  C897  1  0.929200  0.620600  0.222200  1.0
  C  C898  1  0.070800  0.379400  0.777800  1.0
  C  C899  1  0.880500  0.628900  0.235230  1.0
  C  C900  1  0.119500  0.371100  0.764770  1.0
  C  C901  1  0.837400  0.630600  0.216600  1.0
  C  C902  1  0.162600  0.369400  0.783400  1.0
  C  C903  1  0.842900  0.624100  0.184900  1.0
  C  C904  1  0.157100  0.375900  0.815100  1.0
  C  C905  1  0.891500  0.615900  0.171870  1.0
  C  C906  1  0.108500  0.384100  0.828130  1.0
  C  C907  1  0.972400  0.620600  0.239800  1.0
  C  C908  1  0.027600  0.379400  0.760200  1.0
  C  C909  1  0.983900  0.626800  0.271400  1.0
  C  C910  1  0.016100  0.373200  0.728600  1.0
  C  C911  1  0.038200  0.625900  0.274060  1.0
  C  C912  1  0.961800  0.374100  0.725940  1.0
  C  C913  1  0.119400  0.472300  0.265500  1.0
  C  C914  1  0.880600  0.527700  0.734500  1.0
  C  C915  1  0.101500  0.521500  0.260500  1.0
  C  C916  1  0.898500  0.478500  0.739500  1.0
  C  C917  1  0.129300  0.555500  0.241400  1.0
  C  C918  1  0.870700  0.444500  0.758600  1.0
  C  C919  1  0.175100  0.540300  0.227200  1.0
  C  C920  1  0.824900  0.459700  0.772800  1.0
  C  C921  1  0.193100  0.491000  0.232200  1.0
  C  C922  1  0.806900  0.509000  0.767800  1.0
  C  C923  1  0.165200  0.457000  0.251300  1.0
  C  C924  1  0.834800  0.543000  0.748700  1.0
  C  C925  1  0.112500  0.610700  0.236600  1.0
  C  C926  1  0.887500  0.389300  0.763400  1.0
  C  C927  1  0.153200  0.365500  0.415500  1.0
  C  C928  1  0.846800  0.634500  0.584500  1.0
  C  C929  1  0.131500  0.332300  0.438300  1.0
  C  C930  1  0.868500  0.667700  0.561700  1.0
  C  C931  1  0.090400  0.304900  0.431000  1.0
  C  C932  1  0.909600  0.695100  0.569000  1.0
  C  C933  1  0.070900  0.310700  0.400800  1.0
  C  C934  1  0.929100  0.689300  0.599200  1.0
  C  C935  1  0.092600  0.343900  0.378000  1.0
  C  C936  1  0.907400  0.656100  0.622000  1.0
  C  C937  1  0.192500  0.393300  0.420700  1.0
  C  C938  1  0.807500  0.606700  0.579300  1.0
  C  C939  1  0.223800  0.396100  0.447100  1.0
  C  C940  1  0.776200  0.603900  0.552900  1.0
  C  C941  1  0.264400  0.428000  0.437800  1.0
  C  C942  1  0.735600  0.572000  0.562200  1.0
  C  C943  1  0.287700  0.476400  0.386500  1.0
  C  C944  1  0.712300  0.523600  0.613500  1.0
  C  C945  1  0.194100  0.781500  0.459600  1.0
  C  C946  1  0.805900  0.218500  0.540400  1.0
  C  C947  1  0.200000  0.832300  0.459800  1.0
  C  C948  1  0.800000  0.167700  0.540200  1.0
  C  C949  1  0.189000  0.855100  0.487000  1.0
  C  C950  1  0.811000  0.144900  0.513000  1.0
  C  C951  1  0.172100  0.827200  0.513900  1.0
  C  C952  1  0.827900  0.172800  0.486100  1.0
  C  C953  1  0.166200  0.776500  0.513600  1.0
  C  C954  1  0.833800  0.223500  0.486400  1.0
  C  C955  1  0.201000  0.756900  0.434400  1.0
  C  C956  1  0.799000  0.243100  0.565600  1.0
  C  C957  1  0.217300  0.770000  0.403000  1.0
  C  C958  1  0.782700  0.230000  0.597000  1.0
  C  C959  1  0.215200  0.727200  0.386400  1.0
  C  C960  1  0.784800  0.272800  0.613600  1.0
  C  C961  1  0.287300  0.529600  0.396200  1.0
  C  C962  1  0.712700  0.470400  0.603800  1.0
  C  C963  1  0.242100  0.559100  0.395000  1.0
  C  C964  1  0.757900  0.440900  0.605000  1.0
  C  C965  1  0.242200  0.607500  0.403200  1.0
  C  C966  1  0.757800  0.392500  0.596800  1.0
  C  C967  1  0.287400  0.626300  0.412800  1.0
  C  C968  1  0.712600  0.373700  0.587200  1.0
  C  C969  1  0.332600  0.596800  0.414100  1.0
  C  C970  1  0.667400  0.403200  0.585900  1.0
  C  C971  1  0.332500  0.548400  0.405800  1.0
  C  C972  1  0.667500  0.451600  0.594200  1.0
  C  C973  1  0.191200  0.637500  0.401900  1.0
  C  C974  1  0.808800  0.362500  0.598100  1.0
  C  C975  1  0.215800  0.503400  0.316900  1.0
  C  C976  1  0.784200  0.496600  0.683100  1.0
  C  C977  1  0.247200  0.535000  0.298400  1.0
  C  C978  1  0.752800  0.465000  0.701600  1.0
  C  C979  1  0.291300  0.516100  0.284100  1.0
  C  C980  1  0.708700  0.483900  0.715900  1.0
  C  C981  1  0.304000  0.465500  0.288300  1.0
  C  C982  1  0.696000  0.534500  0.711700  1.0
  C  C983  1  0.272700  0.433800  0.306800  1.0
  C  C984  1  0.727300  0.566200  0.693200  1.0
  C  C985  1  0.172500  0.518600  0.329600  1.0
  C  C986  1  0.827500  0.481400  0.670400  1.0
  C  C987  1  0.144000  0.564600  0.330100  1.0
  C  C988  1  0.856000  0.435400  0.669900  1.0
  C  C989  1  0.098100  0.555800  0.347900  1.0
  C  C990  1  0.901900  0.444200  0.652100  1.0
  C  C991  1  0.059800  0.477600  0.377900  1.0
  C  C992  1  0.940200  0.522400  0.622100  1.0
  C  C993  1  0.274600  0.620200  0.486600  1.0
  C  C994  1  0.725400  0.379800  0.513400  1.0
  C  C995  1  0.326700  0.608500  0.490900  1.0
  C  C996  1  0.673300  0.391500  0.509100  1.0
  C  C997  1  0.359800  0.645500  0.496300  1.0
  C  C998  1  0.640200  0.354500  0.503700  1.0
  C  C999  1  0.340900  0.694200  0.497300  1.0
  C  C1000  1  0.659100  0.305800  0.502700  1.0
  C  C1001  1  0.288800  0.705900  0.493000  1.0
  C  C1002  1  0.711200  0.294100  0.507000  1.0
  C  C1003  1  0.241800  0.584400  0.482000  1.0
  C  C1004  1  0.758200  0.415600  0.518000  1.0
  C  C1005  1  0.244100  0.532800  0.478000  1.0
  C  C1006  1  0.755900  0.467200  0.522000  1.0
  C  C1007  1  0.193600  0.518800  0.472100  1.0
  C  C1008  1  0.806400  0.481200  0.527900  1.0
  C  C1009  1  0.065700  0.479600  0.412050  1.0
  C  C1010  1  0.934300  0.520400  0.587950  1.0
  C  C1011  1  0.087000  0.518800  0.425000  1.0
  C  C1012  1  0.913000  0.481200  0.575000  1.0
  C  C1013  1  0.085300  0.520900  0.457300  1.0
  C  C1014  1  0.914700  0.479100  0.542700  1.0
  C  C1015  1  0.062100  0.483800  0.476600  1.0
  C  C1016  1  0.937900  0.516200  0.523400  1.0
  C  C1017  1  0.040800  0.444500  0.463600  1.0
  C  C1018  1  0.959200  0.555500  0.536400  1.0
  C  C1019  1  0.042500  0.442400  0.431400  1.0
  C  C1020  1  0.957500  0.557600  0.568600  1.0
  C  C1021  1  0.106600  0.565800  0.469200  1.0
  C  C1022  1  0.893400  0.434200  0.530800  1.0
  C  C1023  1  0.062600  0.502400  0.179300  1.0
  C  C1024  1  0.937400  0.497600  0.820700  1.0
  C  C1025  1  0.069200  0.451200  0.186100  1.0
  C  C1026  1  0.930800  0.548800  0.813900  1.0
  C  C1027  1  0.029800  0.424300  0.200800  1.0
  C  C1028  1  0.970200  0.575700  0.799200  1.0
  C  C1029  1  0.983800  0.448500  0.208700  1.0
  C  C1030  1  0.016200  0.551500  0.791300  1.0
  C  C1031  1  0.977200  0.499700  0.201900  1.0
  C  C1032  1  0.022800  0.500300  0.798100  1.0
  C  C1033  1  0.097100  0.532000  0.167000  1.0
  C  C1034  1  0.902900  0.468000  0.833000  1.0
  C  C1035  1  0.147500  0.521900  0.155300  1.0
  C  C1036  1  0.852500  0.478100  0.844700  1.0
  C  C1037  1  0.169200  0.567900  0.144900  1.0
  C  C1038  1  0.830800  0.432100  0.855100  1.0
  C  C1039  1  0.132600  0.658000  0.140700  1.0
  C  C1040  1  0.867400  0.342000  0.859300  1.0
  C  C1041  1  0.125500  0.836900  0.958300  1.0
  C  C1042  1  0.874500  0.163100  0.041700  1.0
  C  C1043  1  0.113600  0.847200  0.926800  1.0
  C  C1044  1  0.886400  0.152800  0.073200  1.0
  C  C1045  1  0.152700  0.853900  0.904500  1.0
  C  C1046  1  0.847300  0.146100  0.095500  1.0
  C  C1047  1  0.203800  0.850300  0.913600  1.0
  C  C1048  1  0.796200  0.149700  0.086400  1.0
  C  C1049  1  0.215700  0.840000  0.945100  1.0
  C  C1050  1  0.784300  0.160000  0.054900  1.0
  C  C1051  1  0.090300  0.829900  0.981450  1.0
  C  C1052  1  0.909700  0.170100  0.018550  1.0
  C  C1053  1  0.035700  0.830200  0.982500  1.0
  C  C1054  1  0.964300  0.169800  0.017500  1.0
  C  C1055  1  0.019900  0.819000  0.014200  1.0
  C  C1056  1  0.980100  0.181000  0.985800  1.0
  C  C1057  1  0.110900  0.673700  0.108800  1.0
  C  C1058  1  0.889100  0.326300  0.891200  1.0
  C  C1059  1  0.101000  0.724300  0.101000  1.0
  C  C1060  1  0.899000  0.275700  0.899000  1.0
  C  C1061  1  0.082300  0.741400  0.071600  1.0
  C  C1062  1  0.917700  0.258600  0.928400  1.0
  C  C1063  1  0.073300  0.707800  0.050000  1.0
  C  C1064  1  0.926700  0.292200  0.950000  1.0
  C  C1065  1  0.083200  0.657300  0.057700  1.0
  C  C1066  1  0.916800  0.342700  0.942300  1.0
  C  C1067  1  0.102000  0.640200  0.087100  1.0
  C  C1068  1  0.898000  0.359800  0.912900  1.0
  C  C1069  1  0.070700  0.796800  0.065300  1.0
  C  C1070  1  0.929300  0.203200  0.934700  1.0
  C  C1071  1  0.974500  0.644600  0.112800  1.0
  C  C1072  1  0.025500  0.355400  0.887200  1.0
  C  C1073  1  0.956000  0.645600  0.082600  1.0
  C  C1074  1  0.044000  0.354400  0.917400  1.0
  C  C1075  1  0.954000  0.601800  0.068300  1.0
  C  C1076  1  0.046000  0.398200  0.931700  1.0
  C  C1077  1  0.970500  0.556900  0.084400  1.0
  C  C1078  1  0.029500  0.443100  0.915600  1.0
  C  C1079  1  0.989000  0.555900  0.114600  1.0
  C  C1080  1  0.011000  0.444100  0.885400  1.0
  C  C1081  1  0.981000  0.685400  0.126800  1.0
  C  C1082  1  0.019000  0.314600  0.873200  1.0
  C  C1083  1  0.971000  0.737300  0.119400  1.0
  C  C1084  1  0.029000  0.262700  0.880600  1.0
  C  C1085  1  0.989200  0.762100  0.144400  1.0
  C  C1086  1  0.010800  0.237900  0.855600  1.0
  C  C1087  1  0.036800  0.733900  0.194000  1.0
  C  C1088  1  0.963200  0.266100  0.806000  1.0
  C  C1089  1  0.955300  0.855400  0.386200  1.0
  C  C1090  1  0.044700  0.144600  0.613800  1.0
  C  C1091  1  0.935800  0.856000  0.416600  1.0
  C  C1092  1  0.064200  0.144000  0.583400  1.0
  C  C1093  1  0.930600  0.900600  0.430200  1.0
  C  C1094  1  0.069400  0.099400  0.569800  1.0
  C  C1095  1  0.944900  0.944500  0.413400  1.0
  C  C1096  1  0.055100  0.055500  0.586600  1.0
  C  C1097  1  0.964400  0.943800  0.383000  1.0
  C  C1098  1  0.035600  0.056200  0.617000  1.0
  C  C1099  1  0.966400  0.813600  0.372300  1.0
  C  C1100  1  0.033600  0.186400  0.627700  1.0
  C  C1101  1  0.960000  0.762300  0.381000  1.0
  C  C1102  1  0.040000  0.237700  0.619000  1.0
  C  C1103  1  0.981600  0.735500  0.356600  1.0
  C  C1104  1  0.018400  0.264500  0.643400  1.0
  C  C1105  1  0.002200  0.740900  0.222600  1.0
  C  C1106  1  0.997800  0.259100  0.777400  1.0
  C  C1107  1  0.027100  0.747800  0.250200  1.0
  C  C1108  1  0.972900  0.252200  0.749800  1.0
  C  C1109  1  0.998600  0.754300  0.277400  1.0
  C  C1110  1  0.001400  0.245700  0.722600  1.0
  C  C1111  1  0.945200  0.753900  0.277000  1.0
  C  C1112  1  0.054800  0.246100  0.723000  1.0
  C  C1113  1  0.920400  0.747000  0.249500  1.0
  C  C1114  1  0.079600  0.253000  0.750500  1.0
  C  C1115  1  0.948900  0.740500  0.222300  1.0
  C  C1116  1  0.051100  0.259500  0.777700  1.0
  C  C1117  1  0.030000  0.759900  0.306700  1.0
  C  C1118  1  0.970000  0.240100  0.693300  1.0
  C  C1119  1  0.283200  0.870400  0.010900  1.0
  C  C1120  1  0.716800  0.129600  0.989100  1.0
  C  C1121  1  0.334900  0.879500  0.005100  1.0
  C  C1122  1  0.665100  0.120500  0.994900  1.0
  C  C1123  1  0.369700  0.840500  0.000200  1.0
  C  C1124  1  0.630300  0.159500  0.999800  1.0
  C  C1125  1  0.353000  0.792400  0.001100  1.0
  C  C1126  1  0.647000  0.207600  0.998900  1.0
  C  C1127  1  0.301400  0.783300  0.006800  1.0
  C  C1128  1  0.698600  0.216700  0.993200  1.0
  C  C1129  1  0.246200  0.907000  0.015700  1.0
  C  C1130  1  0.753800  0.093000  0.984300  1.0
  C  C1131  1  0.245000  0.958900  0.018100  1.0
  C  C1132  1  0.755000  0.041100  0.981900  1.0
  C  C1133  1  0.193200  0.974900  0.023800  1.0
  C  C1134  1  0.806800  0.025100  0.976200  1.0
  C  C1135  1  0.107900  0.930100  0.028000  1.0
  C  C1136  1  0.892100  0.069900  0.972000  1.0
  C  C1137  1  0.202900  0.990500  0.183500  1.0
  C  C1138  1  0.797100  0.009500  0.816500  1.0
  C  C1139  1  0.235200  0.957900  0.201900  1.0
  C  C1140  1  0.764800  0.042100  0.798100  1.0
  C  C1141  1  0.276600  0.975700  0.216600  1.0
  C  C1142  1  0.723400  0.024300  0.783400  1.0
  C  C1143  1  0.285700  0.026200  0.213000  1.0
  C  C1144  1  0.714300  0.973800  0.787000  1.0
  C  C1145  1  0.253300  0.058800  0.194600  1.0
  C  C1146  1  0.746700  0.941200  0.805400  1.0
  C  C1147  1  0.160300  0.976100  0.169600  1.0
  C  C1148  1  0.839700  0.023900  0.830400  1.0
  C  C1149  1  0.135100  0.930900  0.168300  1.0
  C  C1150  1  0.864900  0.069100  0.831700  1.0
  C  C1151  1  0.090400  0.941400  0.150000  1.0
  C  C1152  1  0.909600  0.058600  0.850000  1.0
  C  C1153  1  0.084900  0.976000  0.041800  1.0
  C  C1154  1  0.915100  0.024000  0.958200  1.0
  C  C1155  1  0.083000  0.978000  0.074000  1.0
  C  C1156  1  0.917000  0.022000  0.926000  1.0
  C  C1157  1  0.058000  0.018200  0.086600  1.0
  C  C1158  1  0.942000  0.981800  0.913400  1.0
  C  C1159  1  0.034800  0.056300  0.066900  1.0
  C  C1160  1  0.965200  0.943700  0.933100  1.0
  C  C1161  1  0.036600  0.054200  0.034600  1.0
  C  C1162  1  0.963400  0.945800  0.965400  1.0
  C  C1163  1  0.061700  0.014000  0.022070  1.0
  C  C1164  1  0.938300  0.986000  0.977930  1.0
  C  C1165  1  0.049200  0.019300  0.121600  1.0
  C  C1166  1  0.950800  0.980700  0.878400  1.0
  C  C1167  1  0.208400  0.710600  0.039600  1.0
  C  C1168  1  0.791600  0.289400  0.960400  1.0
  C  C1169  1  0.213800  0.659200  0.039900  1.0
  C  C1170  1  0.786200  0.340800  0.960100  1.0
  C  C1171  1  0.201400  0.636400  0.013600  1.0
  C  C1172  1  0.798600  0.363600  0.986400  1.0
  C  C1173  1  0.183600  0.665000  0.986900  1.0
  C  C1174  1  0.816400  0.335000  0.013100  1.0
  C  C1175  1  0.178200  0.716400  0.986600  1.0
  C  C1176  1  0.821800  0.283600  0.013400  1.0
  C  C1177  1  0.215500  0.737500  0.064400  1.0
  C  C1178  1  0.784500  0.262500  0.935600  1.0
  C  C1179  1  0.232500  0.725000  0.095500  1.0
  C  C1180  1  0.767500  0.275000  0.904500  1.0
  C  C1181  1  0.226400  0.768200  0.111800  1.0
  C  C1182  1  0.773600  0.231800  0.888200  1.0
  C  C1183  1  0.195900  0.858100  0.096700  1.0
  C  C1184  1  0.804100  0.141900  0.903300  1.0
  C  C1185  1  0.129500  0.133800  0.087100  1.0
  C  C1186  1  0.870500  0.866200  0.912900  1.0
  C  C1187  1  0.105900  0.168700  0.065410  1.0
  C  C1188  1  0.894100  0.831300  0.934590  1.0
  C  C1189  1  0.063000  0.196900  0.074300  1.0
  C  C1190  1  0.937000  0.803100  0.925700  1.0
  C  C1191  1  0.043900  0.190300  0.104900  1.0
  C  C1192  1  0.956100  0.809700  0.895100  1.0
  C  C1193  1  0.067600  0.155400  0.126600  1.0
  C  C1194  1  0.932400  0.844600  0.873400  1.0
  C  C1195  1  0.172600  0.105000  0.080500  1.0
  C  C1196  1  0.827400  0.895000  0.919500  1.0
  C  C1197  1  0.202800  0.099900  0.053000  1.0
  C  C1198  1  0.797200  0.900100  0.947000  1.0
  C  C1199  1  0.244900  0.066200  0.061000  1.0
  C  C1200  1  0.755100  0.933800  0.939000  1.0
  C  C1201  1  0.241800  0.887200  0.096000  1.0
  C  C1202  1  0.758200  0.112800  0.904000  1.0
  C  C1203  1  0.289200  0.869700  0.085100  1.0
  C  C1204  1  0.710800  0.130300  0.914900  1.0
  C  C1205  1  0.330600  0.900500  0.082400  1.0
  C  C1206  1  0.669400  0.099500  0.917600  1.0
  C  C1207  1  0.324600  0.948900  0.090700  1.0
  C  C1208  1  0.675400  0.051100  0.909300  1.0
  C  C1209  1  0.277100  0.966400  0.101600  1.0
  C  C1210  1  0.722900  0.033600  0.898400  1.0
  C  C1211  1  0.235700  0.935500  0.104200  1.0
  C  C1212  1  0.764300  0.064500  0.895800  1.0
  C  C1213  1  0.274600  0.017000  0.111600  1.0
  C  C1214  1  0.725400  0.983000  0.888400  1.0
  C  C1215  1  0.180300  0.182900  0.172400  1.0
  C  C1216  1  0.819700  0.817100  0.827600  1.0
  C  C1217  1  0.200000  0.229500  0.173200  1.0
  C  C1218  1  0.800000  0.770500  0.826800  1.0
  C  C1219  1  0.239900  0.244400  0.152800  1.0
  C  C1220  1  0.760100  0.755600  0.847200  1.0
  C  C1221  1  0.260000  0.212500  0.131700  1.0
  C  C1222  1  0.740000  0.787500  0.868300  1.0
  C  C1223  1  0.240300  0.165900  0.130900  1.0
  C  C1224  1  0.759700  0.834100  0.869100  1.0
  C  C1225  1  0.142900  0.163300  0.192600  1.0
  C  C1226  1  0.857100  0.836700  0.807400  1.0
  C  C1227  1  0.113800  0.180900  0.217900  1.0
  C  C1228  1  0.886200  0.819100  0.782100  1.0
  C  C1229  1  0.078900  0.144000  0.228900  1.0
  C  C1230  1  0.921100  0.856000  0.771100  1.0
  C  C1231  1  0.066500  0.056700  0.213500  1.0
  C  C1232  1  0.933500  0.943300  0.786500  1.0
  C  C1233  1  0.915300  0.875600  0.277000  1.0
  C  C1234  1  0.084700  0.124400  0.723000  1.0
  C  C1235  1  0.868000  0.867200  0.264500  1.0
  C  C1236  1  0.132000  0.132800  0.735500  1.0
  C  C1237  1  0.823900  0.867200  0.283300  1.0
  C  C1238  1  0.176100  0.132800  0.716700  1.0
  C  C1239  1  0.827100  0.875600  0.314700  1.0
  C  C1240  1  0.172900  0.124400  0.685300  1.0
  C  C1241  1  0.874300  0.884000  0.327200  1.0
  C  C1242  1  0.125700  0.116000  0.672800  1.0
  C  C1243  1  0.958700  0.875900  0.259500  1.0
  C  C1244  1  0.041300  0.124100  0.740500  1.0
  C  C1245  1  0.972600  0.868500  0.228000  1.0
  C  C1246  1  0.027400  0.131500  0.772000  1.0
  C  C1247  1  0.027000  0.867300  0.225300  1.0
  C  C1248  1  0.973000  0.132700  0.774700  1.0
  C  C1249  1  0.100200  0.019400  0.235100  1.0
  C  C1250  1  0.899800  0.980600  0.764900  1.0
  C  C1251  1  0.084300  0.970900  0.239700  1.0
  C  C1252  1  0.915700  0.029100  0.760300  1.0
  C  C1253  1  0.112800  0.935200  0.258300  1.0
  C  C1254  1  0.887200  0.064800  0.741700  1.0
  C  C1255  1  0.157300  0.948000  0.272400  1.0
  C  C1256  1  0.842700  0.052000  0.727600  1.0
  C  C1257  1  0.173200  0.996500  0.267800  1.0
  C  C1258  1  0.826800  0.003500  0.732200  1.0
  C  C1259  1  0.144700  0.032200  0.249100  1.0
  C  C1260  1  0.855300  0.967800  0.750900  1.0
  C  C1261  1  0.099500  0.882200  0.263300  1.0
  C  C1262  1  0.900500  0.117800  0.736700  1.0
  C  C1263  1  0.033900  0.994400  0.316200  1.0
  C  C1264  1  0.966100  0.005600  0.683800  1.0
  C  C1265  1  0.035900  0.045500  0.308800  1.0
  C  C1266  1  0.964100  0.954500  0.691200  1.0
  C  C1267  1  0.994700  0.072000  0.294100  1.0
  C  C1268  1  0.005300  0.928000  0.705900  1.0
  C  C1269  1  0.951500  0.047400  0.286800  1.0
  C  C1270  1  0.048500  0.952600  0.713200  1.0
  C  C1271  1  0.949500  0.996400  0.294200  1.0
  C  C1272  1  0.050500  0.003600  0.705800  1.0
  C  C1273  1  0.071700  0.963800  0.330800  1.0
  C  C1274  1  0.928300  0.036200  0.669200  1.0
  C  C1275  1  0.119200  0.974300  0.343800  1.0
  C  C1276  1  0.880800  0.025700  0.656200  1.0
  C  C1277  1  0.144400  0.928500  0.354800  1.0
  C  C1278  1  0.855600  0.071500  0.645200  1.0
  C  C1279  1  0.115700  0.838600  0.358600  1.0
  C  C1280  1  0.884300  0.161400  0.641400  1.0
  C  C1281  1  0.112100  0.660800  0.541400  1.0
  C  C1282  1  0.887900  0.339200  0.458600  1.0
  C  C1283  1  0.099600  0.651100  0.573000  1.0
  C  C1284  1  0.900400  0.348900  0.427000  1.0
  C  C1285  1  0.138300  0.641600  0.594900  1.0
  C  C1286  1  0.861700  0.358400  0.405100  1.0
  C  C1287  1  0.189500  0.641900  0.585200  1.0
  C  C1288  1  0.810500  0.358100  0.414800  1.0
  C  C1289  1  0.202100  0.651600  0.553600  1.0
  C  C1290  1  0.797900  0.348400  0.446400  1.0
  C  C1291  1  0.077600  0.671200  0.517670  1.0
  C  C1292  1  0.922400  0.328800  0.482330  1.0
  C  C1293  1  0.023100  0.672500  0.516700  1.0
  C  C1294  1  0.976900  0.327500  0.483300  1.0
  C  C1295  1  0.008500  0.681900  0.484900  1.0
  C  C1296  1  0.991500  0.318100  0.515100  1.0
  C  C1297  1  0.094300  0.823900  0.390100  1.0
  C  C1298  1  0.905700  0.176100  0.609900  1.0
  C  C1299  1  0.087300  0.773600  0.398200  1.0
  C  C1300  1  0.912700  0.226400  0.601800  1.0
  C  C1301  1  0.069500  0.757300  0.428000  1.0
  C  C1302  1  0.930500  0.242700  0.572000  1.0
  C  C1303  1  0.058600  0.791200  0.449800  1.0
  C  C1304  1  0.941400  0.208800  0.550200  1.0
  C  C1305  1  0.065600  0.841500  0.441800  1.0
  C  C1306  1  0.934400  0.158500  0.558200  1.0
  C  C1307  1  0.083400  0.857800  0.411900  1.0
  C  C1308  1  0.916600  0.142200  0.588100  1.0
  C  C1309  1  0.062700  0.702200  0.433400  1.0
  C  C1310  1  0.937300  0.297800  0.566600  1.0
  C  C1311  1  0.551600  0.174200  0.324900  1.0
  C  C1312  1  0.448400  0.825800  0.675100  1.0
  C  C1313  1  0.528800  0.217600  0.334700  1.0
  C  C1314  1  0.471200  0.782400  0.665300  1.0
  C  C1315  1  0.559200  0.253900  0.344400  1.0
  C  C1316  1  0.440800  0.746100  0.655600  1.0
  C  C1317  1  0.612400  0.246800  0.344300  1.0
  C  C1318  1  0.387600  0.753200  0.655700  1.0
  C  C1319  1  0.635300  0.203400  0.334500  1.0
  C  C1320  1  0.364700  0.796600  0.665500  1.0
  C  C1321  1  0.525400  0.134000  0.317800  1.0
  C  C1322  1  0.474600  0.866000  0.682200  1.0
  C  C1323  1  0.472500  0.124400  0.315800  1.0
  C  C1324  1  0.527500  0.875600  0.684200  1.0
  C  C1325  1  0.469000  0.075900  0.306300  1.0
  C  C1326  1  0.531000  0.924100  0.693700  1.0
  C  C1327  1  0.536200  0.011900  0.289400  1.0
  C  C1328  1  0.463800  0.988100  0.710600  1.0
  C  C1329  1  0.531700  0.902600  0.093900  1.0
  C  C1330  1  0.468300  0.097400  0.906100  1.0
  C  C1331  1  0.538600  0.899900  0.061900  1.0
  C  C1332  1  0.461400  0.100100  0.938100  1.0
  C  C1333  1  0.505800  0.872400  0.045930  1.0
  C  C1334  1  0.494200  0.127600  0.954070  1.0
  C  C1335  1  0.466300  0.847600  0.062000  1.0
  C  C1336  1  0.533700  0.152400  0.938000  1.0
  C  C1337  1  0.459400  0.850300  0.094100  1.0
  C  C1338  1  0.540600  0.149700  0.905900  1.0
  C  C1339  1  0.563700  0.924700  0.111400  1.0
  C  C1340  1  0.436300  0.075300  0.888600  1.0
  C  C1341  1  0.606000  0.955500  0.104800  1.0
  C  C1342  1  0.394000  0.044500  0.895200  1.0
  C  C1343  1  0.624700  0.968100  0.133700  1.0
  C  C1344  1  0.375300  0.031900  0.866300  1.0
  C  C1345  1  0.570400  0.986100  0.204800  1.0
  C  C1346  1  0.429600  0.013900  0.795200  1.0
  C  C1347  1  0.565800  0.981600  0.237300  1.0
  C  C1348  1  0.434200  0.018400  0.762700  1.0
  C  C1349  1  0.541700  0.019700  0.252400  1.0
  C  C1350  1  0.458300  0.980300  0.747600  1.0
  C  C1351  1  0.522200  0.062300  0.235100  1.0
  C  C1352  1  0.477800  0.937700  0.764900  1.0
  C  C1353  1  0.526700  0.066800  0.202500  1.0
  C  C1354  1  0.473300  0.933200  0.797500  1.0
  C  C1355  1  0.550800  0.028700  0.187400  1.0
  C  C1356  1  0.449200  0.971300  0.812600  1.0
  C  C1357  1  0.598600  0.946200  0.192400  1.0
  C  C1358  1  0.401400  0.053800  0.807600  1.0
  C  C1359  1  0.651400  0.093500  0.239700  1.0
  C  C1360  1  0.348600  0.906500  0.760300  1.0
  C  C1361  1  0.650900  0.106400  0.207500  1.0
  C  C1362  1  0.349100  0.893600  0.792500  1.0
  C  C1363  1  0.627300  0.151200  0.195500  1.0
  C  C1364  1  0.372700  0.848800  0.804500  1.0
  C  C1365  1  0.604300  0.183100  0.215800  1.0
  C  C1366  1  0.395700  0.816900  0.784200  1.0
  C  C1367  1  0.604800  0.170100  0.247900  1.0
  C  C1368  1  0.395200  0.829900  0.752100  1.0
  C  C1369  1  0.669300  0.047600  0.253700  1.0
  C  C1370  1  0.330700  0.952400  0.746300  1.0
  C  C1371  1  0.694900  0.005300  0.242400  1.0
  C  C1372  1  0.305100  0.994700  0.757600  1.0
  C  C1373  1  0.700700  0.968100  0.268000  1.0
  C  C1374  1  0.299300  0.031900  0.732000  1.0
  C  C1375  1  0.674600  0.964700  0.326800  1.0
  C  C1376  1  0.325400  0.035300  0.673200  1.0
  C  C1377  1  0.636100  0.895100  0.495600  1.0
  C  C1378  1  0.363900  0.104900  0.504400  1.0
  C  C1379  1  0.606700  0.916800  0.518400  1.0
  C  C1380  1  0.393300  0.083200  0.481600  1.0
  C  C1381  1  0.569700  0.889800  0.535600  1.0
  C  C1382  1  0.430300  0.110200  0.464400  1.0
  C  C1383  1  0.562300  0.841000  0.529900  1.0
  C  C1384  1  0.437700  0.159000  0.470100  1.0
  C  C1385  1  0.591700  0.819200  0.507100  1.0
  C  C1386  1  0.408300  0.180800  0.492900  1.0
  C  C1387  1  0.670900  0.919100  0.477200  1.0
  C  C1388  1  0.329100  0.080900  0.522800  1.0
  C  C1389  1  0.690800  0.967300  0.475600  1.0
  C  C1390  1  0.309200  0.032700  0.524400  1.0
  C  C1391  1  0.732900  0.968800  0.454000  1.0
  C  C1392  1  0.267100  0.031200  0.546000  1.0
  C  C1393  1  0.724200  0.964600  0.343600  1.0
  C  C1394  1  0.275800  0.035400  0.656400  1.0
  C  C1395  1  0.727500  0.937300  0.372700  1.0
  C  C1396  1  0.272500  0.062700  0.627300  1.0
  C  C1397  1  0.772200  0.937100  0.389900  1.0
  C  C1398  1  0.227800  0.062900  0.610100  1.0
  C  C1399  1  0.813600  0.964100  0.378000  1.0
  C  C1400  1  0.186400  0.035900  0.622000  1.0
  C  C1401  1  0.810200  0.991400  0.348800  1.0
  C  C1402  1  0.189800  0.008600  0.651200  1.0
  C  C1403  1  0.765500  0.991700  0.331600  1.0
  C  C1404  1  0.234500  0.008300  0.668400  1.0
  C  C1405  1  0.776100  0.907900  0.420800  1.0
  C  C1406  1  0.223900  0.092100  0.579200  1.0
  C  C1407  1  0.719900  0.752100  0.516000  1.0
  C  C1408  1  0.280100  0.247900  0.484000  1.0
  C  C1409  1  0.745200  0.738200  0.543900  1.0
  C  C1410  1  0.254800  0.261800  0.456100  1.0
  C  C1411  1  0.781500  0.768700  0.554200  1.0
  C  C1412  1  0.218500  0.231300  0.445800  1.0
  C  C1413  1  0.792400  0.813000  0.536700  1.0
  C  C1414  1  0.207600  0.187000  0.463300  1.0
  C  C1415  1  0.767100  0.826900  0.508800  1.0
  C  C1416  1  0.232900  0.173100  0.491200  1.0
  C  C1417  1  0.684300  0.724100  0.503600  1.0
  C  C1418  1  0.315700  0.275900  0.496400  1.0
  C  C1419  1  0.662700  0.677600  0.513100  1.0
  C  C1420  1  0.337300  0.322400  0.486900  1.0
  C  C1421  1  0.625500  0.669000  0.490800  1.0
  C  C1422  1  0.374500  0.331000  0.509200  1.0
  C  C1423  1  0.595100  0.718900  0.439000  1.0
  C  C1424  1  0.404900  0.281100  0.561000  1.0
  C  C1425  1  0.416900  0.699000  0.327300  1.0
  C  C1426  1  0.583100  0.301000  0.672700  1.0
  C  C1427  1  0.369800  0.725200  0.325000  1.0
  C  C1428  1  0.630200  0.274800  0.675000  1.0
  C  C1429  1  0.324500  0.699800  0.326400  1.0
  C  C1430  1  0.675500  0.300200  0.673600  1.0
  C  C1431  1  0.326400  0.648100  0.330000  1.0
  C  C1432  1  0.673600  0.351900  0.670000  1.0
  C  C1433  1  0.373500  0.621900  0.332300  1.0
  C  C1434  1  0.626500  0.378100  0.667700  1.0
  C  C1435  1  0.461800  0.719800  0.326400  1.0
  C  C1436  1  0.538200  0.280200  0.673600  1.0
  C  C1437  1  0.478100  0.769300  0.324700  1.0
  C  C1438  1  0.521900  0.230700  0.675300  1.0
  C  C1439  1  0.532700  0.767600  0.323000  1.0
  C  C1440  1  0.467300  0.232400  0.677000  1.0
  C  C1441  1  0.625900  0.698200  0.411300  1.0
  C  C1442  1  0.374100  0.301800  0.588700  1.0
  C  C1443  1  0.601300  0.705100  0.382700  1.0
  C  C1444  1  0.398700  0.294900  0.617300  1.0
  C  C1445  1  0.624500  0.686800  0.356400  1.0
  C  C1446  1  0.375500  0.313200  0.643600  1.0
  C  C1447  1  0.672200  0.661600  0.358800  1.0
  C  C1448  1  0.327800  0.338400  0.641200  1.0
  C  C1449  1  0.696800  0.654700  0.387500  1.0
  C  C1450  1  0.303200  0.345300  0.612500  1.0
  C  C1451  1  0.673600  0.673000  0.413800  1.0
  C  C1452  1  0.326400  0.327000  0.586200  1.0
  C  C1453  1  0.600700  0.695800  0.323700  1.0
  C  C1454  1  0.399300  0.304200  0.676300  1.0
  C  C1455  1  0.536100  0.596100  0.399800  1.0
  C  C1456  1  0.463900  0.403900  0.600200  1.0
  C  C1457  1  0.540500  0.596800  0.432000  1.0
  C  C1458  1  0.459500  0.403200  0.568000  1.0
  C  C1459  1  0.503800  0.622900  0.448700  1.0
  C  C1460  1  0.496200  0.377100  0.551300  1.0
  C  C1461  1  0.462700  0.648300  0.433200  1.0
  C  C1462  1  0.537300  0.351700  0.566800  1.0
  C  C1463  1  0.458300  0.647500  0.401000  1.0
  C  C1464  1  0.541700  0.352500  0.599000  1.0
  C  C1465  1  0.570200  0.572600  0.381000  1.0
  C  C1466  1  0.429800  0.427400  0.619000  1.0
  C  C1467  1  0.615300  0.542200  0.387400  1.0
  C  C1468  1  0.384700  0.457800  0.612600  1.0
  C  C1469  1  0.638100  0.531400  0.358300  1.0
  C  C1470  1  0.361900  0.468600  0.641700  1.0
  C  C1471  1  0.613300  0.558400  0.301800  1.0
  C  C1472  1  0.386700  0.441600  0.698200  1.0
  C  C1473  1  0.596500  0.337700  0.161000  1.0
  C  C1474  1  0.403500  0.662300  0.839000  1.0
  C  C1475  1  0.578000  0.297500  0.147600  1.0
  C  C1476  1  0.422000  0.702500  0.852400  1.0
  C  C1477  1  0.611800  0.259900  0.138900  1.0
  C  C1478  1  0.388200  0.740100  0.861100  1.0
  C  C1479  1  0.664300  0.262500  0.143600  1.0
  C  C1480  1  0.335700  0.737500  0.856400  1.0
  C  C1481  1  0.682800  0.302700  0.157000  1.0
  C  C1482  1  0.317200  0.697300  0.843000  1.0
  C  C1483  1  0.565600  0.376500  0.169000  1.0
  C  C1484  1  0.434400  0.623500  0.831000  1.0
  C  C1485  1  0.512900  0.391800  0.166100  1.0
  C  C1486  1  0.487100  0.608200  0.833900  1.0
  C  C1487  1  0.505800  0.439000  0.177800  1.0
  C  C1488  1  0.494200  0.561000  0.822200  1.0
  C  C1489  1  0.588200  0.517000  0.286000  1.0
  C  C1490  1  0.411800  0.483000  0.714000  1.0
  C  C1491  1  0.586000  0.521800  0.253500  1.0
  C  C1492  1  0.414000  0.478200  0.746500  1.0
  C  C1493  1  0.567000  0.483900  0.238000  1.0
  C  C1494  1  0.433000  0.516100  0.762000  1.0
  C  C1495  1  0.550300  0.441100  0.255100  1.0
  C  C1496  1  0.449700  0.558900  0.744900  1.0
  C  C1497  1  0.552500  0.436300  0.287600  1.0
  C  C1498  1  0.447500  0.563700  0.712400  1.0
  C  C1499  1  0.571400  0.474200  0.303100  1.0
  C  C1500  1  0.428600  0.525800  0.696900  1.0
  C  C1501  1  0.564500  0.493800  0.204200  1.0
  C  C1502  1  0.435500  0.506200  0.795800  1.0
  C  C1503  1  0.774200  0.398000  0.154100  1.0
  C  C1504  1  0.225800  0.602000  0.845900  1.0
  C  C1505  1  0.827000  0.389700  0.150300  1.0
  C  C1506  1  0.173000  0.610300  0.849700  1.0
  C  C1507  1  0.856000  0.367200  0.175100  1.0
  C  C1508  1  0.144000  0.632800  0.824900  1.0
  C  C1509  1  0.832200  0.353000  0.203700  1.0
  C  C1510  1  0.167800  0.647000  0.796300  1.0
  C  C1511  1  0.779400  0.361300  0.207500  1.0
  C  C1512  1  0.220600  0.638700  0.792500  1.0
  C  C1513  1  0.743400  0.418800  0.129300  1.0
  C  C1514  1  0.256600  0.581200  0.870700  1.0
  C  C1515  1  0.750200  0.434000  0.096800  1.0
  C  C1516  1  0.249800  0.566000  0.903200  1.0
  C  C1517  1  0.702400  0.454400  0.085100  1.0
  C  C1518  1  0.297600  0.545600  0.914900  1.0
  C  C1519  1  0.612200  0.461500  0.109300  1.0
  C  C1520  1  0.387800  0.538500  0.890700  1.0
  C  C1521  1  0.733500  0.701300  0.099900  1.0
  C  C1522  1  0.266500  0.298700  0.900100  1.0
  C  C1523  1  0.761200  0.714300  0.125000  1.0
  C  C1524  1  0.238800  0.285700  0.875000  1.0
  C  C1525  1  0.808400  0.735900  0.119700  1.0
  C  C1526  1  0.191600  0.264100  0.880300  1.0
  C  C1527  1  0.827800  0.744700  0.089300  1.0
  C  C1528  1  0.172200  0.255300  0.910700  1.0
  C  C1529  1  0.800100  0.731700  0.064200  1.0
  C  C1530  1  0.199900  0.268300  0.935800  1.0
  C  C1531  1  0.687600  0.682800  0.102100  1.0
  C  C1532  1  0.312400  0.317200  0.897900  1.0
  C  C1533  1  0.652400  0.672600  0.127500  1.0
  C  C1534  1  0.347600  0.327400  0.872500  1.0
  C  C1535  1  0.607400  0.654400  0.115300  1.0
  C  C1536  1  0.392600  0.345600  0.884700  1.0
  C  C1537  1  0.599600  0.498400  0.080700  1.0
  C  C1538  1  0.400400  0.501600  0.919300  1.0
  C  C1539  1  0.599000  0.549200  0.083300  1.0
  C  C1540  1  0.401000  0.450800  0.916700  1.0
  C  C1541  1  0.582300  0.582600  0.058500  1.0
  C  C1542  1  0.417700  0.417400  0.941500  1.0
  C  C1543  1  0.566200  0.565200  0.031000  1.0
  C  C1544  1  0.433800  0.434800  0.969000  1.0
  C  C1545  1  0.566700  0.514400  0.028400  1.0
  C  C1546  1  0.433300  0.485600  0.971600  1.0
  C  C1547  1  0.583400  0.481000  0.053200  1.0
  C  C1548  1  0.416600  0.519000  0.946800  1.0
  C  C1549  1  0.580000  0.637200  0.060400  1.0
  C  C1550  1  0.420000  0.362800  0.939600  1.0
  C  C1551  1  0.733000  0.106900  0.340600  1.0
  C  C1552  1  0.267000  0.893100  0.659400  1.0
  C  C1553  1  0.783400  0.119200  0.345100  1.0
  C  C1554  1  0.216600  0.880800  0.654900  1.0
  C  C1555  1  0.811400  0.142600  0.320300  1.0
  C  C1556  1  0.188600  0.857400  0.679700  1.0
  C  C1557  1  0.789100  0.153600  0.291200  1.0
  C  C1558  1  0.210900  0.846400  0.708800  1.0
  C  C1559  1  0.738700  0.141300  0.286700  1.0
  C  C1560  1  0.261300  0.858700  0.713300  1.0
  C  C1561  1  0.702100  0.084700  0.363100  1.0
  C  C1562  1  0.297900  0.915300  0.636900  1.0
  C  C1563  1  0.707300  0.068200  0.395400  1.0
  C  C1564  1  0.292700  0.931800  0.604600  1.0
  C  C1565  1  0.660000  0.048400  0.406500  1.0
  C  C1566  1  0.340000  0.951600  0.593500  1.0
  C  C1567  1  0.573500  0.041600  0.381800  1.0
  C  C1568  1  0.426500  0.958400  0.618200  1.0
  C  C1569  1  0.719500  0.796700  0.394500  1.0
  C  C1570  1  0.280500  0.203300  0.605500  1.0
  C  C1571  1  0.752000  0.781700  0.370700  1.0
  C  C1572  1  0.248000  0.218300  0.629300  1.0
  C  C1573  1  0.799300  0.757900  0.378000  1.0
  C  C1574  1  0.200700  0.242100  0.622000  1.0
  C  C1575  1  0.814100  0.749000  0.409100  1.0
  C  C1576  1  0.185900  0.251000  0.590900  1.0
  C  C1577  1  0.781600  0.763900  0.432900  1.0
  C  C1578  1  0.218400  0.236100  0.567100  1.0
  C  C1579  1  0.673300  0.816700  0.390500  1.0
  C  C1580  1  0.326700  0.183300  0.609500  1.0
  C  C1581  1  0.643600  0.827800  0.363100  1.0
  C  C1582  1  0.356400  0.172200  0.636900  1.0
  C  C1583  1  0.594800  0.847500  0.372200  1.0
  C  C1584  1  0.405200  0.152500  0.627800  1.0
  C  C1585  1  0.559000  0.005400  0.406600  1.0
  C  C1586  1  0.441000  0.994600  0.593400  1.0
  C  C1587  1  0.565800  0.954900  0.403300  1.0
  C  C1588  1  0.434200  0.045100  0.596700  1.0
  C  C1589  1  0.552000  0.920100  0.427700  1.0
  C  C1590  1  0.448000  0.079900  0.572300  1.0
  C  C1591  1  0.531300  0.935800  0.455400  1.0
  C  C1592  1  0.468700  0.064200  0.544600  1.0
  C  C1593  1  0.524500  0.986300  0.458800  1.0
  C  C1594  1  0.475500  0.013700  0.541200  1.0
  C  C1595  1  0.538300  0.021100  0.434300  1.0
  C  C1596  1  0.461700  0.978900  0.565700  1.0
  C  C1597  1  0.554800  0.864400  0.425400  1.0
  C  C1598  1  0.445200  0.135600  0.574600  1.0
  C  C1599  1  0.435600  0.980500  0.177800  1.0
  C  C1600  1  0.564400  0.019500  0.822200  1.0
  C  C1601  1  0.410800  0.027200  0.176100  1.0
  C  C1602  1  0.589200  0.972800  0.823900  1.0
  C  C1603  1  0.403200  0.054100  0.147100  1.0
  C  C1604  1  0.596800  0.945900  0.852900  1.0
  C  C1605  1  0.420300  0.034200  0.119800  1.0
  C  C1606  1  0.579700  0.965800  0.880200  1.0
  C  C1607  1  0.445100  0.987400  0.121600  1.0
  C  C1608  1  0.554900  0.012600  0.878400  1.0
  C  C1609  1  0.445800  0.953500  0.205700  1.0
  C  C1610  1  0.554200  0.046500  0.794300  1.0
  C  C1611  1  0.433700  0.958100  0.237700  1.0
  C  C1612  1  0.566300  0.041900  0.762300  1.0
  C  C1613  1  0.456600  0.916400  0.255800  1.0
  C  C1614  1  0.543400  0.083600  0.744200  1.0
  C  C1615  1  0.512900  0.841500  0.242700  1.0
  C  C1616  1  0.487100  0.158500  0.757300  1.0
  C  C1617  1  0.451200  0.520400  0.315000  1.0
  C  C1618  1  0.548800  0.479600  0.685000  1.0
  C  C1619  1  0.431900  0.473200  0.316500  1.0
  C  C1620  1  0.568100  0.526800  0.683500  1.0
  C  C1621  1  0.425000  0.445900  0.345300  1.0
  C  C1622  1  0.575000  0.554100  0.654700  1.0
  C  C1623  1  0.437600  0.465800  0.372700  1.0
  C  C1624  1  0.562400  0.534200  0.627300  1.0
  C  C1625  1  0.456900  0.513000  0.371200  1.0
  C  C1626  1  0.543100  0.487000  0.628800  1.0
  C  C1627  1  0.461100  0.548200  0.287500  1.0
  C  C1628  1  0.538900  0.451800  0.712500  1.0
  C  C1629  1  0.452500  0.544300  0.255300  1.0
  C  C1630  1  0.547500  0.455700  0.744700  1.0
  C  C1631  1  0.473200  0.586300  0.237800  1.0
  C  C1632  1  0.526800  0.413700  0.762200  1.0
  C  C1633  1  0.484300  0.795400  0.244500  1.0
  C  C1634  1  0.515700  0.204600  0.755500  1.0
  C  C1635  1  0.513200  0.750800  0.247200  1.0
  C  C1636  1  0.486800  0.249200  0.752800  1.0
  C  C1637  1  0.488800  0.705900  0.250000  1.0
  C  C1638  1  0.511200  0.294100  0.750000  1.0
  C  C1639  1  0.435400  0.705700  0.250000  1.0
  C  C1640  1  0.564600  0.294300  0.750000  1.0
  C  C1641  1  0.406500  0.750300  0.247200  1.0
  C  C1642  1  0.593500  0.249700  0.752800  1.0
  C  C1643  1  0.430900  0.795200  0.244500  1.0
  C  C1644  1  0.569100  0.204800  0.755500  1.0
  C  C1645  1  0.523200  0.658900  0.251600  1.0
  C  C1646  1  0.476800  0.341100  0.748400  1.0
  C  C1647  1  0.675700  0.608100  0.995100  1.0
  C  C1648  1  0.324300  0.391900  0.004900  1.0
  C  C1649  1  0.654000  0.587300  0.970400  1.0
  C  C1650  1  0.346000  0.412700  0.029600  1.0
  C  C1651  1  0.621300  0.616100  0.950000  1.0
  C  C1652  1  0.378700  0.383900  0.050000  1.0
  C  C1653  1  0.610300  0.665800  0.954400  1.0
  C  C1654  1  0.389700  0.334200  0.045600  1.0
  C  C1655  1  0.632000  0.686600  0.979100  1.0
  C  C1656  1  0.368000  0.313400  0.020900  1.0
  C  C1657  1  0.710400  0.584000  0.013000  1.0
  C  C1658  1  0.289600  0.416000  0.987000  1.0
  C  C1659  1  0.733200  0.535200  0.014100  1.0
  C  C1660  1  0.266800  0.464800  0.985900  1.0
  C  C1661  1  0.771800  0.530700  0.037200  1.0
  C  C1662  1  0.228200  0.469300  0.962800  1.0
  C  C1663  1  0.805900  0.593600  0.071900  1.0
  C  C1664  1  0.194100  0.406400  0.928100  1.0
  C  C1665  1  0.682900  0.409600  0.251700  1.0
  C  C1666  1  0.317100  0.590400  0.748300  1.0
  C  C1667  1  0.682500  0.395600  0.283800  1.0
  C  C1668  1  0.317500  0.604400  0.716200  1.0
  C  C1669  1  0.664100  0.349800  0.295400  1.0
  C  C1670  1  0.335900  0.650200  0.704600  1.0
  C  C1671  1  0.646200  0.318100  0.274900  1.0
  C  C1672  1  0.353800  0.681900  0.725100  1.0
  C  C1673  1  0.646600  0.332100  0.242800  1.0
  C  C1674  1  0.353400  0.667900  0.757200  1.0
  C  C1675  1  0.696900  0.455000  0.239600  1.0
  C  C1676  1  0.303100  0.545000  0.760400  1.0
  C  C1677  1  0.714500  0.498100  0.251500  1.0
  C  C1678  1  0.285500  0.501900  0.748500  1.0
  C  C1679  1  0.717900  0.535900  0.226200  1.0
  C  C1680  1  0.282100  0.464100  0.773800  1.0
  C  C1681  1  0.800300  0.563100  0.104800  1.0
  C  C1682  1  0.199700  0.436900  0.895200  1.0
  C  C1683  1  0.754100  0.564300  0.121600  1.0
  C  C1684  1  0.245900  0.435700  0.878400  1.0
  C  C1685  1  0.750600  0.538900  0.151400  1.0
  C  C1686  1  0.249400  0.461100  0.848600  1.0
  C  C1687  1  0.793300  0.512500  0.164300  1.0
  C  C1688  1  0.206700  0.487500  0.835700  1.0
  C  C1689  1  0.839500  0.511300  0.147500  1.0
  C  C1690  1  0.160500  0.488700  0.852500  1.0
  C  C1691  1  0.843100  0.536700  0.117800  1.0
  C  C1692  1  0.156900  0.463300  0.882200  1.0
  C  C1693  1  0.700700  0.539300  0.168100  1.0
  C  C1694  1  0.299300  0.460700  0.831900  1.0
  C  C1695  1  0.419800  0.801600  0.167500  1.0
  C  C1696  1  0.580200  0.198400  0.832500  1.0
  C  C1697  1  0.375700  0.774400  0.171100  1.0
  C  C1698  1  0.624300  0.225600  0.828900  1.0
  C  C1699  1  0.327500  0.798800  0.171100  1.0
  C  C1700  1  0.672500  0.201200  0.828900  1.0
  C  C1701  1  0.323400  0.850400  0.167500  1.0
  C  C1702  1  0.676600  0.149600  0.832500  1.0
  C  C1703  1  0.367500  0.877600  0.163900  1.0
  C  C1704  1  0.632500  0.122400  0.836100  1.0
  C  C1705  1  0.467600  0.779900  0.167700  1.0
  C  C1706  1  0.532400  0.220100  0.832300  1.0
  C  C1707  1  0.488600  0.730300  0.169800  1.0
  C  C1708  1  0.511400  0.269700  0.830200  1.0
  C  C1709  1  0.542900  0.732100  0.171400  1.0
  C  C1710  1  0.457100  0.267900  0.828600  1.0
  C  C1711  1  0.602800  0.804300  0.170100  1.0
  C  C1712  1  0.397200  0.195700  0.829900  1.0
  C  C1713  1  0.747700  0.750200  0.979800  1.0
  C  C1714  1  0.252300  0.249800  0.020200  1.0
  C  C1715  1  0.774500  0.764100  0.952100  1.0
  C  C1716  1  0.225500  0.235900  0.047900  1.0
  C  C1717  1  0.812900  0.732300  0.941300  1.0
  C  C1718  1  0.187100  0.267700  0.058700  1.0
  C  C1719  1  0.824500  0.686700  0.958100  1.0
  C  C1720  1  0.175500  0.313300  0.041900  1.0
  C  C1721  1  0.797700  0.672900  0.985700  1.0
  C  C1722  1  0.202300  0.327100  0.014300  1.0
  C  C1723  1  0.710600  0.779100  0.992500  1.0
  C  C1724  1  0.289400  0.220900  0.007500  1.0
  C  C1725  1  0.687500  0.826800  0.983500  1.0
  C  C1726  1  0.312500  0.173200  0.016500  1.0
  C  C1727  1  0.646900  0.835600  0.005300  1.0
  C  C1728  1  0.353100  0.164400  0.994700  1.0
  C  C1729  1  0.627500  0.812900  0.138500  1.0
  C  C1730  1  0.372500  0.187100  0.861500  1.0
  C  C1731  1  0.609000  0.795600  0.111600  1.0
  C  C1732  1  0.391000  0.204400  0.888400  1.0
  C  C1733  1  0.635800  0.803700  0.083300  1.0
  C  C1734  1  0.364200  0.196300  0.916700  1.0
  C  C1735  1  0.681100  0.829200  0.081900  1.0
  C  C1736  1  0.318900  0.170800  0.918100  1.0
  C  C1737  1  0.699600  0.846400  0.108800  1.0
  C  C1738  1  0.300400  0.153600  0.891200  1.0
  C  C1739  1  0.672800  0.838300  0.137100  1.0
  C  C1740  1  0.327200  0.161700  0.862900  1.0
  C  C1741  1  0.615800  0.786100  0.054400  1.0
  C  C1742  1  0.384200  0.213900  0.945600  1.0
  C  C1743  1  0.093000  0.015500  0.827800  1.0
  C  C1744  1  0.907000  0.984500  0.172200  1.0
  C  C1745  1  0.543400  0.468900  0.474200  1.0
  C  C1746  1  0.456600  0.531100  0.525800  1.0
  C  C1747  1  0.921600  0.506800  0.328500  1.0
  C  C1748  1  0.078400  0.493200  0.671500  1.0
  C  C1749  1  0.729200  0.534000  0.444700  1.0
  C  C1750  1  0.270800  0.466000  0.555300  1.0
  C  C1751  1  0.413200  0.698600  0.094600  1.0
  C  C1752  1  0.586800  0.301400  0.905400  1.0
  C  C1753  1  0.572100  0.837000  0.932000  1.0
  C  C1754  1  0.427900  0.163000  0.068000  1.0
  C  C1755  1  0.388600  0.806100  0.404100  1.0
  C  C1756  1  0.611400  0.193900  0.595900  1.0
  C  C1757  1  0.540500  0.032200  0.025600  1.0
  C  C1758  1  0.459500  0.967800  0.974400  1.0
  C  C1759  1  0.128900  0.510600  0.591400  1.0
  C  C1760  1  0.871100  0.489400  0.408600  1.0
  C  C1761  1  0.133400  0.984000  0.906000  1.0
  C  C1762  1  0.866600  0.016000  0.094000  1.0
  C  C1763  1  0.239400  0.666800  0.242200  0.5
  C  C1764  1  0.760600  0.333200  0.757800  0.5
  C  C1765  1  0.339100  0.602000  0.169400  0.5
  C  C1766  1  0.660900  0.398000  0.830600  0.5
  N  N1767  1  0.224600  0.342000  0.352100  1.0
  N  N1768  1  0.775400  0.658000  0.647900  1.0
  N  N1769  1  0.110800  0.389300  0.291300  1.0
  N  N1770  1  0.889200  0.610700  0.708700  1.0
  N  N1771  1  0.148800  0.377300  0.314400  1.0
  N  N1772  1  0.851200  0.622700  0.685600  1.0
  N  N1773  1  0.934700  0.614100  0.190500  1.0
  N  N1774  1  0.065300  0.385900  0.809500  1.0
  N  N1775  1  0.060300  0.619100  0.244100  1.0
  N  N1776  1  0.939700  0.380900  0.755900  1.0
  N  N1777  1  0.019600  0.615900  0.222960  1.0
  N  N1778  1  0.980400  0.384100  0.777040  1.0
  N  N1779  1  0.133700  0.371300  0.385400  1.0
  N  N1780  1  0.866300  0.628700  0.614600  1.0
  N  N1781  1  0.258200  0.444800  0.405600  1.0
  N  N1782  1  0.741800  0.555200  0.594400  1.0
  N  N1783  1  0.213700  0.423400  0.395000  1.0
  N  N1784  1  0.786300  0.576600  0.605000  1.0
  N  N1785  1  0.177200  0.753600  0.486500  1.0
  N  N1786  1  0.822800  0.246400  0.513500  1.0
  N  N1787  1  0.197500  0.687700  0.407600  1.0
  N  N1788  1  0.802500  0.312300  0.592400  1.0
  N  N1789  1  0.188700  0.706000  0.437300  1.0
  N  N1790  1  0.811300  0.294000  0.562700  1.0
  N  N1791  1  0.228600  0.452700  0.321100  1.0
  N  N1792  1  0.771400  0.547300  0.678900  1.0
  N  N1793  1  0.098200  0.504300  0.358300  1.0
  N  N1794  1  0.901800  0.495700  0.641700  1.0
  N  N1795  1  0.144100  0.481400  0.347100  1.0
  N  N1796  1  0.855900  0.518600  0.652900  1.0
  N  N1797  1  0.255700  0.668900  0.487600  1.0
  N  N1798  1  0.744300  0.331100  0.512400  1.0
  N  N1799  1  0.160100  0.561700  0.472400  1.0
  N  N1800  1  0.839900  0.438300  0.527600  1.0
  N  N1801  1  0.189900  0.602200  0.478500  1.0
  N  N1802  1  0.810100  0.397800  0.521500  1.0
  N  N1803  1  0.016600  0.526600  0.187200  1.0
  N  N1804  1  0.983400  0.473400  0.812800  1.0
  N  N1805  1  0.132100  0.606500  0.150200  1.0
  N  N1806  1  0.867900  0.393500  0.849800  1.0
  N  N1807  1  0.087600  0.584300  0.163900  1.0
  N  N1808  1  0.912400  0.415700  0.836100  1.0
  N  N1809  1  0.176600  0.833300  0.967500  1.0
  N  N1810  1  0.823400  0.166700  0.032500  1.0
  N  N1811  1  0.064600  0.811800  0.032780  1.0
  N  N1812  1  0.935400  0.188200  0.967220  1.0
  N  N1813  1  0.108100  0.818500  0.012500  1.0
  N  N1814  1  0.891900  0.181500  0.987500  1.0
  N  N1815  1  0.991000  0.599700  0.128840  1.0
  N  N1816  1  0.009000  0.400300  0.871160  1.0
  N  N1817  1  0.010500  0.725700  0.167200  1.0
  N  N1818  1  0.989500  0.274300  0.832800  1.0
  N  N1819  1  0.005300  0.678300  0.156300  1.0
  N  N1820  1  0.994700  0.321700  0.843700  1.0
  N  N1821  1  0.969600  0.899300  0.369400  1.0
  N  N1822  1  0.030400  0.100700  0.630600  1.0
  N  N1823  1  0.001300  0.770300  0.333000  1.0
  N  N1824  1  0.998700  0.229700  0.667000  1.0
  N  N1825  1  0.991900  0.818600  0.342700  1.0
  N  N1826  1  0.008100  0.181400  0.657300  1.0
  N  N1827  1  0.266500  0.822300  0.011700  1.0
  N  N1828  1  0.733500  0.177700  0.988300  1.0
  N  N1829  1  0.162400  0.932700  0.024900  1.0
  N  N1830  1  0.837600  0.067300  0.975100  1.0
  N  N1831  1  0.195200  0.890800  0.019900  1.0
  N  N1832  1  0.804800  0.109200  0.980100  1.0
  N  N1833  1  0.211900  0.041000  0.179800  1.0
  N  N1834  1  0.788100  0.959000  0.820200  1.0
  N  N1835  1  0.087900  0.993100  0.140100  1.0
  N  N1836  1  0.912100  0.006900  0.859900  1.0
  N  N1837  1  0.131100  0.014500  0.152200  1.0
  N  N1838  1  0.868900  0.985500  0.847800  1.0
  N  N1839  1  0.190600  0.739200  0.013000  1.0
  N  N1840  1  0.809400  0.260800  0.987000  1.0
  N  N1841  1  0.205500  0.807400  0.090700  1.0
  N  N1842  1  0.794500  0.192600  0.909300  1.0
  N  N1843  1  0.198800  0.788400  0.061400  1.0
  N  N1844  1  0.801200  0.211600  0.938600  1.0
  N  N1845  1  0.110400  0.127100  0.117600  1.0
  N  N1846  1  0.889600  0.872900  0.882400  1.0
  N  N1847  1  0.240700  0.050400  0.093500  1.0
  N  N1848  1  0.759300  0.949600  0.906500  1.0
  N  N1849  1  0.196000  0.074400  0.105600  1.0
  N  N1850  1  0.804000  0.925600  0.894400  1.0
  N  N1851  1  0.200400  0.151000  0.151300  1.0
  N  N1852  1  0.799600  0.849000  0.848700  1.0
  N  N1853  1  0.086500  0.103600  0.210400  1.0
  N  N1854  1  0.913500  0.896400  0.789600  1.0
  N  N1855  1  0.126000  0.115400  0.188000  1.0
  N  N1856  1  0.874000  0.884600  0.812000  1.0
  N  N1857  1  0.918400  0.884000  0.308300  1.0
  N  N1858  1  0.081600  0.116000  0.691700  1.0
  N  N1859  1  0.046900  0.873900  0.255200  1.0
  N  N1860  1  0.953100  0.126100  0.744800  1.0
  N  N1861  1  0.004600  0.879300  0.276270  1.0
  N  N1862  1  0.995400  0.120700  0.723730  1.0
  N  N1863  1  0.990600  0.969900  0.308900  1.0
  N  N1864  1  0.009400  0.030100  0.691100  1.0
  N  N1865  1  0.112500  0.889600  0.348600  1.0
  N  N1866  1  0.887500  0.110400  0.651400  1.0
  N  N1867  1  0.067600  0.911400  0.333700  1.0
  N  N1868  1  0.932400  0.088600  0.666300  1.0
  N  N1869  1  0.163400  0.661000  0.531700  1.0
  N  N1870  1  0.836600  0.339000  0.468300  1.0
  N  N1871  1  0.054000  0.686300  0.466150  1.0
  N  N1872  1  0.946000  0.313700  0.533850  1.0
  N  N1873  1  0.096700  0.679700  0.486400  1.0
  N  N1874  1  0.903300  0.320300  0.513600  1.0
  N  N1875  1  0.604900  0.167100  0.324800  1.0
  N  N1876  1  0.395100  0.832900  0.675200  1.0
  N  N1877  1  0.519700  0.055400  0.302500  1.0
  N  N1878  1  0.480300  0.944600  0.697500  1.0
  N  N1879  1  0.554600  0.091300  0.309700  1.0
  N  N1880  1  0.445400  0.908700  0.690300  1.0
  N  N1881  1  0.492200  0.877800  0.110020  1.0
  N  N1882  1  0.507800  0.122200  0.889980  1.0
  N  N1883  1  0.593900  0.945000  0.158200  1.0
  N  N1884  1  0.406100  0.055000  0.841800  1.0
  N  N1885  1  0.556200  0.918200  0.144400  1.0
  N  N1886  1  0.443800  0.081800  0.855600  1.0
  N  N1887  1  0.628400  0.125300  0.259900  1.0
  N  N1888  1  0.371600  0.874700  0.740100  1.0
  N  N1889  1  0.678700  0.987400  0.295100  1.0
  N  N1890  1  0.321300  0.012600  0.704900  1.0
  N  N1891  1  0.659300  0.036500  0.286300  1.0
  N  N1892  1  0.340700  0.963500  0.713700  1.0
  N  N1893  1  0.628700  0.846300  0.489900  1.0
  N  N1894  1  0.371300  0.153700  0.510100  1.0
  N  N1895  1  0.739100  0.921600  0.442300  1.0
  N  N1896  1  0.260900  0.078400  0.557700  1.0
  N  N1897  1  0.700800  0.890900  0.456600  1.0
  N  N1898  1  0.299200  0.109100  0.543400  1.0
  N  N1899  1  0.730800  0.796400  0.498400  1.0
  N  N1900  1  0.269200  0.203600  0.501600  1.0
  N  N1901  1  0.624100  0.710100  0.467500  1.0
  N  N1902  1  0.375900  0.289900  0.532500  1.0
  N  N1903  1  0.660400  0.744200  0.475400  1.0
  N  N1904  1  0.339600  0.255800  0.524600  1.0
  N  N1905  1  0.418800  0.647300  0.330900  1.0
  N  N1906  1  0.581200  0.352700  0.669100  1.0
  N  N1907  1  0.550100  0.717100  0.323600  1.0
  N  N1908  1  0.449900  0.282900  0.676400  1.0
  N  N1909  1  0.506200  0.687500  0.325700  1.0
  N  N1910  1  0.493800  0.312500  0.674300  1.0
  N  N1911  1  0.495000  0.621400  0.384280  1.0
  N  N1912  1  0.505000  0.378600  0.615720  1.0
  N  N1913  1  0.607000  0.555200  0.333900  1.0
  N  N1914  1  0.393000  0.444800  0.666100  1.0
  N  N1915  1  0.565100  0.580700  0.347900  1.0
  N  N1916  1  0.434900  0.419300  0.652100  1.0
  N  N1917  1  0.649000  0.340300  0.165700  1.0
  N  N1918  1  0.351000  0.659700  0.834300  1.0
  N  N1919  1  0.554200  0.452900  0.187900  1.0
  N  N1920  1  0.445800  0.547100  0.812100  1.0
  N  N1921  1  0.591100  0.414300  0.182500  1.0
  N  N1922  1  0.408900  0.585700  0.817500  1.0
  N  N1923  1  0.750500  0.383800  0.182700  1.0
  N  N1924  1  0.249500  0.616200  0.817300  1.0
  N  N1925  1  0.666000  0.451900  0.110400  1.0
  N  N1926  1  0.334000  0.548100  0.889600  1.0
  N  N1927  1  0.691400  0.429900  0.137600  1.0
  N  N1928  1  0.308600  0.570100  0.862400  1.0
  N  N1929  1  0.753000  0.710000  0.069500  1.0
  N  N1930  1  0.247000  0.290000  0.930500  1.0
  N  N1931  1  0.614800  0.653500  0.082400  1.0
  N  N1932  1  0.385200  0.346500  0.917600  1.0
  N  N1933  1  0.664300  0.671100  0.074300  1.0
  N  N1934  1  0.335700  0.328900  0.925700  1.0
  N  N1935  1  0.710700  0.117900  0.311400  1.0
  N  N1936  1  0.289300  0.882100  0.688600  1.0
  N  N1937  1  0.625600  0.052600  0.381000  1.0
  N  N1938  1  0.374400  0.947400  0.619000  1.0
  N  N1939  1  0.651500  0.075000  0.354200  1.0
  N  N1940  1  0.348500  0.925000  0.645800  1.0
  N  N1941  1  0.734300  0.787800  0.425600  1.0
  N  N1942  1  0.265700  0.212200  0.574400  1.0
  N  N1943  1  0.594200  0.848700  0.405300  1.0
  N  N1944  1  0.405800  0.151300  0.594700  1.0
  N  N1945  1  0.642800  0.829600  0.416600  1.0
  N  N1946  1  0.357200  0.170400  0.583400  1.0
  N  N1947  1  0.452800  0.960500  0.150600  1.0
  N  N1948  1  0.547200  0.039500  0.849400  1.0
  N  N1949  1  0.482900  0.886000  0.234900  1.0
  N  N1950  1  0.517100  0.114000  0.765100  1.0
  N  N1951  1  0.476200  0.908900  0.203900  1.0
  N  N1952  1  0.523800  0.091100  0.796100  1.0
  N  N1953  1  0.463800  0.540300  0.342400  1.0
  N  N1954  1  0.536200  0.459700  0.657600  1.0
  N  N1955  1  0.494600  0.616100  0.259200  1.0
  N  N1956  1  0.505400  0.383900  0.740800  1.0
  N  N1957  1  0.487100  0.592600  0.289900  1.0
  N  N1958  1  0.512900  0.407400  0.710100  1.0
  N  N1959  1  0.664700  0.657800  0.999500  1.0
  N  N1960  1  0.335300  0.342200  0.000500  1.0
  N  N1961  1  0.772900  0.576700  0.050400  1.0
  N  N1962  1  0.227100  0.423300  0.949600  1.0
  N  N1963  1  0.734900  0.609700  0.035400  1.0
  N  N1964  1  0.265100  0.390300  0.964600  1.0
  N  N1965  1  0.664900  0.377900  0.231200  1.0
  N  N1966  1  0.335100  0.622100  0.768800  1.0
  N  N1967  1  0.702200  0.516100  0.198700  1.0
  N  N1968  1  0.297800  0.483900  0.801300  1.0
  N  N1969  1  0.689200  0.466100  0.206900  1.0
  N  N1970  1  0.310800  0.533900  0.793100  1.0
  N  N1971  1  0.415700  0.853200  0.163900  1.0
  N  N1972  1  0.584300  0.146800  0.836100  1.0
  N  N1973  1  0.555400  0.782800  0.170200  1.0
  N  N1974  1  0.444600  0.217200  0.829800  1.0
  N  N1975  1  0.508900  0.812300  0.168000  1.0
  N  N1976  1  0.491100  0.187700  0.832000  1.0
  N  N1977  1  0.759400  0.704600  0.996600  1.0
  N  N1978  1  0.240600  0.295400  0.003400  1.0
  N  N1979  1  0.645000  0.793400  0.027700  1.0
  N  N1980  1  0.355000  0.206600  0.972300  1.0
  N  N1981  1  0.684400  0.758500  0.019800  1.0
  N  N1982  1  0.315600  0.241500  0.980200  1.0
  N  N1983  1  0.050800  0.012700  0.806200  1.0
  N  N1984  1  0.949200  0.987300  0.193800  1.0
  N  N1985  1  0.537300  0.428800  0.450800  1.0
  N  N1986  1  0.462700  0.571200  0.549200  1.0
  N  N1987  1  0.963100  0.506800  0.304800  1.0
  N  N1988  1  0.036900  0.493200  0.695200  1.0
  N  N1989  1  0.709500  0.483000  0.446300  1.0
  N  N1990  1  0.290500  0.517000  0.553700  1.0
  N  N1991  1  0.375800  0.729500  0.082800  1.0
  N  N1992  1  0.624200  0.270500  0.917200  1.0
  N  N1993  1  0.621500  0.822300  0.919400  1.0
  N  N1994  1  0.378500  0.177700  0.080600  1.0
  N  N1995  1  0.357500  0.766400  0.418900  1.0
  N  N1996  1  0.642500  0.233600  0.581100  1.0
  N  N1997  1  0.526400  0.071900  0.046400  1.0
  N  N1998  1  0.473600  0.928100  0.953600  1.0
  N  N1999  1  0.118800  0.516200  0.558300  1.0
  N  N2000  1  0.881200  0.483800  0.441700  1.0
  N  N2001  1  0.122600  0.979500  0.942600  1.0
  N  N2002  1  0.877400  0.020500  0.057400  1.0
  N  N2003  1  0.291000  0.665200  0.237700  0.5
  N  N2004  1  0.709000  0.334800  0.762300  0.5
  N  N2005  1  0.299700  0.640600  0.163300  0.5
  N  N2006  1  0.700300  0.359400  0.836700  0.5
  O  O2007  1  0.060100  0.000100  0.779600  1.0
  O  O2008  1  0.939900  0.999900  0.220400  1.0
  O  O2009  1  0.006900  0.020500  0.816000  1.0
  O  O2010  1  0.993100  0.979500  0.184000  1.0
  O  O2011  1  0.533900  0.387100  0.461500  1.0
  O  O2012  1  0.466100  0.612900  0.538500  1.0
  O  O2013  1  0.529600  0.449700  0.424600  1.0
  O  O2014  1  0.470400  0.550300  0.575400  1.0
  O  O2015  1  0.005700  0.516800  0.313500  1.0
  O  O2016  1  0.994300  0.483200  0.686500  1.0
  O  O2017  1  0.954100  0.495700  0.279200  1.0
  O  O2018  1  0.045900  0.504300  0.720800  1.0
  O  O2019  1  0.743900  0.449600  0.446400  1.0
  O  O2020  1  0.256100  0.550400  0.553600  1.0
  O  O2021  1  0.665900  0.476800  0.447700  1.0
  O  O2022  1  0.334100  0.523200  0.552300  1.0
  O  O2023  1  0.370500  0.773200  0.083600  1.0
  O  O2024  1  0.629500  0.226800  0.916400  1.0
  O  O2025  1  0.345000  0.708400  0.063500  1.0
  O  O2026  1  0.655000  0.291600  0.936500  1.0
  O  O2027  1  0.637800  0.778800  0.922000  1.0
  O  O2028  1  0.362200  0.221200  0.078000  1.0
  O  O2029  1  0.648700  0.854200  0.906000  1.0
  O  O2030  1  0.351300  0.145800  0.094000  1.0
  O  O2031  1  0.361700  0.726100  0.411800  1.0
  O  O2032  1  0.638300  0.273900  0.588200  1.0
  O  O2033  1  0.325100  0.784400  0.435600  1.0
  O  O2034  1  0.674900  0.215600  0.564400  1.0
  O  O2035  1  0.522800  0.114500  0.035200  1.0
  O  O2036  1  0.477200  0.885500  0.964800  1.0
  O  O2037  1  0.515200  0.057900  0.074100  1.0
  O  O2038  1  0.484800  0.942100  0.925900  1.0
  O  O2039  1  0.141300  0.489400  0.541700  1.0
  O  O2040  1  0.858700  0.510600  0.458300  1.0
  O  O2041  1  0.083200  0.546900  0.549000  1.0
  O  O2042  1  0.916800  0.453100  0.451000  1.0
  O  O2043  1  0.719700  0.014800  0.169500  1.0
  O  O2044  1  0.280300  0.985200  0.830500  1.0
  O  O2045  1  0.143200  0.007800  0.958200  1.0
  O  O2046  1  0.856800  0.992200  0.041800  1.0
  O  O2047  1  0.088100  0.949900  0.949900  1.0
  O  O2048  1  0.911900  0.050100  0.050100  1.0
  O  O2049  1  0.949100  0.643700  0.401500  1.0
  O  O2050  1  0.050900  0.356300  0.598500  1.0
  O  O2051  1  0.956900  0.440000  0.130400  1.0
  O  O2052  1  0.043100  0.560000  0.869600  1.0
  O  O2053  1  0.316000  0.631100  0.250200  0.5
  O  O2054  1  0.684000  0.368900  0.749800  0.5
  O  O2055  1  0.309100  0.696200  0.221800  0.5
  O  O2056  1  0.690900  0.303800  0.778200  0.5
  O  O2057  1  0.258400  0.634000  0.171200  0.5
  O  O2058  1  0.741600  0.366000  0.828800  0.5
  O  O2059  1  0.312200  0.678200  0.150800  0.5
  O  O2060  1  0.687800  0.321800  0.849200  0.5
  F  F2061  1  0.644800  0.858200  0.242020  1.0
  F  F2062  1  0.355200  0.141800  0.757980  1.0
  F  F2063  1  0.628300  0.799000  0.281000  1.0
  F  F2064  1  0.371700  0.201000  0.719000  1.0
  F  F2065  1  0.614000  0.879600  0.288600  1.0
  F  F2066  1  0.386000  0.120400  0.711400  1.0
  F  F2067  1  0.694900  0.848700  0.284500  1.0
  F  F2068  1  0.305100  0.151300  0.715500  1.0
  F  F2069  1  0.950600  0.853300  0.095800  1.0
  F  F2070  1  0.049400  0.146700  0.904200  1.0
  F  F2071  1  0.027600  0.885000  0.101800  1.0
  F  F2072  1  0.972400  0.115000  0.898200  1.0
  F  F2073  1  0.956600  0.936000  0.097900  1.0
  F  F2074  1  0.043400  0.064000  0.902100  1.0
  F  F2075  1  0.969200  0.883300  0.141100  1.0
  F  F2076  1  0.030800  0.116700  0.858900  1.0
  F  F2077  1  0.122400  0.685200  0.338200  1.0
  F  F2078  1  0.877600  0.314800  0.661800  1.0
  F  F2079  1  0.203000  0.677400  0.319600  1.0
  F  F2080  1  0.797000  0.322600  0.680400  1.0
  F  F2081  1  0.137000  0.687700  0.286300  1.0
  F  F2082  1  0.863000  0.312300  0.713700  1.0
  F  F2083  1  0.159000  0.751600  0.312400  1.0
  F  F2084  1  0.841000  0.248400  0.687600  1.0
  F  F2085  1  0.912700  0.743000  0.454600  1.0
  F  F2086  1  0.087300  0.257000  0.545400  1.0
  F  F2087  1  0.869800  0.808300  0.473700  1.0
  F  F2088  1  0.130200  0.191700  0.526300  1.0
  F  F2089  1  0.852200  0.730200  0.492700  1.0
  F  F2090  1  0.147800  0.269800  0.507300  1.0
  F  F2091  1  0.927700  0.761400  0.503600  1.0
  F  F2092  1  0.072300  0.238600  0.496400  1.0
  F  F2093  1  0.624800  0.630900  0.202500  1.0
  F  F2094  1  0.375200  0.369100  0.797500  1.0
  F  F2095  1  0.654000  0.639300  0.250500  1.0
  F  F2096  1  0.346000  0.360700  0.749500  1.0
  F  F2097  1  0.638000  0.706900  0.216600  1.0
  F  F2098  1  0.362000  0.293100  0.783400  1.0
  F  F2099  1  0.705700  0.654100  0.208200  1.0
  F  F2100  1  0.294300  0.345900  0.791800  1.0
  F  F2101  1  0.421900  0.504300  0.459200  1.0
  F  F2102  1  0.578100  0.495700  0.540800  1.0
  F  F2103  1  0.389500  0.432900  0.447300  1.0
  F  F2104  1  0.610500  0.567100  0.552700  1.0
  F  F2105  1  0.430200  0.435200  0.493200  1.0
  F  F2106  1  0.569800  0.564800  0.506800  1.0
  F  F2107  1  0.352600  0.473200  0.485600  1.0
  F  F2108  1  0.647400  0.526800  0.514400  1.0
  F  F2109  1  0.938500  0.176400  0.146700  1.0
  F  F2110  1  0.061500  0.823600  0.853300  1.0
  F  F2111  1  0.896400  0.112900  0.171500  1.0
  F  F2112  1  0.103600  0.887100  0.828500  1.0
  F  F2113  1  0.955300  0.098600  0.133700  1.0
  F  F2114  1  0.044700  0.901400  0.866300  1.0
  F  F2115  1  0.980900  0.120100  0.179900  1.0
  F  F2116  1  0.019100  0.879900  0.820100  1.0
  F  F2117  1  0.169000  0.742500  0.187400  1.0
  F  F2118  1  0.831000  0.257500  0.812600  1.0
  F  F2119  1  0.203500  0.818300  0.178000  1.0
  F  F2120  1  0.796500  0.181700  0.822000  1.0
  F  F2121  1  0.126500  0.804100  0.158300  1.0
  F  F2122  1  0.873500  0.195900  0.841700  1.0
  F  F2123  1  0.134500  0.807600  0.210200  1.0
  F  F2124  1  0.865500  0.192400  0.789800  1.0
  F  F2125  1  0.458300  0.557700  0.164600  1.0
  F  F2126  1  0.541700  0.442300  0.835400  1.0
  F  F2127  1  0.479200  0.613500  0.123800  1.0
  F  F2128  1  0.520800  0.386500  0.876200  1.0
  F  F2129  1  0.517400  0.615700  0.170000  1.0
  F  F2130  1  0.482600  0.384300  0.830000  1.0
  F  F2131  1  0.535200  0.552000  0.141100  1.0
  F  F2132  1  0.464800  0.448000  0.858900  1.0
  F  F2133  1  0.739600  0.481300  0.326200  1.0
  F  F2134  1  0.260400  0.518700  0.673800  1.0
  F  F2135  1  0.742800  0.474500  0.379100  1.0
  F  F2136  1  0.257200  0.525500  0.620900  1.0
  F  F2137  1  0.811800  0.451300  0.350900  1.0
  F  F2138  1  0.188200  0.548700  0.649100  1.0
  F  F2139  1  0.741600  0.406000  0.353800  1.0
  F  F2140  1  0.258400  0.594000  0.646200  1.0
  F  F2141  1  0.926900  0.759400  0.042930  1.0
  F  F2142  1  0.073100  0.240600  0.957070  1.0
  F  F2143  1  0.895000  0.693900  0.021900  1.0
  F  F2144  1  0.105000  0.306100  0.978100  1.0
  F  F2145  1  0.867100  0.772400  0.005500  1.0
  F  F2146  1  0.132900  0.227600  0.994500  1.0
  F  F2147  1  0.947300  0.745600  0.993200  1.0
  F  F2148  1  0.052700  0.254400  0.006800  1.0
  F  F2149  1  0.419900  0.994100  0.043600  1.0
  F  F2150  1  0.580100  0.005900  0.956400  1.0
  F  F2151  1  0.365200  0.060300  0.047900  1.0
  F  F2152  1  0.634800  0.939700  0.952100  1.0
  F  F2153  1  0.356100  0.010900  0.009300  1.0
  F  F2154  1  0.643900  0.989100  0.990700  1.0
  F  F2155  1  0.422800  0.060800  0.007900  1.0
  F  F2156  1  0.577200  0.939200  0.992100  1.0
  F  F2157  1  0.921100  0.381100  0.331000  1.0
  F  F2158  1  0.078900  0.618900  0.669000  1.0
  F  F2159  1  0.969300  0.400400  0.371000  1.0
  F  F2160  1  0.030700  0.599600  0.629000  1.0
  F  F2161  1  0.971400  0.322500  0.357200  1.0
  F  F2162  1  0.028600  0.677500  0.642800  1.0
  F  F2163  1  0.006900  0.383800  0.325600  1.0
  F  F2164  1  0.993100  0.616200  0.674400  1.0
  F  F2165  1  0.441600  0.172900  0.146400  0.5
  F  F2166  1  0.558400  0.827100  0.853600  0.5
  F  F2167  1  0.488900  0.222200  0.172600  0.5
  F  F2168  1  0.511100  0.777800  0.827400  0.5
  F  F2169  1  0.484800  0.234000  0.120000  0.5
  F  F2170  1  0.515200  0.766000  0.880000  0.5
  F  F2171  1  0.527900  0.167100  0.143100  0.5
  F  F2172  1  0.472100  0.832900  0.856900  0.5
  F  F2173  1  0.507800  0.736800  0.053200  0.5
  F  F2174  1  0.492200  0.263200  0.946800  0.5
  F  F2175  1  0.502900  0.690600  0.012500  0.5
  F  F2176  1  0.497100  0.309400  0.987500  0.5
  F  F2177  1  0.545100  0.761500  0.006600  0.5
  F  F2178  1  0.454900  0.238500  0.993400  0.5
  F  F2179  1  0.459800  0.764400  0.011700  0.5
  F  F2180  1  0.540200  0.235600  0.988300  0.5
  F  F2181  1  0.491200  0.767100  0.441200  0.5
  F  F2182  1  0.508800  0.232900  0.558800  0.5
  F  F2183  1  0.428700  0.754400  0.477500  0.5
  F  F2184  1  0.571300  0.245600  0.522500  0.5
  F  F2185  1  0.510900  0.739400  0.491100  0.5
  F  F2186  1  0.489100  0.260600  0.508900  0.5
  F  F2187  1  0.480400  0.818200  0.479100  0.5
  F  F2188  1  0.519600  0.181800  0.520900  0.5
  F  F2189  1  0.353600  0.127100  0.291000  0.5
  F  F2190  1  0.646400  0.872900  0.709000  0.5
  F  F2191  1  0.363800  0.179600  0.327700  0.5
  F  F2192  1  0.636200  0.820400  0.672300  0.5
  F  F2193  1  0.287000  0.146600  0.322600  0.5
  F  F2194  1  0.713000  0.853400  0.677400  0.5
  F  F2195  1  0.315500  0.203700  0.285500  0.5
  F  F2196  1  0.684500  0.796300  0.714500  0.5
  F  F2197  1  0.505400  0.887900  0.323700  0.5
  F  F2198  1  0.494600  0.112100  0.676300  0.5
  F  F2199  1  0.467800  0.882000  0.371900  0.5
  F  F2200  1  0.532200  0.118000  0.628100  0.5
  F  F2201  1  0.419800  0.893000  0.329100  0.5
  F  F2202  1  0.580200  0.107000  0.670900  0.5
  F  F2203  1  0.467000  0.955300  0.342600  0.5
  F  F2204  1  0.533000  0.044700  0.657400  0.5
  F  F2205  1  0.246600  0.889500  0.393800  0.5
  F  F2206  1  0.753400  0.110500  0.606200  0.5
  F  F2207  1  0.248700  0.937400  0.433900  0.5
  F  F2208  1  0.751300  0.062600  0.566100  0.5
  F  F2209  1  0.247200  0.972500  0.384300  0.5
  F  F2210  1  0.752800  0.027500  0.615700  0.5
  F  F2211  1  0.317900  0.929300  0.402200  0.5
  F  F2212  1  0.682100  0.070700  0.597800  0.5
