# generated using pymatgen
data_NaCo4B8P8H264Ru4C296N80(OF5)16
_symmetry_space_group_name_H-M   'P 1'
_cell_length_a   21.72100000
_cell_length_b   31.35530000
_cell_length_c   31.35530000
_cell_angle_alpha   90.00000000
_cell_angle_beta   90.00000000
_cell_angle_gamma   90.00000000
_symmetry_Int_Tables_number   1
_chemical_formula_structural   NaCo4B8P8H264Ru4C296N80(OF5)16
_chemical_formula_sum   'Na2 Co8 B16 P16 H528 Ru8 C592 N160 O32 F160'
_cell_volume   21355.10623815
_cell_formula_units_Z   2
loop_
 _symmetry_equiv_pos_site_id
 _symmetry_equiv_pos_as_xyz
  1  'x, y, z'
loop_
 _atom_site_type_symbol
 _atom_site_label
 _atom_site_symmetry_multiplicity
 _atom_site_fract_x
 _atom_site_fract_y
 _atom_site_fract_z
 _atom_site_occupancy
  Na  Na1  1  1.000000  0.500000  0.500000  1
  Na  Na2  1  0.000000  0.000000  0.000000  1
  Co  Co3  1  0.270570  0.730650  0.485510  1.0
  Co  Co4  1  0.729430  0.485510  0.269350  1.0
  Co  Co5  1  0.270570  0.269350  0.514490  1.0
  Co  Co6  1  0.729430  0.514490  0.730650  1.0
  Co  Co7  1  0.729430  0.230650  0.014490  1.0
  Co  Co8  1  0.270570  0.014490  0.769350  1.0
  Co  Co9  1  0.729430  0.769350  0.985510  1.0
  Co  Co10  1  0.270570  0.985510  0.230650  1.0
  B  B11  1  0.984600  0.675400  0.824600  1
  B  B12  1  0.015400  0.824600  0.324600  1
  B  B13  1  0.984600  0.324600  0.175400  1
  B  B14  1  0.015400  0.175400  0.675400  1
  B  B15  1  0.328500  0.270200  0.770200  1
  B  B16  1  0.671500  0.770200  0.729800  1
  B  B17  1  0.328500  0.729800  0.229800  1
  B  B18  1  0.671500  0.229800  0.270200  1
  B  B19  1  0.086000  0.573300  0.537700  1.0
  B  B20  1  0.914000  0.537700  0.426700  1.0
  B  B21  1  0.086000  0.426700  0.462300  1.0
  B  B22  1  0.914000  0.462300  0.573300  1.0
  B  B23  1  0.914000  0.073300  0.962300  1.0
  B  B24  1  0.086000  0.962300  0.926700  1.0
  B  B25  1  0.914000  0.926700  0.037700  1.0
  B  B26  1  0.086000  0.037700  0.073300  1.0
  P  P27  1  0.373000  0.500000  0.500000  1
  P  P28  1  0.627000  0.500000  0.500000  1
  P  P29  1  0.627000  0.000000  0.000000  1
  P  P30  1  0.373000  0.000000  0.000000  1
  P  P31  1  0.415700  0.760500  0.739500  1
  P  P32  1  0.584300  0.739500  0.239500  1
  P  P33  1  0.415700  0.239500  0.260500  1
  P  P34  1  0.584300  0.260500  0.760500  1
  P  P35  1  0.600500  0.904900  0.595100  1
  P  P36  1  0.399500  0.595100  0.095100  1
  P  P37  1  0.600500  0.095100  0.404900  1
  P  P38  1  0.399500  0.404900  0.904900  1
  P  P39  1  0.540800  0.889200  0.389200  1
  P  P40  1  0.459200  0.389200  0.110800  1
  P  P41  1  0.540800  0.110800  0.610800  1
  P  P42  1  0.459200  0.610800  0.889200  1
  H  H43  1  0.534700  0.010500  0.654000  1
  H  H44  1  0.465300  0.654000  0.989500  1
  H  H45  1  0.534700  0.989500  0.346000  1
  H  H46  1  0.465300  0.346000  0.010500  1
  H  H47  1  0.465300  0.510500  0.846000  1
  H  H48  1  0.534700  0.846000  0.489500  1
  H  H49  1  0.465300  0.489500  0.154000  1
  H  H50  1  0.534700  0.154000  0.510500  1
  H  H51  1  0.485700  0.976600  0.671400  1
  H  H52  1  0.514300  0.671400  0.023400  1
  H  H53  1  0.485700  0.023400  0.328600  1
  H  H54  1  0.514300  0.328600  0.976600  1
  H  H55  1  0.514300  0.476600  0.828600  1
  H  H56  1  0.485700  0.828600  0.523400  1
  H  H57  1  0.514300  0.523400  0.171400  1
  H  H58  1  0.485700  0.171400  0.476600  1
  H  H59  1  0.557800  0.966900  0.675200  1
  H  H60  1  0.442200  0.675200  0.033100  1
  H  H61  1  0.557800  0.033100  0.324800  1
  H  H62  1  0.442200  0.324800  0.966900  1
  H  H63  1  0.442200  0.466900  0.824800  1
  H  H64  1  0.557800  0.824800  0.533100  1
  H  H65  1  0.442200  0.533100  0.175200  1
  H  H66  1  0.557800  0.175200  0.466900  1
  H  H67  1  0.449600  0.600800  0.769000  1
  H  H68  1  0.550400  0.769000  0.399200  1
  H  H69  1  0.449600  0.399200  0.231000  1
  H  H70  1  0.550400  0.231000  0.600800  1
  H  H71  1  0.550400  0.100800  0.731000  1
  H  H72  1  0.449600  0.731000  0.899200  1
  H  H73  1  0.550400  0.899200  0.269000  1
  H  H74  1  0.449600  0.269000  0.100800  1
  H  H75  1  0.406900  0.639800  0.783200  1
  H  H76  1  0.593100  0.783200  0.360200  1
  H  H77  1  0.406900  0.360200  0.216800  1
  H  H78  1  0.593100  0.216800  0.639800  1
  H  H79  1  0.593100  0.139800  0.716800  1
  H  H80  1  0.406900  0.716800  0.860200  1
  H  H81  1  0.593100  0.860200  0.283200  1
  H  H82  1  0.406900  0.283200  0.139800  1
  H  H83  1  0.464500  0.647900  0.752500  1
  H  H84  1  0.535500  0.752500  0.352100  1
  H  H85  1  0.464500  0.352100  0.247500  1
  H  H86  1  0.535500  0.247500  0.647900  1
  H  H87  1  0.535500  0.147900  0.747500  1
  H  H88  1  0.464500  0.747500  0.852100  1
  H  H89  1  0.535500  0.852100  0.252500  1
  H  H90  1  0.464500  0.252500  0.147900  1
  H  H91  1  0.310600  0.468900  0.854600  1.0
  H  H92  1  0.689400  0.854600  0.531100  1.0
  H  H93  1  0.310600  0.531100  0.145400  1.0
  H  H94  1  0.689400  0.145400  0.468900  1.0
  H  H95  1  0.689400  0.968900  0.645400  1.0
  H  H96  1  0.310600  0.645400  0.031100  1.0
  H  H97  1  0.689400  0.031100  0.354600  1.0
  H  H98  1  0.310600  0.354600  0.968900  1.0
  H  H99  1  0.329600  0.538700  0.877500  1.0
  H  H100  1  0.670400  0.877500  0.461300  1.0
  H  H101  1  0.329600  0.461300  0.122500  1.0
  H  H102  1  0.670400  0.122500  0.538700  1.0
  H  H103  1  0.670400  0.038700  0.622500  1.0
  H  H104  1  0.329600  0.622500  0.961300  1.0
  H  H105  1  0.670400  0.961300  0.377500  1.0
  H  H106  1  0.329600  0.377500  0.038700  1.0
  H  H107  1  0.286800  0.596300  0.840500  1.0
  H  H108  1  0.713200  0.840500  0.403700  1.0
  H  H109  1  0.286800  0.403700  0.159500  1.0
  H  H110  1  0.713200  0.159500  0.596300  1.0
  H  H111  1  0.713200  0.096300  0.659500  1.0
  H  H112  1  0.286800  0.659500  0.903700  1.0
  H  H113  1  0.713200  0.903700  0.340500  1.0
  H  H114  1  0.286800  0.340500  0.096300  1.0
  H  H115  1  0.224900  0.584200  0.780700  1.0
  H  H116  1  0.775100  0.780700  0.415800  1.0
  H  H117  1  0.224900  0.415800  0.219300  1.0
  H  H118  1  0.775100  0.219300  0.584200  1.0
  H  H119  1  0.775100  0.084200  0.719300  1.0
  H  H120  1  0.224900  0.719300  0.915800  1.0
  H  H121  1  0.775100  0.915800  0.280700  1.0
  H  H122  1  0.224900  0.280700  0.084200  1.0
  H  H123  1  0.285400  0.396200  0.823500  1.0
  H  H124  1  0.714600  0.823500  0.603800  1.0
  H  H125  1  0.285400  0.603800  0.176500  1.0
  H  H126  1  0.714600  0.176500  0.396200  1.0
  H  H127  1  0.714600  0.896200  0.676500  1.0
  H  H128  1  0.285400  0.676500  0.103800  1.0
  H  H129  1  0.714600  0.103800  0.323500  1.0
  H  H130  1  0.285400  0.323500  0.896200  1.0
  H  H131  1  0.239000  0.346300  0.768600  1.0
  H  H132  1  0.761000  0.768600  0.653700  1.0
  H  H133  1  0.239000  0.653700  0.231400  1.0
  H  H134  1  0.761000  0.231400  0.346300  1.0
  H  H135  1  0.761000  0.846300  0.731400  1.0
  H  H136  1  0.239000  0.731400  0.153700  1.0
  H  H137  1  0.761000  0.153700  0.268600  1.0
  H  H138  1  0.239000  0.268600  0.846300  1.0
  H  H139  1  0.142900  0.371000  0.623300  1.0
  H  H140  1  0.857100  0.623300  0.629000  1.0
  H  H141  1  0.142900  0.629000  0.376700  1.0
  H  H142  1  0.857100  0.376700  0.371000  1.0
  H  H143  1  0.857100  0.871000  0.876700  1.0
  H  H144  1  0.142900  0.876700  0.129000  1.0
  H  H145  1  0.857100  0.129000  0.123300  1.0
  H  H146  1  0.142900  0.123300  0.871000  1.0
  H  H147  1  0.304500  0.390600  0.561800  1.0
  H  H148  1  0.695500  0.561800  0.609400  1.0
  H  H149  1  0.304500  0.609400  0.438200  1.0
  H  H150  1  0.695500  0.438200  0.390600  1.0
  H  H151  1  0.695500  0.890600  0.938200  1.0
  H  H152  1  0.304500  0.938200  0.109400  1.0
  H  H153  1  0.695500  0.109400  0.061800  1.0
  H  H154  1  0.304500  0.061800  0.890600  1.0
  H  H155  1  0.351900  0.407200  0.626700  1.0
  H  H156  1  0.648100  0.626700  0.592800  1.0
  H  H157  1  0.351900  0.592800  0.373300  1.0
  H  H158  1  0.648100  0.373300  0.407200  1.0
  H  H159  1  0.648100  0.907200  0.873300  1.0
  H  H160  1  0.351900  0.873300  0.092800  1.0
  H  H161  1  0.648100  0.092800  0.126700  1.0
  H  H162  1  0.351900  0.126700  0.907200  1.0
  H  H163  1  0.294700  0.405700  0.690000  1.0
  H  H164  1  0.705300  0.690000  0.594300  1.0
  H  H165  1  0.294700  0.594300  0.310000  1.0
  H  H166  1  0.705300  0.310000  0.405700  1.0
  H  H167  1  0.705300  0.905700  0.810000  1.0
  H  H168  1  0.294700  0.810000  0.094300  1.0
  H  H169  1  0.705300  0.094300  0.190000  1.0
  H  H170  1  0.294700  0.190000  0.905700  1.0
  H  H171  1  0.136000  0.406000  0.697700  1.0
  H  H172  1  0.864000  0.697700  0.594000  1.0
  H  H173  1  0.136000  0.594000  0.302300  1.0
  H  H174  1  0.864000  0.302300  0.406000  1.0
  H  H175  1  0.864000  0.906000  0.802300  1.0
  H  H176  1  0.136000  0.802300  0.094000  1.0
  H  H177  1  0.864000  0.094000  0.197700  1.0
  H  H178  1  0.136000  0.197700  0.906000  1.0
  H  H179  1  0.157500  0.358100  0.707500  1.0
  H  H180  1  0.842500  0.707500  0.641900  1.0
  H  H181  1  0.157500  0.641900  0.292500  1.0
  H  H182  1  0.842500  0.292500  0.358100  1.0
  H  H183  1  0.842500  0.858100  0.792500  1.0
  H  H184  1  0.157500  0.792500  0.141900  1.0
  H  H185  1  0.842500  0.141900  0.207500  1.0
  H  H186  1  0.157500  0.207500  0.858100  1.0
  H  H187  1  0.361400  0.351500  0.391900  1.0
  H  H188  1  0.638600  0.391900  0.648500  1.0
  H  H189  1  0.361400  0.648500  0.608100  1.0
  H  H190  1  0.638600  0.608100  0.351500  1.0
  H  H191  1  0.638600  0.851500  0.108100  1.0
  H  H192  1  0.361400  0.108100  0.148500  1.0
  H  H193  1  0.638600  0.148500  0.891900  1.0
  H  H194  1  0.361400  0.891900  0.851500  1.0
  H  H195  1  0.417700  0.296500  0.360100  1.0
  H  H196  1  0.582300  0.360100  0.703500  1.0
  H  H197  1  0.417700  0.703500  0.639900  1.0
  H  H198  1  0.582300  0.639900  0.296500  1.0
  H  H199  1  0.582300  0.796500  0.139900  1.0
  H  H200  1  0.417700  0.139900  0.203500  1.0
  H  H201  1  0.582300  0.203500  0.860100  1.0
  H  H202  1  0.417700  0.860100  0.796500  1.0
  H  H203  1  0.417500  0.228300  0.390400  1.0
  H  H204  1  0.582500  0.390400  0.771700  1.0
  H  H205  1  0.417500  0.771700  0.609600  1.0
  H  H206  1  0.582500  0.609600  0.228300  1.0
  H  H207  1  0.582500  0.728300  0.109600  1.0
  H  H208  1  0.417500  0.109600  0.271700  1.0
  H  H209  1  0.582500  0.271700  0.890400  1.0
  H  H210  1  0.417500  0.890400  0.728300  1.0
  H  H211  1  0.360900  0.215100  0.452500  1.0
  H  H212  1  0.639100  0.452500  0.784900  1.0
  H  H213  1  0.360900  0.784900  0.547500  1.0
  H  H214  1  0.639100  0.547500  0.215100  1.0
  H  H215  1  0.639100  0.715100  0.047500  1.0
  H  H216  1  0.360900  0.047500  0.284900  1.0
  H  H217  1  0.639100  0.284900  0.952500  1.0
  H  H218  1  0.360900  0.952500  0.715100  1.0
  H  H219  1  0.303900  0.407000  0.432500  1.0
  H  H220  1  0.696100  0.432500  0.593000  1.0
  H  H221  1  0.303900  0.593000  0.567500  1.0
  H  H222  1  0.696100  0.567500  0.407000  1.0
  H  H223  1  0.696100  0.907000  0.067500  1.0
  H  H224  1  0.303900  0.067500  0.093000  1.0
  H  H225  1  0.696100  0.093000  0.932500  1.0
  H  H226  1  0.303900  0.932500  0.907000  1.0
  H  H227  1  0.225700  0.433200  0.486500  1.0
  H  H228  1  0.774300  0.486500  0.566800  1.0
  H  H229  1  0.225700  0.566800  0.513500  1.0
  H  H230  1  0.774300  0.513500  0.433200  1.0
  H  H231  1  0.774300  0.933200  0.013500  1.0
  H  H232  1  0.225700  0.013500  0.066800  1.0
  H  H233  1  0.774300  0.066800  0.986500  1.0
  H  H234  1  0.225700  0.986500  0.933200  1.0
  H  H235  1  0.165600  0.339100  0.547800  1.0
  H  H236  1  0.834400  0.547800  0.660900  1.0
  H  H237  1  0.165600  0.660900  0.452200  1.0
  H  H238  1  0.834400  0.452200  0.339100  1.0
  H  H239  1  0.834400  0.839100  0.952200  1.0
  H  H240  1  0.165600  0.952200  0.160900  1.0
  H  H241  1  0.834400  0.160900  0.047800  1.0
  H  H242  1  0.165600  0.047800  0.839100  1.0
  H  H243  1  0.149100  0.388500  0.541300  1.0
  H  H244  1  0.850900  0.541300  0.611500  1.0
  H  H245  1  0.149100  0.611500  0.458700  1.0
  H  H246  1  0.850900  0.458700  0.388500  1.0
  H  H247  1  0.850900  0.888500  0.958700  1.0
  H  H248  1  0.149100  0.958700  0.111500  1.0
  H  H249  1  0.850900  0.111500  0.041300  1.0
  H  H250  1  0.149100  0.041300  0.888500  1.0
  H  H251  1  0.014100  0.572600  0.813000  1.0
  H  H252  1  0.985900  0.813000  0.427400  1.0
  H  H253  1  0.014100  0.427400  0.187000  1.0
  H  H254  1  0.985900  0.187000  0.572600  1.0
  H  H255  1  0.985900  0.072600  0.687000  1.0
  H  H256  1  0.014100  0.687000  0.927400  1.0
  H  H257  1  0.985900  0.927400  0.313000  1.0
  H  H258  1  0.014100  0.313000  0.072600  1.0
  H  H259  1  0.980900  0.513300  0.852100  1.0
  H  H260  1  0.019100  0.852100  0.486700  1.0
  H  H261  1  0.980900  0.486700  0.147900  1.0
  H  H262  1  0.019100  0.147900  0.513300  1.0
  H  H263  1  0.019100  0.013300  0.647900  1.0
  H  H264  1  0.980900  0.647900  0.986700  1.0
  H  H265  1  0.019100  0.986700  0.352100  1.0
  H  H266  1  0.980900  0.352100  0.013300  1.0
  H  H267  1  0.024800  0.446300  0.839700  1.0
  H  H268  1  0.975200  0.839700  0.553700  1.0
  H  H269  1  0.024800  0.553700  0.160300  1.0
  H  H270  1  0.975200  0.160300  0.446300  1.0
  H  H271  1  0.975200  0.946300  0.660300  1.0
  H  H272  1  0.024800  0.660300  0.053700  1.0
  H  H273  1  0.975200  0.053700  0.339700  1.0
  H  H274  1  0.024800  0.339700  0.946300  1.0
  H  H275  1  0.101900  0.438500  0.788200  1.0
  H  H276  1  0.898100  0.788200  0.561500  1.0
  H  H277  1  0.101900  0.561500  0.211800  1.0
  H  H278  1  0.898100  0.211800  0.438500  1.0
  H  H279  1  0.898100  0.938500  0.711800  1.0
  H  H280  1  0.101900  0.711800  0.061500  1.0
  H  H281  1  0.898100  0.061500  0.288200  1.0
  H  H282  1  0.101900  0.288200  0.938500  1.0
  H  H283  1  0.045800  0.630400  0.759800  1.0
  H  H284  1  0.954200  0.759800  0.369600  1.0
  H  H285  1  0.045800  0.369600  0.240200  1.0
  H  H286  1  0.954200  0.240200  0.630400  1.0
  H  H287  1  0.954200  0.130400  0.740200  1.0
  H  H288  1  0.045800  0.740200  0.869600  1.0
  H  H289  1  0.954200  0.869600  0.259800  1.0
  H  H290  1  0.045800  0.259800  0.130400  1.0
  H  H291  1  0.111300  0.660700  0.700000  1.0
  H  H292  1  0.888700  0.700000  0.339300  1.0
  H  H293  1  0.111300  0.339300  0.300000  1.0
  H  H294  1  0.888700  0.300000  0.660700  1.0
  H  H295  1  0.888700  0.160700  0.800000  1.0
  H  H296  1  0.111300  0.800000  0.839300  1.0
  H  H297  1  0.888700  0.839300  0.200000  1.0
  H  H298  1  0.111300  0.200000  0.160700  1.0
  H  H299  1  0.148200  0.639900  0.599800  1.0
  H  H300  1  0.851800  0.599800  0.360100  1.0
  H  H301  1  0.148200  0.360100  0.400200  1.0
  H  H302  1  0.851800  0.400200  0.639900  1.0
  H  H303  1  0.851800  0.139900  0.900200  1.0
  H  H304  1  0.148200  0.900200  0.860100  1.0
  H  H305  1  0.851800  0.860100  0.099800  1.0
  H  H306  1  0.148200  0.099800  0.139900  1.0
  H  H307  1  0.219800  0.758700  0.610900  1.0
  H  H308  1  0.780200  0.610900  0.241300  1.0
  H  H309  1  0.219800  0.241300  0.389100  1.0
  H  H310  1  0.780200  0.389100  0.758700  1.0
  H  H311  1  0.780200  0.258700  0.889100  1.0
  H  H312  1  0.219800  0.889100  0.741300  1.0
  H  H313  1  0.780200  0.741300  0.110900  1.0
  H  H314  1  0.219800  0.110900  0.258700  1.0
  H  H315  1  0.276500  0.736800  0.670400  1.0
  H  H316  1  0.723500  0.670400  0.263200  1.0
  H  H317  1  0.276500  0.263200  0.329600  1.0
  H  H318  1  0.723500  0.329600  0.736800  1.0
  H  H319  1  0.723500  0.236800  0.829600  1.0
  H  H320  1  0.276500  0.829600  0.763200  1.0
  H  H321  1  0.723500  0.763200  0.170400  1.0
  H  H322  1  0.276500  0.170400  0.236800  1.0
  H  H323  1  0.269000  0.666400  0.694700  1.0
  H  H324  1  0.731000  0.694700  0.333600  1.0
  H  H325  1  0.269000  0.333600  0.305300  1.0
  H  H326  1  0.731000  0.305300  0.666400  1.0
  H  H327  1  0.731000  0.166400  0.805300  1.0
  H  H328  1  0.269000  0.805300  0.833600  1.0
  H  H329  1  0.731000  0.833600  0.194700  1.0
  H  H330  1  0.269000  0.194700  0.166400  1.0
  H  H331  1  0.190100  0.581900  0.643200  1.0
  H  H332  1  0.809900  0.643200  0.418100  1.0
  H  H333  1  0.190100  0.418100  0.356800  1.0
  H  H334  1  0.809900  0.356800  0.581900  1.0
  H  H335  1  0.809900  0.081900  0.856800  1.0
  H  H336  1  0.190100  0.856800  0.918100  1.0
  H  H337  1  0.809900  0.918100  0.143200  1.0
  H  H338  1  0.190100  0.143200  0.081900  1.0
  H  H339  1  0.241100  0.592000  0.678900  1.0
  H  H340  1  0.758900  0.678900  0.408000  1.0
  H  H341  1  0.241100  0.408000  0.321100  1.0
  H  H342  1  0.758900  0.321100  0.592000  1.0
  H  H343  1  0.758900  0.092000  0.821100  1.0
  H  H344  1  0.241100  0.821100  0.908000  1.0
  H  H345  1  0.758900  0.908000  0.178900  1.0
  H  H346  1  0.241100  0.178900  0.092000  1.0
  H  H347  1  0.243900  0.889300  0.508600  1.0
  H  H348  1  0.756100  0.508600  0.110700  1.0
  H  H349  1  0.243900  0.110700  0.491400  1.0
  H  H350  1  0.756100  0.491400  0.889300  1.0
  H  H351  1  0.756100  0.389300  0.991400  1.0
  H  H352  1  0.243900  0.991400  0.610700  1.0
  H  H353  1  0.756100  0.610700  0.008600  1.0
  H  H354  1  0.243900  0.008600  0.389300  1.0
  H  H355  1  0.330700  0.913000  0.471200  1.0
  H  H356  1  0.669300  0.471200  0.087000  1.0
  H  H357  1  0.330700  0.087000  0.528800  1.0
  H  H358  1  0.669300  0.528800  0.913000  1.0
  H  H359  1  0.669300  0.413000  0.028800  1.0
  H  H360  1  0.330700  0.028800  0.587000  1.0
  H  H361  1  0.669300  0.587000  0.971200  1.0
  H  H362  1  0.330700  0.971200  0.413000  1.0
  H  H363  1  0.394400  0.863700  0.436600  1.0
  H  H364  1  0.605600  0.436600  0.136300  1.0
  H  H365  1  0.394400  0.136300  0.563400  1.0
  H  H366  1  0.605600  0.563400  0.863700  1.0
  H  H367  1  0.605600  0.363700  0.063400  1.0
  H  H368  1  0.394400  0.063400  0.636300  1.0
  H  H369  1  0.605600  0.636300  0.936600  1.0
  H  H370  1  0.394400  0.936600  0.363700  1.0
  H  H371  1  0.371300  0.790900  0.439300  1.0
  H  H372  1  0.628700  0.439300  0.209100  1.0
  H  H373  1  0.371300  0.209100  0.560700  1.0
  H  H374  1  0.628700  0.560700  0.790900  1.0
  H  H375  1  0.628700  0.290900  0.060700  1.0
  H  H376  1  0.371300  0.060700  0.709100  1.0
  H  H377  1  0.628700  0.709100  0.939300  1.0
  H  H378  1  0.371300  0.939300  0.290900  1.0
  H  H379  1  0.149500  0.856200  0.544300  1.0
  H  H380  1  0.850500  0.544300  0.143800  1.0
  H  H381  1  0.149500  0.143800  0.455700  1.0
  H  H382  1  0.850500  0.455700  0.856200  1.0
  H  H383  1  0.850500  0.356200  0.955700  1.0
  H  H384  1  0.149500  0.955700  0.643800  1.0
  H  H385  1  0.850500  0.643800  0.044300  1.0
  H  H386  1  0.149500  0.044300  0.356200  1.0
  H  H387  1  0.087400  0.795400  0.575900  1.0
  H  H388  1  0.912600  0.575900  0.204600  1.0
  H  H389  1  0.087400  0.204600  0.424100  1.0
  H  H390  1  0.912600  0.424100  0.795400  1.0
  H  H391  1  0.912600  0.295400  0.924100  1.0
  H  H392  1  0.087400  0.924100  0.704600  1.0
  H  H393  1  0.912600  0.704600  0.075900  1.0
  H  H394  1  0.087400  0.075900  0.295400  1.0
  H  H395  1  0.150200  0.692100  0.538900  1.0
  H  H396  1  0.849800  0.538900  0.307900  1.0
  H  H397  1  0.150200  0.307900  0.461100  1.0
  H  H398  1  0.849800  0.461100  0.692100  1.0
  H  H399  1  0.849800  0.192100  0.961100  1.0
  H  H400  1  0.150200  0.961100  0.807900  1.0
  H  H401  1  0.849800  0.807900  0.038900  1.0
  H  H402  1  0.150200  0.038900  0.192100  1.0
  H  H403  1  0.097300  0.710100  0.569400  1.0
  H  H404  1  0.902700  0.569400  0.289900  1.0
  H  H405  1  0.097300  0.289900  0.430600  1.0
  H  H406  1  0.902700  0.430600  0.710100  1.0
  H  H407  1  0.902700  0.210100  0.930600  1.0
  H  H408  1  0.097300  0.930600  0.789900  1.0
  H  H409  1  0.902700  0.789900  0.069400  1.0
  H  H410  1  0.097300  0.069400  0.210100  1.0
  H  H411  1  0.281100  0.501800  0.585600  1.0
  H  H412  1  0.718900  0.585600  0.498200  1.0
  H  H413  1  0.281100  0.498200  0.414400  1.0
  H  H414  1  0.718900  0.414400  0.501800  1.0
  H  H415  1  0.718900  0.001800  0.914400  1.0
  H  H416  1  0.281100  0.914400  0.998200  1.0
  H  H417  1  0.718900  0.998200  0.085600  1.0
  H  H418  1  0.281100  0.085600  0.001800  1.0
  H  H419  1  0.381100  0.518200  0.607800  1.0
  H  H420  1  0.618900  0.607800  0.481800  1.0
  H  H421  1  0.381100  0.481800  0.392200  1.0
  H  H422  1  0.618900  0.392200  0.518200  1.0
  H  H423  1  0.618900  0.018200  0.892200  1.0
  H  H424  1  0.381100  0.892200  0.981800  1.0
  H  H425  1  0.618900  0.981800  0.107800  1.0
  H  H426  1  0.381100  0.107800  0.018200  1.0
  H  H427  1  0.402300  0.527700  0.680300  1.0
  H  H428  1  0.597700  0.680300  0.472300  1.0
  H  H429  1  0.402300  0.472300  0.319700  1.0
  H  H430  1  0.597700  0.319700  0.527700  1.0
  H  H431  1  0.597700  0.027700  0.819700  1.0
  H  H432  1  0.402300  0.819700  0.972300  1.0
  H  H433  1  0.597700  0.972300  0.180300  1.0
  H  H434  1  0.402300  0.180300  0.027700  1.0
  H  H435  1  0.323400  0.520800  0.730700  1.0
  H  H436  1  0.676600  0.730700  0.479200  1.0
  H  H437  1  0.323400  0.479200  0.269300  1.0
  H  H438  1  0.676600  0.269300  0.520800  1.0
  H  H439  1  0.676600  0.020800  0.769300  1.0
  H  H440  1  0.323400  0.769300  0.979200  1.0
  H  H441  1  0.676600  0.979200  0.230700  1.0
  H  H442  1  0.323400  0.230700  0.020800  1.0
  H  H443  1  0.167000  0.480300  0.569800  1.0
  H  H444  1  0.833000  0.569800  0.519700  1.0
  H  H445  1  0.167000  0.519700  0.430200  1.0
  H  H446  1  0.833000  0.430200  0.480300  1.0
  H  H447  1  0.833000  0.980300  0.930200  1.0
  H  H448  1  0.167000  0.930200  0.019700  1.0
  H  H449  1  0.833000  0.019700  0.069800  1.0
  H  H450  1  0.167000  0.069800  0.980300  1.0
  H  H451  1  0.057500  0.461100  0.590200  1.0
  H  H452  1  0.942500  0.590200  0.538900  1.0
  H  H453  1  0.057500  0.538900  0.409800  1.0
  H  H454  1  0.942500  0.409800  0.461100  1.0
  H  H455  1  0.942500  0.961100  0.909800  1.0
  H  H456  1  0.057500  0.909800  0.038900  1.0
  H  H457  1  0.942500  0.038900  0.090200  1.0
  H  H458  1  0.057500  0.090200  0.961100  1.0
  H  H459  1  0.950900  0.501100  0.736000  1.0
  H  H460  1  0.049100  0.736000  0.498900  1.0
  H  H461  1  0.950900  0.498900  0.264000  1.0
  H  H462  1  0.049100  0.264000  0.501100  1.0
  H  H463  1  0.049100  0.001100  0.764000  1.0
  H  H464  1  0.950900  0.764000  0.998900  1.0
  H  H465  1  0.049100  0.998900  0.236000  1.0
  H  H466  1  0.950900  0.236000  0.001100  1.0
  H  H467  1  0.917300  0.621000  0.693900  1.0
  H  H468  1  0.082700  0.693900  0.379000  1.0
  H  H469  1  0.917300  0.379000  0.306100  1.0
  H  H470  1  0.082700  0.306100  0.621000  1.0
  H  H471  1  0.082700  0.121000  0.806100  1.0
  H  H472  1  0.917300  0.806100  0.879000  1.0
  H  H473  1  0.082700  0.879000  0.193900  1.0
  H  H474  1  0.917300  0.193900  0.121000  1.0
  H  H475  1  0.989400  0.611600  0.639300  1.0
  H  H476  1  0.010600  0.639300  0.388400  1.0
  H  H477  1  0.989400  0.388400  0.360700  1.0
  H  H478  1  0.010600  0.360700  0.611600  1.0
  H  H479  1  0.010600  0.111600  0.860700  1.0
  H  H480  1  0.989400  0.860700  0.888400  1.0
  H  H481  1  0.010600  0.888400  0.139300  1.0
  H  H482  1  0.989400  0.139300  0.111600  1.0
  H  H483  1  0.042300  0.546900  0.633000  1.0
  H  H484  1  0.957700  0.633000  0.453100  1.0
  H  H485  1  0.042300  0.453100  0.367000  1.0
  H  H486  1  0.957700  0.367000  0.546900  1.0
  H  H487  1  0.957700  0.046900  0.867000  1.0
  H  H488  1  0.042300  0.867000  0.953100  1.0
  H  H489  1  0.957700  0.953100  0.133000  1.0
  H  H490  1  0.042300  0.133000  0.046900  1.0
  H  H491  1  0.039700  0.462100  0.706400  1.0
  H  H492  1  0.960300  0.706400  0.537900  1.0
  H  H493  1  0.039700  0.537900  0.293600  1.0
  H  H494  1  0.960300  0.293600  0.462100  1.0
  H  H495  1  0.960300  0.962100  0.793600  1.0
  H  H496  1  0.039700  0.793600  0.037900  1.0
  H  H497  1  0.960300  0.037900  0.206400  1.0
  H  H498  1  0.039700  0.206400  0.962100  1.0
  H  H499  1  1.000000  0.455300  0.664000  1.0
  H  H500  1  0.000000  0.664000  0.544700  1.0
  H  H501  1  0.000000  0.544700  0.336000  1.0
  H  H502  1  1.000000  0.336000  0.455300  1.0
  H  H503  1  1.000000  0.955300  0.836000  1.0
  H  H504  1  1.000000  0.836000  0.044700  1.0
  H  H505  1  1.000000  0.044700  0.164000  1.0
  H  H506  1  1.000000  0.164000  0.955300  1.0
  H  H507  1  0.649600  0.661400  0.702200  1.0
  H  H508  1  0.350400  0.702200  0.338600  1.0
  H  H509  1  0.649600  0.338600  0.297800  1.0
  H  H510  1  0.350400  0.297800  0.661400  1.0
  H  H511  1  0.350400  0.161400  0.797800  1.0
  H  H512  1  0.649600  0.797800  0.838600  1.0
  H  H513  1  0.350400  0.838600  0.202200  1.0
  H  H514  1  0.649600  0.202200  0.161400  1.0
  H  H515  1  0.550900  0.643200  0.678300  1.0
  H  H516  1  0.449100  0.678300  0.356800  1.0
  H  H517  1  0.550900  0.356800  0.321700  1.0
  H  H518  1  0.449100  0.321700  0.643200  1.0
  H  H519  1  0.449100  0.143200  0.821700  1.0
  H  H520  1  0.550900  0.821700  0.856800  1.0
  H  H521  1  0.449100  0.856800  0.178300  1.0
  H  H522  1  0.550900  0.178300  0.143200  1.0
  H  H523  1  0.521700  0.571500  0.674200  1.0
  H  H524  1  0.478300  0.674200  0.428500  1.0
  H  H525  1  0.521700  0.428500  0.325800  1.0
  H  H526  1  0.478300  0.325800  0.571500  1.0
  H  H527  1  0.478300  0.071500  0.825800  1.0
  H  H528  1  0.521700  0.825800  0.928500  1.0
  H  H529  1  0.478300  0.928500  0.174200  1.0
  H  H530  1  0.521700  0.174200  0.071500  1.0
  H  H531  1  0.591200  0.517900  0.693900  1.0
  H  H532  1  0.408800  0.693900  0.482100  1.0
  H  H533  1  0.591200  0.482100  0.306100  1.0
  H  H534  1  0.408800  0.306100  0.517900  1.0
  H  H535  1  0.408800  0.017900  0.806100  1.0
  H  H536  1  0.591200  0.806100  0.982100  1.0
  H  H537  1  0.408800  0.982100  0.193900  1.0
  H  H538  1  0.591200  0.193900  0.017900  1.0
  H  H539  1  0.749400  0.676200  0.734500  1.0
  H  H540  1  0.250600  0.734500  0.323800  1.0
  H  H541  1  0.749400  0.323800  0.265500  1.0
  H  H542  1  0.250600  0.265500  0.676200  1.0
  H  H543  1  0.250600  0.176200  0.765500  1.0
  H  H544  1  0.749400  0.765500  0.823800  1.0
  H  H545  1  0.250600  0.823800  0.234500  1.0
  H  H546  1  0.749400  0.234500  0.176200  1.0
  H  H547  1  0.856200  0.657100  0.761100  1.0
  H  H548  1  0.143800  0.761100  0.342900  1.0
  H  H549  1  0.856200  0.342900  0.238900  1.0
  H  H550  1  0.143800  0.238900  0.657100  1.0
  H  H551  1  0.143800  0.157100  0.738900  1.0
  H  H552  1  0.856200  0.738900  0.842900  1.0
  H  H553  1  0.143800  0.842900  0.261100  1.0
  H  H554  1  0.856200  0.261100  0.157100  1.0
  H  H555  1  0.873700  0.540500  0.769800  1.0
  H  H556  1  0.126300  0.769800  0.459500  1.0
  H  H557  1  0.873700  0.459500  0.230200  1.0
  H  H558  1  0.126300  0.230200  0.540500  1.0
  H  H559  1  0.126300  0.040500  0.730200  1.0
  H  H560  1  0.873700  0.730200  0.959500  1.0
  H  H561  1  0.126300  0.959500  0.269800  1.0
  H  H562  1  0.873700  0.269800  0.040500  1.0
  H  H563  1  0.909700  0.583700  0.780800  1.0
  H  H564  1  0.090300  0.780800  0.416300  1.0
  H  H565  1  0.909700  0.416300  0.219200  1.0
  H  H566  1  0.090300  0.219200  0.583700  1.0
  H  H567  1  0.090300  0.083700  0.719200  1.0
  H  H568  1  0.909700  0.719200  0.916300  1.0
  H  H569  1  0.090300  0.916300  0.280800  1.0
  H  H570  1  0.909700  0.280800  0.083700  1.0
  Ru  Ru571  1  0.179850  0.503070  0.728780  1.0
  Ru  Ru572  1  0.820150  0.728780  0.496930  1.0
  Ru  Ru573  1  0.179850  0.496930  0.271220  1.0
  Ru  Ru574  1  0.820150  0.271220  0.503070  1.0
  Ru  Ru575  1  0.820150  0.003070  0.771220  1.0
  Ru  Ru576  1  0.179850  0.771220  0.996930  1.0
  Ru  Ru577  1  0.820150  0.996930  0.228780  1.0
  Ru  Ru578  1  0.179850  0.228780  0.003070  1.0
  C  C579  1  0.526300  0.989300  0.676200  1
  C  C580  1  0.473700  0.676200  0.010700  1
  C  C581  1  0.526300  0.010700  0.323800  1
  C  C582  1  0.473700  0.323800  0.989300  1
  C  C583  1  0.473700  0.489300  0.823800  1
  C  C584  1  0.526300  0.823800  0.510700  1
  C  C585  1  0.473700  0.510700  0.176200  1
  C  C586  1  0.526300  0.176200  0.489300  1
  C  C587  1  0.431600  0.627900  0.760000  1
  C  C588  1  0.568400  0.760000  0.372100  1
  C  C589  1  0.431600  0.372100  0.240000  1
  C  C590  1  0.568400  0.240000  0.627900  1
  C  C591  1  0.568400  0.127900  0.740000  1
  C  C592  1  0.431600  0.740000  0.872100  1
  C  C593  1  0.568400  0.872100  0.260000  1
  C  C594  1  0.431600  0.260000  0.127900  1
  C  C595  1  0.256400  0.485100  0.804000  1.0
  C  C596  1  0.743600  0.804000  0.514900  1.0
  C  C597  1  0.256400  0.514900  0.196000  1.0
  C  C598  1  0.743600  0.196000  0.485100  1.0
  C  C599  1  0.743600  0.985100  0.696000  1.0
  C  C600  1  0.256400  0.696000  0.014900  1.0
  C  C601  1  0.743600  0.014900  0.304000  1.0
  C  C602  1  0.256400  0.304000  0.985100  1.0
  C  C603  1  0.293200  0.492300  0.839600  1.0
  C  C604  1  0.706800  0.839600  0.507700  1.0
  C  C605  1  0.293200  0.507700  0.160400  1.0
  C  C606  1  0.706800  0.160400  0.492300  1.0
  C  C607  1  0.706800  0.992300  0.660400  1.0
  C  C608  1  0.293200  0.660400  0.007700  1.0
  C  C609  1  0.706800  0.007700  0.339600  1.0
  C  C610  1  0.293200  0.339600  0.992300  1.0
  C  C611  1  0.304500  0.533700  0.853200  1.0
  C  C612  1  0.695500  0.853200  0.466300  1.0
  C  C613  1  0.304500  0.466300  0.146800  1.0
  C  C614  1  0.695500  0.146800  0.533700  1.0
  C  C615  1  0.695500  0.033700  0.646800  1.0
  C  C616  1  0.304500  0.646800  0.966300  1.0
  C  C617  1  0.695500  0.966300  0.353200  1.0
  C  C618  1  0.304500  0.353200  0.033700  1.0
  C  C619  1  0.279100  0.568000  0.831200  1.0
  C  C620  1  0.720900  0.831200  0.432000  1.0
  C  C621  1  0.279100  0.432000  0.168800  1.0
  C  C622  1  0.720900  0.168800  0.568000  1.0
  C  C623  1  0.720900  0.068000  0.668800  1.0
  C  C624  1  0.279100  0.668800  0.932000  1.0
  C  C625  1  0.720900  0.932000  0.331200  1.0
  C  C626  1  0.279100  0.331200  0.068000  1.0
  C  C627  1  0.242300  0.560800  0.795700  1.0
  C  C628  1  0.757700  0.795700  0.439200  1.0
  C  C629  1  0.242300  0.439200  0.204300  1.0
  C  C630  1  0.757700  0.204300  0.560800  1.0
  C  C631  1  0.757700  0.060800  0.704300  1.0
  C  C632  1  0.242300  0.704300  0.939200  1.0
  C  C633  1  0.757700  0.939200  0.295700  1.0
  C  C634  1  0.242300  0.295700  0.060800  1.0
  C  C635  1  0.246200  0.446800  0.787800  1.0
  C  C636  1  0.753800  0.787800  0.553200  1.0
  C  C637  1  0.246200  0.553200  0.212200  1.0
  C  C638  1  0.753800  0.212200  0.446800  1.0
  C  C639  1  0.753800  0.946800  0.712200  1.0
  C  C640  1  0.246200  0.712200  0.053200  1.0
  C  C641  1  0.753800  0.053200  0.287800  1.0
  C  C642  1  0.246200  0.287800  0.946800  1.0
  C  C643  1  0.261800  0.404400  0.799400  1.0
  C  C644  1  0.738200  0.799400  0.595600  1.0
  C  C645  1  0.261800  0.595600  0.200600  1.0
  C  C646  1  0.738200  0.200600  0.404400  1.0
  C  C647  1  0.738200  0.904400  0.700600  1.0
  C  C648  1  0.261800  0.700600  0.095600  1.0
  C  C649  1  0.738200  0.095600  0.299400  1.0
  C  C650  1  0.261800  0.299400  0.904400  1.0
  C  C651  1  0.235800  0.376480  0.768600  1.0
  C  C652  1  0.764200  0.768600  0.623520  1.0
  C  C653  1  0.235800  0.623520  0.231400  1.0
  C  C654  1  0.764200  0.231400  0.376480  1.0
  C  C655  1  0.764200  0.876480  0.731400  1.0
  C  C656  1  0.235800  0.731400  0.123520  1.0
  C  C657  1  0.764200  0.123520  0.268600  1.0
  C  C658  1  0.235800  0.268600  0.876480  1.0
  C  C659  1  0.213400  0.388200  0.662600  1.0
  C  C660  1  0.786600  0.662600  0.611800  1.0
  C  C661  1  0.213400  0.611800  0.337400  1.0
  C  C662  1  0.786600  0.337400  0.388200  1.0
  C  C663  1  0.786600  0.888200  0.837400  1.0
  C  C664  1  0.213400  0.837400  0.111800  1.0
  C  C665  1  0.786600  0.111800  0.162600  1.0
  C  C666  1  0.213400  0.162600  0.888200  1.0
  C  C667  1  0.185300  0.378400  0.624000  1.0
  C  C668  1  0.814700  0.624000  0.621600  1.0
  C  C669  1  0.185300  0.621600  0.376000  1.0
  C  C670  1  0.814700  0.376000  0.378400  1.0
  C  C671  1  0.814700  0.878400  0.876000  1.0
  C  C672  1  0.185300  0.876000  0.121600  1.0
  C  C673  1  0.814700  0.121600  0.124000  1.0
  C  C674  1  0.185300  0.124000  0.878400  1.0
  C  C675  1  0.219300  0.379300  0.586400  1.0
  C  C676  1  0.780700  0.586400  0.620700  1.0
  C  C677  1  0.219300  0.620700  0.413600  1.0
  C  C678  1  0.780700  0.413600  0.379300  1.0
  C  C679  1  0.780700  0.879300  0.913600  1.0
  C  C680  1  0.219300  0.913600  0.120700  1.0
  C  C681  1  0.780700  0.120700  0.086400  1.0
  C  C682  1  0.219300  0.086400  0.879300  1.0
  C  C683  1  0.281300  0.390000  0.587500  1.0
  C  C684  1  0.718700  0.587500  0.610000  1.0
  C  C685  1  0.281300  0.610000  0.412500  1.0
  C  C686  1  0.718700  0.412500  0.390000  1.0
  C  C687  1  0.718700  0.890000  0.912500  1.0
  C  C688  1  0.281300  0.912500  0.110000  1.0
  C  C689  1  0.718700  0.110000  0.087500  1.0
  C  C690  1  0.281300  0.087500  0.890000  1.0
  C  C691  1  0.309500  0.399800  0.626000  1.0
  C  C692  1  0.690500  0.626000  0.600200  1.0
  C  C693  1  0.309500  0.600200  0.374000  1.0
  C  C694  1  0.690500  0.374000  0.399800  1.0
  C  C695  1  0.690500  0.899800  0.874000  1.0
  C  C696  1  0.309500  0.874000  0.100200  1.0
  C  C697  1  0.690500  0.100200  0.126000  1.0
  C  C698  1  0.309500  0.126000  0.899800  1.0
  C  C699  1  0.275500  0.398900  0.663600  1.0
  C  C700  1  0.724500  0.663600  0.601100  1.0
  C  C701  1  0.275500  0.601100  0.336400  1.0
  C  C702  1  0.724500  0.336400  0.398900  1.0
  C  C703  1  0.724500  0.898900  0.836400  1.0
  C  C704  1  0.275500  0.836400  0.101100  1.0
  C  C705  1  0.724500  0.101100  0.163600  1.0
  C  C706  1  0.275500  0.163600  0.898900  1.0
  C  C707  1  0.172400  0.387500  0.702400  1.0
  C  C708  1  0.827600  0.702400  0.612500  1.0
  C  C709  1  0.172400  0.612500  0.297600  1.0
  C  C710  1  0.827600  0.297600  0.387500  1.0
  C  C711  1  0.827600  0.887500  0.797600  1.0
  C  C712  1  0.172400  0.797600  0.112500  1.0
  C  C713  1  0.827600  0.112500  0.202400  1.0
  C  C714  1  0.172400  0.202400  0.887500  1.0
  C  C715  1  0.327600  0.316000  0.441100  1.0
  C  C716  1  0.672400  0.441100  0.684000  1.0
  C  C717  1  0.327600  0.684000  0.558900  1.0
  C  C718  1  0.672400  0.558900  0.316000  1.0
  C  C719  1  0.672400  0.816000  0.058900  1.0
  C  C720  1  0.327600  0.058900  0.184000  1.0
  C  C721  1  0.672400  0.184000  0.941100  1.0
  C  C722  1  0.327600  0.941100  0.816000  1.0
  C  C723  1  0.361300  0.323900  0.404200  1.0
  C  C724  1  0.638700  0.404200  0.676100  1.0
  C  C725  1  0.361300  0.676100  0.595800  1.0
  C  C726  1  0.638700  0.595800  0.323900  1.0
  C  C727  1  0.638700  0.823900  0.095800  1.0
  C  C728  1  0.361300  0.095800  0.176100  1.0
  C  C729  1  0.638700  0.176100  0.904200  1.0
  C  C730  1  0.361300  0.904200  0.823900  1.0
  C  C731  1  0.394800  0.291100  0.385300  1.0
  C  C732  1  0.605200  0.385300  0.708900  1.0
  C  C733  1  0.394800  0.708900  0.614700  1.0
  C  C734  1  0.605200  0.614700  0.291100  1.0
  C  C735  1  0.605200  0.791100  0.114700  1.0
  C  C736  1  0.394800  0.114700  0.208900  1.0
  C  C737  1  0.605200  0.208900  0.885300  1.0
  C  C738  1  0.394800  0.885300  0.791100  1.0
  C  C739  1  0.394600  0.250600  0.403300  1.0
  C  C740  1  0.605400  0.403300  0.749400  1.0
  C  C741  1  0.394600  0.749400  0.596700  1.0
  C  C742  1  0.605400  0.596700  0.250600  1.0
  C  C743  1  0.605400  0.750600  0.096700  1.0
  C  C744  1  0.394600  0.096700  0.249400  1.0
  C  C745  1  0.605400  0.249400  0.903300  1.0
  C  C746  1  0.394600  0.903300  0.750600  1.0
  C  C747  1  0.361000  0.242800  0.440200  1.0
  C  C748  1  0.639000  0.440200  0.757200  1.0
  C  C749  1  0.361000  0.757200  0.559800  1.0
  C  C750  1  0.639000  0.559800  0.242800  1.0
  C  C751  1  0.639000  0.742800  0.059800  1.0
  C  C752  1  0.361000  0.059800  0.257200  1.0
  C  C753  1  0.639000  0.257200  0.940200  1.0
  C  C754  1  0.361000  0.940200  0.742800  1.0
  C  C755  1  0.293100  0.345800  0.460400  1.0
  C  C756  1  0.706900  0.460400  0.654200  1.0
  C  C757  1  0.293100  0.654200  0.539600  1.0
  C  C758  1  0.706900  0.539600  0.345800  1.0
  C  C759  1  0.706900  0.845800  0.039600  1.0
  C  C760  1  0.293100  0.039600  0.154200  1.0
  C  C761  1  0.706900  0.154200  0.960400  1.0
  C  C762  1  0.293100  0.960400  0.845800  1.0
  C  C763  1  0.284100  0.390100  0.453600  1.0
  C  C764  1  0.715900  0.453600  0.609900  1.0
  C  C765  1  0.284100  0.609900  0.546400  1.0
  C  C766  1  0.715900  0.546400  0.390100  1.0
  C  C767  1  0.715900  0.890100  0.046400  1.0
  C  C768  1  0.284100  0.046400  0.109900  1.0
  C  C769  1  0.715900  0.109900  0.953600  1.0
  C  C770  1  0.284100  0.953600  0.890100  1.0
  C  C771  1  0.240300  0.404790  0.483800  1.0
  C  C772  1  0.759700  0.483800  0.595210  1.0
  C  C773  1  0.240300  0.595210  0.516200  1.0
  C  C774  1  0.759700  0.516200  0.404790  1.0
  C  C775  1  0.759700  0.904790  0.016200  1.0
  C  C776  1  0.240300  0.016200  0.095210  1.0
  C  C777  1  0.759700  0.095210  0.983800  1.0
  C  C778  1  0.240300  0.983800  0.904790  1.0
  C  C779  1  0.183400  0.368000  0.545200  1.0
  C  C780  1  0.816600  0.545200  0.632000  1.0
  C  C781  1  0.183400  0.632000  0.454800  1.0
  C  C782  1  0.816600  0.454800  0.368000  1.0
  C  C783  1  0.816600  0.868000  0.954800  1.0
  C  C784  1  0.183400  0.954800  0.132000  1.0
  C  C785  1  0.816600  0.132000  0.045200  1.0
  C  C786  1  0.183400  0.045200  0.868000  1.0
  C  C787  1  0.077700  0.540700  0.777300  1.0
  C  C788  1  0.922300  0.777300  0.459300  1.0
  C  C789  1  0.077700  0.459300  0.222700  1.0
  C  C790  1  0.922300  0.222700  0.540700  1.0
  C  C791  1  0.922300  0.040700  0.722700  1.0
  C  C792  1  0.077700  0.722700  0.959300  1.0
  C  C793  1  0.922300  0.959300  0.277300  1.0
  C  C794  1  0.077700  0.277300  0.040700  1.0
  C  C795  1  0.031900  0.545400  0.807900  1.0
  C  C796  1  0.968100  0.807900  0.454600  1.0
  C  C797  1  0.031900  0.454600  0.192100  1.0
  C  C798  1  0.968100  0.192100  0.545400  1.0
  C  C799  1  0.968100  0.045400  0.692100  1.0
  C  C800  1  0.031900  0.692100  0.954600  1.0
  C  C801  1  0.968100  0.954600  0.307900  1.0
  C  C802  1  0.031900  0.307900  0.045400  1.0
  C  C803  1  0.012200  0.510200  0.831200  1.0
  C  C804  1  0.987800  0.831200  0.489800  1.0
  C  C805  1  0.012200  0.489800  0.168800  1.0
  C  C806  1  0.987800  0.168800  0.510200  1.0
  C  C807  1  0.987800  0.010200  0.668800  1.0
  C  C808  1  0.012200  0.668800  0.989800  1.0
  C  C809  1  0.987800  0.989800  0.331200  1.0
  C  C810  1  0.012200  0.331200  0.010200  1.0
  C  C811  1  0.038300  0.470400  0.823800  1.0
  C  C812  1  0.961700  0.823800  0.529600  1.0
  C  C813  1  0.038300  0.529600  0.176200  1.0
  C  C814  1  0.961700  0.176200  0.470400  1.0
  C  C815  1  0.961700  0.970400  0.676200  1.0
  C  C816  1  0.038300  0.676200  0.029600  1.0
  C  C817  1  0.961700  0.029600  0.323800  1.0
  C  C818  1  0.038300  0.323800  0.970400  1.0
  C  C819  1  0.084100  0.465750  0.793200  1.0
  C  C820  1  0.915900  0.793200  0.534250  1.0
  C  C821  1  0.084100  0.534250  0.206800  1.0
  C  C822  1  0.915900  0.206800  0.465750  1.0
  C  C823  1  0.915900  0.965750  0.706800  1.0
  C  C824  1  0.084100  0.706800  0.034250  1.0
  C  C825  1  0.915900  0.034250  0.293200  1.0
  C  C826  1  0.084100  0.293200  0.965750  1.0
  C  C827  1  0.096700  0.573100  0.752300  1.0
  C  C828  1  0.903300  0.752300  0.426900  1.0
  C  C829  1  0.096700  0.426900  0.247700  1.0
  C  C830  1  0.903300  0.247700  0.573100  1.0
  C  C831  1  0.903300  0.073100  0.747700  1.0
  C  C832  1  0.096700  0.747700  0.926900  1.0
  C  C833  1  0.903300  0.926900  0.252300  1.0
  C  C834  1  0.096700  0.252300  0.073100  1.0
  C  C835  1  0.077600  0.615700  0.744900  1.0
  C  C836  1  0.922400  0.744900  0.384300  1.0
  C  C837  1  0.077600  0.384300  0.255100  1.0
  C  C838  1  0.922400  0.255100  0.615700  1.0
  C  C839  1  0.922400  0.115700  0.755100  1.0
  C  C840  1  0.077600  0.755100  0.884300  1.0
  C  C841  1  0.922400  0.884300  0.244900  1.0
  C  C842  1  0.077600  0.244900  0.115700  1.0
  C  C843  1  0.114200  0.632710  0.711500  1.0
  C  C844  1  0.885800  0.711500  0.367290  1.0
  C  C845  1  0.114200  0.367290  0.288500  1.0
  C  C846  1  0.885800  0.288500  0.632710  1.0
  C  C847  1  0.885800  0.132710  0.788500  1.0
  C  C848  1  0.114200  0.788500  0.867290  1.0
  C  C849  1  0.885800  0.867290  0.211500  1.0
  C  C850  1  0.114200  0.211500  0.132710  1.0
  C  C851  1  0.207900  0.646560  0.649600  1.0
  C  C852  1  0.792100  0.649600  0.353440  1.0
  C  C853  1  0.207900  0.353440  0.350400  1.0
  C  C854  1  0.792100  0.350400  0.646560  1.0
  C  C855  1  0.792100  0.146560  0.850400  1.0
  C  C856  1  0.207900  0.850400  0.853440  1.0
  C  C857  1  0.792100  0.853440  0.149600  1.0
  C  C858  1  0.207900  0.149600  0.146560  1.0
  C  C859  1  0.174200  0.659600  0.614200  1.0
  C  C860  1  0.825800  0.614200  0.340400  1.0
  C  C861  1  0.174200  0.340400  0.385800  1.0
  C  C862  1  0.825800  0.385800  0.659600  1.0
  C  C863  1  0.825800  0.159600  0.885800  1.0
  C  C864  1  0.174200  0.885800  0.840400  1.0
  C  C865  1  0.825800  0.840400  0.114200  1.0
  C  C866  1  0.174200  0.114200  0.159600  1.0
  C  C867  1  0.178700  0.701400  0.599800  1.0
  C  C868  1  0.821300  0.599800  0.298600  1.0
  C  C869  1  0.178700  0.298600  0.400200  1.0
  C  C870  1  0.821300  0.400200  0.701400  1.0
  C  C871  1  0.821300  0.201400  0.900200  1.0
  C  C872  1  0.178700  0.900200  0.798600  1.0
  C  C873  1  0.821300  0.798600  0.099800  1.0
  C  C874  1  0.178700  0.099800  0.201400  1.0
  C  C875  1  0.216800  0.730170  0.620700  1.0
  C  C876  1  0.783200  0.620700  0.269830  1.0
  C  C877  1  0.216800  0.269830  0.379300  1.0
  C  C878  1  0.783200  0.379300  0.730170  1.0
  C  C879  1  0.783200  0.230170  0.879300  1.0
  C  C880  1  0.216800  0.879300  0.769830  1.0
  C  C881  1  0.783200  0.769830  0.120700  1.0
  C  C882  1  0.216800  0.120700  0.230170  1.0
  C  C883  1  0.250500  0.717200  0.656100  1.0
  C  C884  1  0.749500  0.656100  0.282800  1.0
  C  C885  1  0.250500  0.282800  0.343900  1.0
  C  C886  1  0.749500  0.343900  0.717200  1.0
  C  C887  1  0.749500  0.217200  0.843900  1.0
  C  C888  1  0.250500  0.843900  0.782800  1.0
  C  C889  1  0.749500  0.782800  0.156100  1.0
  C  C890  1  0.250500  0.156100  0.217200  1.0
  C  C891  1  0.246000  0.675300  0.670500  1.0
  C  C892  1  0.754000  0.670500  0.324700  1.0
  C  C893  1  0.246000  0.324700  0.329500  1.0
  C  C894  1  0.754000  0.329500  0.675300  1.0
  C  C895  1  0.754000  0.175300  0.829500  1.0
  C  C896  1  0.246000  0.829500  0.824700  1.0
  C  C897  1  0.754000  0.824700  0.170500  1.0
  C  C898  1  0.246000  0.170500  0.175300  1.0
  C  C899  1  0.201300  0.601500  0.666667  1.0
  C  C900  1  0.798700  0.666667  0.398500  1.0
  C  C901  1  0.201300  0.398500  0.333333  1.0
  C  C902  1  0.798700  0.333333  0.601500  1.0
  C  C903  1  0.798700  0.101500  0.833333  1.0
  C  C904  1  0.201300  0.833333  0.898500  1.0
  C  C905  1  0.798700  0.898500  0.166667  1.0
  C  C906  1  0.201300  0.166667  0.101500  1.0
  C  C907  1  0.256000  0.826100  0.496100  1.0
  C  C908  1  0.744000  0.496100  0.173900  1.0
  C  C909  1  0.256000  0.173900  0.503900  1.0
  C  C910  1  0.744000  0.503900  0.826100  1.0
  C  C911  1  0.744000  0.326100  0.003900  1.0
  C  C912  1  0.256000  0.003900  0.673900  1.0
  C  C913  1  0.744000  0.673900  0.996100  1.0
  C  C914  1  0.256000  0.996100  0.326100  1.0
  C  C915  1  0.269800  0.869400  0.494500  1.0
  C  C916  1  0.730200  0.494500  0.130600  1.0
  C  C917  1  0.269800  0.130600  0.505500  1.0
  C  C918  1  0.730200  0.505500  0.869400  1.0
  C  C919  1  0.730200  0.369400  0.005500  1.0
  C  C920  1  0.269800  0.005500  0.630600  1.0
  C  C921  1  0.730200  0.630600  0.994500  1.0
  C  C922  1  0.269800  0.994500  0.369400  1.0
  C  C923  1  0.321300  0.883400  0.472300  1.0
  C  C924  1  0.678700  0.472300  0.116600  1.0
  C  C925  1  0.321300  0.116600  0.527700  1.0
  C  C926  1  0.678700  0.527700  0.883400  1.0
  C  C927  1  0.678700  0.383400  0.027700  1.0
  C  C928  1  0.321300  0.027700  0.616600  1.0
  C  C929  1  0.678700  0.616600  0.972300  1.0
  C  C930  1  0.321300  0.972300  0.383400  1.0
  C  C931  1  0.359200  0.854100  0.451800  1.0
  C  C932  1  0.640800  0.451800  0.145900  1.0
  C  C933  1  0.359200  0.145900  0.548200  1.0
  C  C934  1  0.640800  0.548200  0.854100  1.0
  C  C935  1  0.640800  0.354100  0.048200  1.0
  C  C936  1  0.359200  0.048200  0.645900  1.0
  C  C937  1  0.640800  0.645900  0.951800  1.0
  C  C938  1  0.359200  0.951800  0.354100  1.0
  C  C939  1  0.345400  0.810900  0.453400  1.0
  C  C940  1  0.654600  0.453400  0.189100  1.0
  C  C941  1  0.345400  0.189100  0.546600  1.0
  C  C942  1  0.654600  0.546600  0.810900  1.0
  C  C943  1  0.654600  0.310900  0.046600  1.0
  C  C944  1  0.345400  0.046600  0.689100  1.0
  C  C945  1  0.654600  0.689100  0.953400  1.0
  C  C946  1  0.345400  0.953400  0.310900  1.0
  C  C947  1  0.207800  0.808800  0.517800  1.0
  C  C948  1  0.792200  0.517800  0.191200  1.0
  C  C949  1  0.207800  0.191200  0.482200  1.0
  C  C950  1  0.792200  0.482200  0.808800  1.0
  C  C951  1  0.792200  0.308800  0.982200  1.0
  C  C952  1  0.207800  0.982200  0.691200  1.0
  C  C953  1  0.792200  0.691200  0.017800  1.0
  C  C954  1  0.207800  0.017800  0.308800  1.0
  C  C955  1  0.158100  0.826660  0.541100  1.0
  C  C956  1  0.841900  0.541100  0.173340  1.0
  C  C957  1  0.158100  0.173340  0.458900  1.0
  C  C958  1  0.841900  0.458900  0.826660  1.0
  C  C959  1  0.841900  0.326660  0.958900  1.0
  C  C960  1  0.158100  0.958900  0.673340  1.0
  C  C961  1  0.841900  0.673340  0.041100  1.0
  C  C962  1  0.158100  0.041100  0.326660  1.0
  C  C963  1  0.123300  0.792600  0.558800  1.0
  C  C964  1  0.876700  0.558800  0.207400  1.0
  C  C965  1  0.123300  0.207400  0.441200  1.0
  C  C966  1  0.876700  0.441200  0.792600  1.0
  C  C967  1  0.876700  0.292600  0.941200  1.0
  C  C968  1  0.123300  0.941200  0.707400  1.0
  C  C969  1  0.876700  0.707400  0.058800  1.0
  C  C970  1  0.123300  0.058800  0.292600  1.0
  C  C971  1  0.141400  0.712800  0.561900  1.0
  C  C972  1  0.858600  0.561900  0.287200  1.0
  C  C973  1  0.141400  0.287200  0.438100  1.0
  C  C974  1  0.858600  0.438100  0.712800  1.0
  C  C975  1  0.858600  0.212800  0.938100  1.0
  C  C976  1  0.141400  0.938100  0.787200  1.0
  C  C977  1  0.858600  0.787200  0.061900  1.0
  C  C978  1  0.141400  0.061900  0.212800  1.0
  C  C979  1  0.242800  0.501500  0.644900  1.0
  C  C980  1  0.757200  0.644900  0.498500  1.0
  C  C981  1  0.242800  0.498500  0.355100  1.0
  C  C982  1  0.757200  0.355100  0.501500  1.0
  C  C983  1  0.757200  0.001500  0.855100  1.0
  C  C984  1  0.242800  0.855100  0.998500  1.0
  C  C985  1  0.757200  0.998500  0.144900  1.0
  C  C986  1  0.242800  0.144900  0.001500  1.0
  C  C987  1  0.289600  0.505600  0.615020  1.0
  C  C988  1  0.710400  0.615020  0.494400  1.0
  C  C989  1  0.289600  0.494400  0.384980  1.0
  C  C990  1  0.710400  0.384980  0.505600  1.0
  C  C991  1  0.710400  0.005600  0.884980  1.0
  C  C992  1  0.289600  0.884980  0.994400  1.0
  C  C993  1  0.710400  0.994400  0.115020  1.0
  C  C994  1  0.289600  0.115020  0.005600  1.0
  C  C995  1  0.349100  0.515400  0.628200  1.0
  C  C996  1  0.650900  0.628200  0.484600  1.0
  C  C997  1  0.349100  0.484600  0.371800  1.0
  C  C998  1  0.650900  0.371800  0.515400  1.0
  C  C999  1  0.650900  0.015400  0.871800  1.0
  C  C1000  1  0.349100  0.871800  0.984600  1.0
  C  C1001  1  0.650900  0.984600  0.128200  1.0
  C  C1002  1  0.349100  0.128200  0.015400  1.0
  C  C1003  1  0.361700  0.521000  0.671300  1.0
  C  C1004  1  0.638300  0.671300  0.479000  1.0
  C  C1005  1  0.361700  0.479000  0.328700  1.0
  C  C1006  1  0.638300  0.328700  0.521000  1.0
  C  C1007  1  0.638300  0.021000  0.828700  1.0
  C  C1008  1  0.361700  0.828700  0.979000  1.0
  C  C1009  1  0.638300  0.979000  0.171300  1.0
  C  C1010  1  0.361700  0.171300  0.021000  1.0
  C  C1011  1  0.314800  0.516900  0.701200  1.0
  C  C1012  1  0.685200  0.701200  0.483100  1.0
  C  C1013  1  0.314800  0.483100  0.298800  1.0
  C  C1014  1  0.685200  0.298800  0.516900  1.0
  C  C1015  1  0.685200  0.016900  0.798800  1.0
  C  C1016  1  0.314800  0.798800  0.983100  1.0
  C  C1017  1  0.685200  0.983100  0.201200  1.0
  C  C1018  1  0.314800  0.201200  0.016900  1.0
  C  C1019  1  0.182600  0.491500  0.635600  1.0
  C  C1020  1  0.817400  0.635600  0.508500  1.0
  C  C1021  1  0.182600  0.508500  0.364400  1.0
  C  C1022  1  0.817400  0.364400  0.491500  1.0
  C  C1023  1  0.817400  0.991500  0.864400  1.0
  C  C1024  1  0.182600  0.864400  0.008500  1.0
  C  C1025  1  0.817400  0.008500  0.135600  1.0
  C  C1026  1  0.182600  0.135600  0.991500  1.0
  C  C1027  1  0.150400  0.480500  0.597800  1.0
  C  C1028  1  0.849600  0.597800  0.519500  1.0
  C  C1029  1  0.150400  0.519500  0.402200  1.0
  C  C1030  1  0.849600  0.402200  0.480500  1.0
  C  C1031  1  0.849600  0.980500  0.902200  1.0
  C  C1032  1  0.150400  0.902200  0.019500  1.0
  C  C1033  1  0.849600  0.019500  0.097800  1.0
  C  C1034  1  0.150400  0.097800  0.980500  1.0
  C  C1035  1  0.089100  0.469700  0.609200  1.0
  C  C1036  1  0.910900  0.609200  0.530300  1.0
  C  C1037  1  0.089100  0.530300  0.390800  1.0
  C  C1038  1  0.910900  0.390800  0.469700  1.0
  C  C1039  1  0.910900  0.969700  0.890800  1.0
  C  C1040  1  0.089100  0.890800  0.030300  1.0
  C  C1041  1  0.910900  0.030300  0.109200  1.0
  C  C1042  1  0.089100  0.109200  0.969700  1.0
  C  C1043  1  0.001600  0.517900  0.683900  1.0
  C  C1044  1  0.998400  0.683900  0.482100  1.0
  C  C1045  1  0.001600  0.482100  0.316100  1.0
  C  C1046  1  0.998400  0.316100  0.517900  1.0
  C  C1047  1  0.998400  0.017900  0.816100  1.0
  C  C1048  1  0.001600  0.816100  0.982100  1.0
  C  C1049  1  0.998400  0.982100  0.183900  1.0
  C  C1050  1  0.001600  0.183900  0.017900  1.0
  C  C1051  1  0.958700  0.523500  0.716400  1.0
  C  C1052  1  0.041300  0.716400  0.476500  1.0
  C  C1053  1  0.958700  0.476500  0.283600  1.0
  C  C1054  1  0.041300  0.283600  0.523500  1.0
  C  C1055  1  0.041300  0.023500  0.783600  1.0
  C  C1056  1  0.958700  0.783600  0.976500  1.0
  C  C1057  1  0.041300  0.976500  0.216400  1.0
  C  C1058  1  0.958700  0.216400  0.023500  1.0
  C  C1059  1  0.927300  0.561900  0.720100  1.0
  C  C1060  1  0.072700  0.720100  0.438100  1.0
  C  C1061  1  0.927300  0.438100  0.279900  1.0
  C  C1062  1  0.072700  0.279900  0.561900  1.0
  C  C1063  1  0.072700  0.061900  0.779900  1.0
  C  C1064  1  0.927300  0.779900  0.938100  1.0
  C  C1065  1  0.072700  0.938100  0.220100  1.0
  C  C1066  1  0.927300  0.220100  0.061900  1.0
  C  C1067  1  0.938700  0.594800  0.691400  1.0
  C  C1068  1  0.061300  0.691400  0.405200  1.0
  C  C1069  1  0.938700  0.405200  0.308600  1.0
  C  C1070  1  0.061300  0.308600  0.594800  1.0
  C  C1071  1  0.061300  0.094800  0.808600  1.0
  C  C1072  1  0.938700  0.808600  0.905200  1.0
  C  C1073  1  0.061300  0.905200  0.191400  1.0
  C  C1074  1  0.938700  0.191400  0.094800  1.0
  C  C1075  1  0.981600  0.589100  0.658900  1.0
  C  C1076  1  0.018400  0.658900  0.410900  1.0
  C  C1077  1  0.981600  0.410900  0.341100  1.0
  C  C1078  1  0.018400  0.341100  0.589100  1.0
  C  C1079  1  0.018400  0.089100  0.841100  1.0
  C  C1080  1  0.981600  0.841100  0.910900  1.0
  C  C1081  1  0.018400  0.910900  0.158900  1.0
  C  C1082  1  0.981600  0.158900  0.089100  1.0
  C  C1083  1  0.013000  0.550700  0.655200  1.0
  C  C1084  1  0.987000  0.655200  0.449300  1.0
  C  C1085  1  0.013000  0.449300  0.344800  1.0
  C  C1086  1  0.987000  0.344800  0.550700  1.0
  C  C1087  1  0.987000  0.050700  0.844800  1.0
  C  C1088  1  0.013000  0.844800  0.949300  1.0
  C  C1089  1  0.987000  0.949300  0.155200  1.0
  C  C1090  1  0.013000  0.155200  0.050700  1.0
  C  C1091  1  0.030400  0.474200  0.677900  1.0
  C  C1092  1  0.969600  0.677900  0.525800  1.0
  C  C1093  1  0.030400  0.525800  0.322100  1.0
  C  C1094  1  0.969600  0.322100  0.474200  1.0
  C  C1095  1  0.969600  0.974200  0.822100  1.0
  C  C1096  1  0.030400  0.822100  0.025800  1.0
  C  C1097  1  0.969600  0.025800  0.177900  1.0
  C  C1098  1  0.030400  0.177900  0.974200  1.0
  C  C1099  1  0.679000  0.600400  0.712200  1.0
  C  C1100  1  0.321000  0.712200  0.399600  1.0
  C  C1101  1  0.679000  0.399600  0.287800  1.0
  C  C1102  1  0.321000  0.287800  0.600400  1.0
  C  C1103  1  0.321000  0.100400  0.787800  1.0
  C  C1104  1  0.679000  0.787800  0.899600  1.0
  C  C1105  1  0.321000  0.899600  0.212200  1.0
  C  C1106  1  0.679000  0.212200  0.100400  1.0
  C  C1107  1  0.637700  0.632240  0.700500  1.0
  C  C1108  1  0.362300  0.700500  0.367760  1.0
  C  C1109  1  0.637700  0.367760  0.299500  1.0
  C  C1110  1  0.362300  0.299500  0.632240  1.0
  C  C1111  1  0.362300  0.132240  0.799500  1.0
  C  C1112  1  0.637700  0.799500  0.867760  1.0
  C  C1113  1  0.362300  0.867760  0.200500  1.0
  C  C1114  1  0.637700  0.200500  0.132240  1.0
  C  C1115  1  0.579100  0.621400  0.686300  1.0
  C  C1116  1  0.420900  0.686300  0.378600  1.0
  C  C1117  1  0.579100  0.378600  0.313700  1.0
  C  C1118  1  0.420900  0.313700  0.621400  1.0
  C  C1119  1  0.420900  0.121400  0.813700  1.0
  C  C1120  1  0.579100  0.813700  0.878600  1.0
  C  C1121  1  0.420900  0.878600  0.186300  1.0
  C  C1122  1  0.579100  0.186300  0.121400  1.0
  C  C1123  1  0.561800  0.578800  0.683900  1.0
  C  C1124  1  0.438200  0.683900  0.421200  1.0
  C  C1125  1  0.561800  0.421200  0.316100  1.0
  C  C1126  1  0.438200  0.316100  0.578800  1.0
  C  C1127  1  0.438200  0.078800  0.816100  1.0
  C  C1128  1  0.561800  0.816100  0.921200  1.0
  C  C1129  1  0.438200  0.921200  0.183900  1.0
  C  C1130  1  0.561800  0.183900  0.078800  1.0
  C  C1131  1  0.603000  0.547000  0.695600  1.0
  C  C1132  1  0.397000  0.695600  0.453000  1.0
  C  C1133  1  0.603000  0.453000  0.304400  1.0
  C  C1134  1  0.397000  0.304400  0.547000  1.0
  C  C1135  1  0.397000  0.047000  0.804400  1.0
  C  C1136  1  0.603000  0.804400  0.953000  1.0
  C  C1137  1  0.397000  0.953000  0.195600  1.0
  C  C1138  1  0.603000  0.195600  0.047000  1.0
  C  C1139  1  0.735800  0.609800  0.724800  1.0
  C  C1140  1  0.264200  0.724800  0.390200  1.0
  C  C1141  1  0.735800  0.390200  0.275200  1.0
  C  C1142  1  0.264200  0.275200  0.609800  1.0
  C  C1143  1  0.264200  0.109800  0.775200  1.0
  C  C1144  1  0.735800  0.775200  0.890200  1.0
  C  C1145  1  0.264200  0.890200  0.224800  1.0
  C  C1146  1  0.735800  0.224800  0.109800  1.0
  C  C1147  1  0.766100  0.648230  0.736400  1.0
  C  C1148  1  0.233900  0.736400  0.351770  1.0
  C  C1149  1  0.766100  0.351770  0.263600  1.0
  C  C1150  1  0.233900  0.263600  0.648230  1.0
  C  C1151  1  0.233900  0.148230  0.763600  1.0
  C  C1152  1  0.766100  0.763600  0.851770  1.0
  C  C1153  1  0.233900  0.851770  0.236400  1.0
  C  C1154  1  0.766100  0.236400  0.148230  1.0
  C  C1155  1  0.825900  0.637600  0.751300  1.0
  C  C1156  1  0.174100  0.751300  0.362400  1.0
  C  C1157  1  0.825900  0.362400  0.248700  1.0
  C  C1158  1  0.174100  0.248700  0.637600  1.0
  C  C1159  1  0.174100  0.137600  0.748700  1.0
  C  C1160  1  0.825900  0.748700  0.862400  1.0
  C  C1161  1  0.174100  0.862400  0.251300  1.0
  C  C1162  1  0.825900  0.251300  0.137600  1.0
  C  C1163  1  0.886100  0.568700  0.758300  1.0
  C  C1164  1  0.113900  0.758300  0.431300  1.0
  C  C1165  1  0.886100  0.431300  0.241700  1.0
  C  C1166  1  0.113900  0.241700  0.568700  1.0
  C  C1167  1  0.113900  0.068700  0.741700  1.0
  C  C1168  1  0.886100  0.741700  0.931300  1.0
  C  C1169  1  0.113900  0.931300  0.258300  1.0
  C  C1170  1  0.886100  0.258300  0.068700  1.0
  N  N1171  1  0.527600  0.009900  0.717800  1
  N  N1172  1  0.472400  0.717800  0.990100  1
  N  N1173  1  0.527600  0.990100  0.282200  1
  N  N1174  1  0.472400  0.282200  0.009900  1
  N  N1175  1  0.472400  0.509900  0.782200  1
  N  N1176  1  0.527600  0.782200  0.490100  1
  N  N1177  1  0.472400  0.490100  0.217800  1
  N  N1178  1  0.527600  0.217800  0.509900  1
  N  N1179  1  0.392400  0.620900  0.722800  1
  N  N1180  1  0.607600  0.722800  0.379100  1
  N  N1181  1  0.392400  0.379100  0.277200  1
  N  N1182  1  0.607600  0.277200  0.620900  1
  N  N1183  1  0.607600  0.120900  0.777200  1
  N  N1184  1  0.392400  0.777200  0.879100  1
  N  N1185  1  0.607600  0.879100  0.222800  1
  N  N1186  1  0.392400  0.222800  0.120900  1
  N  N1187  1  0.231000  0.519300  0.782100  1.0
  N  N1188  1  0.769000  0.782100  0.480700  1.0
  N  N1189  1  0.231000  0.480700  0.217900  1.0
  N  N1190  1  0.769000  0.217900  0.519300  1.0
  N  N1191  1  0.769000  0.019300  0.717900  1.0
  N  N1192  1  0.231000  0.717900  0.980700  1.0
  N  N1193  1  0.769000  0.980700  0.282100  1.0
  N  N1194  1  0.231000  0.282100  0.019300  1.0
  N  N1195  1  0.204200  0.401600  0.738000  1.0
  N  N1196  1  0.795800  0.738000  0.598400  1.0
  N  N1197  1  0.204200  0.598400  0.262000  1.0
  N  N1198  1  0.795800  0.262000  0.401600  1.0
  N  N1199  1  0.795800  0.901600  0.762000  1.0
  N  N1200  1  0.204200  0.762000  0.098400  1.0
  N  N1201  1  0.795800  0.098400  0.238000  1.0
  N  N1202  1  0.204200  0.238000  0.901600  1.0
  N  N1203  1  0.210600  0.445100  0.749800  1.0
  N  N1204  1  0.789400  0.749800  0.554900  1.0
  N  N1205  1  0.210600  0.554900  0.250200  1.0
  N  N1206  1  0.789400  0.250200  0.445100  1.0
  N  N1207  1  0.789400  0.945100  0.750200  1.0
  N  N1208  1  0.210600  0.750200  0.054900  1.0
  N  N1209  1  0.789400  0.054900  0.249800  1.0
  N  N1210  1  0.210600  0.249800  0.945100  1.0
  N  N1211  1  0.327500  0.275500  0.459100  1.0
  N  N1212  1  0.672500  0.459100  0.724500  1.0
  N  N1213  1  0.327500  0.724500  0.540900  1.0
  N  N1214  1  0.672500  0.540900  0.275500  1.0
  N  N1215  1  0.672500  0.775500  0.040900  1.0
  N  N1216  1  0.327500  0.040900  0.224500  1.0
  N  N1217  1  0.672500  0.224500  0.959100  1.0
  N  N1218  1  0.327500  0.959100  0.775500  1.0
  N  N1219  1  0.222200  0.369500  0.509400  1.0
  N  N1220  1  0.777800  0.509400  0.630500  1.0
  N  N1221  1  0.222200  0.630500  0.490600  1.0
  N  N1222  1  0.777800  0.490600  0.369500  1.0
  N  N1223  1  0.777800  0.869500  0.990600  1.0
  N  N1224  1  0.222200  0.990600  0.130500  1.0
  N  N1225  1  0.777800  0.130500  0.009400  1.0
  N  N1226  1  0.222200  0.009400  0.869500  1.0
  N  N1227  1  0.254800  0.333050  0.494900  1.0
  N  N1228  1  0.745200  0.494900  0.666950  1.0
  N  N1229  1  0.254800  0.666950  0.505100  1.0
  N  N1230  1  0.745200  0.505100  0.333050  1.0
  N  N1231  1  0.745200  0.833050  0.005100  1.0
  N  N1232  1  0.254800  0.005100  0.166950  1.0
  N  N1233  1  0.745200  0.166950  0.994900  1.0
  N  N1234  1  0.254800  0.994900  0.833050  1.0
  N  N1235  1  0.103800  0.500900  0.769900  1.0
  N  N1236  1  0.896200  0.769900  0.499100  1.0
  N  N1237  1  0.103800  0.499100  0.230100  1.0
  N  N1238  1  0.896200  0.230100  0.500900  1.0
  N  N1239  1  0.896200  0.000900  0.730100  1.0
  N  N1240  1  0.103800  0.730100  0.999100  1.0
  N  N1241  1  0.896200  0.999100  0.269900  1.0
  N  N1242  1  0.103800  0.269900  0.000900  1.0
  N  N1243  1  0.155900  0.600500  0.698100  1.0
  N  N1244  1  0.844100  0.698100  0.399500  1.0
  N  N1245  1  0.155900  0.399500  0.301900  1.0
  N  N1246  1  0.844100  0.301900  0.600500  1.0
  N  N1247  1  0.844100  0.100500  0.801900  1.0
  N  N1248  1  0.155900  0.801900  0.899500  1.0
  N  N1249  1  0.844100  0.899500  0.198100  1.0
  N  N1250  1  0.155900  0.198100  0.100500  1.0
  N  N1251  1  0.145100  0.563640  0.723300  1.0
  N  N1252  1  0.854900  0.723300  0.436360  1.0
  N  N1253  1  0.145100  0.436360  0.276700  1.0
  N  N1254  1  0.854900  0.276700  0.563640  1.0
  N  N1255  1  0.854900  0.063640  0.776700  1.0
  N  N1256  1  0.145100  0.776700  0.936360  1.0
  N  N1257  1  0.854900  0.936360  0.223300  1.0
  N  N1258  1  0.145100  0.223300  0.063640  1.0
  N  N1259  1  0.293800  0.796900  0.475500  1.0
  N  N1260  1  0.706200  0.475500  0.203100  1.0
  N  N1261  1  0.293800  0.203100  0.524500  1.0
  N  N1262  1  0.706200  0.524500  0.796900  1.0
  N  N1263  1  0.706200  0.296900  0.024500  1.0
  N  N1264  1  0.293800  0.024500  0.703100  1.0
  N  N1265  1  0.706200  0.703100  0.975500  1.0
  N  N1266  1  0.293800  0.975500  0.296900  1.0
  N  N1267  1  0.151600  0.753700  0.546400  1.0
  N  N1268  1  0.848400  0.546400  0.246300  1.0
  N  N1269  1  0.151600  0.246300  0.453600  1.0
  N  N1270  1  0.848400  0.453600  0.753700  1.0
  N  N1271  1  0.848400  0.253700  0.953600  1.0
  N  N1272  1  0.151600  0.953600  0.746300  1.0
  N  N1273  1  0.848400  0.746300  0.046400  1.0
  N  N1274  1  0.151600  0.046400  0.253700  1.0
  N  N1275  1  0.203800  0.763700  0.521100  1.0
  N  N1276  1  0.796200  0.521100  0.236300  1.0
  N  N1277  1  0.203800  0.236300  0.478900  1.0
  N  N1278  1  0.796200  0.478900  0.763700  1.0
  N  N1279  1  0.796200  0.263700  0.978900  1.0
  N  N1280  1  0.203800  0.978900  0.736300  1.0
  N  N1281  1  0.796200  0.736300  0.021100  1.0
  N  N1282  1  0.203800  0.021100  0.263700  1.0
  N  N1283  1  0.255300  0.507200  0.688000  1.0
  N  N1284  1  0.744700  0.688000  0.492800  1.0
  N  N1285  1  0.255300  0.492800  0.312000  1.0
  N  N1286  1  0.744700  0.312000  0.507200  1.0
  N  N1287  1  0.744700  0.007200  0.812000  1.0
  N  N1288  1  0.255300  0.812000  0.992800  1.0
  N  N1289  1  0.744700  0.992800  0.188000  1.0
  N  N1290  1  0.255300  0.188000  0.007200  1.0
  N  N1291  1  0.083400  0.474000  0.654100  1.0
  N  N1292  1  0.916600  0.654100  0.526000  1.0
  N  N1293  1  0.083400  0.526000  0.345900  1.0
  N  N1294  1  0.916600  0.345900  0.474000  1.0
  N  N1295  1  0.916600  0.974000  0.845900  1.0
  N  N1296  1  0.083400  0.845900  0.026000  1.0
  N  N1297  1  0.916600  0.026000  0.154100  1.0
  N  N1298  1  0.083400  0.154100  0.974000  1.0
  N  N1299  1  0.141200  0.487500  0.670460  1.0
  N  N1300  1  0.858800  0.670460  0.512500  1.0
  N  N1301  1  0.141200  0.512500  0.329540  1.0
  N  N1302  1  0.858800  0.329540  0.487500  1.0
  N  N1303  1  0.858800  0.987500  0.829540  1.0
  N  N1304  1  0.141200  0.829540  0.012500  1.0
  N  N1305  1  0.858800  0.012500  0.170460  1.0
  N  N1306  1  0.141200  0.170460  0.987500  1.0
  N  N1307  1  0.661600  0.557800  0.709800  1.0
  N  N1308  1  0.338400  0.709800  0.442200  1.0
  N  N1309  1  0.661600  0.442200  0.290200  1.0
  N  N1310  1  0.338400  0.290200  0.557800  1.0
  N  N1311  1  0.338400  0.057800  0.790200  1.0
  N  N1312  1  0.661600  0.790200  0.942200  1.0
  N  N1313  1  0.338400  0.942200  0.209800  1.0
  N  N1314  1  0.661600  0.209800  0.057800  1.0
  N  N1315  1  0.832500  0.592600  0.748800  1.0
  N  N1316  1  0.167500  0.748800  0.407400  1.0
  N  N1317  1  0.832500  0.407400  0.251200  1.0
  N  N1318  1  0.167500  0.251200  0.592600  1.0
  N  N1319  1  0.167500  0.092600  0.751200  1.0
  N  N1320  1  0.832500  0.751200  0.907400  1.0
  N  N1321  1  0.167500  0.907400  0.248800  1.0
  N  N1322  1  0.832500  0.248800  0.092600  1.0
  N  N1323  1  0.776800  0.575440  0.732500  1.0
  N  N1324  1  0.223200  0.732500  0.424560  1.0
  N  N1325  1  0.776800  0.424560  0.267500  1.0
  N  N1326  1  0.223200  0.267500  0.575440  1.0
  N  N1327  1  0.223200  0.075440  0.767500  1.0
  N  N1328  1  0.776800  0.767500  0.924560  1.0
  N  N1329  1  0.223200  0.924560  0.232500  1.0
  N  N1330  1  0.776800  0.232500  0.075440  1.0
  O  O1331  1  0.476100  0.018300  0.732000  1
  O  O1332  1  0.523900  0.732000  0.981700  1
  O  O1333  1  0.476100  0.981700  0.268000  1
  O  O1334  1  0.523900  0.268000  0.018300  1
  O  O1335  1  0.523900  0.518300  0.768000  1
  O  O1336  1  0.476100  0.768000  0.481700  1
  O  O1337  1  0.523900  0.481700  0.232000  1
  O  O1338  1  0.476100  0.232000  0.518300  1
  O  O1339  1  0.575700  0.026200  0.730000  1
  O  O1340  1  0.424300  0.730000  0.973800  1
  O  O1341  1  0.575700  0.973800  0.270000  1
  O  O1342  1  0.424300  0.270000  0.026200  1
  O  O1343  1  0.424300  0.526200  0.770000  1
  O  O1344  1  0.575700  0.770000  0.473800  1
  O  O1345  1  0.424300  0.473800  0.230000  1
  O  O1346  1  0.575700  0.230000  0.526200  1
  O  O1347  1  0.413500  0.623700  0.686900  1
  O  O1348  1  0.586500  0.686900  0.376300  1
  O  O1349  1  0.413500  0.376300  0.313100  1
  O  O1350  1  0.586500  0.313100  0.623700  1
  O  O1351  1  0.586500  0.123700  0.813100  1
  O  O1352  1  0.413500  0.813100  0.876300  1
  O  O1353  1  0.586500  0.876300  0.186900  1
  O  O1354  1  0.413500  0.186900  0.123700  1
  O  O1355  1  0.338200  0.612500  0.732300  1
  O  O1356  1  0.661800  0.732300  0.387500  1
  O  O1357  1  0.338200  0.387500  0.267700  1
  O  O1358  1  0.661800  0.267700  0.612500  1
  O  O1359  1  0.661800  0.112500  0.767700  1
  O  O1360  1  0.338200  0.767700  0.887500  1
  O  O1361  1  0.661800  0.887500  0.232300  1
  O  O1362  1  0.338200  0.232300  0.112500  1
  F  F1363  1  0.301400  0.500000  0.500000  1
  F  F1364  1  0.698600  0.500000  0.500000  1
  F  F1365  1  0.698600  0.000000  0.000000  1
  F  F1366  1  0.301400  0.000000  0.000000  1
  F  F1367  1  0.445300  0.500000  0.500000  1
  F  F1368  1  0.554700  0.500000  0.500000  1
  F  F1369  1  0.554700  0.000000  0.000000  1
  F  F1370  1  0.445300  0.000000  0.000000  1
  F  F1371  1  0.450500  0.729300  0.770700  1
  F  F1372  1  0.549500  0.770700  0.270700  1
  F  F1373  1  0.450500  0.270700  0.229300  1
  F  F1374  1  0.549500  0.229300  0.729300  1
  F  F1375  1  0.381100  0.791900  0.708100  1
  F  F1376  1  0.618900  0.708100  0.208100  1
  F  F1377  1  0.381100  0.208100  0.291900  1
  F  F1378  1  0.618900  0.291900  0.791900  1
  F  F1379  1  0.019000  0.649200  0.850800  1
  F  F1380  1  0.981000  0.850800  0.350800  1
  F  F1381  1  0.019000  0.350800  0.149200  1
  F  F1382  1  0.981000  0.149200  0.649200  1
  F  F1383  1  0.023600  0.700300  0.799700  1
  F  F1384  1  0.976400  0.799700  0.299700  1
  F  F1385  1  0.023600  0.299700  0.200300  1
  F  F1386  1  0.976400  0.200300  0.700300  1
  F  F1387  1  0.672700  0.901900  0.598100  1
  F  F1388  1  0.327300  0.598100  0.098100  1
  F  F1389  1  0.672700  0.098100  0.401900  1
  F  F1390  1  0.327300  0.401900  0.901900  1
  F  F1391  1  0.528000  0.906600  0.593400  1
  F  F1392  1  0.472000  0.593400  0.093400  1
  F  F1393  1  0.528000  0.093400  0.406600  1
  F  F1394  1  0.472000  0.406600  0.906600  1
  F  F1395  1  0.478400  0.907800  0.407800  1
  F  F1396  1  0.521600  0.407800  0.092200  1
  F  F1397  1  0.478400  0.092200  0.592200  1
  F  F1398  1  0.521600  0.592200  0.907800  1
  F  F1399  1  0.578400  0.919600  0.419600  1
  F  F1400  1  0.421600  0.419600  0.080400  1
  F  F1401  1  0.578400  0.080400  0.580400  1
  F  F1402  1  0.421600  0.580400  0.919600  1
  F  F1403  1  0.603300  0.870800  0.370800  1
  F  F1404  1  0.396700  0.370800  0.129200  1
  F  F1405  1  0.603300  0.129200  0.629200  1
  F  F1406  1  0.396700  0.629200  0.870800  1
  F  F1407  1  0.503600  0.858800  0.358800  1
  F  F1408  1  0.496400  0.358800  0.141200  1
  F  F1409  1  0.503600  0.141200  0.641200  1
  F  F1410  1  0.496400  0.641200  0.858800  1
  F  F1411  1  0.316600  0.301200  0.801200  1
  F  F1412  1  0.683400  0.801200  0.698800  1
  F  F1413  1  0.316600  0.698800  0.198800  1
  F  F1414  1  0.683400  0.198800  0.301200  1
  F  F1415  1  0.392400  0.266400  0.766400  1
  F  F1416  1  0.607600  0.766400  0.733600  1
  F  F1417  1  0.392400  0.733600  0.233600  1
  F  F1418  1  0.607600  0.233600  0.266400  1
  F  F1419  1  0.373900  0.462900  0.534700  1.0
  F  F1420  1  0.626100  0.534700  0.537100  1.0
  F  F1421  1  0.373900  0.537100  0.465300  1.0
  F  F1422  1  0.626100  0.465300  0.462900  1.0
  F  F1423  1  0.626100  0.962900  0.965300  1.0
  F  F1424  1  0.373900  0.965300  0.037100  1.0
  F  F1425  1  0.626100  0.037100  0.034700  1.0
  F  F1426  1  0.373900  0.034700  0.962900  1.0
  F  F1427  1  0.372600  0.534700  0.536900  1.0
  F  F1428  1  0.627400  0.536900  0.465300  1.0
  F  F1429  1  0.372600  0.465300  0.463100  1.0
  F  F1430  1  0.627400  0.463100  0.534700  1.0
  F  F1431  1  0.627400  0.034700  0.963100  1.0
  F  F1432  1  0.372600  0.963100  0.965300  1.0
  F  F1433  1  0.627400  0.965300  0.036900  1.0
  F  F1434  1  0.372600  0.036900  0.034700  1.0
  F  F1435  1  0.372700  0.775400  0.777200  1.0
  F  F1436  1  0.627300  0.777200  0.224600  1.0
  F  F1437  1  0.372700  0.224600  0.222800  1.0
  F  F1438  1  0.627300  0.222800  0.775400  1.0
  F  F1439  1  0.627300  0.275400  0.722800  1.0
  F  F1440  1  0.372700  0.722800  0.724600  1.0
  F  F1441  1  0.627300  0.724600  0.277200  1.0
  F  F1442  1  0.372700  0.277200  0.275400  1.0
  F  F1443  1  0.459400  0.746000  0.701800  1.0
  F  F1444  1  0.540600  0.701800  0.254000  1.0
  F  F1445  1  0.459400  0.254000  0.298200  1.0
  F  F1446  1  0.540600  0.298200  0.746000  1.0
  F  F1447  1  0.540600  0.246000  0.798200  1.0
  F  F1448  1  0.459400  0.798200  0.754000  1.0
  F  F1449  1  0.540600  0.754000  0.201800  1.0
  F  F1450  1  0.459400  0.201800  0.246000  1.0
  F  F1451  1  0.952500  0.649800  0.797200  1.0
  F  F1452  1  0.047500  0.797200  0.350200  1.0
  F  F1453  1  0.952500  0.350200  0.202800  1.0
  F  F1454  1  0.047500  0.202800  0.649800  1.0
  F  F1455  1  0.047500  0.149800  0.702800  1.0
  F  F1456  1  0.952500  0.702800  0.850200  1.0
  F  F1457  1  0.047500  0.850200  0.297200  1.0
  F  F1458  1  0.952500  0.297200  0.149800  1.0
  F  F1459  1  0.603600  0.954800  0.595800  1.0
  F  F1460  1  0.396400  0.595800  0.045200  1.0
  F  F1461  1  0.603600  0.045200  0.404200  1.0
  F  F1462  1  0.396400  0.404200  0.954800  1.0
  F  F1463  1  0.396400  0.454800  0.904200  1.0
  F  F1464  1  0.603600  0.904200  0.545200  1.0
  F  F1465  1  0.396400  0.545200  0.095800  1.0
  F  F1466  1  0.603600  0.095800  0.454800  1.0
  F  F1467  1  0.597000  0.904500  0.645900  1.0
  F  F1468  1  0.403000  0.645900  0.095500  1.0
  F  F1469  1  0.597000  0.095500  0.354100  1.0
  F  F1470  1  0.403000  0.354100  0.904500  1.0
  F  F1471  1  0.403000  0.404500  0.854100  1.0
  F  F1472  1  0.597000  0.854100  0.595500  1.0
  F  F1473  1  0.403000  0.595500  0.145900  1.0
  F  F1474  1  0.597000  0.145900  0.404500  1.0
  F  F1475  1  0.538300  0.921800  0.351900  1.0
  F  F1476  1  0.461700  0.351900  0.078200  1.0
  F  F1477  1  0.538300  0.078200  0.648100  1.0
  F  F1478  1  0.461700  0.648100  0.921800  1.0
  F  F1479  1  0.461700  0.421800  0.148100  1.0
  F  F1480  1  0.538300  0.148100  0.578200  1.0
  F  F1481  1  0.461700  0.578200  0.851900  1.0
  F  F1482  1  0.538300  0.851900  0.421800  1.0
  F  F1483  1  0.310900  0.231300  0.788400  1.0
  F  F1484  1  0.689100  0.788400  0.768700  1.0
  F  F1485  1  0.310900  0.768700  0.211600  1.0
  F  F1486  1  0.689100  0.211600  0.231300  1.0
  F  F1487  1  0.689100  0.731300  0.711600  1.0
  F  F1488  1  0.310900  0.711600  0.268700  1.0
  F  F1489  1  0.689100  0.268700  0.288400  1.0
  F  F1490  1  0.310900  0.288400  0.731300  1.0
  F  F1491  1  0.104700  0.553400  0.501200  1.0
  F  F1492  1  0.895300  0.501200  0.446600  1.0
  F  F1493  1  0.104700  0.446600  0.498800  1.0
  F  F1494  1  0.895300  0.498800  0.553400  1.0
  F  F1495  1  0.895300  0.053400  0.998800  1.0
  F  F1496  1  0.104700  0.998800  0.946600  1.0
  F  F1497  1  0.895300  0.946600  0.001200  1.0
  F  F1498  1  0.104700  0.001200  0.053400  1.0
  F  F1499  1  0.030500  0.556600  0.549500  1.0
  F  F1500  1  0.969500  0.549500  0.443400  1.0
  F  F1501  1  0.030500  0.443400  0.450500  1.0
  F  F1502  1  0.969500  0.450500  0.556600  1.0
  F  F1503  1  0.969500  0.056600  0.950500  1.0
  F  F1504  1  0.030500  0.950500  0.943400  1.0
  F  F1505  1  0.969500  0.943400  0.049500  1.0
  F  F1506  1  0.030500  0.049500  0.056600  1.0
  F  F1507  1  0.085000  0.616000  0.532400  1.0
  F  F1508  1  0.915000  0.532400  0.384000  1.0
  F  F1509  1  0.085000  0.384000  0.467600  1.0
  F  F1510  1  0.915000  0.467600  0.616000  1.0
  F  F1511  1  0.915000  0.116000  0.967600  1.0
  F  F1512  1  0.085000  0.967600  0.884000  1.0
  F  F1513  1  0.915000  0.884000  0.032400  1.0
  F  F1514  1  0.085000  0.032400  0.116000  1.0
  F  F1515  1  0.129300  0.566100  0.570500  1.0
  F  F1516  1  0.870700  0.570500  0.433900  1.0
  F  F1517  1  0.129300  0.433900  0.429500  1.0
  F  F1518  1  0.870700  0.429500  0.566100  1.0
  F  F1519  1  0.870700  0.066100  0.929500  1.0
  F  F1520  1  0.129300  0.929500  0.933900  1.0
  F  F1521  1  0.870700  0.933900  0.070500  1.0
  F  F1522  1  0.129300  0.070500  0.066100  1.0
