
#######################################################################
#
#                 Cambridge Crystallographic Data Centre
#                                CCDC 
#
#######################################################################
#
# If this CIF has been generated from an entry in the Cambridge 
# Structural Database, then it will include bibliographic, chemical, 
# crystal, experimental, refinement or atomic coordinate data resulting 
# from the CCDC's data processing and validation procedures.
#
#######################################################################

data_GAFHED
_chemical_formula_moiety         
'C288 H240 Co4 N72 Ru4 6+,B4 F16 Na1 1+,6(F6 P1 1-),8(C1 H3 N1 O2),7(B1 F4 1-)'
_chemical_name_systematic        
'dodecakis(\m-2-(1-(3-((3-(pyridin-2-yl)-1H-pyrazol-1-yl)methyl)benzyl)-1H-pyrazol-3-yl)pyridine)-tetra-cobalt-tetra-ruthenium sodium-tetrakis(tetrafluoroborate) hexakis(hexafluorophosphate) heptakis(tetrafluoroborate) nitromethane unknown solvate'
_symmetry_cell_setting           tetragonal
_symmetry_space_group_name_H-M   'P -4 21 m'
_symmetry_Int_Tables_number      113
_space_group_name_Hall           'P -4 2ab'
loop_
_symmetry_equiv_pos_site_id
_symmetry_equiv_pos_as_xyz
1 x,y,z
2 y,-x,-z
3 -x,-y,z
4 -y,x,-z
5 1/2+x,1/2-y,-z
6 1/2-y,1/2-x,z
7 1/2-x,1/2+y,-z
8 1/2+y,1/2+x,z
_cell_length_a                   31.3553(12)
_cell_length_b                   31.3553(12)
_cell_length_c                   21.7210(8)
_cell_angle_alpha                90
_cell_angle_beta                 90
_cell_angle_gamma                90
_cell_volume                     21355.1
_exptl_crystal_colour            yellow
_exptl_crystal_description       cube
_cell_formula_units_Z            2
_chemical_properties_physical    Efflorescent
_exptl_crystal_recrystallization_method nitromethane/tetrahydrofuran
loop_
_atom_site_label
_atom_site_type_symbol
_atom_site_fract_x
_atom_site_fract_y
_atom_site_fract_z
Ru1 Ru 0.50307(3) 0.72878(3) 0.17985(5)
Co1 Co 0.73065(6) 0.48551(5) 0.27057(8)
N1 N 0.5193(2) 0.7821(2) 0.2310(4)
C1 C 0.4851(2) 0.8040(3) 0.2564(4)
C2 C 0.4923(3) 0.8396(3) 0.2932(4)
H1 H 0.4689 0.8546 0.3106
C3 C 0.5337(3) 0.8532(2) 0.3045(4)
H2 H 0.5387 0.8775 0.3296
C4 C 0.5680(2) 0.8312(3) 0.2791(5)
H3 H 0.5963 0.8405 0.2868
C5 C 0.5608(2) 0.7957(3) 0.2423(4)
H4 H 0.5842 0.7807 0.2249
N2 N 0.4016(2) 0.7380(2) 0.2042(4)
N3 N 0.4451(2) 0.7498(3) 0.2106(4)
C6 C 0.4468(2) 0.7878(3) 0.2462(4)
C7 C 0.4044(3) 0.7994(3) 0.2618(5)
H5 H 0.3962 0.8235 0.2854
C8 C 0.37648(19) 0.7686(3) 0.2358(5)
H6 H 0.3463 0.7686 0.2390
C9 C 0.3882(3) 0.6626(2) 0.2134(4)
C10 C 0.3784(3) 0.6240(3) 0.1853(3)
H7 H 0.3710 0.6233 0.1429
C11 C 0.3793(3) 0.5864(2) 0.2193(4)
C12 C 0.3900(3) 0.5875(2) 0.2813(4)
H8 H 0.3906 0.5618 0.3045
C13 C 0.3998(3) 0.6260(3) 0.3095(3)
H9 H 0.4072 0.6267 0.3519
C14 C 0.3989(3) 0.6636(2) 0.2755(4)
H10 H 0.4057 0.6900 0.2947
C15 C 0.3875(5) 0.7024(4) 0.1724(8)
H11 H 0.4060 0.6977 0.1360
H12 H 0.3581 0.7075 0.1575
N4 N 0.2755(2) 0.4591(2) 0.3275(4)
C16 C 0.3160(2) 0.4411(3) 0.3276(4)
C17 C 0.3239(2) 0.4042(3) 0.3613(5)
H13 H 0.3515 0.3919 0.3614
C18 C 0.2911(3) 0.3853(3) 0.3948(5)
H14 H 0.2965 0.3601 0.4177
C19 C 0.2506(3) 0.4033(3) 0.3946(5)
H15 H 0.2283 0.3904 0.4175
C20 C 0.2428(2) 0.4402(3) 0.3610(5)
H16 H 0.2151 0.4525 0.3609
N5 N 0.3695(2) 0.5094(2) 0.2222(4)
N6 N 0.33305(18) 0.4949(3) 0.2548(4)
C21 C 0.3458(3) 0.4604(3) 0.2931(4)
C22 C 0.3901(3) 0.4536(3) 0.2841(5)
H17 H 0.4070 0.4325 0.3039
C23 C 0.40479(18) 0.4838(3) 0.2403(5)
H18 H 0.4332 0.4865 0.2257
C24 C 0.3680(4) 0.5452(4) 0.1834(7)
H19 H 0.3391 0.5478 0.1656
H20 H 0.3885 0.5413 0.1491
N7 N 0.5009(2) 0.7699(2) 0.1038(3)
C25 C 0.5407(2) 0.7773(2) 0.0777(4)
C26 C 0.5454(2) 0.8079(3) 0.0319(4)
H21 H 0.5726 0.8130 0.0141
C27 C 0.5102(3) 0.8312(2) 0.0122(4)
H22 H 0.5133 0.8521 -0.0191
C28 C 0.4704(2) 0.8238(3) 0.0383(4)
H23 H 0.4463 0.8397 0.0248
C29 C 0.46575(19) 0.7932(3) 0.0841(4)
H24 H 0.4385 0.7882 0.1019
N8 N 0.6005(2) 0.6981(2) 0.1559(3)
N9 N 0.56364(18) 0.7233(2) 0.1451(3)
C30 C 0.5731(2) 0.7523(2) 0.0967(4)
C31 C 0.6157(2) 0.7449(3) 0.0776(3)
H25 H 0.6304 0.7598 0.0458
C32 C 0.63271(18) 0.7115(3) 0.1142(4)
H26 H 0.6607 0.7000 0.1113
C33 C 0.64656(19) 0.6496(2) 0.2079(4)
C34 C 0.6596(2) 0.6142(2) 0.1742(4)
H27 H 0.6399 0.5998 0.1482
C35 C 0.7014(2) 0.5998(2) 0.1787(4)
C36 C 0.73017(18) 0.6207(3) 0.2168(4)
H28 H 0.7587 0.6109 0.2198
C37 C 0.7172(2) 0.6561(3) 0.2505(4)
H29 H 0.7368 0.6704 0.2765
C38 C 0.6753(3) 0.6705(2) 0.2460(4)
H30 H 0.6664 0.6947 0.2690
C39 C 0.6015(4) 0.6667(4) 0.2013(6)
H31 H 0.5819 0.6432 0.1901
H32 H 0.5920 0.6789 0.2411
N10 N 0.7969(2) 0.4755(3) 0.2938(4)
C40 C 0.8261(3) 0.4961(4) 0.2560(4)
C41 C 0.8694(2) 0.4945(4) 0.2698(6)
H33 H 0.8893 0.5086 0.2439
C42 C 0.8834(2) 0.4723(4) 0.3213(6)
H34 H 0.9130 0.4712 0.3307
C43 C 0.8541(3) 0.4518(4) 0.3592(5)
H35 H 0.8637 0.4366 0.3944
C44 C 0.8109(3) 0.4534(3) 0.3454(4)
H36 H 0.7909 0.4393 0.3713
N11 N 0.7537(2) 0.5464(3) 0.1516(4)
N12 N 0.7637(2) 0.5211(3) 0.2038(4)
C45 C 0.8088(3) 0.5178(3) 0.2078(4)
C46 C 0.82666(19) 0.5411(4) 0.1581(5)
H37 H 0.8562 0.5443 0.1495
C47 C 0.7926(3) 0.5588(3) 0.1233(4)
H38 H 0.7954 0.5759 0.0874
C48 C 0.7128(4) 0.5619(4) 0.1414(7)
H39 H 0.6921 0.5389 0.1502
H40 H 0.7101 0.5694 0.0973
N13 N 0.5072(2) 0.6880(2) 0.2553(3)
C49 C 0.5015(3) 0.6449(2) 0.2428(3)
C50 C 0.5056(3) 0.61502(19) 0.2896(4)
H41 H 0.5018 0.5856 0.2811
C51 C 0.5154(3) 0.6282(3) 0.3491(4)
H42 H 0.5182 0.6078 0.3811
C52 C 0.5210(3) 0.6713(3) 0.3617(3)
H43 H 0.5277 0.6803 0.4023
C53 C 0.5169(3) 0.7012(2) 0.3148(4)
H44 H 0.5208 0.7307 0.3234
N14 N 0.4740(3) 0.6541(2) 0.0834(3)
N15 N 0.4875(3) 0.67046(17) 0.1412(3)
C54 C 0.4915(3) 0.6356(2) 0.1826(3)
C55 C 0.4805(3) 0.59780(17) 0.1504(4)
H45 H 0.4803 0.5698 0.1670
C56 C 0.4697(3) 0.6092(2) 0.0891(4)
H46 H 0.4611 0.5902 0.0575
C57 C 0.5179(2) 0.6839(3) 0.0016(4)
C58 C 0.5235(2) 0.7164(2) -0.0413(4)
H47 H 0.5011 0.7360 -0.0491
C59 C 0.5619(3) 0.7201(2) -0.0727(3)
C60 C 0.5948(2) 0.6914(3) -0.0613(4)
H48 H 0.6210 0.6939 -0.0827
C61 C 0.5891(2) 0.6589(2) -0.0184(4)
H49 H 0.6116 0.6393 -0.0106
C62 C 0.5507(3) 0.6552(2) 0.0130(3)
H50 H 0.5469 0.6330 0.0423
C63 C 0.4742(4) 0.6779(4) 0.0304(7)
H51 H 0.4621 0.7064 0.0397
H52 H 0.4553 0.6640 0.0000
N16 N 0.5578(2) 0.7098(3) -0.3384(3)
C64 C 0.6004(2) 0.7122(3) -0.3210(3)
C65 C 0.63224(19) 0.7005(3) -0.3623(4)
H53 H 0.6614 0.7022 -0.3504
C66 C 0.6214(3) 0.6863(3) -0.4209(4)
H54 H 0.6432 0.6783 -0.4491
C67 C 0.5788(3) 0.6839(3) -0.4382(3)
H55 H 0.5715 0.6742 -0.4783
C68 C 0.5470(2) 0.6956(3) -0.3970(4)
H56 H 0.5179 0.6939 -0.4088
N17 N 0.5926(2) 0.7488(3) -0.1675(3)
N18 N 0.57544(18) 0.7325(3) -0.2232(4)
C69 C 0.6098(3) 0.7248(3) -0.2642(3)
C70 C 0.64823(19) 0.7364(4) -0.2339(4)
H57 H 0.6762 0.7345 -0.2506
C71 C 0.6376(2) 0.7513(3) -0.1741(4)
H58 H 0.6571 0.7611 -0.1438
C72 C 0.5687(5) 0.7583(4) -0.1139(6)
H59 H 0.5405 0.7698 -0.1263
H60 H 0.5837 0.7808 -0.0903
Ru1A Ru 0.72878(3) 0.49693(3) -0.17985(5)
Co1A Co 0.48551(5) 0.26935(6) -0.27057(8)
N1A N 0.7821(2) 0.4807(2) -0.2310(4)
C1A C 0.8040(3) 0.5149(2) -0.2564(4)
C2A C 0.8396(3) 0.5077(3) -0.2932(4)
H1A H 0.8546 0.5311 -0.3106
C3A C 0.8532(2) 0.4663(3) -0.3045(4)
H2A H 0.8775 0.4613 -0.3296
C4A C 0.8312(3) 0.4320(2) -0.2791(5)
H3A H 0.8405 0.4037 -0.2868
C5A C 0.7957(3) 0.4392(2) -0.2423(4)
H4A H 0.7807 0.4158 -0.2249
N2A N 0.7380(2) 0.5984(2) -0.2042(4)
N3A N 0.7498(3) 0.5549(2) -0.2106(4)
C6A C 0.7878(3) 0.5532(2) -0.2462(4)
C7A C 0.7994(3) 0.5956(3) -0.2618(5)
H5A H 0.8235 0.6038 -0.2854
C8A C 0.7686(3) 0.62352(19) -0.2358(5)
H6A H 0.7686 0.6537 -0.2390
C9A C 0.6626(2) 0.6118(3) -0.2134(4)
C10A C 0.6240(3) 0.6216(3) -0.1853(3)
H7A H 0.6233 0.6290 -0.1429
C11A C 0.5864(2) 0.6207(3) -0.2193(4)
C12A C 0.5875(2) 0.6100(3) -0.2813(4)
H8A H 0.5618 0.6094 -0.3045
C13A C 0.6260(3) 0.6002(3) -0.3095(3)
H9A H 0.6267 0.5928 -0.3519
C14A C 0.6636(2) 0.6011(3) -0.2755(4)
H10A H 0.6900 0.5943 -0.2947
C15A C 0.7024(4) 0.6125(5) -0.1724(8)
H11A H 0.6977 0.5940 -0.1360
H12A H 0.7075 0.6419 -0.1575
N4A N 0.4591(2) 0.7245(2) -0.3275(4)
C16A C 0.4411(3) 0.6840(2) -0.3276(4)
C17A C 0.4042(3) 0.6761(2) -0.3613(5)
H13A H 0.3919 0.6485 -0.3614
C18A C 0.3853(3) 0.7089(3) -0.3948(5)
H14A H 0.3601 0.7035 -0.4177
C19A C 0.4033(3) 0.7494(3) -0.3946(5)
H15A H 0.3904 0.7717 -0.4175
C20A C 0.4402(3) 0.7572(2) -0.3610(5)
H16A H 0.4525 0.7849 -0.3609
N5A N 0.5094(2) 0.6305(2) -0.2222(4)
N6A N 0.4949(3) 0.66695(18) -0.2548(4)
C21A C 0.4604(3) 0.6542(3) -0.2931(4)
C22A C 0.4536(3) 0.6099(3) -0.2841(5)
H17A H 0.4325 0.5930 -0.3039
C23A C 0.4838(3) 0.59521(18) -0.2403(5)
H18A H 0.4865 0.5668 -0.2257
C24A C 0.5452(4) 0.6320(4) -0.1834(7)
H19A H 0.5478 0.6609 -0.1656
H20A H 0.5413 0.6115 -0.1491
N7A N 0.7699(2) 0.4991(2) -0.1038(3)
C25A C 0.7773(2) 0.4593(2) -0.0777(4)
C26A C 0.8079(3) 0.4546(2) -0.0319(4)
H21A H 0.8130 0.4274 -0.0141
C27A C 0.8312(2) 0.4898(3) -0.0122(4)
H22A H 0.8521 0.4867 0.0191
C28A C 0.8238(3) 0.5296(2) -0.0383(4)
H23A H 0.8397 0.5537 -0.0248
C29A C 0.7932(3) 0.53425(19) -0.0841(4)
H24A H 0.7882 0.5615 -0.1019
N8A N 0.6981(2) 0.3995(2) -0.1559(3)
N9A N 0.7233(2) 0.43636(18) -0.1451(3)
C30A C 0.7523(2) 0.4269(2) -0.0967(4)
C31A C 0.7449(3) 0.3843(2) -0.0776(3)
H25A H 0.7598 0.3696 -0.0458
C32A C 0.7115(3) 0.36729(18) -0.1142(4)
H26A H 0.7000 0.3393 -0.1113
C33A C 0.6496(2) 0.35344(19) -0.2079(4)
C34A C 0.6142(2) 0.3404(2) -0.1742(4)
H27A H 0.5998 0.3601 -0.1482
C35A C 0.5998(2) 0.2986(2) -0.1787(4)
C36A C 0.6207(3) 0.26983(18) -0.2168(4)
H28A H 0.6109 0.2413 -0.2198
C37A C 0.6561(3) 0.2828(2) -0.2505(4)
H29A H 0.6704 0.2632 -0.2765
C38A C 0.6705(2) 0.3247(3) -0.2460(4)
H30A H 0.6947 0.3336 -0.2690
C39A C 0.6667(4) 0.3985(4) -0.2013(6)
H31A H 0.6432 0.4181 -0.1901
H32A H 0.6789 0.4080 -0.2411
N10A N 0.4755(3) 0.2031(2) -0.2938(4)
C40A C 0.4961(4) 0.1739(3) -0.2560(4)
C41A C 0.4945(4) 0.1306(2) -0.2698(6)
H33A H 0.5086 0.1107 -0.2439
C42A C 0.4723(4) 0.1166(2) -0.3213(6)
H34A H 0.4712 0.0870 -0.3307
C43A C 0.4518(4) 0.1459(3) -0.3592(5)
H35A H 0.4366 0.1363 -0.3944
C44A C 0.4534(3) 0.1891(3) -0.3454(4)
H36A H 0.4393 0.2091 -0.3713
N11A N 0.5464(3) 0.2463(2) -0.1516(4)
N12A N 0.5211(3) 0.2363(2) -0.2038(4)
C45A C 0.5178(3) 0.1912(3) -0.2078(4)
C46A C 0.5411(4) 0.17334(19) -0.1581(5)
H37A H 0.5443 0.1438 -0.1495
C47A C 0.5588(3) 0.2074(3) -0.1233(4)
H38A H 0.5759 0.2046 -0.0874
C48A C 0.5619(4) 0.2872(4) -0.1414(7)
H39A H 0.5389 0.3079 -0.1502
H40A H 0.5694 0.2899 -0.0973
N13A N 0.6880(2) 0.4928(2) -0.2553(3)
C49A C 0.6449(2) 0.4985(3) -0.2428(3)
C50A C 0.61502(19) 0.4944(3) -0.2896(4)
H41A H 0.5856 0.4982 -0.2811
C51A C 0.6282(3) 0.4846(3) -0.3491(4)
H42A H 0.6078 0.4818 -0.3811
C52A C 0.6713(3) 0.4790(3) -0.3617(3)
H43A H 0.6803 0.4723 -0.4023
C53A C 0.7012(2) 0.4831(3) -0.3148(4)
H44A H 0.7307 0.4792 -0.3234
N14A N 0.6541(2) 0.5260(3) -0.0834(3)
N15A N 0.67046(17) 0.5125(3) -0.1412(3)
C54A C 0.6356(2) 0.5085(3) -0.1826(3)
C55A C 0.59780(17) 0.5195(3) -0.1504(4)
H45A H 0.5698 0.5197 -0.1670
C56A C 0.6092(2) 0.5303(3) -0.0891(4)
H46A H 0.5902 0.5389 -0.0575
C57A C 0.6839(3) 0.4821(2) -0.0016(4)
C58A C 0.7164(2) 0.4765(2) 0.0413(4)
H47A H 0.7360 0.4989 0.0491
C59A C 0.7201(2) 0.4381(3) 0.0727(3)
C60A C 0.6914(3) 0.4052(2) 0.0613(4)
H48A H 0.6939 0.3790 0.0827
C61A C 0.6589(2) 0.4109(2) 0.0184(4)
H49A H 0.6393 0.3884 0.0106
C62A C 0.6552(2) 0.4493(3) -0.0130(3)
H50A H 0.6330 0.4531 -0.0423
C63A C 0.6779(4) 0.5258(4) -0.0304(7)
H51A H 0.7064 0.5379 -0.0397
H52A H 0.6640 0.5447 0.0000
N16A N 0.7098(3) 0.4422(2) 0.3384(3)
C64A C 0.7122(3) 0.3996(2) 0.3210(3)
C65A C 0.7005(3) 0.36776(19) 0.3623(4)
H53A H 0.7022 0.3386 0.3504
C66A C 0.6863(3) 0.3786(3) 0.4209(4)
H54A H 0.6783 0.3568 0.4491
C67A C 0.6839(3) 0.4212(3) 0.4382(3)
H55A H 0.6742 0.4285 0.4783
C68A C 0.6956(3) 0.4530(2) 0.3970(4)
H56A H 0.6939 0.4821 0.4088
N17A N 0.7488(3) 0.4074(2) 0.1675(3)
N18A N 0.7325(3) 0.42456(18) 0.2232(4)
C69A C 0.7248(3) 0.3902(3) 0.2642(3)
C70A C 0.7364(4) 0.35177(19) 0.2339(4)
H57A H 0.7345 0.3238 0.2506
C71A C 0.7513(3) 0.3624(2) 0.1741(4)
H58A H 0.7611 0.3429 0.1438
C72A C 0.7583(4) 0.4313(5) 0.1139(6)
H59A H 0.7698 0.4595 0.1263
H60A H 0.7808 0.4163 0.0903
Ru1B Ru 0.49693(3) 0.27122(3) 0.17985(5)
Co1B Co 0.26935(6) 0.51449(5) 0.27057(8)
N1B N 0.4807(2) 0.2179(2) 0.2310(4)
C1B C 0.5149(2) 0.1960(3) 0.2564(4)
C2B C 0.5077(3) 0.1604(3) 0.2932(4)
H1B H 0.5311 0.1454 0.3106
C3B C 0.4663(3) 0.1468(2) 0.3045(4)
H2B H 0.4613 0.1225 0.3296
C4B C 0.4320(2) 0.1688(3) 0.2791(5)
H3B H 0.4037 0.1595 0.2868
C5B C 0.4392(2) 0.2043(3) 0.2423(4)
H4B H 0.4158 0.2193 0.2249
N2B N 0.5984(2) 0.2620(2) 0.2042(4)
N3B N 0.5549(2) 0.2502(3) 0.2106(4)
C6B C 0.5532(2) 0.2122(3) 0.2462(4)
C7B C 0.5956(3) 0.2006(3) 0.2618(5)
H5B H 0.6038 0.1765 0.2854
C8B C 0.62352(19) 0.2314(3) 0.2358(5)
H6B H 0.6537 0.2314 0.2390
C9B C 0.6118(3) 0.3374(2) 0.2134(4)
C10B C 0.6216(3) 0.3760(3) 0.1853(3)
H7B H 0.6290 0.3767 0.1429
C11B C 0.6207(3) 0.4136(2) 0.2193(4)
C12B C 0.6100(3) 0.4125(2) 0.2813(4)
H8B H 0.6094 0.4382 0.3045
C13B C 0.6002(3) 0.3740(3) 0.3095(3)
H9B H 0.5928 0.3733 0.3519
C14B C 0.6011(3) 0.3364(2) 0.2755(4)
H10B H 0.5943 0.3100 0.2947
C15B C 0.6125(5) 0.2976(4) 0.1724(8)
H11B H 0.5940 0.3023 0.1360
H12B H 0.6419 0.2925 0.1575
N4B N 0.7245(2) 0.5409(2) 0.3275(4)
C16B C 0.6840(2) 0.5589(3) 0.3276(4)
C17B C 0.6761(2) 0.5958(3) 0.3613(5)
H13B H 0.6485 0.6081 0.3614
C18B C 0.7089(3) 0.6147(3) 0.3948(5)
H14B H 0.7035 0.6399 0.4177
C19B C 0.7494(3) 0.5967(3) 0.3946(5)
H15B H 0.7717 0.6096 0.4175
C20B C 0.7572(2) 0.5598(3) 0.3610(5)
H16B H 0.7849 0.5475 0.3609
N5B N 0.6305(2) 0.4906(2) 0.2222(4)
N6B N 0.66695(18) 0.5051(3) 0.2548(4)
C21B C 0.6542(3) 0.5396(3) 0.2931(4)
C22B C 0.6099(3) 0.5464(3) 0.2841(5)
H17B H 0.5930 0.5675 0.3039
C23B C 0.59521(18) 0.5162(3) 0.2403(5)
H18B H 0.5668 0.5135 0.2257
C24B C 0.6320(4) 0.4548(4) 0.1834(7)
H19B H 0.6609 0.4522 0.1656
H20B H 0.6115 0.4587 0.1491
N7B N 0.4991(2) 0.2301(2) 0.1038(3)
C25B C 0.4593(2) 0.2227(2) 0.0777(4)
C26B C 0.4546(2) 0.1921(3) 0.0319(4)
H21B H 0.4274 0.1870 0.0141
C27B C 0.4898(3) 0.1688(2) 0.0122(4)
H22B H 0.4867 0.1479 -0.0191
C28B C 0.5296(2) 0.1762(3) 0.0383(4)
H23B H 0.5537 0.1603 0.0248
C29B C 0.53425(19) 0.2068(3) 0.0841(4)
H24B H 0.5615 0.2118 0.1019
N8B N 0.3995(2) 0.3019(2) 0.1559(3)
N9B N 0.43636(18) 0.2767(2) 0.1451(3)
C30B C 0.4269(2) 0.2477(2) 0.0967(4)
C31B C 0.3843(2) 0.2551(3) 0.0776(3)
H25B H 0.3696 0.2402 0.0458
C32B C 0.36729(18) 0.2885(3) 0.1142(4)
H26B H 0.3393 0.3000 0.1113
C33B C 0.35344(19) 0.3504(2) 0.2079(4)
C34B C 0.3404(2) 0.3858(2) 0.1742(4)
H27B H 0.3601 0.4002 0.1482
C35B C 0.2986(2) 0.4002(2) 0.1787(4)
C36B C 0.26983(18) 0.3793(3) 0.2168(4)
H28B H 0.2413 0.3891 0.2198
C37B C 0.2828(2) 0.3439(3) 0.2505(4)
H29B H 0.2632 0.3296 0.2765
C38B C 0.3247(3) 0.3295(2) 0.2460(4)
H30B H 0.3336 0.3053 0.2690
C39B C 0.3985(4) 0.3333(4) 0.2013(6)
H31B H 0.4181 0.3568 0.1901
H32B H 0.4080 0.3211 0.2411
N10B N 0.2031(2) 0.5245(3) 0.2938(4)
C40B C 0.1739(3) 0.5039(4) 0.2560(4)
C41B C 0.1306(2) 0.5055(4) 0.2698(6)
H33B H 0.1107 0.4914 0.2439
C42B C 0.1166(2) 0.5277(4) 0.3213(6)
H34B H 0.0870 0.5288 0.3307
C43B C 0.1459(3) 0.5482(4) 0.3592(5)
H35B H 0.1363 0.5634 0.3944
C44B C 0.1891(3) 0.5466(3) 0.3454(4)
H36B H 0.2091 0.5607 0.3713
N11B N 0.2463(2) 0.4536(3) 0.1516(4)
N12B N 0.2363(2) 0.4789(3) 0.2038(4)
C45B C 0.1912(3) 0.4822(3) 0.2078(4)
C46B C 0.17334(19) 0.4589(4) 0.1581(5)
H37B H 0.1438 0.4557 0.1495
C47B C 0.2074(3) 0.4412(3) 0.1233(4)
H38B H 0.2046 0.4241 0.0874
C48B C 0.2872(4) 0.4381(4) 0.1414(7)
H39B H 0.3079 0.4611 0.1502
H40B H 0.2899 0.4306 0.0973
N13B N 0.4928(2) 0.3120(2) 0.2553(3)
C49B C 0.4985(3) 0.3551(2) 0.2428(3)
C50B C 0.4944(3) 0.38498(19) 0.2896(4)
H41B H 0.4982 0.4144 0.2811
C51B C 0.4846(3) 0.3718(3) 0.3491(4)
H42B H 0.4818 0.3922 0.3811
C52B C 0.4790(3) 0.3287(3) 0.3617(3)
H43B H 0.4723 0.3197 0.4023
C53B C 0.4831(3) 0.2988(2) 0.3148(4)
H44B H 0.4792 0.2693 0.3234
N14B N 0.5260(3) 0.3459(2) 0.0834(3)
N15B N 0.5125(3) 0.32954(17) 0.1412(3)
C54B C 0.5085(3) 0.3644(2) 0.1826(3)
C55B C 0.5195(3) 0.40220(17) 0.1504(4)
H45B H 0.5197 0.4302 0.1670
C56B C 0.5303(3) 0.3908(2) 0.0891(4)
H46B H 0.5389 0.4098 0.0575
C57B C 0.4821(2) 0.3161(3) 0.0016(4)
C58B C 0.4765(2) 0.2836(2) -0.0413(4)
H47B H 0.4989 0.2640 -0.0491
C59B C 0.4381(3) 0.2799(2) -0.0727(3)
C60B C 0.4052(2) 0.3086(3) -0.0613(4)
H48B H 0.3790 0.3061 -0.0827
C61B C 0.4109(2) 0.3411(2) -0.0184(4)
H49B H 0.3884 0.3607 -0.0106
C62B C 0.4493(3) 0.3448(2) 0.0130(3)
H50B H 0.4531 0.3670 0.0423
C63B C 0.5258(4) 0.3221(4) 0.0304(7)
H51B H 0.5379 0.2936 0.0397
H52B H 0.5447 0.3360 0.0000
N16B N 0.4422(2) 0.2902(3) -0.3384(3)
C64B C 0.3996(2) 0.2878(3) -0.3210(3)
C65B C 0.36776(19) 0.2995(3) -0.3623(4)
H53B H 0.3386 0.2978 -0.3504
C66B C 0.3786(3) 0.3137(3) -0.4209(4)
H54B H 0.3568 0.3217 -0.4491
C67B C 0.4212(3) 0.3161(3) -0.4382(3)
H55B H 0.4285 0.3258 -0.4783
C68B C 0.4530(2) 0.3044(3) -0.3970(4)
H56B H 0.4821 0.3061 -0.4088
N17B N 0.4074(2) 0.2512(3) -0.1675(3)
N18B N 0.42456(18) 0.2675(3) -0.2232(4)
C69B C 0.3902(3) 0.2752(3) -0.2642(3)
C70B C 0.35177(19) 0.2636(4) -0.2339(4)
H57B H 0.3238 0.2655 -0.2506
C71B C 0.3624(2) 0.2487(3) -0.1741(4)
H58B H 0.3429 0.2389 -0.1438
C72B C 0.4313(5) 0.2417(4) -0.1139(6)
H59B H 0.4595 0.2302 -0.1263
H60B H 0.4163 0.2192 -0.0903
Ru1C Ru 0.27122(3) 0.50307(3) -0.17985(5)
Co1C Co 0.51449(5) 0.73065(6) -0.27057(8)
N1C N 0.2179(2) 0.5193(2) -0.2310(4)
C1C C 0.1960(3) 0.4851(2) -0.2564(4)
C2C C 0.1604(3) 0.4923(3) -0.2932(4)
H1C H 0.1454 0.4689 -0.3106
C3C C 0.1468(2) 0.5337(3) -0.3045(4)
H2C H 0.1225 0.5387 -0.3296
C4C C 0.1688(3) 0.5680(2) -0.2791(5)
H3C H 0.1595 0.5963 -0.2868
C5C C 0.2043(3) 0.5608(2) -0.2423(4)
H4C H 0.2193 0.5842 -0.2249
N2C N 0.2620(2) 0.4016(2) -0.2042(4)
N3C N 0.2502(3) 0.4451(2) -0.2106(4)
C6C C 0.2122(3) 0.4468(2) -0.2462(4)
C7C C 0.2006(3) 0.4044(3) -0.2618(5)
H5C H 0.1765 0.3962 -0.2854
C8C C 0.2314(3) 0.37648(19) -0.2358(5)
H6C H 0.2314 0.3463 -0.2390
C9C C 0.3374(2) 0.3882(3) -0.2134(4)
C10C C 0.3760(3) 0.3784(3) -0.1853(3)
H7C H 0.3767 0.3710 -0.1429
C11C C 0.4136(2) 0.3793(3) -0.2193(4)
C12C C 0.4125(2) 0.3900(3) -0.2813(4)
H8C H 0.4382 0.3906 -0.3045
C13C C 0.3740(3) 0.3998(3) -0.3095(3)
H9C H 0.3733 0.4072 -0.3519
C14C C 0.3364(2) 0.3989(3) -0.2755(4)
H10C H 0.3100 0.4057 -0.2947
C15C C 0.2976(4) 0.3875(5) -0.1724(8)
H11C H 0.3023 0.4060 -0.1360
H12C H 0.2925 0.3581 -0.1575
N4C N 0.5409(2) 0.2755(2) -0.3275(4)
C16C C 0.5589(3) 0.3160(2) -0.3276(4)
C17C C 0.5958(3) 0.3239(2) -0.3613(5)
H13C H 0.6081 0.3515 -0.3614
C18C C 0.6147(3) 0.2911(3) -0.3948(5)
H14C H 0.6399 0.2965 -0.4177
C19C C 0.5967(3) 0.2506(3) -0.3946(5)
H15C H 0.6096 0.2283 -0.4175
C20C C 0.5598(3) 0.2428(2) -0.3610(5)
H16C H 0.5475 0.2151 -0.3609
N5C N 0.4906(2) 0.3695(2) -0.2222(4)
N6C N 0.5051(3) 0.33305(18) -0.2548(4)
C21C C 0.5396(3) 0.3458(3) -0.2931(4)
C22C C 0.5464(3) 0.3901(3) -0.2841(5)
H17C H 0.5675 0.4070 -0.3039
C23C C 0.5162(3) 0.40479(18) -0.2403(5)
H18C H 0.5135 0.4332 -0.2257
C24C C 0.4548(4) 0.3680(4) -0.1834(7)
H19C H 0.4522 0.3391 -0.1656
H20C H 0.4587 0.3885 -0.1491
N7C N 0.2301(2) 0.5009(2) -0.1038(3)
C25C C 0.2227(2) 0.5407(2) -0.0777(4)
C26C C 0.1921(3) 0.5454(2) -0.0319(4)
H21C H 0.1870 0.5726 -0.0141
C27C C 0.1688(2) 0.5102(3) -0.0122(4)
H22C H 0.1479 0.5133 0.0191
C28C C 0.1762(3) 0.4704(2) -0.0383(4)
H23C H 0.1603 0.4463 -0.0248
C29C C 0.2068(3) 0.46575(19) -0.0841(4)
H24C H 0.2118 0.4385 -0.1019
N8C N 0.3019(2) 0.6005(2) -0.1559(3)
N9C N 0.2767(2) 0.56364(18) -0.1451(3)
C30C C 0.2477(2) 0.5731(2) -0.0967(4)
C31C C 0.2551(3) 0.6157(2) -0.0776(3)
H25C H 0.2402 0.6304 -0.0458
C32C C 0.2885(3) 0.63271(18) -0.1142(4)
H26C H 0.3000 0.6607 -0.1113
C33C C 0.3504(2) 0.64656(19) -0.2079(4)
C34C C 0.3858(2) 0.6596(2) -0.1742(4)
H27C H 0.4002 0.6399 -0.1482
C35C C 0.4002(2) 0.7014(2) -0.1787(4)
C36C C 0.3793(3) 0.73017(18) -0.2168(4)
H28C H 0.3891 0.7587 -0.2198
C37C C 0.3439(3) 0.7172(2) -0.2505(4)
H29C H 0.3296 0.7368 -0.2765
C38C C 0.3295(2) 0.6753(3) -0.2460(4)
H30C H 0.3053 0.6664 -0.2690
C39C C 0.3333(4) 0.6015(4) -0.2013(6)
H31C H 0.3568 0.5819 -0.1901
H32C H 0.3211 0.5920 -0.2411
N10C N 0.5245(3) 0.7969(2) -0.2938(4)
C40C C 0.5039(4) 0.8261(3) -0.2560(4)
C41C C 0.5055(4) 0.8694(2) -0.2698(6)
H33C H 0.4914 0.8893 -0.2439
C42C C 0.5277(4) 0.8834(2) -0.3213(6)
H34C H 0.5288 0.9130 -0.3307
C43C C 0.5482(4) 0.8541(3) -0.3592(5)
H35C H 0.5634 0.8637 -0.3944
C44C C 0.5466(3) 0.8109(3) -0.3454(4)
H36C H 0.5607 0.7909 -0.3713
N11C N 0.4536(3) 0.7537(2) -0.1516(4)
N12C N 0.4789(3) 0.7637(2) -0.2038(4)
C45C C 0.4822(3) 0.8088(3) -0.2078(4)
C46C C 0.4589(4) 0.82666(19) -0.1581(5)
H37C H 0.4557 0.8562 -0.1495
C47C C 0.4412(3) 0.7926(3) -0.1233(4)
H38C H 0.4241 0.7954 -0.0874
C48C C 0.4381(4) 0.7128(4) -0.1414(7)
H39C H 0.4611 0.6921 -0.1502
H40C H 0.4306 0.7101 -0.0973
N13C N 0.3120(2) 0.5072(2) -0.2553(3)
C49C C 0.3551(2) 0.5015(3) -0.2428(3)
C50C C 0.38498(19) 0.5056(3) -0.2896(4)
H41C H 0.4144 0.5018 -0.2811
C51C C 0.3718(3) 0.5154(3) -0.3491(4)
H42C H 0.3922 0.5182 -0.3811
C52C C 0.3287(3) 0.5210(3) -0.3617(3)
H43C H 0.3197 0.5277 -0.4023
C53C C 0.2988(2) 0.5169(3) -0.3148(4)
H44C H 0.2693 0.5208 -0.3234
N14C N 0.3459(2) 0.4740(3) -0.0834(3)
N15C N 0.32954(17) 0.4875(3) -0.1412(3)
C54C C 0.3644(2) 0.4915(3) -0.1826(3)
C55C C 0.40220(17) 0.4805(3) -0.1504(4)
H45C H 0.4302 0.4803 -0.1670
C56C C 0.3908(2) 0.4697(3) -0.0891(4)
H46C H 0.4098 0.4611 -0.0575
C57C C 0.3161(3) 0.5179(2) -0.0016(4)
C58C C 0.2836(2) 0.5235(2) 0.0413(4)
H47C H 0.2640 0.5011 0.0491
C59C C 0.2799(2) 0.5619(3) 0.0727(3)
C60C C 0.3086(3) 0.5948(2) 0.0613(4)
H48C H 0.3061 0.6210 0.0827
C61C C 0.3411(2) 0.5891(2) 0.0184(4)
H49C H 0.3607 0.6116 0.0106
C62C C 0.3448(2) 0.5507(3) -0.0130(3)
H50C H 0.3670 0.5469 -0.0423
C63C C 0.3221(4) 0.4742(4) -0.0304(7)
H51C H 0.2936 0.4621 -0.0397
H52C H 0.3360 0.4553 0.0000
N16C N 0.2902(3) 0.5578(2) 0.3384(3)
C64C C 0.2878(3) 0.6004(2) 0.3210(3)
C65C C 0.2995(3) 0.63224(19) 0.3623(4)
H53C H 0.2978 0.6614 0.3504
C66C C 0.3137(3) 0.6214(3) 0.4209(4)
H54C H 0.3217 0.6432 0.4491
C67C C 0.3161(3) 0.5788(3) 0.4382(3)
H55C H 0.3258 0.5715 0.4783
C68C C 0.3044(3) 0.5470(2) 0.3970(4)
H56C H 0.3061 0.5179 0.4088
N17C N 0.2512(3) 0.5926(2) 0.1675(3)
N18C N 0.2675(3) 0.57544(18) 0.2232(4)
C69C C 0.2752(3) 0.6098(3) 0.2642(3)
C70C C 0.2636(4) 0.64823(19) 0.2339(4)
H57C H 0.2655 0.6762 0.2506
C71C C 0.2487(3) 0.6376(2) 0.1741(4)
H58C H 0.2389 0.6571 0.1438
C72C C 0.2417(4) 0.5687(5) 0.1139(6)
H59C H 0.2302 0.5405 0.1263
H60C H 0.2192 0.5837 0.0903
Na1 Na 0.5000 0.5000 0.0000
B1 B 0.5733(4) 0.5377(4) 0.0860(7)
F1 F 0.5534(3) 0.5012(3) 0.1047(5)
F2 F 0.5566(3) 0.5495(3) 0.0305(4)
F3 F 0.6160(3) 0.5324(3) 0.0850(5)
F4 F 0.5661(4) 0.5705(3) 0.1293(5)
B1A B 0.5377(4) 0.4267(4) -0.0860(7)
F1A F 0.5012(3) 0.4466(3) -0.1047(5)
F2A F 0.5495(3) 0.4434(3) -0.0305(4)
F3A F 0.5324(3) 0.3840(3) -0.0850(5)
F4A F 0.5705(3) 0.4339(4) -0.1293(5)
B1B B 0.4267(4) 0.4623(4) 0.0860(7)
F1B F 0.4466(3) 0.4988(3) 0.1047(5)
F2B F 0.4434(3) 0.4505(3) 0.0305(4)
F3B F 0.3840(3) 0.4676(3) 0.0850(5)
F4B F 0.4339(4) 0.4295(3) 0.1293(5)
B1C B 0.4623(4) 0.5733(4) -0.0860(7)
F1C F 0.4988(3) 0.5534(3) -0.1047(5)
F2C F 0.4505(3) 0.5566(3) -0.0305(4)
F3C F 0.4676(3) 0.6160(3) -0.0850(5)
F4C F 0.4295(3) 0.5661(4) -0.1293(5)
P1 P 0.5000 0.5000 0.3730(5)
F5 F 0.4629(4) 0.5347(5) 0.3739(6)
F6 F 0.5347(5) 0.5369(6) 0.3726(7)
F7 F 0.5000 0.5000 0.3014(6)
F8 F 0.5000 0.5000 0.4453(7)
F5B F 0.5371(4) 0.4653(5) 0.3739(6)
F6B F 0.4653(5) 0.4631(6) 0.3726(7)
P2 P 0.7605(2) 0.7395(2) 0.4157(5)
F9 F 0.7754(5) 0.7772(3) 0.3727(6)
F10 F 0.7293(4) 0.7707(4) 0.4505(9)
F11 F 0.7460(8) 0.7018(5) 0.4594(10)
F12 F 0.7919(3) 0.7081(3) 0.3811(10)
F9E F 0.7228(3) 0.7246(5) 0.3727(6)
F11E F 0.7982(5) 0.7540(8) 0.4594(10)
B2 B 0.6754(4) 0.8246(4) 0.9846(10)
F13 F 0.6498(4) 0.7972(4) 0.9525(6)
F14 F 0.6492(3) 0.8508(3) 1.0190(8)
F15 F 0.7003(4) 0.7997(4) 1.0236(9)
F13E F 0.7028(4) 0.8502(4) 0.9525(6)
P3 P 0.9049(3) 0.5951(3) 0.6005(6)
F16 F 0.9548(4) 0.5958(8) 0.6036(8)
F17 F 0.9045(9) 0.6459(5) 0.5970(11)
F18 F 0.9019(5) 0.5981(5) 0.6727(7)
F19 F 0.9066(7) 0.5934(7) 0.5280(7)
F16E F 0.9042(8) 0.5452(4) 0.6036(8)
F17E F 0.8541(5) 0.5955(9) 0.5970(11)
P4 P 0.8892(3) 0.3892(3) 0.5408(6)
F20 F 0.9078(5) 0.4078(5) 0.4784(9)
F21 F 0.9218(6) 0.3519(6) 0.5383(9)
F22 F 0.9196(5) 0.4196(5) 0.5784(11)
F23 F 0.8708(6) 0.3708(6) 0.6033(9)
F24 F 0.8588(4) 0.3588(4) 0.5036(11)
F21G F 0.8519(6) 0.4218(6) 0.5383(9)
B3 B 0.2702(4) 0.7702(4) 0.3285(10)
F25 F 0.3012(3) 0.8012(3) 0.3166(9)
F26 F 0.2313(4) 0.7884(5) 0.3109(7)
F27 F 0.2664(5) 0.7664(5) 0.3924(8)
F26G F 0.2884(5) 0.7313(4) 0.3109(7)
C73 C 0.9893(9) 0.6762(7) 0.5263(14)
H61 H 1.0105 0.6540 0.5347
H62 H 0.9766 0.6714 0.4857
H63 H 0.9669 0.6752 0.5578
N19 N 1.0099(6) 0.7178(6) 0.5276(9)
O1 O 1.0183(7) 0.7320(7) 0.4761(10)
O2 O 1.0262(7) 0.7300(7) 0.5757(9)
O3 O 0.6237(4) 0.6869(4) 0.4135(6)
C74 C 0.6279(6) 0.7600(5) 0.4316(9)
H64 H 0.6008 0.7690 0.4496
H65 H 0.6398 0.7832 0.4069
H66 H 0.6479 0.7525 0.4645
O4 O 0.6125(4) 0.7323(4) 0.3382(5)
N20 N 0.6209(4) 0.7228(4) 0.3924(6)
loop_
_geom_bond_atom_site_label_1
_geom_bond_atom_site_label_2
_geom_bond_site_symmetry_1
_geom_bond_site_symmetry_2
Ru1 N1 1_555 1_555
Co1 N10 1_555 1_555
N1 C1 1_555 1_555
C1 C2 1_555 1_555
C2 H1 1_555 1_555
C3 C2 1_555 1_555
H2 C3 1_555 1_555
C4 C3 1_555 1_555
H3 C4 1_555 1_555
C5 N1 1_555 1_555
H4 C5 1_555 1_555
N2 N3 1_555 1_555
N3 Ru1 1_555 1_555
C6 C1 1_555 1_555
C7 C6 1_555 1_555
H5 C7 1_555 1_555
C8 N2 1_555 1_555
H6 C8 1_555 1_555
C9 C10 1_555 1_555
C10 H7 1_555 1_555
C11 C10 1_555 1_555
C12 C11 1_555 1_555
H8 C12 1_555 1_555
C13 C12 1_555 1_555
H9 C13 1_555 1_555
C14 C9 1_555 1_555
H10 C14 1_555 1_555
C15 N2 1_555 1_555
H11 C15 1_555 1_555
H12 C15 1_555 1_555
N4 C16 1_555 1_555
C16 C17 1_555 1_555
C17 H13 1_555 1_555
C18 C17 1_555 1_555
H14 C18 1_555 1_555
C19 C18 1_555 1_555
H15 C19 1_555 1_555
C20 N4 1_555 1_555
H16 C20 1_555 1_555
N5 N6 1_555 1_555
N6 C21 1_555 1_555
C21 C16 1_555 1_555
C22 C21 1_555 1_555
H17 C22 1_555 1_555
C23 N5 1_555 1_555
H18 C23 1_555 1_555
C24 C11 1_555 1_555
H19 C24 1_555 1_555
H20 C24 1_555 1_555
N7 Ru1 1_555 1_555
C25 N7 1_555 1_555
C26 C25 1_555 1_555
H21 C26 1_555 1_555
C27 C26 1_555 1_555
H22 C27 1_555 1_555
C28 C27 1_555 1_555
H23 C28 1_555 1_555
C29 N7 1_555 1_555
H24 C29 1_555 1_555
N8 N9 1_555 1_555
N9 Ru1 1_555 1_555
C30 C25 1_555 1_555
C31 C30 1_555 1_555
H25 C31 1_555 1_555
C32 N8 1_555 1_555
H26 C32 1_555 1_555
C33 C34 1_555 1_555
C34 H27 1_555 1_555
C35 C34 1_555 1_555
C36 C35 1_555 1_555
H28 C36 1_555 1_555
C37 C36 1_555 1_555
H29 C37 1_555 1_555
C38 C33 1_555 1_555
H30 C38 1_555 1_555
C39 N8 1_555 1_555
H31 C39 1_555 1_555
H32 C39 1_555 1_555
N10 C40 1_555 1_555
C40 C41 1_555 1_555
C41 H33 1_555 1_555
C42 C41 1_555 1_555
H34 C42 1_555 1_555
C43 C42 1_555 1_555
H35 C43 1_555 1_555
C44 N10 1_555 1_555
H36 C44 1_555 1_555
N11 N12 1_555 1_555
N12 Co1 1_555 1_555
C45 C40 1_555 1_555
C46 C45 1_555 1_555
H37 C46 1_555 1_555
C47 N11 1_555 1_555
H38 C47 1_555 1_555
C48 C35 1_555 1_555
H39 C48 1_555 1_555
H40 C48 1_555 1_555
N13 Ru1 1_555 1_555
C49 N13 1_555 1_555
C50 C49 1_555 1_555
H41 C50 1_555 1_555
C51 C50 1_555 1_555
H42 C51 1_555 1_555
C52 C51 1_555 1_555
H43 C52 1_555 1_555
C53 N13 1_555 1_555
H44 C53 1_555 1_555
N14 N15 1_555 1_555
N15 Ru1 1_555 1_555
C54 C49 1_555 1_555
C55 C54 1_555 1_555
H45 C55 1_555 1_555
C56 N14 1_555 1_555
H46 C56 1_555 1_555
C57 C58 1_555 1_555
C58 H47 1_555 1_555
C59 C58 1_555 1_555
C60 C59 1_555 1_555
H48 C60 1_555 1_555
C61 C60 1_555 1_555
H49 C61 1_555 1_555
C62 C57 1_555 1_555
H50 C62 1_555 1_555
C63 N14 1_555 1_555
H51 C63 1_555 1_555
H52 C63 1_555 1_555
N16 C64 1_555 1_555
C64 C65 1_555 1_555
C65 H53 1_555 1_555
C66 C65 1_555 1_555
H54 C66 1_555 1_555
C67 C66 1_555 1_555
H55 C67 1_555 1_555
C68 N16 1_555 1_555
H56 C68 1_555 1_555
N17 N18 1_555 1_555
N18 C69 1_555 1_555
C69 C64 1_555 1_555
C70 C69 1_555 1_555
H57 C70 1_555 1_555
C71 N17 1_555 1_555
H58 C71 1_555 1_555
C72 C59 1_555 1_555
H59 C72 1_555 1_555
H60 C72 1_555 1_555
Na1 F2 1_555 1_555
B1 F1 1_555 1_555
F2 B1 1_555 1_555
F3 B1 1_555 1_555
F4 B1 1_555 1_555
P1 F5 1_555 1_555
F6 P1 1_555 1_555
F7 P1 1_555 1_555
F8 P1 1_555 1_555
P2 F9 1_555 1_555
F10 P2 1_555 1_555
F11 P2 1_555 1_555
F12 P2 1_555 1_555
B2 F13 1_555 1_555
F14 B2 1_555 1_555
F15 B2 1_555 1_555
P3 F16 1_555 1_555
F17 P3 1_555 1_555
F18 P3 1_555 1_555
F19 P3 1_555 1_555
P4 F20 1_555 1_555
F21 P4 1_555 1_555
F22 P4 1_555 1_555
F23 P4 1_555 1_555
F24 P4 1_555 1_555
B3 F25 1_555 1_555
F26 B3 1_555 1_555
F27 B3 1_555 1_555
C73 H61 1_555 1_555
H62 C73 1_555 1_555
H63 C73 1_555 1_555
N19 C73 1_555 1_555
O1 N19 1_555 1_555
O2 N19 1_555 1_555
O3 N20 1_555 1_555
C74 H64 1_555 1_555
H65 C74 1_555 1_555
H66 C74 1_555 1_555
O4 N20 1_555 1_555
N20 C74 1_555 1_555
Ru1A N1A 1_555 1_555
Co1A N10A 1_555 1_555
N1A C1A 1_555 1_555
C1A C2A 1_555 1_555
C2A H1A 1_555 1_555
C3A C2A 1_555 1_555
H2A C3A 1_555 1_555
C4A C3A 1_555 1_555
H3A C4A 1_555 1_555
C5A N1A 1_555 1_555
H4A C5A 1_555 1_555
N2A N3A 1_555 1_555
N3A Ru1A 1_555 1_555
C6A C1A 1_555 1_555
C7A C6A 1_555 1_555
H5A C7A 1_555 1_555
C8A N2A 1_555 1_555
H6A C8A 1_555 1_555
C9A C10A 1_555 1_555
C10A H7A 1_555 1_555
C11A C10A 1_555 1_555
C12A C11A 1_555 1_555
H8A C12A 1_555 1_555
C13A C12A 1_555 1_555
H9A C13A 1_555 1_555
C14A C9A 1_555 1_555
H10A C14A 1_555 1_555
C15A N2A 1_555 1_555
H11A C15A 1_555 1_555
H12A C15A 1_555 1_555
N4A C16A 1_555 1_555
C16A C17A 1_555 1_555
C17A H13A 1_555 1_555
C18A C17A 1_555 1_555
H14A C18A 1_555 1_555
C19A C18A 1_555 1_555
H15A C19A 1_555 1_555
C20A N4A 1_555 1_555
H16A C20A 1_555 1_555
N5A N6A 1_555 1_555
N6A C21A 1_555 1_555
C21A C16A 1_555 1_555
C22A C21A 1_555 1_555
H17A C22A 1_555 1_555
C23A N5A 1_555 1_555
H18A C23A 1_555 1_555
C24A C11A 1_555 1_555
H19A C24A 1_555 1_555
H20A C24A 1_555 1_555
N7A Ru1A 1_555 1_555
C25A N7A 1_555 1_555
C26A C25A 1_555 1_555
H21A C26A 1_555 1_555
C27A C26A 1_555 1_555
H22A C27A 1_555 1_555
C28A C27A 1_555 1_555
H23A C28A 1_555 1_555
C29A N7A 1_555 1_555
H24A C29A 1_555 1_555
N8A N9A 1_555 1_555
N9A Ru1A 1_555 1_555
C30A C25A 1_555 1_555
C31A C30A 1_555 1_555
H25A C31A 1_555 1_555
C32A N8A 1_555 1_555
H26A C32A 1_555 1_555
C33A C34A 1_555 1_555
C34A H27A 1_555 1_555
C35A C34A 1_555 1_555
C36A C35A 1_555 1_555
H28A C36A 1_555 1_555
C37A C36A 1_555 1_555
H29A C37A 1_555 1_555
C38A C33A 1_555 1_555
H30A C38A 1_555 1_555
C39A N8A 1_555 1_555
H31A C39A 1_555 1_555
H32A C39A 1_555 1_555
N10A C40A 1_555 1_555
C40A C41A 1_555 1_555
C41A H33A 1_555 1_555
C42A C41A 1_555 1_555
H34A C42A 1_555 1_555
C43A C42A 1_555 1_555
H35A C43A 1_555 1_555
C44A N10A 1_555 1_555
H36A C44A 1_555 1_555
N11A N12A 1_555 1_555
N12A Co1A 1_555 1_555
C45A C40A 1_555 1_555
C46A C45A 1_555 1_555
H37A C46A 1_555 1_555
C47A N11A 1_555 1_555
H38A C47A 1_555 1_555
C48A C35A 1_555 1_555
H39A C48A 1_555 1_555
H40A C48A 1_555 1_555
N13A Ru1A 1_555 1_555
C49A N13A 1_555 1_555
C50A C49A 1_555 1_555
H41A C50A 1_555 1_555
C51A C50A 1_555 1_555
H42A C51A 1_555 1_555
C52A C51A 1_555 1_555
H43A C52A 1_555 1_555
C53A N13A 1_555 1_555
H44A C53A 1_555 1_555
N14A N15A 1_555 1_555
N15A Ru1A 1_555 1_555
C54A C49A 1_555 1_555
C55A C54A 1_555 1_555
H45A C55A 1_555 1_555
C56A N14A 1_555 1_555
H46A C56A 1_555 1_555
C57A C58A 1_555 1_555
C58A H47A 1_555 1_555
C59A C58A 1_555 1_555
C60A C59A 1_555 1_555
H48A C60A 1_555 1_555
C61A C60A 1_555 1_555
H49A C61A 1_555 1_555
C62A C57A 1_555 1_555
H50A C62A 1_555 1_555
C63A N14A 1_555 1_555
H51A C63A 1_555 1_555
H52A C63A 1_555 1_555
N16A Co1 1_555 1_555
C64A N16A 1_555 1_555
C65A C64A 1_555 1_555
H53A C65A 1_555 1_555
C66A C65A 1_555 1_555
H54A C66A 1_555 1_555
C67A C66A 1_555 1_555
H55A C67A 1_555 1_555
C68A N16A 1_555 1_555
H56A C68A 1_555 1_555
N17A N18A 1_555 1_555
N18A Co1 1_555 1_555
C69A C64A 1_555 1_555
C70A C69A 1_555 1_555
H57A C70A 1_555 1_555
C71A N17A 1_555 1_555
H58A C71A 1_555 1_555
C72A C59A 1_555 1_555
H59A C72A 1_555 1_555
H60A C72A 1_555 1_555
Ru1B N1B 1_555 1_555
Co1B N4 1_555 1_555
N1B C1B 1_555 1_555
C1B C2B 1_555 1_555
C2B H1B 1_555 1_555
C3B C2B 1_555 1_555
H2B C3B 1_555 1_555
C4B C3B 1_555 1_555
H3B C4B 1_555 1_555
C5B N1B 1_555 1_555
H4B C5B 1_555 1_555
N2B N3B 1_555 1_555
N3B Ru1B 1_555 1_555
C6B C1B 1_555 1_555
C7B C6B 1_555 1_555
H5B C7B 1_555 1_555
C8B N2B 1_555 1_555
H6B C8B 1_555 1_555
C9B C10B 1_555 1_555
C10B H7B 1_555 1_555
C11B C10B 1_555 1_555
C12B C11B 1_555 1_555
H8B C12B 1_555 1_555
C13B C12B 1_555 1_555
H9B C13B 1_555 1_555
C14B C9B 1_555 1_555
H10B C14B 1_555 1_555
C15B N2B 1_555 1_555
H11B C15B 1_555 1_555
H12B C15B 1_555 1_555
N4B Co1 1_555 1_555
C16B N4B 1_555 1_555
C17B C16B 1_555 1_555
H13B C17B 1_555 1_555
C18B C17B 1_555 1_555
H14B C18B 1_555 1_555
C19B C18B 1_555 1_555
H15B C19B 1_555 1_555
C20B N4B 1_555 1_555
H16B C20B 1_555 1_555
N5B N6B 1_555 1_555
N6B Co1 1_555 1_555
C21B C16B 1_555 1_555
C22B C21B 1_555 1_555
H17B C22B 1_555 1_555
C23B N5B 1_555 1_555
H18B C23B 1_555 1_555
C24B C11B 1_555 1_555
H19B C24B 1_555 1_555
H20B C24B 1_555 1_555
N7B Ru1B 1_555 1_555
C25B N7B 1_555 1_555
C26B C25B 1_555 1_555
H21B C26B 1_555 1_555
C27B C26B 1_555 1_555
H22B C27B 1_555 1_555
C28B C27B 1_555 1_555
H23B C28B 1_555 1_555
C29B N7B 1_555 1_555
H24B C29B 1_555 1_555
N8B N9B 1_555 1_555
N9B Ru1B 1_555 1_555
C30B C25B 1_555 1_555
C31B C30B 1_555 1_555
H25B C31B 1_555 1_555
C32B N8B 1_555 1_555
H26B C32B 1_555 1_555
C33B C34B 1_555 1_555
C34B H27B 1_555 1_555
C35B C34B 1_555 1_555
C36B C35B 1_555 1_555
H28B C36B 1_555 1_555
C37B C36B 1_555 1_555
H29B C37B 1_555 1_555
C38B C33B 1_555 1_555
H30B C38B 1_555 1_555
C39B N8B 1_555 1_555
H31B C39B 1_555 1_555
H32B C39B 1_555 1_555
N10B Co1B 1_555 1_555
C40B N10B 1_555 1_555
C41B C40B 1_555 1_555
H33B C41B 1_555 1_555
C42B C41B 1_555 1_555
H34B C42B 1_555 1_555
C43B C42B 1_555 1_555
H35B C43B 1_555 1_555
C44B N10B 1_555 1_555
H36B C44B 1_555 1_555
N11B N12B 1_555 1_555
N12B Co1B 1_555 1_555
C45B C40B 1_555 1_555
C46B C45B 1_555 1_555
H37B C46B 1_555 1_555
C47B N11B 1_555 1_555
H38B C47B 1_555 1_555
C48B C35B 1_555 1_555
H39B C48B 1_555 1_555
H40B C48B 1_555 1_555
N13B Ru1B 1_555 1_555
C49B N13B 1_555 1_555
C50B C49B 1_555 1_555
H41B C50B 1_555 1_555
C51B C50B 1_555 1_555
H42B C51B 1_555 1_555
C52B C51B 1_555 1_555
H43B C52B 1_555 1_555
C53B N13B 1_555 1_555
H44B C53B 1_555 1_555
N14B N15B 1_555 1_555
N15B Ru1B 1_555 1_555
C54B C49B 1_555 1_555
C55B C54B 1_555 1_555
H45B C55B 1_555 1_555
C56B N14B 1_555 1_555
H46B C56B 1_555 1_555
C57B C58B 1_555 1_555
C58B H47B 1_555 1_555
C59B C58B 1_555 1_555
C60B C59B 1_555 1_555
H48B C60B 1_555 1_555
C61B C60B 1_555 1_555
H49B C61B 1_555 1_555
C62B C57B 1_555 1_555
H50B C62B 1_555 1_555
C63B N14B 1_555 1_555
H51B C63B 1_555 1_555
H52B C63B 1_555 1_555
N16B Co1A 1_555 1_555
C64B N16B 1_555 1_555
C65B C64B 1_555 1_555
H53B C65B 1_555 1_555
C66B C65B 1_555 1_555
H54B C66B 1_555 1_555
C67B C66B 1_555 1_555
H55B C67B 1_555 1_555
C68B N16B 1_555 1_555
H56B C68B 1_555 1_555
N17B N18B 1_555 1_555
N18B Co1A 1_555 1_555
C69B C64B 1_555 1_555
C70B C69B 1_555 1_555
H57B C70B 1_555 1_555
C71B N17B 1_555 1_555
H58B C71B 1_555 1_555
C72B C59B 1_555 1_555
H59B C72B 1_555 1_555
H60B C72B 1_555 1_555
Ru1C N1C 1_555 1_555
Co1C N16 1_555 1_555
N1C C1C 1_555 1_555
C1C C2C 1_555 1_555
C2C H1C 1_555 1_555
C3C C2C 1_555 1_555
H2C C3C 1_555 1_555
C4C C3C 1_555 1_555
H3C C4C 1_555 1_555
C5C N1C 1_555 1_555
H4C C5C 1_555 1_555
N2C N3C 1_555 1_555
N3C Ru1C 1_555 1_555
C6C C1C 1_555 1_555
C7C C6C 1_555 1_555
H5C C7C 1_555 1_555
C8C N2C 1_555 1_555
H6C C8C 1_555 1_555
C9C C10C 1_555 1_555
C10C H7C 1_555 1_555
C11C C10C 1_555 1_555
C12C C11C 1_555 1_555
H8C C12C 1_555 1_555
C13C C12C 1_555 1_555
H9C C13C 1_555 1_555
C14C C9C 1_555 1_555
H10C C14C 1_555 1_555
C15C N2C 1_555 1_555
H11C C15C 1_555 1_555
H12C C15C 1_555 1_555
N4C Co1A 1_555 1_555
C16C N4C 1_555 1_555
C17C C16C 1_555 1_555
H13C C17C 1_555 1_555
C18C C17C 1_555 1_555
H14C C18C 1_555 1_555
C19C C18C 1_555 1_555
H15C C19C 1_555 1_555
C20C N4C 1_555 1_555
H16C C20C 1_555 1_555
N5C N6C 1_555 1_555
N6C Co1A 1_555 1_555
C21C C16C 1_555 1_555
C22C C21C 1_555 1_555
H17C C22C 1_555 1_555
C23C N5C 1_555 1_555
H18C C23C 1_555 1_555
C24C C11C 1_555 1_555
H19C C24C 1_555 1_555
H20C C24C 1_555 1_555
N7C Ru1C 1_555 1_555
C25C N7C 1_555 1_555
C26C C25C 1_555 1_555
H21C C26C 1_555 1_555
C27C C26C 1_555 1_555
H22C C27C 1_555 1_555
C28C C27C 1_555 1_555
H23C C28C 1_555 1_555
C29C N7C 1_555 1_555
H24C C29C 1_555 1_555
N8C N9C 1_555 1_555
N9C Ru1C 1_555 1_555
C30C C25C 1_555 1_555
C31C C30C 1_555 1_555
H25C C31C 1_555 1_555
C32C N8C 1_555 1_555
H26C C32C 1_555 1_555
C33C C34C 1_555 1_555
C34C H27C 1_555 1_555
C35C C34C 1_555 1_555
C36C C35C 1_555 1_555
H28C C36C 1_555 1_555
C37C C36C 1_555 1_555
H29C C37C 1_555 1_555
C38C C33C 1_555 1_555
H30C C38C 1_555 1_555
C39C N8C 1_555 1_555
H31C C39C 1_555 1_555
H32C C39C 1_555 1_555
N10C Co1C 1_555 1_555
C40C N10C 1_555 1_555
C41C C40C 1_555 1_555
H33C C41C 1_555 1_555
C42C C41C 1_555 1_555
H34C C42C 1_555 1_555
C43C C42C 1_555 1_555
H35C C43C 1_555 1_555
C44C N10C 1_555 1_555
H36C C44C 1_555 1_555
N11C N12C 1_555 1_555
N12C Co1C 1_555 1_555
C45C C40C 1_555 1_555
C46C C45C 1_555 1_555
H37C C46C 1_555 1_555
C47C N11C 1_555 1_555
H38C C47C 1_555 1_555
C48C C35C 1_555 1_555
H39C C48C 1_555 1_555
H40C C48C 1_555 1_555
N13C Ru1C 1_555 1_555
C49C N13C 1_555 1_555
C50C C49C 1_555 1_555
H41C C50C 1_555 1_555
C51C C50C 1_555 1_555
H42C C51C 1_555 1_555
C52C C51C 1_555 1_555
H43C C52C 1_555 1_555
C53C N13C 1_555 1_555
H44C C53C 1_555 1_555
N14C N15C 1_555 1_555
N15C Ru1C 1_555 1_555
C54C C49C 1_555 1_555
C55C C54C 1_555 1_555
H45C C55C 1_555 1_555
C56C N14C 1_555 1_555
H46C C56C 1_555 1_555
C57C C58C 1_555 1_555
C58C H47C 1_555 1_555
C59C C58C 1_555 1_555
C60C C59C 1_555 1_555
H48C C60C 1_555 1_555
C61C C60C 1_555 1_555
H49C C61C 1_555 1_555
C62C C57C 1_555 1_555
H50C C62C 1_555 1_555
C63C N14C 1_555 1_555
H51C C63C 1_555 1_555
H52C C63C 1_555 1_555
N16C Co1B 1_555 1_555
C64C N16C 1_555 1_555
C65C C64C 1_555 1_555
H53C C65C 1_555 1_555
C66C C65C 1_555 1_555
H54C C66C 1_555 1_555
C67C C66C 1_555 1_555
H55C C67C 1_555 1_555
C68C N16C 1_555 1_555
H56C C68C 1_555 1_555
N17C N18C 1_555 1_555
N18C Co1B 1_555 1_555
C69C C64C 1_555 1_555
C70C C69C 1_555 1_555
H57C C70C 1_555 1_555
C71C N17C 1_555 1_555
H58C C71C 1_555 1_555
C72C C59C 1_555 1_555
H59C C72C 1_555 1_555
H60C C72C 1_555 1_555
B1A F1A 1_555 1_555
F2A Na1 1_555 1_555
F3A B1A 1_555 1_555
F4A B1A 1_555 1_555
B1B F1B 1_555 1_555
F2B Na1 1_555 1_555
F3B B1B 1_555 1_555
F4B B1B 1_555 1_555
B1C F1C 1_555 1_555
F2C Na1 1_555 1_555
F3C B1C 1_555 1_555
F4C B1C 1_555 1_555
F5B P1 1_555 1_555
F6B P1 1_555 1_555
F9E P2 1_555 1_555
F11E P2 1_555 1_555
F13E B2 1_555 1_555
F16E P3 1_555 1_555
F17E P3 1_555 1_555
F21G P4 1_555 1_555
F26G B3 1_555 1_555
C4 C5 1_555 1_555
N3 C6 1_555 1_555
C7 C8 1_555 1_555
C9 C15 1_555 1_555
C13 C14 1_555 1_555
C19 C20 1_555 1_555
N5 C24 1_555 1_555
N6 Co1B 1_555 1_555
C22 C23 1_555 1_555
C28 C29 1_555 1_555
N9 C30 1_555 1_555
C31 C32 1_555 1_555
C33 C39 1_555 1_555
C37 C38 1_555 1_555
C43 C44 1_555 1_555
N11 C48 1_555 1_555
N12 C45 1_555 1_555
C46 C47 1_555 1_555
C52 C53 1_555 1_555
N15 C54 1_555 1_555
C55 C56 1_555 1_555
C57 C63 1_555 1_555
C61 C62 1_555 1_555
C67 C68 1_555 1_555
N17 C72 1_555 1_555
N18 Co1C 1_555 1_555
C70 C71 1_555 1_555
C4A C5A 1_555 1_555
N3A C6A 1_555 1_555
C7A C8A 1_555 1_555
C9A C15A 1_555 1_555
C13A C14A 1_555 1_555
N4A Co1C 1_555 1_555
C19A C20A 1_555 1_555
N5A C24A 1_555 1_555
N6A Co1C 1_555 1_555
C22A C23A 1_555 1_555
C28A C29A 1_555 1_555
N9A C30A 1_555 1_555
C31A C32A 1_555 1_555
C33A C39A 1_555 1_555
C37A C38A 1_555 1_555
C43A C44A 1_555 1_555
N11A C48A 1_555 1_555
N12A C45A 1_555 1_555
C46A C47A 1_555 1_555
C52A C53A 1_555 1_555
N15A C54A 1_555 1_555
C55A C56A 1_555 1_555
C57A C63A 1_555 1_555
C61A C62A 1_555 1_555
C67A C68A 1_555 1_555
N17A C72A 1_555 1_555
N18A C69A 1_555 1_555
C70A C71A 1_555 1_555
C4B C5B 1_555 1_555
N3B C6B 1_555 1_555
C7B C8B 1_555 1_555
C9B C15B 1_555 1_555
C13B C14B 1_555 1_555
C19B C20B 1_555 1_555
N5B C24B 1_555 1_555
N6B C21B 1_555 1_555
C22B C23B 1_555 1_555
C28B C29B 1_555 1_555
N9B C30B 1_555 1_555
C31B C32B 1_555 1_555
C33B C39B 1_555 1_555
C37B C38B 1_555 1_555
C43B C44B 1_555 1_555
N11B C48B 1_555 1_555
N12B C45B 1_555 1_555
C46B C47B 1_555 1_555
C52B C53B 1_555 1_555
N15B C54B 1_555 1_555
C55B C56B 1_555 1_555
C57B C63B 1_555 1_555
C61B C62B 1_555 1_555
C67B C68B 1_555 1_555
N17B C72B 1_555 1_555
N18B C69B 1_555 1_555
C70B C71B 1_555 1_555
C4C C5C 1_555 1_555
N3C C6C 1_555 1_555
C7C C8C 1_555 1_555
C9C C15C 1_555 1_555
C13C C14C 1_555 1_555
C19C C20C 1_555 1_555
N5C C24C 1_555 1_555
N6C C21C 1_555 1_555
C22C C23C 1_555 1_555
C28C C29C 1_555 1_555
N9C C30C 1_555 1_555
C31C C32C 1_555 1_555
C33C C39C 1_555 1_555
C37C C38C 1_555 1_555
C43C C44C 1_555 1_555
N11C C48C 1_555 1_555
N12C C45C 1_555 1_555
C46C C47C 1_555 1_555
C52C C53C 1_555 1_555
N15C C54C 1_555 1_555
C55C C56C 1_555 1_555
C57C C63C 1_555 1_555
C61C C62C 1_555 1_555
C67C C68C 1_555 1_555
N17C C72C 1_555 1_555
N18C C69C 1_555 1_555
C70C C71C 1_555 1_555
B1A F2A 1_555 1_555
B1B F2B 1_555 1_555
B1C F2C 1_555 1_555

#END
