
#######################################################################
#
#                 Cambridge Crystallographic Data Centre
#                                CCDC 
#
#######################################################################
#
# If this CIF has been generated from an entry in the Cambridge 
# Structural Database, then it will include bibliographic, chemical, 
# crystal, experimental, refinement or atomic coordinate data resulting 
# from the CCDC's data processing and validation procedures.
#
#######################################################################

data_GAFHON
_chemical_formula_moiety         
'C132 H108 Co2 N36 Ru2 S6 8+,3(F6 P1 1-),2.5(C2 H3 N1),5(B1 F4 1-),H2 O1'
_chemical_name_systematic        
'hexakis(\m-2-(1-((5-((3-(pyridin-2-yl)-1H-pyrazol-1-yl)methyl)-2-thienyl)methyl)-1H-pyrazol-3-yl)pyridine)-di-cobalt-di-ruthenium tris(hexafluorophosphate) pentakis(tetrafluoroborate) acetonitrile solvate monohydrate'
_symmetry_cell_setting           monoclinic
_symmetry_space_group_name_H-M   'P 21/c'
_symmetry_Int_Tables_number      14
_space_group_name_Hall           '-P 2ybc'
loop_
_symmetry_equiv_pos_site_id
_symmetry_equiv_pos_as_xyz
1 x,y,z
2 -x,1/2+y,1/2-z
3 -x,-y,-z
4 x,1/2-y,1/2+z
_cell_length_a                   17.3091(12)
_cell_length_b                   42.874(3)
_cell_length_c                   22.2336(16)
_cell_angle_alpha                90
_cell_angle_beta                 103.1010(18)
_cell_angle_gamma                90
_cell_volume                     16070.3
_exptl_crystal_colour            yellow
_exptl_crystal_description       Needle
_cell_formula_units_Z            4
_chemical_properties_physical    Efflorescent
_exptl_crystal_recrystallization_method 'acetonitrile/diethyl ether'
loop_
_atom_site_label
_atom_site_type_symbol
_atom_site_fract_x
_atom_site_fract_y
_atom_site_fract_z
Co1 Co 1.29091(9) 0.45185(3) 0.20960(7)
Co2 Co 0.84929(9) 0.38807(4) 0.30906(7)
N1 N 1.4068(7) 0.4363(3) 0.2149(6)
C1 C 1.4522(9) 0.4563(4) 0.1885(7)
C2 C 1.5332(11) 0.4508(5) 0.1940(8)
H1 H 1.5650 0.4647 0.1767
C3 C 1.5651(12) 0.4241(5) 0.2259(11)
H2 H 1.6202 0.4199 0.2316
C4 C 1.5169(12) 0.4033(4) 0.2497(9)
H3 H 1.5381 0.3845 0.2692
C5 C 1.4399(9) 0.4107(4) 0.2441(8)
H4 H 1.4077 0.3971 0.2616
N2 N 1.3129(7) 0.5151(3) 0.1296(6)
N3 N 1.3359(7) 0.4877(3) 0.1597(6)
C6 C 1.4112(9) 0.4829(4) 0.1580(7)
C7 C 1.4390(11) 0.5085(4) 0.1258(7)
H5 H 1.4902 0.5115 0.1180
C8 C 1.3734(10) 0.5274(4) 0.1094(7)
H6 H 1.3714 0.5463 0.0870
C9 C 1.2308(10) 0.5268(4) 0.1140(8)
H7 H 1.1988 0.5154 0.1384
H8 H 1.2074 0.5229 0.0697
N4 N 1.1028(9) 0.7316(3) 0.1222(6)
C10 C 1.1751(11) 0.7329(4) 0.1097(8)
C11 C 1.1977(15) 0.7551(5) 0.0729(12)
H9 H 1.2503 0.7554 0.0668
C12 C 1.1448(18) 0.7762(5) 0.0458(12)
H10 H 1.1600 0.7918 0.0203
C13 C 1.0666(17) 0.7758(4) 0.0544(9)
H11 H 1.0289 0.7910 0.0353
C14 C 1.0463(14) 0.7526(4) 0.0916(9)
H12 H 0.9931 0.7511 0.0963
N5 N 1.2608(10) 0.6685(3) 0.1984(7)
N6 N 1.1980(9) 0.6859(3) 0.1699(7)
C15 C 1.2312(12) 0.7098(4) 0.1436(9)
C16 C 1.3115(12) 0.7069(4) 0.1558(11)
H13 H 1.3480 0.7204 0.1428
C17 C 1.3289(13) 0.6805(4) 0.1906(11)
H14 H 1.3803 0.6722 0.2064
C18 C 1.2506(10) 0.6381(4) 0.2261(8)
H15 H 1.2981 0.6335 0.2591
H16 H 1.2042 0.6390 0.2451
C19 C 1.2277(9) 0.5609(4) 0.1268(8)
S1 S 1.2369(2) 0.57396(9) 0.2024(2)
C20 C 1.2390(9) 0.6131(3) 0.1804(9)
C21 C 1.2325(11) 0.6147(4) 0.1172(8)
H17 H 1.2340 0.6337 0.0958
C22 C 1.2231(11) 0.5846(4) 0.0869(9)
H18 H 1.2146 0.5820 0.0435
N7 N 1.2563(7) 0.4236(3) 0.1310(5)
C23 C 1.2365(8) 0.3937(4) 0.1409(7)
C24 C 1.2149(10) 0.3710(4) 0.0946(9)
H19 H 1.2000 0.3505 0.1038
C25 C 1.2164(14) 0.3798(6) 0.0353(12)
H20 H 1.2028 0.3652 0.0025
C26 C 1.2380(11) 0.4104(6) 0.0231(8)
H21 H 1.2389 0.4169 -0.0176
C27 C 1.2580(11) 0.4309(4) 0.0728(8)
H22 H 1.2739 0.4514 0.0648
N8 N 1.2650(8) 0.3954(3) 0.3028(6)
N9 N 1.2601(7) 0.4091(3) 0.2465(6)
C28 C 1.2382(8) 0.3859(4) 0.2033(8)
C29 C 1.2297(10) 0.3579(4) 0.2356(9)
H23 H 1.2143 0.3382 0.2172
C30 C 1.2476(10) 0.3642(4) 0.2978(8)
H24 H 1.2478 0.3499 0.3305
C31 C 1.2864(10) 0.4124(4) 0.3602(8)
H25 H 1.3282 0.4277 0.3573
H26 H 1.3091 0.3976 0.3938
N10 N 0.7848(7) 0.4035(3) 0.2208(6)
C32 C 0.7998(8) 0.4327(3) 0.2052(7)
C33 C 0.7577(9) 0.4469(4) 0.1525(8)
H27 H 0.7671 0.4681 0.1440
C34 C 0.7016(11) 0.4297(5) 0.1120(8)
H28 H 0.6726 0.4386 0.0745
C35 C 0.6883(11) 0.3986(5) 0.1276(9)
H29 H 0.6500 0.3861 0.1006
C36 C 0.7306(9) 0.3868(4) 0.1813(9)
H30 H 0.7215 0.3658 0.1914
N11 N 0.9490(8) 0.4538(3) 0.3344(6)
N12 N 0.8981(7) 0.4332(3) 0.3007(6)
C37 C 0.8595(8) 0.4490(3) 0.2494(7)
C38 C 0.8888(10) 0.4796(4) 0.2508(9)
H31 H 0.8738 0.4953 0.2202
C39 C 0.9436(13) 0.4819(4) 0.3055(10)
H32 H 0.9730 0.5000 0.3208
C40 C 1.0013(9) 0.4467(4) 0.3945(7)
H33 H 0.9851 0.4265 0.4091
H34 H 0.9937 0.4629 0.4244
C41 C 1.2179(9) 0.4295(4) 0.3773(7)
S2 S 1.1217(2) 0.41631(10) 0.35096(18)
C42 C 1.0872(10) 0.4451(4) 0.3941(8)
C43 C 1.1479(9) 0.4631(4) 0.4250(7)
H35 H 1.1407 0.4801 0.4505
C44 C 1.2218(10) 0.4542(4) 0.4160(8)
H36 H 1.2699 0.4643 0.4349
N13 N 1.3237(7) 0.4791(3) 0.2903(5)
C45 C 1.2642(9) 0.4982(4) 0.3028(8)
C46 C 1.2793(12) 0.5183(4) 0.3541(8)
H37 H 1.2377 0.5304 0.3636
C47 C 1.3516(13) 0.5201(4) 0.3888(9)
H38 H 1.3628 0.5347 0.4219
C48 C 1.4130(11) 0.5007(4) 0.3772(8)
H39 H 1.4650 0.5018 0.4027
C49 C 1.3959(9) 0.4809(3) 0.3298(8)
H40 H 1.4365 0.4672 0.3234
N14 N 1.1099(8) 0.4775(3) 0.1791(6)
N15 N 1.1829(7) 0.4743(2) 0.2122(5)
C50 C 1.1881(9) 0.4947(3) 0.2596(7)
C51 C 1.1166(10) 0.5104(4) 0.2571(8)
H41 H 1.1045 0.5254 0.2850
C52 C 1.0692(11) 0.4989(4) 0.2051(9)
H42 H 1.0156 0.5049 0.1891
C53 C 1.0784(10) 0.4611(4) 0.1205(7)
H43 H 1.1230 0.4512 0.1067
H44 H 1.0542 0.4766 0.0889
N16 N 0.9189(8) 0.3730(3) 0.3948(6)
C54 C 0.9879(9) 0.3582(3) 0.3924(8)
C55 C 1.0407(10) 0.3503(3) 0.4444(8)
H45 H 1.0893 0.3406 0.4420
C56 C 1.0237(13) 0.3563(4) 0.5022(8)
H46 H 1.0605 0.3506 0.5391
C57 C 0.9542(13) 0.3702(4) 0.5047(8)
H47 H 0.9400 0.3736 0.5430
C58 C 0.9061(11) 0.3790(4) 0.4508(7)
H48 H 0.8594 0.3902 0.4528
N17 N 0.9632(7) 0.3522(3) 0.2310(6)
N18 N 0.9424(8) 0.3630(3) 0.2832(6)
C59 C 0.9974(9) 0.3518(3) 0.3309(7)
C60 C 1.0522(10) 0.3339(4) 0.3107(9)
H49 H 1.0968 0.3235 0.3352
C61 C 1.0284(11) 0.3341(4) 0.2467(10)
H50 H 1.0536 0.3235 0.2189
C62 C 0.9199(10) 0.3589(4) 0.1693(7)
H51 H 0.8624 0.3592 0.1683
H52 H 0.9296 0.3422 0.1413
C63 C 1.0182(9) 0.4368(3) 0.1239(7)
S3 S 1.0381(2) 0.40563(9) 0.17369(18)
C64 C 0.9438(9) 0.3903(4) 0.1462(7)
C65 C 0.9022(10) 0.4083(4) 0.1028(7)
H53 H 0.8491 0.4036 0.0824
C66 C 0.9423(10) 0.4350(4) 0.0888(7)
H54 H 0.9193 0.4501 0.0586
N19 N 0.5485(8) 0.6558(3) 0.3193(7)
C67 C 0.4882(9) 0.6383(4) 0.3323(8)
C68 C 0.4313(11) 0.6502(5) 0.3610(9)
H55 H 0.3894 0.6376 0.3687
C69 C 0.4389(13) 0.6822(5) 0.3784(11)
H56 H 0.4009 0.6915 0.3976
C70 C 0.4989(13) 0.6989(5) 0.3680(13)
H57 H 0.5052 0.7200 0.3813
C71 C 0.5531(11) 0.6854(4) 0.3373(10)
H58 H 0.5947 0.6979 0.3290
N20 N 0.5295(7) 0.5667(3) 0.2689(6)
N21 N 0.5471(7) 0.5962(3) 0.2880(6)
C72 C 0.4861(9) 0.6066(4) 0.3106(7)
C73 C 0.4285(9) 0.5830(4) 0.3047(7)
H59 H 0.3790 0.5842 0.3163
C74 C 0.4579(10) 0.5583(4) 0.2791(8)
H60 H 0.4328 0.5386 0.2700
C75 C 0.5863(9) 0.5468(4) 0.2488(7)
H61 H 0.6239 0.5599 0.2324
H62 H 0.5581 0.5332 0.2149
N22 N 0.7811(7) 0.3473(3) 0.3073(6)
C76 C 0.7178(10) 0.3497(4) 0.3333(9)
C77 C 0.6688(12) 0.3251(5) 0.3352(12)
H63 H 0.6260 0.3273 0.3551
C78 C 0.6803(16) 0.2976(5) 0.3091(16)
H64 H 0.6440 0.2809 0.3080
C79 C 0.7458(12) 0.2942(4) 0.2840(10)
H65 H 0.7573 0.2748 0.2672
C80 C 0.7940(11) 0.3200(4) 0.2843(8)
H66 H 0.8390 0.3178 0.2669
N23 N 0.7296(8) 0.4295(3) 0.3750(7)
N24 N 0.7570(7) 0.4037(3) 0.3518(6)
C81 C 0.7055(9) 0.3803(4) 0.3587(8)
C82 C 0.6456(10) 0.3925(5) 0.3866(8)
H67 H 0.6027 0.3816 0.3970
C83 C 0.6638(11) 0.4235(4) 0.3950(8)
H68 H 0.6344 0.4383 0.4122
C84 C 0.7737(9) 0.4595(4) 0.3848(8)
H69 H 0.8163 0.4591 0.3617
H70 H 0.7989 0.4618 0.4292
C85 C 0.6325(9) 0.5266(3) 0.3007(7)
S4 S 0.6935(3) 0.49692(9) 0.2871(2)
C86 C 0.7201(10) 0.4870(4) 0.3637(9)
C87 C 0.6848(10) 0.5064(4) 0.3987(8)
H71 H 0.6926 0.5049 0.4423
C88 C 0.6354(10) 0.5288(4) 0.3622(9)
H72 H 0.6067 0.5441 0.3791
N25 N 0.7000(7) 0.6172(3) 0.3644(5)
C89 C 0.7635(9) 0.5988(3) 0.3621(7)
C90 C 0.8158(11) 0.5889(4) 0.4143(9)
H73 H 0.8591 0.5759 0.4113
C91 C 0.8050(12) 0.5982(4) 0.4726(9)
H74 H 0.8420 0.5921 0.5092
C92 C 0.7414(14) 0.6160(5) 0.4760(9)
H75 H 0.7329 0.6224 0.5149
C93 C 0.6885(11) 0.6247(4) 0.4217(8)
H76 H 0.6427 0.6363 0.4244
N26 N 0.7368(8) 0.5921(3) 0.2014(6)
N27 N 0.7183(7) 0.6037(3) 0.2541(6)
C94 C 0.7732(8) 0.5911(3) 0.3010(6)
C95 C 0.8252(9) 0.5717(4) 0.2794(7)
H77 H 0.8675 0.5597 0.3033
C96 C 0.8026(10) 0.5735(4) 0.2172(8)
H78 H 0.8282 0.5634 0.1889
C97 C 0.6968(11) 0.6001(4) 0.1397(8)
H79 H 0.6390 0.6005 0.1372
H80 H 0.7072 0.5836 0.1114
N28 N 1.1109(10) 0.7194(3) 0.2555(7)
C98 C 1.0503(13) 0.7366(4) 0.2687(9)
C99 C 1.0675(18) 0.7571(4) 0.3209(10)
H81 H 1.0259 0.7693 0.3302
C100 C 1.142(2) 0.7595(5) 0.3575(11)
H82 H 1.1522 0.7734 0.3916
C101 C 1.2001(16) 0.7416(5) 0.3442(11)
H83 H 1.2529 0.7426 0.3684
C102 C 1.1802(15) 0.7218(4) 0.2941(10)
H84 H 1.2210 0.7085 0.2869
N29 N 0.8932(10) 0.7162(3) 0.1455(7)
N30 N 0.9695(10) 0.7129(3) 0.1800(6)
C103 C 0.9739(11) 0.7336(4) 0.2265(8)
C104 C 0.9037(13) 0.7490(4) 0.2245(10)
H85 H 0.8933 0.7642 0.2527
C105 C 0.8511(13) 0.7376(4) 0.1723(11)
H86 H 0.7971 0.7433 0.1578
C106 C 0.8659(11) 0.6991(4) 0.0893(8)
H87 H 0.9108 0.6871 0.0801
H88 H 0.8474 0.7139 0.0550
C107 C 0.7212(9) 0.6309(4) 0.1184(8)
S5 S 0.8190(2) 0.64313(10) 0.13988(19)
C108 C 0.7980(11) 0.6764(4) 0.0925(7)
C109 C 0.7222(12) 0.6778(4) 0.0627(8)
H89 H 0.7002 0.6942 0.0355
C110 C 0.6764(10) 0.6510(4) 0.0767(8)
H90 H 0.6216 0.6480 0.0588
N31 N 0.5606(7) 0.6461(3) 0.1918(6)
C111 C 0.5770(11) 0.6750(4) 0.1745(8)
C112 C 0.5304(11) 0.6893(5) 0.1206(9)
H91 H 0.5430 0.7095 0.1081
C113 C 0.4680(14) 0.6733(5) 0.0882(10)
H92 H 0.4340 0.6830 0.0537
C114 C 0.4521(11) 0.6438(5) 0.1028(9)
H93 H 0.4109 0.6322 0.0770
C115 C 0.4996(10) 0.6305(4) 0.1589(9)
H94 H 0.4870 0.6104 0.1721
N32 N 0.7388(9) 0.6941(3) 0.2960(6)
N33 N 0.6836(8) 0.6741(3) 0.2647(6)
C116 C 0.6437(10) 0.6903(4) 0.2150(7)
C117 C 0.6760(12) 0.7202(4) 0.2149(10)
H95 H 0.6605 0.7359 0.1844
C118 C 0.7331(13) 0.7221(4) 0.2663(9)
H96 H 0.7646 0.7400 0.2800
C119 C 0.7914(9) 0.6865(4) 0.3545(7)
H97 H 0.7747 0.6663 0.3690
H98 H 0.7852 0.7025 0.3851
N34 N 1.0432(7) 0.6636(3) 0.0940(5)
C120 C 1.0230(9) 0.6343(4) 0.1024(7)
C121 C 0.9959(10) 0.6135(4) 0.0559(8)
H99 H 0.9806 0.5930 0.0642
C122 C 0.9913(11) 0.6239(4) -0.0061(8)
H100 H 0.9743 0.6102 -0.0401
C123 C 1.0121(12) 0.6541(5) -0.0154(9)
H101 H 1.0088 0.6617 -0.0560
C124 C 1.0377(11) 0.6732(4) 0.0347(8)
H102 H 1.0522 0.6940 0.0278
N35 N 1.0563(8) 0.6336(3) 0.2652(6)
N36 N 1.0530(7) 0.6480(3) 0.2104(5)
C125 C 1.0282(9) 0.6257(3) 0.1662(7)
C126 C 1.0165(9) 0.5972(3) 0.1939(8)
H103 H 0.9999 0.5780 0.1739
C127 C 1.0340(9) 0.6031(4) 0.2547(8)
H104 H 1.0314 0.5883 0.2860
C128 C 1.0770(9) 0.6498(4) 0.3245(7)
H105 H 1.1199 0.6650 0.3236
H106 H 1.0977 0.6345 0.3575
C129 C 0.8768(10) 0.6844(3) 0.3532(7)
S6 S 0.9124(3) 0.65454(10) 0.31353(19)
C130 C 1.0088(9) 0.6665(4) 0.3396(6)
C131 C 1.0122(9) 0.6920(3) 0.3787(7)
H107 H 1.0603 0.7017 0.3990
C132 C 0.9373(11) 0.7018(4) 0.3848(8)
H108 H 0.9297 0.7192 0.4093
Ru1 Ru 0.62894(9) 0.63148(3) 0.27878(7)
Ru2 Ru 1.07854(11) 0.69256(4) 0.17354(8)
P1 P 0.4820(3) 0.42620(16) 0.4872(3)
F1 F 0.5438(7) 0.4533(3) 0.4801(5)
F2 F 0.4708(7) 0.4200(3) 0.4149(6)
F3 F 0.5546(9) 0.4039(4) 0.5017(7)
F4 F 0.4957(9) 0.4311(3) 0.5594(7)
F5 F 0.4115(9) 0.4493(3) 0.4761(7)
F6 F 0.4235(9) 0.3981(4) 0.4919(7)
P2 P 0.7426(5) 0.32424(17) 0.0404(4)
F7 F 0.7586(7) 0.3233(3) 0.1112(6)
F8 F 0.7258(12) 0.3251(5) -0.0328(10)
F9 F 0.7644(11) 0.3590(4) 0.0347(8)
F10 F 0.7127(9) 0.2904(4) 0.0313(7)
F11 F 0.6532(12) 0.3338(4) 0.0390(9)
F12 F 0.8307(8) 0.3153(3) 0.0413(6)
B1 B 0.1196(6) 0.2878(2) 0.0990(5)
F13 F 0.1550(6) 0.3026(2) 0.0574(5)
F14 F 0.1027(7) 0.3097(3) 0.1398(5)
F15 F 0.0487(6) 0.2746(3) 0.0675(5)
F16 F 0.1680(7) 0.2651(3) 0.1301(6)
P3 P 0.9535(5) 0.44978(19) 0.5761(4)
F17 F 0.8900(13) 0.4480(6) 0.5124(7)
F18 F 1.0153(13) 0.4516(6) 0.6394(8)
F19 F 0.8904(13) 0.4674(4) 0.6052(11)
F20 F 1.0151(12) 0.4324(5) 0.5458(11)
F21 F 0.9830(14) 0.4821(3) 0.5558(11)
F22 F 0.9220(12) 0.4175(3) 0.5954(9)
B2 B 0.2680(7) 0.6741(3) 0.4530(6)
F23 F 0.2626(7) 0.6709(3) 0.3902(4)
F24 F 0.1985(6) 0.6632(3) 0.4659(6)
F25 F 0.2798(8) 0.7048(2) 0.4700(6)
F26 F 0.3316(7) 0.6567(3) 0.4841(6)
B3 B 0.8861(6) 0.5263(2) 0.0720(5)
F27 F 0.8806(7) 0.5042(2) 0.1173(5)
F28 F 0.8559(7) 0.5539(2) 0.0894(6)
F29 F 0.8433(7) 0.5163(3) 0.0168(4)
F30 F 0.9650(5) 0.5300(3) 0.0729(7)
F31 F 0.5198(6) 0.5684(3) 0.0825(4)
B4 B 0.4886(9) 0.5761(4) 0.0213(6)
F32 F 0.5246(12) 0.6028(5) 0.0069(10)
F33 F 0.4087(7) 0.5814(3) 0.0158(7)
F34 F 0.4989(15) 0.5524(6) -0.0172(8)
B5 B 0.7447(7) 0.7963(2) 0.0489(5)
F35 F 0.7658(14) 0.8231(4) 0.0840(9)
F36 F 0.7033(13) 0.7762(5) 0.0762(12)
F37 F 0.8167(10) 0.7827(6) 0.0439(12)
F38 F 0.7031(15) 0.8046(5) -0.0093(7)
N37 N 0.6560(10) 0.5171(4) 0.1433(8)
C133 C 0.6527(10) 0.5141(4) 0.0936(9)
C134 C 0.6489(14) 0.5086(5) 0.0290(11)
H109 H 0.7020 0.5035 0.0233
H110 H 0.6294 0.5274 0.0054
H111 H 0.6128 0.4912 0.0145
N38 N 0.4500(16) 0.3506(6) 0.3454(14)
C135 C 0.460(2) 0.3445(8) 0.3926(18)
C136 C 0.474(3) 0.3326(10) 0.4563(19)
H112 H 0.4692 0.3098 0.4556
H113 H 0.4350 0.3416 0.4771
H114 H 0.5276 0.3385 0.4787
N39 N 0.2390(9) 0.5982(4) 0.3386(8)
C137 C 0.2479(10) 0.5952(4) 0.3897(9)
C138 C 0.2578(13) 0.5907(5) 0.4564(10)
H115 H 0.2242 0.5734 0.4639
H116 H 0.2424 0.6098 0.4748
H117 H 0.3134 0.5859 0.4750
O1 O 0.429(2) 0.7380(8) 0.5802(16)
O2 O 0.580(3) 0.3325(10) 0.180(2)
loop_
_geom_bond_atom_site_label_1
_geom_bond_atom_site_label_2
_geom_bond_site_symmetry_1
_geom_bond_site_symmetry_2
Co1 N1 1_555 1_555
Co2 N10 1_555 1_555
N1 C1 1_555 1_555
C1 C2 1_555 1_555
C2 H1 1_555 1_555
C3 C2 1_555 1_555
H2 C3 1_555 1_555
C4 C3 1_555 1_555
H3 C4 1_555 1_555
C5 N1 1_555 1_555
H4 C5 1_555 1_555
N2 N3 1_555 1_555
N3 Co1 1_555 1_555
C6 C1 1_555 1_555
C7 C6 1_555 1_555
H5 C7 1_555 1_555
C8 N2 1_555 1_555
H6 C8 1_555 1_555
C9 N2 1_555 1_555
H7 C9 1_555 1_555
H8 C9 1_555 1_555
N4 C10 1_555 1_555
C10 C11 1_555 1_555
C11 H9 1_555 1_555
C12 C11 1_555 1_555
H10 C12 1_555 1_555
C13 C12 1_555 1_555
H11 C13 1_555 1_555
C14 N4 1_555 1_555
H12 C14 1_555 1_555
N5 N6 1_555 1_555
N6 C15 1_555 1_555
C15 C10 1_555 1_555
C16 C15 1_555 1_555
H13 C16 1_555 1_555
C17 N5 1_555 1_555
H14 C17 1_555 1_555
C18 N5 1_555 1_555
H15 C18 1_555 1_555
H16 C18 1_555 1_555
C19 C9 1_555 1_555
S1 C19 1_555 1_555
C20 C18 1_555 1_555
C21 C20 1_555 1_555
H17 C21 1_555 1_555
C22 C19 1_555 1_555
H18 C22 1_555 1_555
N7 Co1 1_555 1_555
C23 N7 1_555 1_555
C24 C23 1_555 1_555
H19 C24 1_555 1_555
C25 C24 1_555 1_555
H20 C25 1_555 1_555
C26 C25 1_555 1_555
H21 C26 1_555 1_555
C27 N7 1_555 1_555
H22 C27 1_555 1_555
N8 N9 1_555 1_555
N9 Co1 1_555 1_555
C28 C23 1_555 1_555
C29 C28 1_555 1_555
H23 C29 1_555 1_555
C30 N8 1_555 1_555
H24 C30 1_555 1_555
C31 N8 1_555 1_555
H25 C31 1_555 1_555
H26 C31 1_555 1_555
N10 C32 1_555 1_555
C32 C33 1_555 1_555
C33 H27 1_555 1_555
C34 C33 1_555 1_555
H28 C34 1_555 1_555
C35 C34 1_555 1_555
H29 C35 1_555 1_555
C36 N10 1_555 1_555
H30 C36 1_555 1_555
N11 N12 1_555 1_555
N12 Co2 1_555 1_555
C37 C32 1_555 1_555
C38 C37 1_555 1_555
H31 C38 1_555 1_555
C39 N11 1_555 1_555
H32 C39 1_555 1_555
C40 N11 1_555 1_555
H33 C40 1_555 1_555
H34 C40 1_555 1_555
C41 C31 1_555 1_555
S2 C41 1_555 1_555
C42 C40 1_555 1_555
C43 C42 1_555 1_555
H35 C43 1_555 1_555
C44 C41 1_555 1_555
H36 C44 1_555 1_555
N13 Co1 1_555 1_555
C45 N13 1_555 1_555
C46 C45 1_555 1_555
H37 C46 1_555 1_555
C47 C46 1_555 1_555
H38 C47 1_555 1_555
C48 C47 1_555 1_555
H39 C48 1_555 1_555
C49 N13 1_555 1_555
H40 C49 1_555 1_555
N14 N15 1_555 1_555
N15 Co1 1_555 1_555
C50 C45 1_555 1_555
C51 C50 1_555 1_555
H41 C51 1_555 1_555
C52 N14 1_555 1_555
H42 C52 1_555 1_555
C53 N14 1_555 1_555
H43 C53 1_555 1_555
H44 C53 1_555 1_555
N16 Co2 1_555 1_555
C54 N16 1_555 1_555
C55 C54 1_555 1_555
H45 C55 1_555 1_555
C56 C55 1_555 1_555
H46 C56 1_555 1_555
C57 C56 1_555 1_555
H47 C57 1_555 1_555
C58 N16 1_555 1_555
H48 C58 1_555 1_555
N17 N18 1_555 1_555
N18 Co2 1_555 1_555
C59 C54 1_555 1_555
C60 C59 1_555 1_555
H49 C60 1_555 1_555
C61 N17 1_555 1_555
H50 C61 1_555 1_555
C62 N17 1_555 1_555
H51 C62 1_555 1_555
H52 C62 1_555 1_555
C63 C53 1_555 1_555
S3 C63 1_555 1_555
C64 C62 1_555 1_555
C65 C64 1_555 1_555
H53 C65 1_555 1_555
C66 C63 1_555 1_555
H54 C66 1_555 1_555
N19 C67 1_555 1_555
C67 C68 1_555 1_555
C68 H55 1_555 1_555
C69 C68 1_555 1_555
H56 C69 1_555 1_555
C70 C69 1_555 1_555
H57 C70 1_555 1_555
C71 N19 1_555 1_555
H58 C71 1_555 1_555
N20 N21 1_555 1_555
N21 C72 1_555 1_555
C72 C67 1_555 1_555
C73 C72 1_555 1_555
H59 C73 1_555 1_555
C74 N20 1_555 1_555
H60 C74 1_555 1_555
C75 N20 1_555 1_555
H61 C75 1_555 1_555
H62 C75 1_555 1_555
N22 Co2 1_555 1_555
C76 N22 1_555 1_555
C77 C76 1_555 1_555
H63 C77 1_555 1_555
C78 C77 1_555 1_555
H64 C78 1_555 1_555
C79 C78 1_555 1_555
H65 C79 1_555 1_555
C80 N22 1_555 1_555
H66 C80 1_555 1_555
N23 N24 1_555 1_555
N24 Co2 1_555 1_555
C81 C76 1_555 1_555
C82 C81 1_555 1_555
H67 C82 1_555 1_555
C83 N23 1_555 1_555
H68 C83 1_555 1_555
C84 N23 1_555 1_555
H69 C84 1_555 1_555
H70 C84 1_555 1_555
C85 C75 1_555 1_555
S4 C85 1_555 1_555
C86 C84 1_555 1_555
C87 C86 1_555 1_555
H71 C87 1_555 1_555
C88 C85 1_555 1_555
H72 C88 1_555 1_555
N25 C89 1_555 1_555
C89 C90 1_555 1_555
C90 H73 1_555 1_555
C91 C90 1_555 1_555
H74 C91 1_555 1_555
C92 C91 1_555 1_555
H75 C92 1_555 1_555
C93 N25 1_555 1_555
H76 C93 1_555 1_555
N26 N27 1_555 1_555
N27 C94 1_555 1_555
C94 C89 1_555 1_555
C95 C94 1_555 1_555
H77 C95 1_555 1_555
C96 N26 1_555 1_555
H78 C96 1_555 1_555
C97 N26 1_555 1_555
H79 C97 1_555 1_555
H80 C97 1_555 1_555
N28 C98 1_555 1_555
C98 C99 1_555 1_555
C99 H81 1_555 1_555
C100 C99 1_555 1_555
H82 C100 1_555 1_555
C101 C100 1_555 1_555
H83 C101 1_555 1_555
C102 N28 1_555 1_555
H84 C102 1_555 1_555
N29 N30 1_555 1_555
N30 C103 1_555 1_555
C103 C98 1_555 1_555
C104 C103 1_555 1_555
H85 C104 1_555 1_555
C105 N29 1_555 1_555
H86 C105 1_555 1_555
C106 N29 1_555 1_555
H87 C106 1_555 1_555
H88 C106 1_555 1_555
C107 C97 1_555 1_555
S5 C107 1_555 1_555
C108 C106 1_555 1_555
C109 C108 1_555 1_555
H89 C109 1_555 1_555
C110 C107 1_555 1_555
H90 C110 1_555 1_555
N31 C111 1_555 1_555
C111 C112 1_555 1_555
C112 H91 1_555 1_555
C113 C112 1_555 1_555
H92 C113 1_555 1_555
C114 C113 1_555 1_555
H93 C114 1_555 1_555
C115 N31 1_555 1_555
H94 C115 1_555 1_555
N32 N33 1_555 1_555
N33 C116 1_555 1_555
C116 C111 1_555 1_555
C117 C116 1_555 1_555
H95 C117 1_555 1_555
C118 N32 1_555 1_555
H96 C118 1_555 1_555
C119 N32 1_555 1_555
H97 C119 1_555 1_555
H98 C119 1_555 1_555
N34 C120 1_555 1_555
C120 C121 1_555 1_555
C121 H99 1_555 1_555
C122 C121 1_555 1_555
H100 C122 1_555 1_555
C123 C122 1_555 1_555
H101 C123 1_555 1_555
C124 N34 1_555 1_555
H102 C124 1_555 1_555
N35 N36 1_555 1_555
N36 C125 1_555 1_555
C125 C120 1_555 1_555
C126 C125 1_555 1_555
H103 C126 1_555 1_555
C127 N35 1_555 1_555
H104 C127 1_555 1_555
C128 N35 1_555 1_555
H105 C128 1_555 1_555
H106 C128 1_555 1_555
C129 C119 1_555 1_555
S6 C129 1_555 1_555
C130 C128 1_555 1_555
C131 C130 1_555 1_555
H107 C131 1_555 1_555
C132 C129 1_555 1_555
H108 C132 1_555 1_555
Ru1 N19 1_555 1_555
Ru2 N4 1_555 1_555
P1 F1 1_555 1_555
F2 P1 1_555 1_555
F3 P1 1_555 1_555
F4 P1 1_555 1_555
F5 P1 1_555 1_555
F6 P1 1_555 1_555
P2 F7 1_555 1_555
F8 P2 1_555 1_555
F9 P2 1_555 1_555
F10 P2 1_555 1_555
F11 P2 1_555 1_555
F12 P2 1_555 1_555
B1 F13 1_555 1_555
F14 B1 1_555 1_555
F15 B1 1_555 1_555
F16 B1 1_555 1_555
P3 F17 1_555 1_555
F18 P3 1_555 1_555
F19 P3 1_555 1_555
F20 P3 1_555 1_555
F21 P3 1_555 1_555
F22 P3 1_555 1_555
B2 F23 1_555 1_555
F24 B2 1_555 1_555
F25 B2 1_555 1_555
F26 B2 1_555 1_555
B3 F27 1_555 1_555
F28 B3 1_555 1_555
F29 B3 1_555 1_555
F30 B3 1_555 1_555
F31 B4 1_555 1_555
B4 F32 1_555 1_555
F33 B4 1_555 1_555
F34 B4 1_555 1_555
B5 F35 1_555 1_555
F36 B5 1_555 1_555
F37 B5 1_555 1_555
F38 B5 1_555 1_555
N37 C133 1_555 1_555
C133 C134 1_555 1_555
C134 H109 1_555 1_555
H110 C134 1_555 1_555
H111 C134 1_555 1_555
N38 C135 1_555 1_555
C135 C136 1_555 1_555
C136 H112 1_555 1_555
H113 C136 1_555 1_555
H114 C136 1_555 1_555
N39 C137 1_555 1_555
C137 C138 1_555 1_555
C138 H115 1_555 1_555
H116 C138 1_555 1_555
H117 C138 1_555 1_555
C4 C5 1_555 1_555
N3 C6 1_555 1_555
C7 C8 1_555 1_555
C13 C14 1_555 1_555
N6 Ru2 1_555 1_555
C16 C17 1_555 1_555
S1 C20 1_555 1_555
C21 C22 1_555 1_555
C26 C27 1_555 1_555
N9 C28 1_555 1_555
C29 C30 1_555 1_555
C35 C36 1_555 1_555
N12 C37 1_555 1_555
C38 C39 1_555 1_555
S2 C42 1_555 1_555
C43 C44 1_555 1_555
C48 C49 1_555 1_555
N15 C50 1_555 1_555
C51 C52 1_555 1_555
C57 C58 1_555 1_555
N18 C59 1_555 1_555
C60 C61 1_555 1_555
S3 C64 1_555 1_555
C65 C66 1_555 1_555
C70 C71 1_555 1_555
N21 Ru1 1_555 1_555
C73 C74 1_555 1_555
C79 C80 1_555 1_555
N24 C81 1_555 1_555
C82 C83 1_555 1_555
S4 C86 1_555 1_555
C87 C88 1_555 1_555
N25 Ru1 1_555 1_555
C92 C93 1_555 1_555
N27 Ru1 1_555 1_555
C95 C96 1_555 1_555
N28 Ru2 1_555 1_555
C101 C102 1_555 1_555
N30 Ru2 1_555 1_555
C104 C105 1_555 1_555
S5 C108 1_555 1_555
C109 C110 1_555 1_555
N31 Ru1 1_555 1_555
C114 C115 1_555 1_555
N33 Ru1 1_555 1_555
C117 C118 1_555 1_555
N34 Ru2 1_555 1_555
C123 C124 1_555 1_555
N36 Ru2 1_555 1_555
C126 C127 1_555 1_555
S6 C130 1_555 1_555
C131 C132 1_555 1_555

#END
