# generated using pymatgen
data_Co4P7H572C418N22Cl60(O13F24)2
_symmetry_space_group_name_H-M   'P 1'
_cell_length_a   13.10900000
_cell_length_b   21.43000000
_cell_length_c   27.64500000
_cell_angle_alpha   85.57800000
_cell_angle_beta   87.29100000
_cell_angle_gamma   74.75200000
_symmetry_Int_Tables_number   1
_chemical_formula_structural   Co4P7H572C418N22Cl60(O13F24)2
_chemical_formula_sum   'Co4 P7 H572 C418 N22 Cl60 O26 F48'
_cell_volume   7467.55373441
_cell_formula_units_Z   1
loop_
 _symmetry_equiv_pos_site_id
 _symmetry_equiv_pos_as_xyz
  1  'x, y, z'
loop_
 _atom_site_type_symbol
 _atom_site_label
 _atom_site_symmetry_multiplicity
 _atom_site_fract_x
 _atom_site_fract_y
 _atom_site_fract_z
 _atom_site_occupancy
  Co  Co1  1  0.613870  0.798790  0.858320  1.0
  Co  Co2  1  0.386130  0.201210  0.141680  1.0
  Co  Co3  1  0.276130  0.732100  0.399060  1.0
  Co  Co4  1  0.723870  0.267900  0.600940  1.0
  P  P5  1  0.716000  0.929400  0.473340  1
  P  P6  1  0.284000  0.070600  0.526660  1
  P  P7  1  0.436400  0.546200  0.681100  1
  P  P8  1  0.563600  0.453800  0.318900  1
  P  P9  1  0.000000  0.000000  0.000000  1
  P  P10  1  0.421600  0.536400  0.684500  1
  P  P11  1  0.578400  0.463600  0.315500  1
  H  H12  1  0.403200  0.714500  0.602100  1
  H  H13  1  0.596800  0.285500  0.397900  1
  H  H14  1  0.429700  0.771700  0.628000  1
  H  H15  1  0.570300  0.228300  0.372000  1
  H  H16  1  0.696100  0.728400  0.293500  1
  H  H17  1  0.303900  0.271600  0.706500  1
  H  H18  1  0.748100  0.733300  0.343300  1
  H  H19  1  0.251900  0.266700  0.656700  1
  H  H20  1  0.274600  0.579500  0.785800  1
  H  H21  1  0.725400  0.420500  0.214200  1
  H  H22  1  0.206300  0.604700  0.832600  1
  H  H23  1  0.793700  0.395300  0.167400  1
  H  H24  1  0.866700  0.665200  0.695400  1
  H  H25  1  0.133300  0.334800  0.304600  1
  H  H26  1  0.840300  0.600200  0.716800  1
  H  H27  1  0.159700  0.399800  0.283200  1
  H  H28  1  0.527100  0.368700  0.702900  1
  H  H29  1  0.472900  0.631300  0.297100  1
  H  H30  1  0.411000  0.411900  0.765100  1
  H  H31  1  0.589000  0.588100  0.234900  1
  H  H32  1  0.419900  0.356900  0.841100  1
  H  H33  1  0.580100  0.643100  0.158900  1
  H  H34  1  0.544900  0.258600  0.854900  1
  H  H35  1  0.455100  0.741400  0.145100  1
  H  H36  1  0.661000  0.215400  0.792700  1
  H  H37  1  0.339000  0.784600  0.207300  1
  H  H38  1  0.282400  0.912100  0.973000  1
  H  H39  1  0.717600  0.087900  0.027000  1
  H  H40  1  0.238700  0.916100  0.055200  1
  H  H41  1  0.761300  0.083900  0.944800  1
  H  H42  1  0.361600  0.861600  0.112000  1
  H  H43  1  0.638400  0.138400  0.888000  1
  H  H44  1  0.528000  0.803100  0.086500  1
  H  H45  1  0.472000  0.196900  0.913500  1
  H  H46  1  0.571700  0.799100  0.004300  1
  H  H47  1  0.428300  0.200900  0.995700  1
  H  H48  1  0.268800  0.890300  0.975700  1
  H  H49  1  0.731200  0.109700  0.024300  1
  H  H50  1  0.214400  0.872400  0.055400  1
  H  H51  1  0.785600  0.127600  0.944600  1
  H  H52  1  0.311900  0.785800  0.103600  1
  H  H53  1  0.688100  0.214200  0.896400  1
  H  H54  1  0.463700  0.717200  0.072100  1
  H  H55  1  0.536300  0.282800  0.927900  1
  H  H56  1  0.518100  0.735100  0.992300  1
  H  H57  1  0.481900  0.264900  0.007700  1
  H  H58  1  0.712800  0.628200  0.940200  1
  H  H59  1  0.287200  0.371800  0.059800  1
  H  H60  1  0.796100  0.535400  0.986400  1
  H  H61  1  0.203900  0.464600  0.013600  1
  H  H62  1  0.966400  0.477900  0.965300  1
  H  H63  1  0.033600  0.522100  0.034700  1
  H  H64  1  0.053400  0.513400  0.897900  1
  H  H65  1  0.946600  0.486600  0.102100  1
  H  H66  1  0.970100  0.606200  0.851700  1
  H  H67  1  0.029900  0.393800  0.148300  1
  H  H68  1  0.862200  0.454000  0.829800  1
  H  H69  1  0.137800  0.546000  0.170200  1
  H  H70  1  0.675300  0.479600  0.782800  1
  H  H71  1  0.324700  0.520400  0.217200  1
  H  H72  1  0.779800  0.473500  0.751800  1
  H  H73  1  0.220200  0.526500  0.248200  1
  H  H74  1  0.790200  0.558100  0.811700  1
  H  H75  1  0.209800  0.441900  0.188300  1
  H  H76  1  0.669100  0.575600  0.801100  1
  H  H77  1  0.330900  0.424400  0.198900  1
  H  H78  1  0.753900  0.633800  0.745100  1
  H  H79  1  0.246100  0.366200  0.254900  1
  H  H80  1  0.829000  0.569000  0.728100  1
  H  H81  1  0.171000  0.431000  0.271900  1
  H  H82  1  0.708000  0.586400  0.717600  1
  H  H83  1  0.292000  0.413600  0.282400  1
  H  H84  1  0.124100  0.167600  0.835500  1
  H  H85  1  0.875900  0.832400  0.164500  1
  H  H86  1  0.135800  0.093000  0.835100  1
  H  H87  1  0.864200  0.907000  0.164900  1
  H  H88  1  0.155300  0.085900  0.920100  1
  H  H89  1  0.844700  0.914100  0.079900  1
  H  H90  1  0.159200  0.158500  0.915600  1
  H  H91  1  0.840800  0.841500  0.084400  1
  H  H92  1  0.311500  0.057000  0.875000  1
  H  H93  1  0.688500  0.943000  0.125000  1
  H  H94  1  0.314500  0.129700  0.867800  1
  H  H95  1  0.685500  0.870300  0.132200  1
  H  H96  1  0.303800  0.098800  0.962300  1
  H  H97  1  0.696200  0.901200  0.037700  1
  H  H98  1  0.392200  0.123600  0.933500  1
  H  H99  1  0.607800  0.876400  0.066500  1
  H  H100  1  0.411900  0.993800  0.929600  1
  H  H101  1  0.588100  0.006200  0.070400  1
  H  H102  1  0.500900  0.029200  0.934300  1
  H  H103  1  0.499100  0.970800  0.065700  1
  H  H104  1  0.407400  0.044700  0.015100  1
  H  H105  1  0.592600  0.955300  0.984900  1
  H  H106  1  0.390900  0.978300  0.004000  1
  H  H107  1  0.609100  0.021700  0.996000  1
  H  H108  1  0.571100  0.005300  0.026300  1
  H  H109  1  0.428900  0.994700  0.973700  1
  H  H110  1  0.572000  0.940900  0.003500  1
  H  H111  1  0.428000  0.059100  0.996500  1
  H  H112  1  0.589100  0.923100  0.085800  1
  H  H113  1  0.410900  0.076900  0.914200  1
  H  H114  1  0.481700  0.974800  0.094600  1
  H  H115  1  0.518300  0.025200  0.905400  1
  H  H116  1  0.482600  0.909900  0.071700  1
  H  H117  1  0.517400  0.090100  0.928300  1
  H  H118  1  0.040200  0.998600  0.860000  1
  H  H119  1  0.959800  0.001400  0.140000  1
  H  H120  1  0.950200  0.999600  0.823800  1
  H  H121  1  0.049800  0.000400  0.176200  1
  H  H122  1  0.965700  0.220200  0.884600  1
  H  H123  1  0.034300  0.779800  0.115400  1
  H  H124  1  0.867200  0.191500  0.890900  1
  H  H125  1  0.132800  0.808500  0.109100  1
  H  H126  1  0.931900  0.248100  0.802100  1
  H  H127  1  0.068100  0.751900  0.197900  1
  H  H128  1  0.839600  0.213900  0.805100  1
  H  H129  1  0.160400  0.786100  0.194900  1
  H  H130  1  0.728100  0.294700  0.841200  1
  H  H131  1  0.271900  0.705300  0.158800  1
  H  H132  1  0.819000  0.316900  0.864000  1
  H  H133  1  0.181000  0.683100  0.136000  1
  H  H134  1  0.774800  0.337100  0.765200  1
  H  H135  1  0.225200  0.662900  0.234800  1
  H  H136  1  0.858400  0.363200  0.790400  1
  H  H137  1  0.141600  0.636800  0.209600  1
  H  H138  1  0.702900  0.443200  0.775200  1
  H  H139  1  0.297100  0.556800  0.224800  1
  H  H140  1  0.640300  0.403600  0.808900  1
  H  H141  1  0.359700  0.596400  0.191100  1
  H  H142  1  0.781500  0.426200  0.861300  1
  H  H143  1  0.218500  0.573800  0.138700  1
  H  H144  1  0.658800  0.451600  0.866300  1
  H  H145  1  0.341200  0.548400  0.133700  1
  H  H146  1  0.657300  0.548000  0.836000  1
  H  H147  1  0.342700  0.452000  0.164000  1
  H  H148  1  0.756600  0.523300  0.801800  1
  H  H149  1  0.243400  0.476700  0.198200  1
  H  H150  1  0.801200  0.579500  0.863500  1
  H  H151  1  0.198800  0.420500  0.136500  1
  H  H152  1  0.767800  0.531500  0.902900  1
  H  H153  1  0.232200  0.468500  0.097100  1
  H  H154  1  0.866900  0.506900  0.868800  1
  H  H155  1  0.133100  0.493100  0.131200  1
  H  H156  1  0.126900  0.068500  0.869400  1
  H  H157  1  0.873100  0.931500  0.130600  1
  H  H158  1  0.108800  0.129000  0.900300  1
  H  H159  1  0.891200  0.871000  0.099700  1
  H  H160  1  0.149100  0.137900  0.800500  1
  H  H161  1  0.850900  0.862100  0.199500  1
  H  H162  1  0.150500  0.190400  0.836400  1
  H  H163  1  0.849500  0.809600  0.163600  1
  H  H164  1  0.300500  0.073200  0.847800  1
  H  H165  1  0.699500  0.926800  0.152200  1
  H  H166  1  0.309000  0.141600  0.860500  1
  H  H167  1  0.691000  0.858400  0.139500  1
  H  H168  1  0.344100  0.170000  0.783600  1
  H  H169  1  0.655900  0.830000  0.216400  1
  H  H170  1  0.306500  0.113500  0.764200  1
  H  H171  1  0.693500  0.886500  0.235800  1
  H  H172  1  0.499800  0.105000  0.804900  1
  H  H173  1  0.500200  0.895000  0.195100  1
  H  H174  1  0.461300  0.042500  0.800900  1
  H  H175  1  0.538700  0.957500  0.199100  1
  H  H176  1  0.464700  0.052500  0.723500  1
  H  H177  1  0.535300  0.947500  0.276500  1
  H  H178  1  0.476500  0.122300  0.722300  1
  H  H179  1  0.523500  0.877700  0.277700  1
  H  H180  1  0.650600  0.049200  0.745200  1
  H  H181  1  0.349400  0.950800  0.254800  1
  H  H182  1  0.617100  0.096100  0.699600  1
  H  H183  1  0.382900  0.903900  0.300400  1
  H  H184  1  0.708400  0.996200  0.676600  1
  H  H185  1  0.291600  0.003800  0.323400  1
  H  H186  1  0.626200  0.964000  0.704400  1
  H  H187  1  0.373800  0.036000  0.295600  1
  H  H188  1  0.592400  0.011200  0.658400  1
  H  H189  1  0.407600  0.988800  0.341600  1
  H  H190  1  0.222800  0.688300  0.672900  1
  H  H191  1  0.777200  0.311700  0.327100  1
  H  H192  1  0.165100  0.644000  0.705000  1
  H  H193  1  0.834900  0.356000  0.295000  1
  H  H194  1  0.192500  0.856200  0.774700  1
  H  H195  1  0.807500  0.143800  0.225300  1
  H  H196  1  0.244900  0.787500  0.799400  1
  H  H197  1  0.755100  0.212500  0.200600  1
  H  H198  1  0.025800  0.850500  0.799200  1
  H  H199  1  0.974200  0.149500  0.200800  1
  H  H200  1  0.062200  0.775400  0.810400  1
  H  H201  1  0.937800  0.224600  0.189600  1
  H  H202  1  0.165100  0.823500  0.871300  1
  H  H203  1  0.834900  0.176500  0.128700  1
  H  H204  1  0.049500  0.868300  0.872200  1
  H  H205  1  0.950500  0.131700  0.127800  1
  H  H206  1  0.094300  0.733600  0.889600  1
  H  H207  1  0.905700  0.266400  0.110400  1
  H  H208  1  0.982700  0.782200  0.896000  1
  H  H209  1  0.017300  0.217800  0.104000  1
  H  H210  1  0.157000  0.773000  0.953200  1
  H  H211  1  0.843000  0.227000  0.046800  1
  H  H212  1  0.051800  0.827300  0.957900  1
  H  H213  1  0.948200  0.172700  0.042100  1
  H  H214  1  0.100700  0.724100  0.009400  1
  H  H215  1  0.899300  0.275900  0.990600  1
  H  H216  1  0.027500  0.707500  0.972200  1
  H  H217  1  0.972500  0.292500  0.027800  1
  H  H218  1  0.899800  0.806800  0.998400  1
  H  H219  1  0.100200  0.193200  0.001600  1
  H  H220  1  0.969800  0.793800  0.044500  1
  H  H221  1  0.030200  0.206200  0.955500  1
  H  H222  1  0.831200  0.743600  0.057800  1
  H  H223  1  0.168800  0.256400  0.942200  1
  H  H224  1  0.869300  0.703300  0.012300  1
  H  H225  1  0.130700  0.296700  0.987700  1
  H  H226  1  0.939200  0.690300  0.058300  1
  H  H227  1  0.060800  0.309700  0.941700  1
  H  H228  1  0.202300  0.793900  0.664500  1
  H  H229  1  0.797700  0.206100  0.335500  1
  H  H230  1  0.218200  0.851600  0.691900  1
  H  H231  1  0.781800  0.148400  0.308100  1
  H  H232  1  0.028800  0.829900  0.668600  1
  H  H233  1  0.971200  0.170100  0.331400  1
  H  H234  1  0.073800  0.887700  0.649100  1
  H  H235  1  0.926200  0.112300  0.350900  1
  H  H236  1  0.045300  0.915300  0.734600  1
  H  H237  1  0.954700  0.084700  0.265400  1
  H  H238  1  0.961500  0.875300  0.733300  1
  H  H239  1  0.038500  0.124700  0.266700  1
  H  H240  1  0.931600  0.996500  0.707800  1
  H  H241  1  0.068400  0.003500  0.292200  1
  H  H242  1  0.943600  0.964900  0.658200  1
  H  H243  1  0.056400  0.035100  0.341800  1
  H  H244  1  0.792500  0.946300  0.664400  1
  H  H245  1  0.207500  0.053700  0.335600  1
  H  H246  1  0.796200  0.933200  0.720700  1
  H  H247  1  0.203800  0.066800  0.279300  1
  H  H248  1  0.776900  0.047700  0.716700  1
  H  H249  1  0.223100  0.952300  0.283300  1
  H  H250  1  0.730200  0.044800  0.667000  1
  H  H251  1  0.269800  0.955200  0.333000  1
  H  H252  1  0.636300  0.079200  0.740400  1
  H  H253  1  0.363700  0.920800  0.259600  1
  H  H254  1  0.623700  0.009000  0.740500  1
  H  H255  1  0.376300  0.991000  0.259500  1
  H  H256  1  0.478300  0.080900  0.708200  1
  H  H257  1  0.521700  0.919100  0.291800  1
  H  H258  1  0.548600  0.106200  0.667800  1
  H  H259  1  0.451400  0.893800  0.332200  1
  H  H260  1  0.536000  0.035500  0.668000  1
  H  H261  1  0.464000  0.964500  0.332000  1
  H  H262  1  0.220200  0.662900  0.676000  1
  H  H263  1  0.779800  0.337100  0.324000  1
  H  H264  1  0.138400  0.628800  0.702700  1
  H  H265  1  0.861600  0.371200  0.297300  1
  H  H266  1  0.228500  0.814400  0.785100  1
  H  H267  1  0.771500  0.185600  0.214900  1
  H  H268  1  0.200100  0.754000  0.812300  1
  H  H269  1  0.799900  0.246000  0.187700  1
  H  H270  1  0.042600  0.862600  0.774000  1
  H  H271  1  0.957400  0.137400  0.226000  1
  H  H272  1  0.018500  0.804000  0.805500  1
  H  H273  1  0.981500  0.196000  0.194500  1
  H  H274  1  0.130100  0.879200  0.847000  1
  H  H275  1  0.869900  0.120800  0.153000  1
  H  H276  1  0.007300  0.905900  0.843500  1
  H  H277  1  0.992700  0.094100  0.156500  1
  H  H278  1  0.990300  0.811600  0.888700  1
  H  H279  1  0.009700  0.188400  0.111300  1
  H  H280  1  0.033600  0.858900  0.917400  1
  H  H281  1  0.966400  0.141100  0.082600  1
  H  H282  1  0.144400  0.738800  0.886700  1
  H  H283  1  0.855600  0.261200  0.113300  1
  H  H284  1  0.207900  0.789300  0.894600  1
  H  H285  1  0.792100  0.210700  0.105400  1
  H  H286  1  0.088100  0.745100  0.966400  1
  H  H287  1  0.911900  0.254900  0.033600  1
  H  H288  1  0.163000  0.789400  0.972800  1
  H  H289  1  0.837000  0.210600  0.027200  1
  H  H290  1  0.306500  0.707800  0.970900  1
  H  H291  1  0.693500  0.292200  0.029100  1
  H  H292  1  0.247700  0.663100  0.947400  1
  H  H293  1  0.752300  0.336900  0.052600  1
  H  H294  1  0.272400  0.630800  0.029900  1
  H  H295  1  0.727600  0.369200  0.970100  1
  H  H296  1  0.209600  0.700200  0.044000  1
  H  H297  1  0.790400  0.299800  0.956000  1
  H  H298  1  0.150900  0.655500  0.020600  1
  H  H299  1  0.849100  0.344500  0.979400  1
  H  H300  1  0.187800  0.776200  0.668900  1
  H  H301  1  0.812200  0.223800  0.331100  1
  H  H302  1  0.291600  0.776400  0.694900  1
  H  H303  1  0.708400  0.223600  0.305100  1
  H  H304  1  0.171600  0.874300  0.730300  1
  H  H305  1  0.828400  0.125700  0.269700  1
  H  H306  1  0.235200  0.879900  0.681500  1
  H  H307  1  0.764800  0.120100  0.318500  1
  H  H308  1  0.049900  0.935900  0.682800  1
  H  H309  1  0.950100  0.064100  0.317200  1
  H  H310  1  0.028700  0.867500  0.680400  1
  H  H311  1  0.971300  0.132500  0.319600  1
  H  H312  1  0.155000  0.915000  0.610400  1
  H  H313  1  0.845000  0.085000  0.389600  1
  H  H314  1  0.113500  0.853600  0.607100  1
  H  H315  1  0.886500  0.146400  0.392900  1
  H  H316  1  0.952600  0.911900  0.587600  1
  H  H317  1  0.047400  0.088100  0.412400  1
  H  H318  1  0.972100  0.975500  0.604900  1
  H  H319  1  0.027900  0.024500  0.395100  1
  H  H320  1  0.038200  0.998800  0.541000  1
  H  H321  1  0.961800  0.001200  0.459000  1
  H  H322  1  0.104100  0.928600  0.534600  1
  H  H323  1  0.895900  0.071400  0.465400  1
  H  H324  1  0.912100  0.959300  0.502000  1
  H  H325  1  0.087900  0.040700  0.498000  1
  H  H326  1  0.016700  0.913900  0.482500  1
  H  H327  1  0.983300  0.086100  0.517500  1
  H  H328  1  0.958300  0.000500  0.427600  1
  H  H329  1  0.041700  0.999500  0.572400  1
  H  H330  1  0.961900  0.049100  0.466600  1
  H  H331  1  0.038100  0.950900  0.533400  1
  H  H332  1  0.067200  0.003500  0.447000  1
  H  H333  1  0.932800  0.996500  0.553000  1
  H  H334  1  0.156300  0.703300  0.724000  1
  H  H335  1  0.843700  0.296700  0.276000  1
  H  H336  1  0.210400  0.659400  0.682600  1
  H  H337  1  0.789600  0.340600  0.317400  1
  H  H338  1  0.990400  0.513700  0.723100  1
  H  H339  1  0.009600  0.486300  0.276900  1
  H  H340  1  0.994800  0.556700  0.766000  1
  H  H341  1  0.005200  0.443300  0.234000  1
  H  H342  1  0.119800  0.435000  0.752000  1
  H  H343  1  0.880200  0.565000  0.248000  1
  H  H344  1  0.191700  0.482100  0.756200  1
  H  H345  1  0.808300  0.517900  0.243800  1
  H  H346  1  0.153400  0.493800  0.833100  1
  H  H347  1  0.846600  0.506200  0.166900  1
  H  H348  1  0.038700  0.486200  0.828800  1
  H  H349  1  0.961300  0.513800  0.171200  1
  H  H350  1  0.209000  0.395800  0.859500  1
  H  H351  1  0.791000  0.604200  0.140500  1
  H  H352  1  0.167200  0.371600  0.814100  1
  H  H353  1  0.832800  0.628400  0.185900  1
  H  H354  1  0.019500  0.419100  0.885200  1
  H  H355  1  0.980500  0.580900  0.114800  1
  H  H356  1  0.019600  0.365200  0.850400  1
  H  H357  1  0.980400  0.634800  0.149600  1
  H  H358  1  0.059600  0.298300  0.905300  1
  H  H359  1  0.940400  0.701700  0.094700  1
  H  H360  1  0.062500  0.352000  0.939800  1
  H  H361  1  0.937500  0.648000  0.060200  1
  H  H362  1  0.237900  0.331200  0.933900  1
  H  H363  1  0.762100  0.668800  0.066100  1
  H  H364  1  0.244000  0.290700  0.888400  1
  H  H365  1  0.756000  0.709300  0.111600  1
  H  H366  1  0.293400  0.220100  0.957500  1
  H  H367  1  0.706600  0.779900  0.042500  1
  H  H368  1  0.183700  0.250000  0.982800  1
  H  H369  1  0.816300  0.750000  0.017200  1
  H  H370  1  0.189800  0.209600  0.937400  1
  H  H371  1  0.810200  0.790400  0.062600  1
  H  H372  1  0.153100  0.509900  0.661600  1
  H  H373  1  0.846900  0.490100  0.338400  1
  H  H374  1  0.168800  0.579000  0.647800  1
  H  H375  1  0.831200  0.421000  0.352200  1
  H  H376  1  0.988400  0.611400  0.627400  1
  H  H377  1  0.011600  0.388600  0.372600  1
  H  H378  1  0.989500  0.538100  0.633000  1
  H  H379  1  0.010500  0.461900  0.367000  1
  H  H380  1  0.122300  0.583900  0.565500  1
  H  H381  1  0.877700  0.416100  0.434500  1
  H  H382  1  0.099300  0.515600  0.567900  1
  H  H383  1  0.900700  0.484400  0.432100  1
  H  H384  1  0.966100  0.633100  0.535800  1
  H  H385  1  0.033900  0.366900  0.464200  1
  H  H386  1  0.919600  0.574300  0.551100  1
  H  H387  1  0.080400  0.425700  0.448900  1
  H  H388  1  0.956900  0.599100  0.465800  1
  H  H389  1  0.043100  0.400900  0.534200  1
  H  H390  1  0.073000  0.561000  0.477800  1
  H  H391  1  0.927000  0.439000  0.522200  1
  H  H392  1  0.041300  0.472500  0.483500  1
  H  H393  1  0.958700  0.527500  0.516500  1
  H  H394  1  0.930800  0.497900  0.507500  1
  H  H395  1  0.069200  0.502100  0.492500  1
  H  H396  1  0.920000  0.519500  0.415600  1
  H  H397  1  0.080000  0.480500  0.584400  1
  H  H398  1  0.858500  0.482900  0.452300  1
  H  H399  1  0.141500  0.517100  0.547700  1
  H  H400  1  0.938300  0.416800  0.392900  1
  H  H401  1  0.061700  0.583200  0.607100  1
  H  H402  1  0.049600  0.424000  0.405800  1
  H  H403  1  0.950400  0.576000  0.594200  1
  H  H404  1  0.987800  0.387200  0.442800  1
  H  H405  1  0.012200  0.612800  0.557200  1
  H  H406  1  0.513100  0.880900  0.577300  1
  H  H407  1  0.486900  0.119100  0.422700  1
  H  H408  1  0.550100  0.944300  0.562800  1
  H  H409  1  0.449900  0.055700  0.437200  1
  H  H410  1  0.367600  0.774500  0.617900  1
  H  H411  1  0.632400  0.225500  0.382100  1
  H  H412  1  0.393800  0.747300  0.672400  1
  H  H413  1  0.606200  0.252700  0.327600  1
  H  H414  1  0.290900  0.869900  0.583300  1
  H  H415  1  0.709100  0.130100  0.416700  1
  H  H416  1  0.383000  0.859700  0.543200  1
  H  H417  1  0.617000  0.140300  0.456800  1
  H  H418  1  0.459600  0.762900  0.551400  1
  H  H419  1  0.540400  0.237100  0.448600  1
  H  H420  1  0.351400  0.759100  0.578400  1
  H  H421  1  0.648600  0.240900  0.421600  1
  H  H422  1  0.729000  0.651800  0.312900  1
  H  H423  1  0.271000  0.348200  0.687100  1
  H  H424  1  0.847300  0.642200  0.328100  1
  H  H425  1  0.152700  0.357800  0.671900  1
  H  H426  1  0.865400  0.724800  0.363200  1
  H  H427  1  0.134600  0.275200  0.636800  1
  H  H428  1  0.758700  0.779900  0.370600  1
  H  H429  1  0.241300  0.220100  0.629400  1
  H  H430  1  0.882800  0.763500  0.420000  1
  H  H431  1  0.117200  0.236500  0.580000  1
  H  H432  1  0.778000  0.782200  0.390000  1
  H  H433  1  0.222000  0.217800  0.610000  1
  H  H434  1  0.685900  0.845400  0.447500  1
  H  H435  1  0.314100  0.154600  0.552500  1
  H  H436  1  0.790600  0.821400  0.477300  1
  H  H437  1  0.209400  0.178600  0.522700  1
  H  H438  1  0.342500  0.471700  0.840100  1
  H  H439  1  0.657500  0.528300  0.159900  1
  H  H440  1  0.228900  0.475400  0.864700  1
  H  H441  1  0.771100  0.524600  0.135300  1
  H  H442  1  0.356500  0.421400  0.960300  1
  H  H443  1  0.643500  0.578600  0.039700  1
  H  H444  1  0.450900  0.450300  0.973700  1
  H  H445  1  0.549100  0.549700  0.026300  1
  H  H446  1  0.021100  0.549300  0.647600  1
  H  H447  1  0.978900  0.450700  0.352400  1
  H  H448  1  0.002500  0.625800  0.646700  1
  H  H449  1  0.997500  0.374200  0.353300  1
  H  H450  1  0.769800  0.188900  0.738900  1.0
  H  H451  1  0.230200  0.811100  0.261100  1.0
  H  H452  1  0.892400  0.114100  0.756300  1.0
  H  H453  1  0.107600  0.885900  0.243700  1.0
  H  H454  1  0.013600  0.141900  0.623300  1.0
  H  H455  1  0.986400  0.858100  0.376700  1.0
  H  H456  1  0.170700  0.069900  0.644300  1.0
  H  H457  1  0.829300  0.930100  0.355700  1.0
  H  H458  1  0.343900  0.982900  0.696000  1.0
  H  H459  1  0.656100  0.017100  0.304000  1.0
  H  H460  1  0.449300  0.918900  0.753100  1.0
  H  H461  1  0.550700  0.081100  0.246900  1.0
  H  H462  1  0.213300  0.950400  0.852600  1.0
  H  H463  1  0.786700  0.049600  0.147400  1.0
  H  H464  1  0.317200  0.895000  0.900700  1.0
  H  H465  1  0.682800  0.105000  0.099300  1.0
  H  H466  1  0.505200  0.351700  0.704100  1.0
  H  H467  1  0.494800  0.648300  0.295900  1.0
  H  H468  1  0.378900  0.382400  0.765400  1.0
  H  H469  1  0.621100  0.617600  0.234600  1.0
  H  H470  1  0.374900  0.312800  0.833600  1.0
  H  H471  1  0.625100  0.687200  0.166400  1.0
  H  H472  1  0.497300  0.212500  0.840500  1.0
  H  H473  1  0.502700  0.787500  0.159500  1.0
  H  H474  1  0.623600  0.181800  0.779200  1.0
  H  H475  1  0.376400  0.818200  0.220800  1.0
  H  H476  1  0.281900  0.907000  0.975000  1.0
  H  H477  1  0.718100  0.093000  0.025000  1.0
  H  H478  1  0.232200  0.897800  0.056300  1.0
  H  H479  1  0.767800  0.102200  0.943700  1.0
  H  H480  1  0.337900  0.820500  0.108800  1.0
  H  H481  1  0.662100  0.179500  0.891200  1.0
  H  H482  1  0.493300  0.752400  0.080000  1.0
  H  H483  1  0.506700  0.247600  0.920000  1.0
  H  H484  1  0.543100  0.761600  0.998600  1.0
  H  H485  1  0.456900  0.238400  0.001400  1.0
  H  H486  1  0.898000  0.687600  0.814800  1.0
  H  H487  1  0.102000  0.312400  0.185200  1.0
  H  H488  1  0.973800  0.712100  0.755300  1.0
  H  H489  1  0.026200  0.287900  0.244700  1.0
  H  H490  1  0.688300  0.814600  0.709500  1.0
  H  H491  1  0.311700  0.185400  0.290500  1.0
  H  H492  1  0.753800  0.821500  0.631500  1.0
  H  H493  1  0.246200  0.178500  0.368500  1.0
  H  H494  1  0.882700  0.805800  0.544600  1.0
  H  H495  1  0.117300  0.194200  0.455400  1.0
  H  H496  1  0.019900  0.777700  0.488000  1.0
  H  H497  1  0.980100  0.222300  0.512000  1.0
  H  H498  1  0.217200  0.686200  0.592700  1.0
  H  H499  1  0.782800  0.313800  0.407300  1.0
  H  H500  1  0.317900  0.644500  0.535800  1.0
  H  H501  1  0.682100  0.355500  0.464200  1.0
  H  H502  1  0.764600  0.667300  0.961800  1.0
  H  H503  1  0.235400  0.332700  0.038200  1.0
  H  H504  1  0.871700  0.596000  0.017400  1.0
  H  H505  1  0.128300  0.404000  0.982600  1.0
  H  H506  1  0.043700  0.543000  0.995100  1.0
  H  H507  1  0.956300  0.457000  0.004900  1.0
  H  H508  1  0.108700  0.561400  0.917300  1.0
  H  H509  1  0.891300  0.438600  0.082700  1.0
  H  H510  1  0.001600  0.632800  0.861700  1.0
  H  H511  1  0.998400  0.367200  0.138300  1.0
  H  H512  1  0.479100  0.606200  0.556600  1.0
  H  H513  1  0.520900  0.393800  0.443400  1.0
  H  H514  1  0.635400  0.531700  0.575500  1.0
  H  H515  1  0.364600  0.468300  0.424500  1.0
  H  H516  1  0.747100  0.485300  0.514100  1.0
  H  H517  1  0.252900  0.514700  0.485900  1.0
  H  H518  1  0.695700  0.506600  0.434700  1.0
  H  H519  1  0.304300  0.493400  0.565300  1.0
  H  H520  1  0.540100  0.582000  0.417000  1.0
  H  H521  1  0.459900  0.418000  0.583000  1.0
  H  H522  1  0.649300  0.920000  0.813300  1.0
  H  H523  1  0.350700  0.080000  0.186700  1.0
  H  H524  1  0.733500  0.997800  0.831600  1.0
  H  H525  1  0.266500  0.002200  0.168400  1.0
  H  H526  1  0.803500  0.988700  0.907100  1.0
  H  H527  1  0.196500  0.011300  0.092900  1.0
  H  H528  1  0.798400  0.903200  0.961500  1.0
  H  H529  1  0.201600  0.096800  0.038500  1.0
  H  H530  1  0.718400  0.826500  0.940300  1.0
  H  H531  1  0.281600  0.173500  0.059700  1.0
  H  H532  1  0.526300  0.767300  0.772100  1.0
  H  H533  1  0.473700  0.232700  0.227900  1.0
  H  H534  1  0.445700  0.693600  0.748300  1.0
  H  H535  1  0.554300  0.306400  0.251700  1.0
  H  H536  1  0.422400  0.612000  0.802400  1.0
  H  H537  1  0.577600  0.388000  0.197600  1.0
  H  H538  1  0.473600  0.608200  0.881600  1.0
  H  H539  1  0.526400  0.391800  0.118400  1.0
  H  H540  1  0.552400  0.685700  0.905000  1.0
  H  H541  1  0.447600  0.314300  0.095000  1.0
  H  H542  1  0.202600  0.859500  0.436900  1.0
  H  H543  1  0.797400  0.140500  0.563100  1.0
  H  H544  1  0.277200  0.938800  0.460700  1.0
  H  H545  1  0.722800  0.061200  0.539300  1.0
  H  H546  1  0.451000  0.929900  0.449400  1.0
  H  H547  1  0.549000  0.070100  0.550600  1.0
  H  H548  1  0.553400  0.838500  0.417000  1.0
  H  H549  1  0.446600  0.161500  0.583000  1.0
  H  H550  1  0.484000  0.757700  0.396600  1.0
  H  H551  1  0.516000  0.242300  0.603400  1.0
  H  H552  1  0.071900  0.707500  0.400700  1.0
  H  H553  1  0.928100  0.292500  0.599300  1.0
  H  H554  1  0.997000  0.626300  0.381100  1.0
  H  H555  1  0.003000  0.373700  0.618900  1.0
  H  H556  1  0.108900  0.534200  0.347000  1.0
  H  H557  1  0.891100  0.465800  0.653000  1.0
  H  H558  1  0.286500  0.524600  0.343200  1.0
  H  H559  1  0.713500  0.475400  0.656800  1.0
  H  H560  1  0.348400  0.606500  0.360900  1.0
  H  H561  1  0.651600  0.393500  0.639100  1.0
  H  H562  1  0.043100  0.011400  0.859200  1.0
  H  H563  1  0.956900  0.988600  0.140800  1.0
  H  H564  1  0.948600  0.014800  0.825900  1.0
  H  H565  1  0.051400  0.985200  0.174100  1.0
  H  H566  1  0.976000  0.220000  0.902100  1.0
  H  H567  1  0.024000  0.780000  0.097900  1.0
  H  H568  1  0.871200  0.201400  0.892200  1.0
  H  H569  1  0.128800  0.798600  0.107800  1.0
  H  H570  1  0.986400  0.255100  0.818100  1.0
  H  H571  1  0.013600  0.744900  0.181900  1.0
  H  H572  1  0.877100  0.240700  0.810900  1.0
  H  H573  1  0.122900  0.759300  0.189100  1.0
  H  H574  1  0.794200  0.321400  0.862400  1.0
  H  H575  1  0.205800  0.678600  0.137600  1.0
  H  H576  1  0.903300  0.334800  0.871800  1.0
  H  H577  1  0.096700  0.665200  0.128200  1.0
  H  H578  1  0.799800  0.360400  0.783000  1.0
  H  H579  1  0.200200  0.639600  0.217000  1.0
  H  H580  1  0.915100  0.366900  0.788100  1.0
  H  H581  1  0.084900  0.633100  0.211900  1.0
  H  H582  1  0.757100  0.437300  0.847900  1.0
  H  H583  1  0.242900  0.562700  0.152100  1.0
  C  C584  1  0.425000  0.754000  0.597000  1
  C  C585  1  0.575000  0.246000  0.403000  1
  C  C586  1  0.754000  0.708000  0.315000  1
  C  C587  1  0.246000  0.292000  0.685000  1
  C  C588  1  0.240000  0.567000  0.815000  1
  C  C589  1  0.760000  0.433000  0.185000  1
  C  C590  1  0.861000  0.623000  0.688000  1
  C  C591  1  0.139000  0.377000  0.312000  1
  C  C592  1  0.605500  0.287800  0.741700  1
  C  C593  1  0.394500  0.712200  0.258300  1
  C  C594  1  0.530700  0.346700  0.733400  1
  C  C595  1  0.469300  0.653300  0.266600  1
  C  C596  1  0.461100  0.372500  0.770600  1
  C  C597  1  0.538900  0.627500  0.229400  1
  C  C598  1  0.466400  0.339600  0.816100  1
  C  C599  1  0.533600  0.660400  0.183900  1
  C  C600  1  0.541300  0.280700  0.824400  1
  C  C601  1  0.458700  0.719300  0.175600  1
  C  C602  1  0.610900  0.254800  0.787200  1
  C  C603  1  0.389100  0.745200  0.212800  1
  C  C604  1  0.431400  0.855200  0.980500  1
  C  C605  1  0.568600  0.144800  0.019500  1
  C  C606  1  0.331600  0.890300  0.995800  1
  C  C607  1  0.668400  0.109700  0.004200  1
  C  C608  1  0.305500  0.892700  0.045000  1
  C  C609  1  0.694500  0.107300  0.955000  1
  C  C610  1  0.379100  0.860000  0.079000  1
  C  C611  1  0.620900  0.140000  0.921000  1
  C  C612  1  0.478800  0.824900  0.063700  1
  C  C613  1  0.521200  0.175100  0.936300  1
  C  C614  1  0.505000  0.822600  0.014500  1
  C  C615  1  0.495000  0.177400  0.985500  1
  C  C616  1  0.398900  0.814500  0.976100  1
  C  C617  1  0.601100  0.185500  0.023900  1
  C  C618  1  0.307900  0.855600  0.995000  1
  C  C619  1  0.692100  0.144400  0.005000  1
  C  C620  1  0.275300  0.844900  0.042800  1
  C  C621  1  0.724700  0.155100  0.957200  1
  C  C622  1  0.333700  0.793000  0.071700  1
  C  C623  1  0.666300  0.207000  0.928300  1
  C  C624  1  0.424700  0.751900  0.052700  1
  C  C625  1  0.575300  0.248100  0.947300  1
  C  C626  1  0.457300  0.762600  0.004900  1
  C  C627  1  0.542700  0.237400  0.995100  1
  C  C628  1  0.833200  0.626500  0.891400  1
  C  C629  1  0.166800  0.373500  0.108600  1
  C  C630  1  0.781100  0.605200  0.931700  1
  C  C631  1  0.218900  0.394800  0.068300  1
  C  C632  1  0.831000  0.549600  0.959400  1
  C  C633  1  0.169000  0.450400  0.040600  1
  C  C634  1  0.933000  0.515200  0.946800  1
  C  C635  1  0.067000  0.484800  0.053200  1
  C  C636  1  0.985100  0.536400  0.906400  1
  C  C637  1  0.014900  0.463600  0.093600  1
  C  C638  1  0.935200  0.592000  0.878700  1
  C  C639  1  0.064800  0.408000  0.121300  1
  C  C640  1  0.746600  0.484700  0.783200  1
  C  C641  1  0.253400  0.515300  0.216800  1
  C  C642  1  0.739000  0.554600  0.788500  1
  C  C643  1  0.261000  0.445400  0.211500  1
  C  C644  1  0.759000  0.589100  0.740400  1
  C  C645  1  0.241000  0.410900  0.259600  1
  C  C646  1  0.111900  0.130200  0.854600  1
  C  C647  1  0.888100  0.869800  0.145400  1
  C  C648  1  0.176100  0.118800  0.898700  1
  C  C649  1  0.823900  0.881200  0.101300  1
  C  C650  1  0.293500  0.097900  0.890100  1
  C  C651  1  0.706500  0.902100  0.109900  1
  C  C652  1  0.354100  0.090300  0.935300  1
  C  C653  1  0.645900  0.909700  0.064700  1
  C  C654  1  0.431000  0.026600  0.946700  1
  C  C655  1  0.569000  0.973400  0.053300  1
  C  C656  1  0.438800  0.005900  0.998200  1
  C  C657  1  0.561200  0.994100  0.001800  1
  C  C658  1  0.530200  0.974100  0.023500  1
  C  C659  1  0.469800  0.025900  0.976500  1
  C  C660  1  0.520000  0.942600  0.073400  1
  C  C661  1  0.480000  0.057400  0.926600  1
  C  C662  1  0.942500  0.091200  0.846000  1
  C  C663  1  0.057500  0.908800  0.154000  1
  C  C664  1  0.923800  0.197300  0.868500  1
  C  C665  1  0.076200  0.802700  0.131500  1
  C  C666  1  0.875400  0.238700  0.822900  1
  C  C667  1  0.124600  0.761300  0.177100  1
  C  C668  1  0.797500  0.302100  0.834800  1
  C  C669  1  0.202500  0.697900  0.165200  1
  C  C670  1  0.790300  0.353400  0.795000  1
  C  C671  1  0.209700  0.646600  0.205000  1
  C  C672  1  0.707500  0.414500  0.804300  1
  C  C673  1  0.292500  0.585500  0.195700  1
  C  C674  1  0.719000  0.450400  0.844200  1
  C  C675  1  0.281000  0.549600  0.155800  1
  C  C676  1  0.727000  0.518400  0.834400  1
  C  C677  1  0.273000  0.481600  0.165600  1
  C  C678  1  0.797000  0.536000  0.871000  1
  C  C679  1  0.203000  0.464000  0.129000  1
  C  C680  1  0.101300  0.115400  0.868300  1
  C  C681  1  0.898700  0.884600  0.131700  1
  C  C682  1  0.168300  0.144100  0.832900  1
  C  C683  1  0.831700  0.855900  0.167100  1
  C  C684  1  0.284600  0.118600  0.836400  1
  C  C685  1  0.715400  0.881400  0.163600  1
  C  C686  1  0.344800  0.124700  0.789900  1
  C  C687  1  0.655200  0.875300  0.210100  1
  C  C688  1  0.457000  0.085600  0.786100  1
  C  C689  1  0.543000  0.914400  0.213900  1
  C  C690  1  0.502800  0.079300  0.737900  1
  C  C691  1  0.497200  0.920700  0.262100  1
  C  C692  1  0.602800  0.059000  0.718400  1
  C  C693  1  0.397200  0.941000  0.281600  1
  C  C694  1  0.635000  0.002500  0.686600  1
  C  C695  1  0.365000  0.997500  0.313400  1
  C  C696  1  0.162000  0.688600  0.694100  1
  C  C697  1  0.838000  0.311400  0.305900  1
  C  C698  1  0.170000  0.725400  0.738300  1
  C  C699  1  0.830000  0.274600  0.261700  1
  C  C700  1  0.184300  0.812600  0.781400  1
  C  C701  1  0.815700  0.187400  0.218600  1
  C  C702  1  0.082300  0.815500  0.812700  1
  C  C703  1  0.917700  0.184500  0.187300  1
  C  C704  1  0.092000  0.825400  0.865300  1
  C  C705  1  0.908000  0.174600  0.134700  1
  C  C706  1  0.058000  0.776700  0.898900  1
  C  C707  1  0.942000  0.223300  0.101100  1
  C  C708  1  0.081000  0.782400  0.950600  1
  C  C709  1  0.919000  0.217600  0.049400  1
  C  C710  1  0.043000  0.743000  0.987600  1
  C  C711  1  0.957000  0.257000  0.012400  1
  C  C712  1  0.948000  0.773500  0.018000  1
  C  C713  1  0.052000  0.226500  0.982000  1
  C  C714  1  0.892000  0.723000  0.038500  1
  C  C715  1  0.108000  0.277000  0.961500  1
  C  C716  1  0.174000  0.822000  0.690400  1
  C  C717  1  0.826000  0.178000  0.309600  1
  C  C718  1  0.067100  0.860000  0.677800  1
  C  C719  1  0.932900  0.140000  0.322200  1
  C  C720  1  0.000000  0.901200  0.713400  1
  C  C721  1  0.000000  0.098800  0.286600  1
  C  C722  1  0.923000  0.959300  0.692100  1
  C  C723  1  0.077000  0.040700  0.307900  1
  C  C724  1  0.809100  0.962500  0.694000  1
  C  C725  1  0.190900  0.037500  0.306000  1
  C  C726  1  0.736600  0.024600  0.699700  1
  C  C727  1  0.263400  0.975400  0.300300  1
  C  C728  1  0.636000  0.044900  0.719500  1
  C  C729  1  0.364000  0.955100  0.280500  1
  C  C730  1  0.541100  0.069000  0.688000  1
  C  C731  1  0.458900  0.931000  0.312000  1
  C  C732  1  0.154000  0.670200  0.694700  1
  C  C733  1  0.846000  0.329800  0.305300  1
  C  C734  1  0.163000  0.703100  0.741200  1
  C  C735  1  0.837000  0.296900  0.258800  1
  C  C736  1  0.178000  0.788300  0.787000  1
  C  C737  1  0.822000  0.211700  0.213000  1
  C  C738  1  0.067200  0.831200  0.800900  1
  C  C739  1  0.932800  0.168800  0.199100  1
  C  C740  1  0.064000  0.866600  0.845900  1
  C  C741  1  0.936000  0.133400  0.154100  1
  C  C742  1  0.050000  0.829500  0.891500  1
  C  C743  1  0.950000  0.170500  0.108500  1
  C  C744  1  0.145000  0.775500  0.905000  1
  C  C745  1  0.855000  0.224500  0.095000  1
  C  C746  1  0.155000  0.753600  0.955300  1
  C  C747  1  0.845000  0.246400  0.044700  1
  C  C748  1  0.240000  0.695900  0.970600  1
  C  C749  1  0.760000  0.304100  0.029400  1
  C  C750  1  0.216000  0.668000  0.020900  1
  C  C751  1  0.784000  0.332000  0.979100  1
  C  C752  1  0.215000  0.790100  0.697100  1
  C  C753  1  0.785000  0.209900  0.302900  1
  C  C754  1  0.180000  0.862200  0.696900  1
  C  C755  1  0.820000  0.137800  0.303100  1
  C  C756  1  0.079200  0.892800  0.671800  1
  C  C757  1  0.920800  0.107200  0.328200  1
  C  C758  1  0.095000  0.897300  0.617900  1
  C  C759  1  0.905000  0.102700  0.382100  1
  C  C760  1  0.005000  0.936500  0.588500  1
  C  C761  1  0.995000  0.063500  0.411500  1
  C  C762  1  0.032000  0.954800  0.539400  1
  C  C763  1  0.968000  0.045200  0.460600  1
  C  C764  1  0.987000  0.955800  0.495400  1
  C  C765  1  0.013000  0.044200  0.504600  1
  C  C766  1  0.994000  0.006900  0.455500  1
  C  C767  1  0.006000  0.993100  0.544500  1
  C  C768  1  0.144000  0.674900  0.700400  1
  C  C769  1  0.856000  0.325100  0.299600  1
  C  C770  1  0.118400  0.616500  0.728400  1
  C  C771  1  0.881600  0.383500  0.271600  1
  C  C772  1  0.037000  0.531400  0.741000  1
  C  C773  1  0.963000  0.468600  0.259000  1
  C  C774  1  0.123000  0.475300  0.765000  1
  C  C775  1  0.877000  0.524700  0.235000  1
  C  C776  1  0.112000  0.468300  0.819300  1
  C  C777  1  0.888000  0.531700  0.180700  1
  C  C778  1  0.147000  0.400400  0.840300  1
  C  C779  1  0.853000  0.599600  0.159700  1
  C  C780  1  0.064000  0.380400  0.871400  1
  C  C781  1  0.936000  0.619600  0.128600  1
  C  C782  1  0.093000  0.332500  0.910200  1
  C  C783  1  0.907000  0.667500  0.089800  1
  C  C784  1  0.207000  0.301000  0.919100  1
  C  C785  1  0.793000  0.699000  0.080900  1
  C  C786  1  0.220000  0.239500  0.952300  1
  C  C787  1  0.780000  0.760500  0.047700  1
  C  C788  1  0.117400  0.555800  0.659800  1
  C  C789  1  0.882600  0.444200  0.340200  1
  C  C790  1  0.032900  0.567900  0.624400  1
  C  C791  1  0.967100  0.432100  0.375600  1
  C  C792  1  0.068000  0.561100  0.572600  1
  C  C793  1  0.932000  0.438900  0.427400  1
  C  C794  1  0.982000  0.586200  0.537600  1
  C  C795  1  0.018000  0.413800  0.462400  1
  C  C796  1  0.999000  0.565200  0.487200  1
  C  C797  1  0.001000  0.434800  0.512800  1
  C  C798  1  0.975000  0.505000  0.479400  1
  C  C799  1  0.025000  0.495000  0.520600  1
  C  C800  1  0.929000  0.485200  0.441300  1
  C  C801  1  0.071000  0.514800  0.558700  1
  C  C802  1  0.981000  0.423000  0.418700  1
  C  C803  1  0.019000  0.577000  0.581300  1
  C  C804  1  0.506800  0.925000  0.585600  1
  C  C805  1  0.493200  0.075000  0.414400  1
  C  C806  1  0.422000  0.762000  0.642000  1
  C  C807  1  0.578000  0.238000  0.358000  1
  C  C808  1  0.366000  0.852000  0.577000  1
  C  C809  1  0.634000  0.148000  0.423000  1
  C  C810  1  0.415000  0.773000  0.580000  1
  C  C811  1  0.585000  0.227000  0.420000  1
  C  C812  1  0.774000  0.666000  0.333600  1
  C  C813  1  0.226000  0.334000  0.666400  1
  C  C814  1  0.798000  0.747000  0.349400  1
  C  C815  1  0.202000  0.253000  0.650600  1
  C  C816  1  0.806000  0.774000  0.422000  1
  C  C817  1  0.194000  0.226000  0.578000  1
  C  C818  1  0.736000  0.808000  0.462000  1
  C  C819  1  0.264000  0.192000  0.538000  1
  C  C820  1  0.274000  0.500000  0.849000  1
  C  C821  1  0.726000  0.500000  0.151000  1
  C  C822  1  0.394000  0.454000  0.951000  1
  C  C823  1  0.606000  0.546000  0.049000  1
  C  C824  1  0.969000  0.591000  0.643400  1
  C  C825  1  0.031000  0.409000  0.356600  1
  C  C826  1  0.665800  0.251900  0.698600  1.0
  C  C827  1  0.334200  0.748100  0.301400  1.0
  C  C828  1  0.759400  0.206700  0.707200  1.0
  C  C829  1  0.240600  0.793300  0.292800  1.0
  C  C830  1  0.839700  0.184800  0.674000  1.0
  C  C831  1  0.160300  0.815200  0.326000  1.0
  C  C832  1  0.042500  0.065400  0.747140  1.0
  C  C833  1  0.957500  0.934600  0.252860  1.0
  C  C834  1  0.949300  0.106500  0.734200  1.0
  C  C835  1  0.050700  0.893500  0.265800  1.0
  C  C836  1  0.938600  0.137200  0.688570  1.0
  C  C837  1  0.061400  0.862800  0.311430  1.0
  C  C838  1  0.021800  0.122600  0.654600  1.0
  C  C839  1  0.978200  0.877400  0.345400  1.0
  C  C840  1  0.115600  0.079900  0.667200  1.0
  C  C841  1  0.884400  0.920100  0.332800  1.0
  C  C842  1  0.128900  0.050900  0.715200  1.0
  C  C843  1  0.871100  0.949100  0.284800  1.0
  C  C844  1  0.212500  0.007600  0.739940  1.0
  C  C845  1  0.787500  0.992400  0.260060  1.0
  C  C846  1  0.317400  0.977000  0.727300  1.0
  C  C847  1  0.682600  0.023000  0.272700  1.0
  C  C848  1  0.379400  0.938700  0.761500  1.0
  C  C849  1  0.620600  0.061300  0.238500  1.0
  C  C850  1  0.343300  0.927600  0.808580  1.0
  C  C851  1  0.656700  0.072400  0.191420  1.0
  C  C852  1  0.239700  0.957300  0.821350  1.0
  C  C853  1  0.760300  0.042700  0.178650  1.0
  C  C854  1  0.175600  0.997400  0.786850  1.0
  C  C855  1  0.824400  0.002600  0.213150  1.0
  C  C856  1  0.415200  0.885000  0.844060  1.0
  C  C857  1  0.584800  0.115000  0.155940  1.0
  C  C858  1  0.386100  0.874400  0.891300  1.0
  C  C859  1  0.613900  0.125600  0.108700  1.0
  C  C860  1  0.448900  0.836100  0.926590  1.0
  C  C861  1  0.551100  0.163900  0.073410  1.0
  C  C862  1  0.576900  0.263700  0.735600  1.0
  C  C863  1  0.423100  0.736300  0.264400  1.0
  C  C864  1  0.503600  0.323800  0.731400  1.0
  C  C865  1  0.496400  0.676200  0.268600  1.0
  C  C866  1  0.427900  0.342200  0.768100  1.0
  C  C867  1  0.572100  0.657800  0.231900  1.0
  C  C868  1  0.425500  0.300500  0.809000  1.0
  C  C869  1  0.574500  0.699500  0.191000  1.0
  C  C870  1  0.498800  0.240400  0.813200  1.0
  C  C871  1  0.501200  0.759600  0.186800  1.0
  C  C872  1  0.574500  0.222000  0.776400  1.0
  C  C873  1  0.425500  0.778000  0.223600  1.0
  C  C874  1  0.417500  0.835200  0.978700  1.0
  C  C875  1  0.582500  0.164800  0.021300  1.0
  C  C876  1  0.324300  0.876000  0.996000  1.0
  C  C877  1  0.675700  0.124000  0.004000  1.0
  C  C878  1  0.294500  0.870500  0.044800  1.0
  C  C879  1  0.705500  0.129500  0.955200  1.0
  C  C880  1  0.357800  0.824200  0.076200  1.0
  C  C881  1  0.642200  0.175800  0.923800  1.0
  C  C882  1  0.451000  0.783400  0.058900  1.0
  C  C883  1  0.549000  0.216600  0.941100  1.0
  C  C884  1  0.480800  0.788900  0.010200  1.0
  C  C885  1  0.519200  0.211100  0.989800  1.0
  C  C886  1  0.800300  0.702300  0.871300  1.0
  C  C887  1  0.199700  0.297700  0.128700  1.0
  C  C888  1  0.832200  0.712900  0.824500  1.0
  C  C889  1  0.167800  0.287100  0.175500  1.0
  C  C890  1  0.777600  0.756900  0.790120  1.0
  C  C891  1  0.222400  0.243100  0.209880  1.0
  C  C892  1  0.966400  0.738900  0.684090  1.0
  C  C893  1  0.033600  0.261100  0.315910  1.0
  C  C894  1  0.929000  0.733800  0.730800  1.0
  C  C895  1  0.071000  0.266200  0.269200  1.0
  C  C896  1  0.822200  0.762000  0.740900  1.0
  C  C897  1  0.177800  0.238000  0.259100  1.0
  C  C898  1  0.759100  0.794800  0.702900  1.0
  C  C899  1  0.240900  0.205200  0.297100  1.0
  C  C900  1  0.797700  0.799000  0.656000  1.0
  C  C901  1  0.202300  0.201000  0.344000  1.0
  C  C902  1  0.902200  0.769600  0.645930  1.0
  C  C903  1  0.097800  0.230400  0.354070  1.0
  C  C904  1  0.967800  0.761800  0.602900  1.0
  C  C905  1  0.032200  0.238200  0.397100  1.0
  C  C906  1  0.949300  0.781600  0.554300  1.0
  C  C907  1  0.050700  0.218400  0.445700  1.0
  C  C908  1  0.031700  0.764600  0.520600  1.0
  C  C909  1  0.968300  0.235400  0.479400  1.0
  C  C910  1  0.131400  0.728700  0.534390  1.0
  C  C911  1  0.868600  0.271300  0.465610  1.0
  C  C912  1  0.150400  0.709900  0.582940  1.0
  C  C913  1  0.849600  0.290100  0.417060  1.0
  C  C914  1  0.068500  0.726800  0.616540  1.0
  C  C915  1  0.931500  0.273200  0.383460  1.0
  C  C916  1  0.214800  0.710900  0.496680  1.0
  C  C917  1  0.785200  0.289100  0.503320  1.0
  C  C918  1  0.308900  0.665700  0.505040  1.0
  C  C919  1  0.691100  0.334300  0.494960  1.0
  C  C920  1  0.392400  0.648800  0.471400  1.0
  C  C921  1  0.607600  0.351200  0.528600  1.0
  C  C922  1  0.872500  0.657100  0.906200  1.0
  C  C923  1  0.127500  0.342900  0.093800  1.0
  C  C924  1  0.833600  0.646100  0.952900  1.0
  C  C925  1  0.166400  0.353900  0.047100  1.0
  C  C926  1  0.897700  0.603400  0.986200  1.0
  C  C927  1  0.102300  0.396600  0.013800  1.0
  C  C928  1  0.000800  0.571600  0.972800  1.0
  C  C929  1  0.999200  0.428400  0.027200  1.0
  C  C930  1  0.039700  0.582700  0.926200  1.0
  C  C931  1  0.960300  0.417300  0.073800  1.0
  C  C932  1  0.975600  0.625400  0.892900  1.0
  C  C933  1  0.024400  0.374600  0.107100  1.0
  C  C934  1  0.490500  0.601300  0.484750  1.0
  C  C935  1  0.509500  0.398700  0.515250  1.0
  C  C936  1  0.522600  0.586000  0.531700  1.0
  C  C937  1  0.477400  0.414000  0.468300  1.0
  C  C938  1  0.616600  0.542100  0.543300  1.0
  C  C939  1  0.383400  0.457900  0.456700  1.0
  C  C940  1  0.682000  0.513800  0.506800  1.0
  C  C941  1  0.318000  0.486200  0.493200  1.0
  C  C942  1  0.652600  0.527200  0.459500  1.0
  C  C943  1  0.347400  0.472800  0.540500  1.0
  C  C944  1  0.558500  0.571600  0.449300  1.0
  C  C945  1  0.441500  0.428400  0.550700  1.0
  C  C946  1  0.681300  0.916700  0.843100  1.0
  C  C947  1  0.318700  0.083300  0.156900  1.0
  C  C948  1  0.729700  0.963500  0.853800  1.0
  C  C949  1  0.270300  0.036500  0.146200  1.0
  C  C950  1  0.771700  0.957300  0.898500  1.0
  C  C951  1  0.228300  0.042700  0.101500  1.0
  C  C952  1  0.768700  0.906600  0.931200  1.0
  C  C953  1  0.231300  0.093400  0.068800  1.0
  C  C954  1  0.721600  0.861300  0.918600  1.0
  C  C955  1  0.278400  0.138700  0.081400  1.0
  C  C956  1  0.515700  0.734900  0.794600  1.0
  C  C957  1  0.484300  0.265100  0.205400  1.0
  C  C958  1  0.468000  0.690900  0.780000  1.0
  C  C959  1  0.532000  0.309100  0.220000  1.0
  C  C960  1  0.453400  0.643200  0.812100  1.0
  C  C961  1  0.546600  0.356800  0.187900  1.0
  C  C962  1  0.484500  0.640700  0.859200  1.0
  C  C963  1  0.515500  0.359300  0.140800  1.0
  C  C964  1  0.532000  0.686900  0.873100  1.0
  C  C965  1  0.468000  0.313100  0.126900  1.0
  C  C966  1  0.275300  0.854100  0.433700  1.0
  C  C967  1  0.724700  0.145900  0.566300  1.0
  C  C968  1  0.320300  0.902300  0.447100  1.0
  C  C969  1  0.679700  0.097700  0.552900  1.0
  C  C970  1  0.421500  0.897400  0.441000  1.0
  C  C971  1  0.578500  0.102600  0.559000  1.0
  C  C972  1  0.481200  0.843000  0.421900  1.0
  C  C973  1  0.518800  0.157000  0.578100  1.0
  C  C974  1  0.440200  0.794400  0.409600  1.0
  C  C975  1  0.559800  0.205600  0.590400  1.0
  C  C976  1  0.114700  0.670000  0.388500  1.0
  C  C977  1  0.885300  0.330000  0.611500  1.0
  C  C978  1  0.069100  0.622000  0.376500  1.0
  C  C979  1  0.930900  0.378000  0.623500  1.0
  C  C980  1  0.136000  0.566800  0.357200  1.0
  C  C981  1  0.864000  0.433200  0.642800  1.0
  C  C982  1  0.240000  0.562100  0.353800  1.0
  C  C983  1  0.760000  0.437900  0.646200  1.0
  C  C984  1  0.276400  0.610200  0.365300  1.0
  C  C985  1  0.723600  0.389800  0.634700  1.0
  C  C986  1  0.000000  0.022800  0.832900  1.0
  C  C987  1  0.000000  0.977200  0.167100  1.0
  C  C988  1  0.003000  0.036100  0.832300  1.0
  C  C989  1  0.997000  0.963900  0.167700  1.0
  C  C990  1  0.947900  0.103600  0.848700  1.0
  C  C991  1  0.052100  0.896400  0.151300  1.0
  C  C992  1  0.938600  0.204800  0.877900  1.0
  C  C993  1  0.061400  0.795200  0.122100  1.0
  C  C994  1  0.919000  0.254300  0.834000  1.0
  C  C995  1  0.081000  0.745700  0.166000  1.0
  C  C996  1  0.863000  0.321800  0.847800  1.0
  C  C997  1  0.137000  0.678200  0.152200  1.0
  C  C998  1  0.848000  0.370300  0.805200  1.0
  C  C999  1  0.152000  0.629700  0.194800  1.0
  C  C1000  1  0.804000  0.438400  0.819800  1.0
  C  C1001  1  0.196000  0.561600  0.180200  1.0
  N  N1002  1  0.990700  0.133600  0.856900  1
  N  N1003  1  0.009300  0.866400  0.143100  1
  N  N1004  1  0.181900  0.783200  0.735000  1
  N  N1005  1  0.818100  0.216800  0.265000  1
  N  N1006  1  0.178800  0.759400  0.740300  1
  N  N1007  1  0.821200  0.240600  0.259700  1
  N  N1008  1  0.084000  0.574100  0.707700  1
  N  N1009  1  0.916000  0.425900  0.292300  1
  N  N1010  1  0.071600  0.032000  0.791130  1.0
  N  N1011  1  0.928400  0.968000  0.208870  1.0
  N  N1012  1  0.067600  0.714100  0.666230  1.0
  N  N1013  1  0.932400  0.285900  0.333770  1.0
  N  N1014  1  0.679600  0.866600  0.874600  1.0
  N  N1015  1  0.320400  0.133400  0.125400  1.0
  N  N1016  1  0.548600  0.733700  0.840300  1.0
  N  N1017  1  0.451400  0.266300  0.159700  1.0
  N  N1018  1  0.338000  0.799800  0.416060  1.0
  N  N1019  1  0.662000  0.200200  0.583940  1.0
  N  N1020  1  0.216100  0.663700  0.382910  1.0
  N  N1021  1  0.783900  0.336300  0.617090  1.0
  N  N1022  1  0.000300  0.140900  0.864600  1.0
  N  N1023  1  0.999700  0.859100  0.135400  1.0
  Cl  Cl1024  1  0.545000  0.744000  0.562000  1
  Cl  Cl1025  1  0.455000  0.256000  0.438000  1
  Cl  Cl1026  1  0.343000  0.811000  0.557000  1
  Cl  Cl1027  1  0.657000  0.189000  0.443000  1
  Cl  Cl1028  1  0.761000  0.625000  0.330900  1
  Cl  Cl1029  1  0.239000  0.375000  0.669100  1
  Cl  Cl1030  1  0.878000  0.697700  0.285200  1
  Cl  Cl1031  1  0.122000  0.302300  0.714800  1
  Cl  Cl1032  1  0.148000  0.522400  0.802500  1
  Cl  Cl1033  1  0.852000  0.477600  0.197500  1
  Cl  Cl1034  1  0.328000  0.508200  0.851800  1
  Cl  Cl1035  1  0.672000  0.491800  0.148200  1
  Cl  Cl1036  1  0.773000  0.628000  0.639700  1
  Cl  Cl1037  1  0.227000  0.372000  0.360300  1
  Cl  Cl1038  1  0.977000  0.577400  0.659700  1
  Cl  Cl1039  1  0.023000  0.422600  0.340300  1
  Cl  Cl1040  1  0.375500  0.970000  0.583900  1
  Cl  Cl1041  1  0.624500  0.030000  0.416100  1
  Cl  Cl1042  1  0.545600  0.925700  0.644000  1
  Cl  Cl1043  1  0.454400  0.074300  0.356000  1
  Cl  Cl1044  1  0.537000  0.703500  0.620700  1
  Cl  Cl1045  1  0.463000  0.296500  0.379300  1
  Cl  Cl1046  1  0.489500  0.821800  0.648000  1
  Cl  Cl1047  1  0.510500  0.178200  0.352000  1
  Cl  Cl1048  1  0.443000  0.883300  0.615300  1
  Cl  Cl1049  1  0.557000  0.116700  0.384700  1
  Cl  Cl1050  1  0.406000  0.768900  0.595800  1
  Cl  Cl1051  1  0.594000  0.231100  0.404200  1
  Cl  Cl1052  1  0.484000  0.742900  0.634300  1
  Cl  Cl1053  1  0.516000  0.257100  0.365700  1
  Cl  Cl1054  1  0.389000  0.855600  0.592000  1
  Cl  Cl1055  1  0.611000  0.144400  0.408000  1
  Cl  Cl1056  1  0.759000  0.751000  0.324600  1
  Cl  Cl1057  1  0.241000  0.249000  0.675400  1
  Cl  Cl1058  1  0.735400  0.659200  0.395200  1
  Cl  Cl1059  1  0.264600  0.340800  0.604800  1
  Cl  Cl1060  1  0.810000  0.778900  0.288500  1
  Cl  Cl1061  1  0.190000  0.221100  0.711500  1
  Cl  Cl1062  1  0.723000  0.693700  0.333700  1
  Cl  Cl1063  1  0.277000  0.306300  0.666300  1
  Cl  Cl1064  1  0.762000  0.711000  0.455600  1
  Cl  Cl1065  1  0.238000  0.289000  0.544400  1
  Cl  Cl1066  1  0.754600  0.840400  0.458100  1
  Cl  Cl1067  1  0.245400  0.159600  0.541900  1
  Cl  Cl1068  1  0.671100  0.763000  0.504400  1
  Cl  Cl1069  1  0.328900  0.237000  0.495600  1
  Cl  Cl1070  1  0.789800  0.751200  0.418900  1
  Cl  Cl1071  1  0.210200  0.248800  0.581100  1
  Cl  Cl1072  1  0.285000  0.566000  0.882000  1
  Cl  Cl1073  1  0.715000  0.434000  0.118000  1
  Cl  Cl1074  1  0.215000  0.550600  0.799000  1
  Cl  Cl1075  1  0.785000  0.449400  0.201000  1
  Cl  Cl1076  1  0.438000  0.454000  0.889900  1
  Cl  Cl1077  1  0.562000  0.546000  0.110100  1
  Cl  Cl1078  1  0.310000  0.533100  0.945700  1
  Cl  Cl1079  1  0.690000  0.466900  0.054300  1
  Cl  Cl1080  1  0.900000  0.600000  0.588600  1
  Cl  Cl1081  1  0.100000  0.400000  0.411400  1
  Cl  Cl1082  1  0.857000  0.596200  0.681300  1
  Cl  Cl1083  1  0.143000  0.403800  0.318700  1
  O  O1084  1  0.842100  0.103900  0.842700  1
  O  O1085  1  0.157900  0.896100  0.157300  1
  O  O1086  1  0.172000  0.692400  0.778900  1
  O  O1087  1  0.828000  0.307600  0.221100  1
  O  O1088  1  0.148000  0.670000  0.780000  1
  O  O1089  1  0.852000  0.330000  0.220000  1
  O  O1090  1  0.110100  0.620600  0.774600  1
  O  O1091  1  0.889900  0.379400  0.225400  1
  O  O1092  1  0.639300  0.279260  0.657310  1.0
  O  O1093  1  0.360700  0.720740  0.342690  1.0
  O  O1094  1  0.836100  0.205870  0.629440  1.0
  O  O1095  1  0.163900  0.794130  0.370560  1.0
  O  O1096  1  0.508000  0.860890  0.826440  1.0
  O  O1097  1  0.492000  0.139110  0.173560  1.0
  O  O1098  1  0.543100  0.803470  0.918080  1.0
  O  O1099  1  0.456900  0.196530  0.081920  1.0
  O  O1100  1  0.715200  0.735190  0.890660  1.0
  O  O1101  1  0.284800  0.264810  0.109340  1.0
  O  O1102  1  0.687400  0.795120  0.798780  1.0
  O  O1103  1  0.312600  0.204880  0.201220  1.0
  O  O1104  1  0.192300  0.742840  0.455500  1.0
  O  O1105  1  0.807700  0.257160  0.544500  1.0
  O  O1106  1  0.388500  0.671250  0.427470  1.0
  O  O1107  1  0.611500  0.328750  0.572530  1.0
  O  O1108  1  0.847200  0.115700  0.850100  1.0
  O  O1109  1  0.152800  0.884300  0.149900  1.0
  F  F1110  1  0.749500  0.992600  0.454500  1
  F  F1111  1  0.250500  0.007400  0.545500  1
  F  F1112  1  0.678600  0.869800  0.497800  1
  F  F1113  1  0.321400  0.130200  0.502200  1
  F  F1114  1  0.676900  0.923300  0.421600  1
  F  F1115  1  0.323100  0.076700  0.578400  1
  F  F1116  1  0.746600  0.934700  0.526100  1
  F  F1117  1  0.253400  0.065300  0.473900  1
  F  F1118  1  0.604800  0.972300  0.487300  1
  F  F1119  1  0.395200  0.027700  0.512700  1
  F  F1120  1  0.827900  0.887900  0.458500  1
  F  F1121  1  0.172100  0.112100  0.541500  1
  F  F1122  1  0.504600  0.518000  0.724700  1
  F  F1123  1  0.495400  0.482000  0.275300  1
  F  F1124  1  0.376700  0.588600  0.637800  1
  F  F1125  1  0.623300  0.411400  0.362200  1
  F  F1126  1  0.527200  0.575100  0.673600  1
  F  F1127  1  0.472800  0.424900  0.326400  1
  F  F1128  1  0.345500  0.516900  0.689500  1
  F  F1129  1  0.654500  0.483100  0.310500  1
  F  F1130  1  0.374700  0.595000  0.716800  1
  F  F1131  1  0.625300  0.405000  0.283200  1
  F  F1132  1  0.490600  0.492300  0.648000  1
  F  F1133  1  0.509400  0.507700  0.352000  1
  F  F1134  1  0.488000  0.496400  0.725800  1
  F  F1135  1  0.512000  0.503600  0.274200  1
  F  F1136  1  0.352800  0.565900  0.639800  1
  F  F1137  1  0.647200  0.434100  0.360200  1
  F  F1138  1  0.514500  0.546800  0.652600  1
  F  F1139  1  0.485500  0.453200  0.347400  1
  F  F1140  1  0.322100  0.526000  0.711100  1
  F  F1141  1  0.677900  0.474000  0.288900  1
  F  F1142  1  0.395000  0.607300  0.702800  1
  F  F1143  1  0.605000  0.392700  0.297200  1
  F  F1144  1  0.440700  0.469200  0.663400  1
  F  F1145  1  0.559300  0.530800  0.336600  1
  F  F1146  1  0.955000  0.032600  0.045100  1
  F  F1147  1  0.045000  0.967400  0.954900  1
  F  F1148  1  0.957900  0.058200  0.965000  1
  F  F1149  1  0.042100  0.941800  0.035000  1
  F  F1150  1  0.107500  0.016700  0.004000  1
  F  F1151  1  0.892500  0.983300  0.996000  1
  F  F1152  1  0.896300  0.016300  0.029600  1.0
  F  F1153  1  0.103700  0.983700  0.970400  1.0
  F  F1154  1  0.942400  0.013400  0.951400  1.0
  F  F1155  1  0.057600  0.986600  0.048600  1.0
  F  F1156  1  0.007500  0.928300  0.002000  1.0
  F  F1157  1  0.992500  0.071700  0.998000  1.0
