
#######################################################################
#
#                 Cambridge Crystallographic Data Centre
#                                CCDC 
#
#######################################################################
#
# If this CIF has been generated from an entry in the Cambridge 
# Structural Database, then it will include bibliographic, chemical, 
# crystal, experimental, refinement or atomic coordinate data resulting 
# from the CCDC's data processing and validation procedures.
#
#######################################################################

data_GAJWUM
_chemical_formula_moiety         
'C232 H256 Co4 N16 O20 4+,6(C1 H2 Cl2),4(F6 P1 1-)'
_chemical_name_systematic        
"tetrakis(\m-3,3'-{9-[2-(dioctylamino)-2-oxoethyl]-9H-carbazole-2,7-diyl}bis(3-oxo-1-phenylprop-1-en-1-olato))-octakis(pyridine)-tetra-cobalt tetrakis(hexafluorophosphate) dichloromethane solvate"
_symmetry_cell_setting           triclinic
_symmetry_space_group_name_H-M   'P -1'
_symmetry_Int_Tables_number      2
_space_group_name_Hall           '-P 1'
loop_
_symmetry_equiv_pos_site_id
_symmetry_equiv_pos_as_xyz
1 x,y,z
2 -x,-y,-z
_cell_length_a                   13.109(5)
_cell_length_b                   21.430(7)
_cell_length_c                   27.645(10)
_cell_angle_alpha                85.578(6)
_cell_angle_beta                 87.291(6)
_cell_angle_gamma                74.752(5)
_cell_volume                     7467.55
_exptl_crystal_colour            orange
_exptl_crystal_description       block
_cell_formula_units_Z            1
loop_
_atom_site_label
_atom_site_type_symbol
_atom_site_fract_x
_atom_site_fract_y
_atom_site_fract_z
P1 P 0.7160(3) 0.9294(2) 0.47334(17)
F1 F 0.7495(8) 0.9926(5) 0.4545(5)
F2 F 0.6786(8) 0.8698(5) 0.4978(4)
F3 F 0.6769(8) 0.9233(6) 0.4216(3)
F4 F 0.7466(9) 0.9347(5) 0.5261(4)
F5 F 0.6048(7) 0.9723(5) 0.4873(4)
F6 F 0.8279(7) 0.8879(5) 0.4585(3)
P2 P 0.4364(9) 0.5462(6) 0.6811(4)
F7 F 0.5046(17) 0.5180(9) 0.7247(8)
F8 F 0.3767(13) 0.5886(8) 0.6378(6)
F9 F 0.5272(11) 0.5751(8) 0.6736(7)
F10 F 0.3455(15) 0.5169(12) 0.6895(7)
F11 F 0.3747(18) 0.5950(12) 0.7168(7)
F12 F 0.4906(12) 0.4923(7) 0.6480(5)
P3 P 1.0000 1.0000 1.0000
F13 F 0.8963(9) 1.0163(8) 1.0296(7)
F14 F 0.9424(17) 1.0134(10) 0.9514(6)
F15 F 1.0075(17) 0.9283(6) 1.0020(7)
F13A F 1.1037(9) 0.9837(8) 0.9704(7)
F14A F 1.0576(17) 0.9866(10) 1.0486(6)
F15A F 0.9925(17) 1.0717(6) 0.9980(7)
Cl1 Cl 0.545(4) 0.744(2) 0.562(2)
Cl2 Cl 0.343(4) 0.811(3) 0.557(2)
C89 C 0.425(7) 0.754(10) 0.597(5)
H68 H 0.4032 0.7145 0.6021
H69 H 0.4297 0.7717 0.6280
Cl3 Cl 0.761(3) 0.625(2) 0.3309(12)
Cl4 Cl 0.878(2) 0.6977(19) 0.2852(10)
C90 C 0.754(8) 0.708(2) 0.315(7)
H70 H 0.6961 0.7284 0.2935
H71 H 0.7481 0.7333 0.3433
Cl5 Cl 1.148(2) 0.5224(16) 0.8025(10)
Cl6 Cl 1.328(2) 0.5082(12) 0.8518(11)
C91 C 1.240(6) 0.567(3) 0.815(4)
H72 H 1.2746 0.5795 0.7858
H73 H 1.2063 0.6047 0.8326
Cl7 Cl 0.773(3) 0.628(2) 0.6397(19)
Cl8 Cl 0.977(3) 0.5774(12) 0.6597(12)
C92 C 0.861(5) 0.623(7) 0.688(3)
H74 H 0.8667 0.6652 0.6954
H75 H 0.8403 0.6002 0.7168
Co1 Co 0.61387(6) 0.79879(4) 0.85832(2)
Co2 Co 1.27613(5) 0.73210(4) 0.39906(2)
O1 O -0.3607(3) 1.27926(17) 0.65731(13)
C1 C -0.3342(5) 1.2519(3) 0.6986(2)
C2 C -0.2406(5) 1.2067(3) 0.7072(2)
H1 H -0.2302 1.1889 0.7389
C3 C -0.1603(4) 1.1848(3) 0.6740(2)
O2 O -0.1639(3) 1.20587(16) 0.62944(12)
N1 N 0.0716(3) 1.0320(2) 0.79113(16)
C4 C 0.0425(4) 1.0654(3) 0.74714(19)
C5 C -0.0507(4) 1.1065(3) 0.7342(2)
H2 H -0.1076 1.1141 0.7563
C6 C -0.0614(4) 1.1372(3) 0.68857(19)
C7 C 0.0218(5) 1.1226(3) 0.6546(2)
H3 H 0.0136 1.1419 0.6233
C8 C 0.1156(5) 1.0799(3) 0.6672(2)
H4 H 0.1707 1.0699 0.6443
C9 C 0.1289(4) 1.0509(3) 0.7152(2)
C10 C 0.2125(4) 1.0076(3) 0.73994(18)
C11 C 0.3174(5) 0.9770(3) 0.7273(2)
H5 H 0.3439 0.9829 0.6960
C12 C 0.3794(5) 0.9387(3) 0.7615(2)
H6 H 0.4493 0.9189 0.7531
C13 C 0.3433(4) 0.9276(3) 0.80858(19)
C14 C 0.2397(4) 0.9573(3) 0.82135(19)
H7 H 0.2133 0.9504 0.8526
C15 C 0.1756(4) 0.9974(3) 0.78685(19)
C16 C 0.4152(4) 0.8850(3) 0.84406(19)
O3 O 0.5080(3) 0.86089(17) 0.82644(11)
C17 C 0.3861(5) 0.8744(3) 0.8913(2)
H8 H 0.3172 0.8950 0.9007
C18 C 0.4489(5) 0.8361(3) 0.92659(19)
O4 O 0.5431(3) 0.80347(18) 0.91808(11)
C19 C -0.4231(5) 1.2637(4) 0.7356(2)
C20 C -0.4964(7) 1.3238(4) 0.7314(3)
H9 H -0.4948 1.3517 0.7041
C21 C -0.5721(6) 1.3422(4) 0.7681(3)
H10 H -0.6211 1.3824 0.7654
C22 C -0.5745(6) 1.3005(5) 0.8090(3)
H11 H -0.6251 1.3128 0.8336
C23 C -0.5012(7) 1.2404(4) 0.8132(2)
H12 H -0.5027 1.2125 0.8405
C24 C -0.4255(6) 1.2220(3) 0.7764(3)
H13 H -0.3764 1.1818 0.7792
C25 C 0.4175(13) 0.8352(8) 0.9787(4)
C26 C 0.3243(13) 0.8760(7) 0.9960(6)
H14 H 0.2819 0.9070 0.9750
C27 C 0.2945(10) 0.8705(7) 1.0448(6)
H15 H 0.2322 0.8978 1.0563
C28 C 0.3578(10) 0.8242(7) 1.0762(4)
H16 H 0.3379 0.8205 1.1088
C29 C 0.4510(10) 0.7834(6) 1.0589(4)
H17 H 0.4933 0.7524 1.0800
C30 C 0.4808(10) 0.7889(6) 1.0102(5)
H18 H 0.5431 0.7616 0.9986
O5 O 0.7152(3) 0.73519(19) 0.89066(12)
C31 C 0.8003(5) 0.7023(3) 0.8713(2)
C32 C 0.8322(5) 0.7129(3) 0.8245(2)
H19 H 0.8980 0.6876 0.8148
C33 C 0.7776(4) 0.7569(3) 0.79012(19)
O6 O 0.6874(3) 0.79512(18) 0.79878(11)
N2 N 1.0676(3) 0.7141(2) 0.66623(14)
C34 C 0.9664(4) 0.7389(2) 0.68409(19)
C35 C 0.9290(4) 0.7338(2) 0.73080(18)
H20 H 0.9738 0.7121 0.7553
C36 C 0.8222(4) 0.7620(3) 0.7409(2)
C37 C 0.7591(4) 0.7948(3) 0.7029(2)
H21 H 0.6883 0.8146 0.7095
C38 C 0.7977(4) 0.7990(3) 0.6560(2)
H22 H 0.7538 0.8215 0.6315
C39 C 0.9022(4) 0.7696(2) 0.64593(19)
C40 C 0.9678(4) 0.7618(3) 0.6029(2)
C41 C 0.9493(4) 0.7816(3) 0.5543(2)
H23 H 0.8827 0.8058 0.5446
C42 C 1.0317(4) 0.7646(3) 0.5206(2)
H24 H 1.0199 0.7777 0.4880
C43 C 1.1314(4) 0.7287(2) 0.53439(18)
C44 C 1.1504(4) 0.7099(2) 0.58294(19)
H25 H 1.2172 0.6862 0.5927
C45 C 1.0685(4) 0.7268(2) 0.61654(18)
C46 C 1.2148(4) 0.7109(3) 0.49668(19)
O7 O 1.1923(3) 0.74284(17) 0.45550(13)
C47 C 1.3089(4) 0.6657(2) 0.50504(18)
H26 H 1.3179 0.6445 0.5358
C48 C 1.3924(4) 0.6488(2) 0.4714(2)
O8 O 1.3885(2) 0.67125(17) 0.42747(12)
C49 C 0.8725(6) 0.6571(4) 0.9062(3)
C50 C 0.8336(6) 0.6461(5) 0.9529(3)
H27 H 0.7646 0.6673 0.9618
C51 C 0.8977(8) 0.6034(5) 0.9862(3)
H28 H 0.8717 0.5960 1.0174
C52 C 1.0008(8) 0.5716(5) 0.9728(3)
H29 H 1.0437 0.5430 0.9951
C53 C 1.0397(5) 0.5827(4) 0.9262(4)
H30 H 1.1087 0.5614 0.9173
C54 C 0.9756(6) 0.6254(4) 0.8929(3)
H31 H 1.0016 0.6328 0.8617
C55 C 1.4905(4) 0.6013(2) 0.48475(17)
C56 C 1.5226(5) 0.5860(3) 0.5317(2)
H32 H 1.4791 0.6062 0.5566
C57 C 1.6166(5) 0.5421(3) 0.5433(2)
H33 H 1.6354 0.5317 0.5755
C58 C 1.6820(5) 0.5138(3) 0.5068(3)
H34 H 1.7471 0.4853 0.5141
C59 C 1.6526(5) 0.5272(3) 0.4595(3)
H35 H 1.6957 0.5066 0.4347
C60 C 1.5585(4) 0.5716(3) 0.4493(2)
H36 H 1.5401 0.5820 0.4170
N3 N 0.6796(4) 0.8666(3) 0.8746(2)
C61 C 0.6813(6) 0.9167(5) 0.8431(3)
H37 H 0.6493 0.9200 0.8133
C62 C 0.7297(9) 0.9635(6) 0.8538(5)
H38 H 0.7335 0.9978 0.8316
C63 C 0.7717(9) 0.9573(8) 0.8985(7)
H39 H 0.8035 0.9887 0.9071
C64 C 0.7687(9) 0.9066(8) 0.9312(5)
H40 H 0.7984 0.9032 0.9615
C65 C 0.7216(7) 0.8613(5) 0.9186(3)
H41 H 0.7184 0.8265 0.9403
N4 N 0.5486(4) 0.7337(3) 0.8403(2)
C66 C 0.5157(6) 0.7349(4) 0.7946(3)
H42 H 0.5263 0.7673 0.7721
C67 C 0.4680(9) 0.6909(7) 0.7800(4)
H43 H 0.4457 0.6936 0.7483
C68 C 0.4534(11) 0.6432(8) 0.8121(7)
H44 H 0.4224 0.6120 0.8024
C69 C 0.4845(12) 0.6407(6) 0.8592(6)
H45 H 0.4736 0.6082 0.8816
C70 C 0.5320(7) 0.6869(6) 0.8731(4)
H46 H 0.5524 0.6857 0.9050
N5 N 1.3380(4) 0.7998(2) 0.41606(16)
C71 C 1.2753(6) 0.8541(3) 0.4337(2)
H47 H 1.2026 0.8595 0.4369
C72 C 1.3203(8) 0.9023(5) 0.4471(4)
H48 H 1.2772 0.9388 0.4607
C73 C 1.4215(10) 0.8974(5) 0.4410(4)
H49 H 1.4510 0.9299 0.4494
C74 C 1.4812(8) 0.8430(5) 0.4219(3)
H50 H 1.5534 0.8385 0.4170
C75 C 1.4402(5) 0.7944(4) 0.4096(2)
H51 H 1.4840 0.7577 0.3966
N6 N 1.2161(4) 0.6637(2) 0.38291(16)
C76 C 1.1147(6) 0.6700(4) 0.3885(2)
H52 H 1.0719 0.7075 0.4007
C77 C 1.0691(7) 0.6220(6) 0.3765(4)
H53 H 0.9970 0.6263 0.3811
C78 C 1.1360(10) 0.5668(4) 0.3572(4)
H54 H 1.1089 0.5342 0.3470
C79 C 1.2400(8) 0.5621(4) 0.3538(3)
H55 H 1.2865 0.5246 0.3432
C80 C 1.2764(5) 0.6102(4) 0.3653(2)
H56 H 1.3484 0.6065 0.3609
C81 C 0.0000(13) 1.0228(9) 0.8329(14)
C82 C 0.0030(16) 1.0361(9) 0.8323(14)
H57 H 0.0431 1.0114 0.8592
H58 H -0.0514 1.0148 0.8259
C83 C -0.0521(10) 1.1036(8) 0.8487(12)
O9 O -0.1528(10) 1.1157(11) 0.8501(10)
N7 N 0.0003(11) 1.1409(7) 0.8646(8)
C84 C -0.0614(19) 1.2048(7) 0.8779(7)
H59 H -0.0240 1.2200 0.9021
H60 H -0.1288 1.2014 0.8922
C85 C -0.081(2) 1.2543(8) 0.8340(7)
H61 H -0.0136 1.2551 0.8181
H62 H -0.1229 1.2407 0.8109
C86 C -0.137(3) 1.3218(7) 0.8478(7)
H63 H -0.2058 1.3214 0.8624
H64 H -0.0967 1.3348 0.8718
C87 C -0.152(3) 1.3703(9) 0.8052(8)
H65 H -0.2002 1.3604 0.7830
H66 H -0.0849 1.3669 0.7881
C88 C -0.196(3) 1.4384(7) 0.8198(8)
H67 H -0.2429 1.4373 0.8479
Co1A Co 0.38613(6) 1.20121(4) 0.14168(2)
Co2A Co -0.27613(5) 1.26790(4) 0.60094(2)
O1A O 1.3607(3) 0.72074(17) 0.34269(13)
C1A C 1.3342(5) 0.7481(3) 0.3014(2)
C2A C 1.2406(5) 0.7933(3) 0.2928(2)
H1A H 1.2302 0.8111 0.2611
C3A C 1.1603(4) 0.8152(3) 0.3260(2)
O2A O 1.1639(3) 0.79413(16) 0.37056(12)
N1A N 0.9284(3) 0.9680(2) 0.20887(16)
C4A C 0.9575(4) 0.9346(3) 0.25286(19)
C5A C 1.0507(4) 0.8935(3) 0.2658(2)
H2A H 1.1076 0.8859 0.2437
C6A C 1.0614(4) 0.8628(3) 0.31143(19)
C7A C 0.9782(5) 0.8774(3) 0.3454(2)
H3A H 0.9864 0.8581 0.3767
C8A C 0.8844(5) 0.9201(3) 0.3328(2)
H4A H 0.8293 0.9301 0.3557
C9A C 0.8711(4) 0.9491(3) 0.2848(2)
C10A C 0.7875(4) 0.9924(3) 0.26006(18)
C11A C 0.6826(5) 1.0230(3) 0.2727(2)
H5A H 0.6561 1.0171 0.3040
C12A C 0.6206(5) 1.0613(3) 0.2385(2)
H6A H 0.5507 1.0811 0.2469
C13A C 0.6567(4) 1.0724(3) 0.19142(19)
C14A C 0.7603(4) 1.0427(3) 0.17865(19)
H7A H 0.7867 1.0496 0.1474
C15A C 0.8244(4) 1.0026(3) 0.21315(19)
C16A C 0.5848(4) 1.1150(3) 0.15594(19)
O3A O 0.4920(3) 1.13911(17) 0.17356(11)
C17A C 0.6139(5) 1.1256(3) 0.1087(2)
H8A H 0.6828 1.1050 0.0993
C18A C 0.5511(5) 1.1639(3) 0.07341(19)
O4A O 0.4569(3) 1.19653(18) 0.08192(11)
C19A C 1.4231(5) 0.7363(4) 0.2644(2)
C20A C 1.4964(7) 0.6762(4) 0.2686(3)
H9A H 1.4948 0.6483 0.2959
C21A C 1.5721(6) 0.6578(4) 0.2319(3)
H10A H 1.6211 0.6176 0.2346
C22A C 1.5745(6) 0.6995(5) 0.1910(3)
H11A H 1.6251 0.6872 0.1664
C23A C 1.5012(7) 0.7596(4) 0.1868(2)
H12A H 1.5027 0.7875 0.1595
C24A C 1.4255(6) 0.7780(3) 0.2236(3)
H13A H 1.3764 0.8182 0.2208
C25A C 0.5825(13) 1.1648(8) 0.0213(4)
C26A C 0.6757(13) 1.1240(7) 0.0040(6)
H14A H 0.7181 1.0930 0.0250
C27A C 0.7055(10) 1.1295(7) -0.0448(6)
H15A H 0.7678 1.1022 -0.0563
C28A C 0.6422(10) 1.1758(7) -0.0762(4)
H16A H 0.6621 1.1795 -0.1088
C29A C 0.5490(10) 1.2166(6) -0.0589(4)
H17A H 0.5067 1.2476 -0.0800
C30A C 0.5192(10) 1.2111(6) -0.0102(5)
H18A H 0.4569 1.2384 0.0014
O5A O 0.2848(3) 1.26481(19) 0.10934(12)
C31A C 0.1997(5) 1.2977(3) 0.1287(2)
C32A C 0.1678(5) 1.2871(3) 0.1755(2)
H19A H 0.1020 1.3124 0.1852
C33A C 0.2224(4) 1.2431(3) 0.20988(19)
O6A O 0.3126(3) 1.20488(18) 0.20122(11)
N2A N -0.0676(3) 1.2859(2) 0.33377(14)
C34A C 0.0336(4) 1.2611(2) 0.31591(19)
C35A C 0.0710(4) 1.2662(2) 0.26920(18)
H20A H 0.0262 1.2879 0.2447
C36A C 0.1778(4) 1.2380(3) 0.2591(2)
C37A C 0.2409(4) 1.2052(3) 0.2971(2)
H21A H 0.3117 1.1854 0.2905
C38A C 0.2023(4) 1.2010(3) 0.3440(2)
H22A H 0.2462 1.1785 0.3685
C39A C 0.0978(4) 1.2304(2) 0.35407(19)
C40A C 0.0322(4) 1.2382(3) 0.3971(2)
C41A C 0.0507(4) 1.2184(3) 0.4457(2)
H23A H 0.1173 1.1942 0.4554
C42A C -0.0317(4) 1.2354(3) 0.4794(2)
H24A H -0.0199 1.2223 0.5120
C43A C -0.1314(4) 1.2713(2) 0.46561(18)
C44A C -0.1504(4) 1.2901(2) 0.41706(19)
H25A H -0.2172 1.3138 0.4073
C45A C -0.0685(4) 1.2732(2) 0.38346(18)
C46A C -0.2148(4) 1.2891(3) 0.50332(19)
O7A O -0.1923(3) 1.25716(17) 0.54450(13)
C47A C -0.3089(4) 1.3343(2) 0.49496(18)
H26A H -0.3179 1.3555 0.4642
C48A C -0.3924(4) 1.3512(2) 0.5286(2)
O8A O -0.3885(2) 1.32875(17) 0.57253(12)
C49A C 0.1275(6) 1.3429(4) 0.0938(3)
C50A C 0.1664(6) 1.3539(5) 0.0471(3)
H27A H 0.2354 1.3327 0.0382
C51A C 0.1023(8) 1.3966(5) 0.0138(3)
H28A H 0.1283 1.4040 -0.0174
C52A C -0.0008(8) 1.4284(5) 0.0272(3)
H29A H -0.0437 1.4570 0.0049
C53A C -0.0397(5) 1.4173(4) 0.0738(4)
H30A H -0.1087 1.4386 0.0827
C54A C 0.0244(6) 1.3746(4) 0.1071(3)
H31A H -0.0016 1.3672 0.1383
C55A C -0.4905(4) 1.3987(2) 0.51525(17)
C56A C -0.5226(5) 1.4140(3) 0.4683(2)
H32A H -0.4791 1.3938 0.4434
C57A C -0.6166(5) 1.4579(3) 0.4567(2)
H33A H -0.6354 1.4683 0.4245
C58A C -0.6820(5) 1.4862(3) 0.4932(3)
H34A H -0.7471 1.5147 0.4859
C59A C -0.6526(5) 1.4728(3) 0.5405(3)
H35A H -0.6957 1.4934 0.5653
C60A C -0.5585(4) 1.4284(3) 0.5507(2)
H36A H -0.5401 1.4180 0.5830
N3A N 0.3204(4) 1.1334(3) 0.1254(2)
C61A C 0.3187(6) 1.0833(5) 0.1569(3)
H37A H 0.3507 1.0800 0.1867
C62A C 0.2703(9) 1.0365(6) 0.1462(5)
H38A H 0.2665 1.0022 0.1684
C63A C 0.2283(9) 1.0427(8) 0.1015(7)
H39A H 0.1965 1.0113 0.0929
C64A C 0.2313(9) 1.0934(8) 0.0688(5)
H40A H 0.2016 1.0968 0.0385
C65A C 0.2784(7) 1.1387(5) 0.0814(3)
H41A H 0.2816 1.1735 0.0597
N4A N 0.4514(4) 1.2663(3) 0.1597(2)
C66A C 0.4843(6) 1.2651(4) 0.2054(3)
H42A H 0.4737 1.2327 0.2279
C67A C 0.5320(9) 1.3091(7) 0.2200(4)
H43A H 0.5543 1.3064 0.2517
C68A C 0.5466(11) 1.3568(8) 0.1879(7)
H44A H 0.5776 1.3880 0.1976
C69A C 0.5155(12) 1.3593(6) 0.1408(6)
H45A H 0.5264 1.3918 0.1184
C70A C 0.4680(7) 1.3131(6) 0.1269(4)
H46A H 0.4476 1.3143 0.0950
N5A N -0.3380(4) 1.2002(2) 0.58394(16)
C71A C -0.2753(6) 1.1459(3) 0.5663(2)
H47A H -0.2026 1.1405 0.5631
C72A C -0.3203(8) 1.0977(5) 0.5529(4)
H48A H -0.2772 1.0612 0.5393
C73A C -0.4215(10) 1.1026(5) 0.5590(4)
H49A H -0.4510 1.0701 0.5506
C74A C -0.4812(8) 1.1570(5) 0.5781(3)
H50A H -0.5534 1.1615 0.5830
C75A C -0.4402(5) 1.2056(4) 0.5904(2)
H51A H -0.4840 1.2423 0.6034
N6A N -0.2161(4) 1.3363(2) 0.61709(16)
C76A C -0.1147(6) 1.3300(4) 0.6115(2)
H52A H -0.0719 1.2925 0.5993
C77A C -0.0691(7) 1.3780(6) 0.6235(4)
H53A H 0.0030 1.3737 0.6189
C78A C -0.1360(10) 1.4332(4) 0.6428(4)
H54A H -0.1089 1.4658 0.6530
C79A C -0.2400(8) 1.4379(4) 0.6462(3)
H55A H -0.2865 1.4754 0.6568
C80A C -0.2764(5) 1.3898(4) 0.6347(2)
H56A H -0.3484 1.3935 0.6391
C81A C 1.0000(13) 0.9772(9) 0.1671(14)
C82A C 0.9970(16) 0.9639(9) 0.1677(14)
H57A H 0.9569 0.9886 0.1408
H58A H 1.0514 0.9852 0.1741
C83A C 1.0521(10) 0.8964(8) 0.1513(12)
O9A O 1.1528(10) 0.8843(11) 0.1499(10)
N7A N 0.9997(11) 0.8591(7) 0.1354(8)
C84A C 1.0614(19) 0.7952(7) 0.1221(7)
H59A H 1.0240 0.7800 0.0979
H60A H 1.1288 0.7986 0.1078
C85A C 1.081(2) 0.7457(8) 0.1660(7)
H61A H 1.0136 0.7449 0.1819
H62A H 1.1229 0.7593 0.1891
C86A C 1.137(3) 0.6782(7) 0.1522(7)
H63A H 1.2058 0.6786 0.1376
H64A H 1.0967 0.6652 0.1282
C87A C 1.152(3) 0.6297(9) 0.1948(8)
H65A H 1.2002 0.6396 0.2170
H66A H 1.0849 0.6331 0.2119
C88A C 1.196(3) 0.5616(7) 0.1802(8)
H67A H 1.2429 0.5627 0.1521
loop_
_geom_bond_atom_site_label_1
_geom_bond_atom_site_label_2
_geom_bond_site_symmetry_1
_geom_bond_site_symmetry_2
Co1 O3 1_555 1_555
Co2 O7 1_555 1_555
O1 C1 1_555 1_555
C1 C2 1_555 1_555
C2 H1 1_555 1_555
C3 C2 1_555 1_555
O2 C3 1_555 1_555
N1 C4 1_555 1_555
C4 C5 1_555 1_555
C5 H2 1_555 1_555
C6 C3 1_555 1_555
C7 C6 1_555 1_555
H3 C7 1_555 1_555
C8 C7 1_555 1_555
H4 C8 1_555 1_555
C9 C4 1_555 1_555
C10 C9 1_555 1_555
C11 C10 1_555 1_555
H5 C11 1_555 1_555
C12 C11 1_555 1_555
H6 C12 1_555 1_555
C13 C12 1_555 1_555
C14 C13 1_555 1_555
H7 C14 1_555 1_555
C15 N1 1_555 1_555
C16 C13 1_555 1_555
O3 C16 1_555 1_555
C17 C16 1_555 1_555
H8 C17 1_555 1_555
C18 C17 1_555 1_555
O4 Co1 1_555 1_555
C19 C1 1_555 1_555
C20 C19 1_555 1_555
H9 C20 1_555 1_555
C21 C20 1_555 1_555
H10 C21 1_555 1_555
C22 C21 1_555 1_555
H11 C22 1_555 1_555
C23 C22 1_555 1_555
H12 C23 1_555 1_555
C24 C19 1_555 1_555
H13 C24 1_555 1_555
C25 C18 1_555 1_555
C26 C25 1_555 1_555
H14 C26 1_555 1_555
C27 C26 1_555 1_555
H15 C27 1_555 1_555
C28 C27 1_555 1_555
H16 C28 1_555 1_555
C29 C28 1_555 1_555
H17 C29 1_555 1_555
C30 C25 1_555 1_555
H18 C30 1_555 1_555
O5 Co1 1_555 1_555
C31 O5 1_555 1_555
C32 C31 1_555 1_555
H19 C32 1_555 1_555
C33 C32 1_555 1_555
O6 Co1 1_555 1_555
N2 C34 1_555 1_555
C34 C35 1_555 1_555
C35 H20 1_555 1_555
C36 C33 1_555 1_555
C37 C36 1_555 1_555
H21 C37 1_555 1_555
C38 C37 1_555 1_555
H22 C38 1_555 1_555
C39 C34 1_555 1_555
C40 C39 1_555 1_555
C41 C40 1_555 1_555
H23 C41 1_555 1_555
C42 C41 1_555 1_555
H24 C42 1_555 1_555
C43 C42 1_555 1_555
C44 C43 1_555 1_555
H25 C44 1_555 1_555
C45 N2 1_555 1_555
C46 C43 1_555 1_555
O7 C46 1_555 1_555
C47 C46 1_555 1_555
H26 C47 1_555 1_555
C48 C47 1_555 1_555
O8 Co2 1_555 1_555
C49 C31 1_555 1_555
C50 C49 1_555 1_555
H27 C50 1_555 1_555
C51 C50 1_555 1_555
H28 C51 1_555 1_555
C52 C51 1_555 1_555
H29 C52 1_555 1_555
C53 C52 1_555 1_555
H30 C53 1_555 1_555
C54 C49 1_555 1_555
H31 C54 1_555 1_555
C55 C48 1_555 1_555
C56 C55 1_555 1_555
H32 C56 1_555 1_555
C57 C56 1_555 1_555
H33 C57 1_555 1_555
C58 C57 1_555 1_555
H34 C58 1_555 1_555
C59 C58 1_555 1_555
H35 C59 1_555 1_555
C60 C55 1_555 1_555
H36 C60 1_555 1_555
N3 Co1 1_555 1_555
C61 N3 1_555 1_555
H37 C61 1_555 1_555
C62 C61 1_555 1_555
H38 C62 1_555 1_555
C63 C62 1_555 1_555
H39 C63 1_555 1_555
C64 C63 1_555 1_555
H40 C64 1_555 1_555
C65 N3 1_555 1_555
H41 C65 1_555 1_555
N4 Co1 1_555 1_555
C66 N4 1_555 1_555
H42 C66 1_555 1_555
C67 C66 1_555 1_555
H43 C67 1_555 1_555
C68 C67 1_555 1_555
H44 C68 1_555 1_555
C69 C68 1_555 1_555
H45 C69 1_555 1_555
C70 N4 1_555 1_555
H46 C70 1_555 1_555
N5 Co2 1_555 1_555
C71 N5 1_555 1_555
H47 C71 1_555 1_555
C72 C71 1_555 1_555
H48 C72 1_555 1_555
C73 C72 1_555 1_555
H49 C73 1_555 1_555
C74 C73 1_555 1_555
H50 C74 1_555 1_555
C75 N5 1_555 1_555
H51 C75 1_555 1_555
N6 Co2 1_555 1_555
C76 N6 1_555 1_555
H52 C76 1_555 1_555
C77 C76 1_555 1_555
H53 C77 1_555 1_555
C78 C77 1_555 1_555
H54 C78 1_555 1_555
C79 C78 1_555 1_555
H55 C79 1_555 1_555
C80 N6 1_555 1_555
H56 C80 1_555 1_555
C81 N1 1_555 1_555
C82 N1 1_555 1_555
H57 C81 1_555 1_555
H58 C81 1_555 1_555
C83 C81 1_555 1_555
O9 C83 1_555 1_555
N7 C83 1_555 1_555
C84 N7 1_555 1_555
H59 C84 1_555 1_555
H60 C84 1_555 1_555
C85 C84 1_555 1_555
H61 C85 1_555 1_555
H62 C85 1_555 1_555
C86 C85 1_555 1_555
H63 C86 1_555 1_555
H64 C86 1_555 1_555
C87 C86 1_555 1_555
H65 C87 1_555 1_555
H66 C87 1_555 1_555
C88 C87 1_555 1_555
H67 C88 1_555 1_555
P1 F1 1_555 1_555
F2 P1 1_555 1_555
F3 P1 1_555 1_555
F4 P1 1_555 1_555
F5 P1 1_555 1_555
F6 P1 1_555 1_555
P2 F7 1_555 1_555
F8 P2 1_555 1_555
F9 P2 1_555 1_555
F10 P2 1_555 1_555
F11 P2 1_555 1_555
F12 P2 1_555 1_555
P3 F13 1_555 1_555
F14 P3 1_555 1_555
F15 P3 1_555 1_555
Cl1 C89 1_555 1_555
Cl2 C89 1_555 1_555
C89 H68 1_555 1_555
H69 C89 1_555 1_555
Cl3 C90 1_555 1_555
Cl4 C90 1_555 1_555
C90 H70 1_555 1_555
H71 C90 1_555 1_555
Cl5 C91 1_555 1_555
Cl6 C91 1_555 1_555
C91 H72 1_555 1_555
H73 C91 1_555 1_555
Cl7 C92 1_555 1_555
Cl8 C92 1_555 1_555
C92 H74 1_555 1_555
H75 C92 1_555 1_555
Co1A O3A 1_555 1_555
Co2A O1 1_555 1_555
O1A Co2 1_555 1_555
C1A O1A 1_555 1_555
C2A C1A 1_555 1_555
H1A C2A 1_555 1_555
C3A C2A 1_555 1_555
O2A Co2 1_555 1_555
N1A C4A 1_555 1_555
C4A C5A 1_555 1_555
C5A H2A 1_555 1_555
C6A C3A 1_555 1_555
C7A C6A 1_555 1_555
H3A C7A 1_555 1_555
C8A C7A 1_555 1_555
H4A C8A 1_555 1_555
C9A C4A 1_555 1_555
C10A C9A 1_555 1_555
C11A C10A 1_555 1_555
H5A C11A 1_555 1_555
C12A C11A 1_555 1_555
H6A C12A 1_555 1_555
C13A C12A 1_555 1_555
C14A C13A 1_555 1_555
H7A C14A 1_555 1_555
C15A N1A 1_555 1_555
C16A C13A 1_555 1_555
O3A C16A 1_555 1_555
C17A C16A 1_555 1_555
H8A C17A 1_555 1_555
C18A C17A 1_555 1_555
O4A Co1A 1_555 1_555
C19A C1A 1_555 1_555
C20A C19A 1_555 1_555
H9A C20A 1_555 1_555
C21A C20A 1_555 1_555
H10A C21A 1_555 1_555
C22A C21A 1_555 1_555
H11A C22A 1_555 1_555
C23A C22A 1_555 1_555
H12A C23A 1_555 1_555
C24A C19A 1_555 1_555
H13A C24A 1_555 1_555
C25A C18A 1_555 1_555
C26A C25A 1_555 1_555
H14A C26A 1_555 1_555
C27A C26A 1_555 1_555
H15A C27A 1_555 1_555
C28A C27A 1_555 1_555
H16A C28A 1_555 1_555
C29A C28A 1_555 1_555
H17A C29A 1_555 1_555
C30A C25A 1_555 1_555
H18A C30A 1_555 1_555
O5A Co1A 1_555 1_555
C31A O5A 1_555 1_555
C32A C31A 1_555 1_555
H19A C32A 1_555 1_555
C33A C32A 1_555 1_555
O6A Co1A 1_555 1_555
N2A C34A 1_555 1_555
C34A C35A 1_555 1_555
C35A H20A 1_555 1_555
C36A C33A 1_555 1_555
C37A C36A 1_555 1_555
H21A C37A 1_555 1_555
C38A C37A 1_555 1_555
H22A C38A 1_555 1_555
C39A C34A 1_555 1_555
C40A C39A 1_555 1_555
C41A C40A 1_555 1_555
H23A C41A 1_555 1_555
C42A C41A 1_555 1_555
H24A C42A 1_555 1_555
C43A C42A 1_555 1_555
C44A C43A 1_555 1_555
H25A C44A 1_555 1_555
C45A N2A 1_555 1_555
C46A C43A 1_555 1_555
O7A Co2A 1_555 1_555
C47A C46A 1_555 1_555
H26A C47A 1_555 1_555
C48A C47A 1_555 1_555
O8A Co2A 1_555 1_555
C49A C31A 1_555 1_555
C50A C49A 1_555 1_555
H27A C50A 1_555 1_555
C51A C50A 1_555 1_555
H28A C51A 1_555 1_555
C52A C51A 1_555 1_555
H29A C52A 1_555 1_555
C53A C52A 1_555 1_555
H30A C53A 1_555 1_555
C54A C49A 1_555 1_555
H31A C54A 1_555 1_555
C55A C48A 1_555 1_555
C56A C55A 1_555 1_555
H32A C56A 1_555 1_555
C57A C56A 1_555 1_555
H33A C57A 1_555 1_555
C58A C57A 1_555 1_555
H34A C58A 1_555 1_555
C59A C58A 1_555 1_555
H35A C59A 1_555 1_555
C60A C55A 1_555 1_555
H36A C60A 1_555 1_555
N3A Co1A 1_555 1_555
C61A N3A 1_555 1_555
H37A C61A 1_555 1_555
C62A C61A 1_555 1_555
H38A C62A 1_555 1_555
C63A C62A 1_555 1_555
H39A C63A 1_555 1_555
C64A C63A 1_555 1_555
H40A C64A 1_555 1_555
C65A N3A 1_555 1_555
H41A C65A 1_555 1_555
N4A Co1A 1_555 1_555
C66A N4A 1_555 1_555
H42A C66A 1_555 1_555
C67A C66A 1_555 1_555
H43A C67A 1_555 1_555
C68A C67A 1_555 1_555
H44A C68A 1_555 1_555
C69A C68A 1_555 1_555
H45A C69A 1_555 1_555
C70A N4A 1_555 1_555
H46A C70A 1_555 1_555
N5A Co2A 1_555 1_555
C71A N5A 1_555 1_555
H47A C71A 1_555 1_555
C72A C71A 1_555 1_555
H48A C72A 1_555 1_555
C73A C72A 1_555 1_555
H49A C73A 1_555 1_555
C74A C73A 1_555 1_555
H50A C74A 1_555 1_555
C75A N5A 1_555 1_555
H51A C75A 1_555 1_555
N6A Co2A 1_555 1_555
C76A N6A 1_555 1_555
H52A C76A 1_555 1_555
C77A C76A 1_555 1_555
H53A C77A 1_555 1_555
C78A C77A 1_555 1_555
H54A C78A 1_555 1_555
C79A C78A 1_555 1_555
H55A C79A 1_555 1_555
C80A N6A 1_555 1_555
H56A C80A 1_555 1_555
C81A N1A 1_555 1_555
C82A N1A 1_555 1_555
H57A C81A 1_555 1_555
H58A C81A 1_555 1_555
C83A C81A 1_555 1_555
O9A C83A 1_555 1_555
N7A C83A 1_555 1_555
C84A N7A 1_555 1_555
H59A C84A 1_555 1_555
H60A C84A 1_555 1_555
C85A C84A 1_555 1_555
H61A C85A 1_555 1_555
H62A C85A 1_555 1_555
C86A C85A 1_555 1_555
H63A C86A 1_555 1_555
H64A C86A 1_555 1_555
C87A C86A 1_555 1_555
H65A C87A 1_555 1_555
H66A C87A 1_555 1_555
C88A C87A 1_555 1_555
H67A C88A 1_555 1_555
F13A P3 1_555 1_555
F14A P3 1_555 1_555
F15A P3 1_555 1_555
O2 Co2A 1_555 1_555
C5 C6 1_555 1_555
C8 C9 1_555 1_555
C10 C15 1_555 1_555
C14 C15 1_555 1_555
C18 O4 1_555 1_555
C23 C24 1_555 1_555
C29 C30 1_555 1_555
C33 O6 1_555 1_555
C35 C36 1_555 1_555
C38 C39 1_555 1_555
C40 C45 1_555 1_555
C44 C45 1_555 1_555
C48 O8 1_555 1_555
C53 C54 1_555 1_555
C59 C60 1_555 1_555
C64 C65 1_555 1_555
C69 C70 1_555 1_555
C74 C75 1_555 1_555
C79 C80 1_555 1_555
C82 H57 1_555 1_555
C82 H58 1_555 1_555
C82 C83 1_555 1_555
C3A O2A 1_555 1_555
C5A C6A 1_555 1_555
C8A C9A 1_555 1_555
C10A C15A 1_555 1_555
C14A C15A 1_555 1_555
C18A O4A 1_555 1_555
C23A C24A 1_555 1_555
C29A C30A 1_555 1_555
C33A O6A 1_555 1_555
C35A C36A 1_555 1_555
C38A C39A 1_555 1_555
C40A C45A 1_555 1_555
C44A C45A 1_555 1_555
C46A O7A 1_555 1_555
C48A O8A 1_555 1_555
C53A C54A 1_555 1_555
C59A C60A 1_555 1_555
C64A C65A 1_555 1_555
C69A C70A 1_555 1_555
C74A C75A 1_555 1_555
C79A C80A 1_555 1_555
C82A H57A 1_555 1_555
C82A H58A 1_555 1_555
C82A C83A 1_555 1_555

#END
