
#######################################################################
#
#                 Cambridge Crystallographic Data Centre
#                                CCDC 
#
#######################################################################
#
# If this CIF has been generated from an entry in the Cambridge 
# Structural Database, then it will include bibliographic, chemical, 
# crystal, experimental, refinement or atomic coordinate data resulting 
# from the CCDC's data processing and validation procedures.
#
#######################################################################

data_GAJWUM
_chemical_formula_moiety         
'C232 H256 Co4 N16 O20 4+,6(C1 H2 Cl2),4(F6 P1 1-)'
_chemical_name_systematic        
"tetrakis(\m-3,3'-{9-[2-(dioctylamino)-2-oxoethyl]-9H-carbazole-2,7-diyl}bis(3-oxo-1-phenylprop-1-en-1-olato))-octakis(pyridine)-tetra-cobalt tetrakis(hexafluorophosphate) dichloromethane solvate"
_symmetry_cell_setting           triclinic
_symmetry_space_group_name_H-M   'P -1'
_symmetry_Int_Tables_number      2
_space_group_name_Hall           '-P 1'
loop_
_symmetry_equiv_pos_site_id
_symmetry_equiv_pos_as_xyz
1 x,y,z
2 -x,-y,-z
_cell_length_a                   13.109(5)
_cell_length_b                   21.430(7)
_cell_length_c                   27.645(10)
_cell_angle_alpha                85.578(6)
_cell_angle_beta                 87.291(6)
_cell_angle_gamma                74.752(5)
_cell_volume                     7467.55
_exptl_crystal_colour            orange
_exptl_crystal_description       block
_cell_formula_units_Z            1
loop_
_atom_site_label
_atom_site_type_symbol
_atom_site_fract_x
_atom_site_fract_y
_atom_site_fract_z
P1 P 0.7160(3) 0.9294(2) 0.47334(17)
F1 F 0.7495(8) 0.9926(5) 0.4545(5)
F2 F 0.6786(8) 0.8698(5) 0.4978(4)
F3 F 0.6769(8) 0.9233(6) 0.4216(3)
F4 F 0.7466(9) 0.9347(5) 0.5261(4)
F5 F 0.6048(7) 0.9723(5) 0.4873(4)
F6 F 0.8279(7) 0.8879(5) 0.4585(3)
P2 P 0.4364(9) 0.5462(6) 0.6811(4)
F7 F 0.5046(17) 0.5180(9) 0.7247(8)
F8 F 0.3767(13) 0.5886(8) 0.6378(6)
F9 F 0.5272(11) 0.5751(8) 0.6736(7)
F10 F 0.3455(15) 0.5169(12) 0.6895(7)
F11 F 0.3747(18) 0.5950(12) 0.7168(7)
F12 F 0.4906(12) 0.4923(7) 0.6480(5)
P3 P 1.0000 1.0000 1.0000
F13 F 0.8963(9) 1.0163(8) 1.0296(7)
F14 F 0.9424(17) 1.0134(10) 0.9514(6)
F15 F 1.0075(17) 0.9283(6) 1.0020(7)
F13A F 1.1037(9) 0.9837(8) 0.9704(7)
F14A F 1.0576(17) 0.9866(10) 1.0486(6)
F15A F 0.9925(17) 1.0717(6) 0.9980(7)
Cl1 Cl 0.545(4) 0.744(2) 0.562(2)
Cl2 Cl 0.343(4) 0.811(3) 0.557(2)
C89 C 0.425(7) 0.754(10) 0.597(5)
H68 H 0.4032 0.7145 0.6021
H69 H 0.4297 0.7717 0.6280
Cl3 Cl 0.761(3) 0.625(2) 0.3309(12)
Cl4 Cl 0.878(2) 0.6977(19) 0.2852(10)
C90 C 0.754(8) 0.708(2) 0.315(7)
H70 H 0.6961 0.7284 0.2935
H71 H 0.7481 0.7333 0.3433
Cl5 Cl 1.148(2) 0.5224(16) 0.8025(10)
Cl6 Cl 1.328(2) 0.5082(12) 0.8518(11)
C91 C 1.240(6) 0.567(3) 0.815(4)
H72 H 1.2746 0.5795 0.7858
H73 H 1.2063 0.6047 0.8326
Cl7 Cl 0.773(3) 0.628(2) 0.6397(19)
Cl8 Cl 0.977(3) 0.5774(12) 0.6597(12)
C92 C 0.861(5) 0.623(7) 0.688(3)
H74 H 0.8667 0.6652 0.6954
H75 H 0.8403 0.6002 0.7168
Co1 Co 0.61387(6) 0.79879(4) 0.85832(2)
Co2 Co 1.27613(5) 0.73210(4) 0.39906(2)
O1 O -0.3607(3) 1.27926(17) 0.65731(13)
C1 C -0.3342(5) 1.2519(3) 0.6986(2)
C2 C -0.2406(5) 1.2067(3) 0.7072(2)
H1 H -0.2302 1.1889 0.7389
C3 C -0.1603(4) 1.1848(3) 0.6740(2)
O2 O -0.1639(3) 1.20587(16) 0.62944(12)
N1 N 0.0716(3) 1.0320(2) 0.79113(16)
C4 C 0.0425(4) 1.0654(3) 0.74714(19)
C5 C -0.0507(4) 1.1065(3) 0.7342(2)
H2 H -0.1076 1.1141 0.7563
C6 C -0.0614(4) 1.1372(3) 0.68857(19)
C7 C 0.0218(5) 1.1226(3) 0.6546(2)
H3 H 0.0136 1.1419 0.6233
C8 C 0.1156(5) 1.0799(3) 0.6672(2)
H4 H 0.1707 1.0699 0.6443
C9 C 0.1289(4) 1.0509(3) 0.7152(2)
C10 C 0.2125(4) 1.0076(3) 0.73994(18)
C11 C 0.3174(5) 0.9770(3) 0.7273(2)
H5 H 0.3439 0.9829 0.6960
C12 C 0.3794(5) 0.9387(3) 0.7615(2)
H6 H 0.4493 0.9189 0.7531
C13 C 0.3433(4) 0.9276(3) 0.80858(19)
C14 C 0.2397(4) 0.9573(3) 0.82135(19)
H7 H 0.2133 0.9504 0.8526
C15 C 0.1756(4) 0.9974(3) 0.78685(19)
C16 C 0.4152(4) 0.8850(3) 0.84406(19)
O3 O 0.5080(3) 0.86089(17) 0.82644(11)
C17 C 0.3861(5) 0.8744(3) 0.8913(2)
H8 H 0.3172 0.8950 0.9007
C18 C 0.4489(5) 0.8361(3) 0.92659(19)
O4 O 0.5431(3) 0.80347(18) 0.91808(11)
C19 C -0.4231(5) 1.2637(4) 0.7356(2)
C20 C -0.4964(7) 1.3238(4) 0.7314(3)
H9 H -0.4948 1.3517 0.7041
C21 C -0.5721(6) 1.3422(4) 0.7681(3)
H10 H -0.6211 1.3824 0.7654
C22 C -0.5745(6) 1.3005(5) 0.8090(3)
H11 H -0.6251 1.3128 0.8336
C23 C -0.5012(7) 1.2404(4) 0.8132(2)
H12 H -0.5027 1.2125 0.8405
C24 C -0.4255(6) 1.2220(3) 0.7764(3)
H13 H -0.3764 1.1818 0.7792
C25 C 0.4175(13) 0.8352(8) 0.9787(4)
C26 C 0.3243(13) 0.8760(7) 0.9960(6)
H14 H 0.2819 0.9070 0.9750
C27 C 0.2945(10) 0.8705(7) 1.0448(6)
H15 H 0.2322 0.8978 1.0563
C28 C 0.3578(10) 0.8242(7) 1.0762(4)
H16 H 0.3379 0.8205 1.1088
C29 C 0.4510(10) 0.7834(6) 1.0589(4)
H17 H 0.4933 0.7524 1.0800
C30 C 0.4808(10) 0.7889(6) 1.0102(5)
H18 H 0.5431 0.7616 0.9986
O5 O 0.7152(3) 0.73519(19) 0.89066(12)
C31 C 0.8003(5) 0.7023(3) 0.8713(2)
C32 C 0.8322(5) 0.7129(3) 0.8245(2)
H19 H 0.8980 0.6876 0.8148
C33 C 0.7776(4) 0.7569(3) 0.79012(19)
O6 O 0.6874(3) 0.79512(18) 0.79878(11)
N2 N 1.0676(3) 0.7141(2) 0.66623(14)
C34 C 0.9664(4) 0.7389(2) 0.68409(19)
C35 C 0.9290(4) 0.7338(2) 0.73080(18)
H20 H 0.9738 0.7121 0.7553
C36 C 0.8222(4) 0.7620(3) 0.7409(2)
C37 C 0.7591(4) 0.7948(3) 0.7029(2)
H21 H 0.6883 0.8146 0.7095
C38 C 0.7977(4) 0.7990(3) 0.6560(2)
H22 H 0.7538 0.8215 0.6315
C39 C 0.9022(4) 0.7696(2) 0.64593(19)
C40 C 0.9678(4) 0.7618(3) 0.6029(2)
C41 C 0.9493(4) 0.7816(3) 0.5543(2)
H23 H 0.8827 0.8058 0.5446
C42 C 1.0317(4) 0.7646(3) 0.5206(2)
H24 H 1.0199 0.7777 0.4880
C43 C 1.1314(4) 0.7287(2) 0.53439(18)
C44 C 1.1504(4) 0.7099(2) 0.58294(19)
H25 H 1.2172 0.6862 0.5927
C45 C 1.0685(4) 0.7268(2) 0.61654(18)
C46 C 1.2148(4) 0.7109(3) 0.49668(19)
O7 O 1.1923(3) 0.74284(17) 0.45550(13)
C47 C 1.3089(4) 0.6657(2) 0.50504(18)
H26 H 1.3179 0.6445 0.5358
C48 C 1.3924(4) 0.6488(2) 0.4714(2)
O8 O 1.3885(2) 0.67125(17) 0.42747(12)
C49 C 0.8725(6) 0.6571(4) 0.9062(3)
C50 C 0.8336(6) 0.6461(5) 0.9529(3)
H27 H 0.7646 0.6673 0.9618
C51 C 0.8977(8) 0.6034(5) 0.9862(3)
H28 H 0.8717 0.5960 1.0174
C52 C 1.0008(8) 0.5716(5) 0.9728(3)
H29 H 1.0437 0.5430 0.9951
C53 C 1.0397(5) 0.5827(4) 0.9262(4)
H30 H 1.1087 0.5614 0.9173
C54 C 0.9756(6) 0.6254(4) 0.8929(3)
H31 H 1.0016 0.6328 0.8617
C55 C 1.4905(4) 0.6013(2) 0.48475(17)
C56 C 1.5226(5) 0.5860(3) 0.5317(2)
H32 H 1.4791 0.6062 0.5566
C57 C 1.6166(5) 0.5421(3) 0.5433(2)
H33 H 1.6354 0.5317 0.5755
C58 C 1.6820(5) 0.5138(3) 0.5068(3)
H34 H 1.7471 0.4853 0.5141
C59 C 1.6526(5) 0.5272(3) 0.4595(3)
H35 H 1.6957 0.5066 0.4347
C60 C 1.5585(4) 0.5716(3) 0.4493(2)
H36 H 1.5401 0.5820 0.4170
N3 N 0.6796(4) 0.8666(3) 0.8746(2)
C61 C 0.6813(6) 0.9167(5) 0.8431(3)
H37 H 0.6493 0.9200 0.8133
C62 C 0.7297(9) 0.9635(6) 0.8538(5)
H38 H 0.7335 0.9978 0.8316
C63 C 0.7717(9) 0.9573(8) 0.8985(7)
H39 H 0.8035 0.9887 0.9071
C64 C 0.7687(9) 0.9066(8) 0.9312(5)
H40 H 0.7984 0.9032 0.9615
C65 C 0.7216(7) 0.8613(5) 0.9186(3)
H41 H 0.7184 0.8265 0.9403
N4 N 0.5486(4) 0.7337(3) 0.8403(2)
C66 C 0.5157(6) 0.7349(4) 0.7946(3)
H42 H 0.5263 0.7673 0.7721
C67 C 0.4680(9) 0.6909(7) 0.7800(4)
H43 H 0.4457 0.6936 0.7483
C68 C 0.4534(11) 0.6432(8) 0.8121(7)
H44 H 0.4224 0.6120 0.8024
C69 C 0.4845(12) 0.6407(6) 0.8592(6)
H45 H 0.4736 0.6082 0.8816
C70 C 0.5320(7) 0.6869(6) 0.8731(4)
H46 H 0.5524 0.6857 0.9050
N5 N 1.3380(4) 0.7998(2) 0.41606(16)
C71 C 1.2753(6) 0.8541(3) 0.4337(2)
H47 H 1.2026 0.8595 0.4369
C72 C 1.3203(8) 0.9023(5) 0.4471(4)
H48 H 1.2772 0.9388 0.4607
C73 C 1.4215(10) 0.8974(5) 0.4410(4)
H49 H 1.4510 0.9299 0.4494
C74 C 1.4812(8) 0.8430(5) 0.4219(3)
H50 H 1.5534 0.8385 0.4170
C75 C 1.4402(5) 0.7944(4) 0.4096(2)
H51 H 1.4840 0.7577 0.3966
N6 N 1.2161(4) 0.6637(2) 0.38291(16)
C76 C 1.1147(6) 0.6700(4) 0.3885(2)
H52 H 1.0719 0.7075 0.4007
C77 C 1.0691(7) 0.6220(6) 0.3765(4)
H53 H 0.9970 0.6263 0.3811
C78 C 1.1360(10) 0.5668(4) 0.3572(4)
H54 H 1.1089 0.5342 0.3470
C79 C 1.2400(8) 0.5621(4) 0.3538(3)
H55 H 1.2865 0.5246 0.3432
C80 C 1.2764(5) 0.6102(4) 0.3653(2)
H56 H 1.3484 0.6065 0.3609
C81 C 0.0000(13) 1.0228(9) 0.8329(14)
C82 C 0.0030(16) 1.0361(9) 0.8323(14)
H57 H 0.0431 1.0114 0.8592
H58 H -0.0514 1.0148 0.8259
C83 C -0.0521(10) 1.1036(8) 0.8487(12)
O9 O -0.1528(10) 1.1157(11) 0.8501(10)
N7 N 0.0003(11) 1.1409(7) 0.8646(8)
C84 C -0.0614(19) 1.2048(7) 0.8779(7)
H59 H -0.0240 1.2200 0.9021
H60 H -0.1288 1.2014 0.8922
C85 C -0.081(2) 1.2543(8) 0.8340(7)
H61 H -0.0136 1.2551 0.8181
H62 H -0.1229 1.2407 0.8109
C86 C -0.137(3) 1.3218(7) 0.8478(7)
H63 H -0.2058 1.3214 0.8624
H64 H -0.0967 1.3348 0.8718
C87 C -0.152(3) 1.3703(9) 0.8052(8)
H65 H -0.2002 1.3604 0.7830
H66 H -0.0849 1.3669 0.7881
C88 C -0.196(3) 1.4384(7) 0.8198(8)
H67 H -0.2429 1.4373 0.8479
Co1A Co 0.38613(6) 1.20121(4) 0.14168(2)
Co2A Co -0.27613(5) 1.26790(4) 0.60094(2)
O1A O 1.3607(3) 0.72074(17) 0.34269(13)
C1A C 1.3342(5) 0.7481(3) 0.3014(2)
C2A C 1.2406(5) 0.7933(3) 0.2928(2)
H1A H 1.2302 0.8111 0.2611
C3A C 1.1603(4) 0.8152(3) 0.3260(2)
O2A O 1.1639(3) 0.79413(16) 0.37056(12)
N1A N 0.9284(3) 0.9680(2) 0.20887(16)
C4A C 0.9575(4) 0.9346(3) 0.25286(19)
C5A C 1.0507(4) 0.8935(3) 0.2658(2)
H2A H 1.1076 0.8859 0.2437
C6A C 1.0614(4) 0.8628(3) 0.31143(19)
C7A C 0.9782(5) 0.8774(3) 0.3454(2)
H3A H 0.9864 0.8581 0.3767
C8A C 0.8844(5) 0.9201(3) 0.3328(2)
H4A H 0.8293 0.9301 0.3557
C9A C 0.8711(4) 0.9491(3) 0.2848(2)
C10A C 0.7875(4) 0.9924(3) 0.26006(18)
C11A C 0.6826(5) 1.0230(3) 0.2727(2)
H5A H 0.6561 1.0171 0.3040
C12A C 0.6206(5) 1.0613(3) 0.2385(2)
H6A H 0.5507 1.0811 0.2469
C13A C 0.6567(4) 1.0724(3) 0.19142(19)
C14A C 0.7603(4) 1.0427(3) 0.17865(19)
H7A H 0.7867 1.0496 0.1474
C15A C 0.8244(4) 1.0026(3) 0.21315(19)
C16A C 0.5848(4) 1.1150(3) 0.15594(19)
O3A O 0.4920(3) 1.13911(17) 0.17356(11)
C17A C 0.6139(5) 1.1256(3) 0.1087(2)
H8A H 0.6828 1.1050 0.0993
C18A C 0.5511(5) 1.1639(3) 0.07341(19)
O4A O 0.4569(3) 1.19653(18) 0.08192(11)
C19A C 1.4231(5) 0.7363(4) 0.2644(2)
C20A C 1.4964(7) 0.6762(4) 0.2686(3)
H9A H 1.4948 0.6483 0.2959
C21A C 1.5721(6) 0.6578(4) 0.2319(3)
H10A H 1.6211 0.6176 0.2346
C22A C 1.5745(6) 0.6995(5) 0.1910(3)
H11A H 1.6251 0.6872 0.1664
C23A C 1.5012(7) 0.7596(4) 0.1868(2)
H12A H 1.5027 0.7875 0.1595
C24A C 1.4255(6) 0.7780(3) 0.2236(3)
H13A H 1.3764 0.8182 0.2208
C25A C 0.5825(13) 1.1648(8) 0.0213(4)
C26A C 0.6757(13) 1.1240(7) 0.0040(6)
H14A H 0.7181 1.0930 0.0250
C27A C 0.7055(10) 1.1295(7) -0.0448(6)
H15A H 0.7678 1.1022 -0.0563
C28A C 0.6422(10) 1.1758(7) -0.0762(4)
H16A H 0.6621 1.1795 -0.1088
C29A C 0.5490(10) 1.2166(6) -0.0589(4)
H17A H 0.5067 1.2476 -0.0800
C30A C 0.5192(10) 1.2111(6) -0.0102(5)
H18A H 0.4569 1.2384 0.0014
O5A O 0.2848(3) 1.26481(19) 0.10934(12)
C31A C 0.1997(5) 1.2977(3) 0.1287(2)
C32A C 0.1678(5) 1.2871(3) 0.1755(2)
H19A H 0.1020 1.3124 0.1852
C33A C 0.2224(4) 1.2431(3) 0.20988(19)
O6A O 0.3126(3) 1.20488(18) 0.20122(11)
N2A N -0.0676(3) 1.2859(2) 0.33377(14)
C34A C 0.0336(4) 1.2611(2) 0.31591(19)
C35A C 0.0710(4) 1.2662(2) 0.26920(18)
H20A H 0.0262 1.2879 0.2447
C36A C 0.1778(4) 1.2380(3) 0.2591(2)
C37A C 0.2409(4) 1.2052(3) 0.2971(2)
H21A H 0.3117 1.1854 0.2905
C38A C 0.2023(4) 1.2010(3) 0.3440(2)
H22A H 0.2462 1.1785 0.3685
C39A C 0.0978(4) 1.2304(2) 0.35407(19)
C40A C 0.0322(4) 1.2382(3) 0.3971(2)
C41A C 0.0507(4) 1.2184(3) 0.4457(2)
H23A H 0.1173 1.1942 0.4554
C42A C -0.0317(4) 1.2354(3) 0.4794(2)
H24A H -0.0199 1.2223 0.5120
C43A C -0.1314(4) 1.2713(2) 0.46561(18)
C44A C -0.1504(4) 1.2901(2) 0.41706(19)
H25A H -0.2172 1.3138 0.4073
C45A C -0.0685(4) 1.2732(2) 0.38346(18)
C46A C -0.2148(4) 1.2891(3) 0.50332(19)
O7A O -0.1923(3) 1.25716(17) 0.54450(13)
C47A C -0.3089(4) 1.3343(2) 0.49496(18)
H26A H -0.3179 1.3555 0.4642
C48A C -0.3924(4) 1.3512(2) 0.5286(2)
O8A O -0.3885(2) 1.32875(17) 0.57253(12)
C49A C 0.1275(6) 1.3429(4) 0.0938(3)
C50A C 0.1664(6) 1.3539(5) 0.0471(3)
H27A H 0.2354 1.3327 0.0382
C51A C 0.1023(8) 1.3966(5) 0.0138(3)
H28A H 0.1283 1.4040 -0.0174
C52A C -0.0008(8) 1.4284(5) 0.0272(3)
H29A H -0.0437 1.4570 0.0049
C53A C -0.0397(5) 1.4173(4) 0.0738(4)
H30A H -0.1087 1.4386 0.0827
C54A C 0.0244(6) 1.3746(4) 0.1071(3)
H31A H -0.0016 1.3672 0.1383
C55A C -0.4905(4) 1.3987(2) 0.51525(17)
C56A C -0.5226(5) 1.4140(3) 0.4683(2)
H32A H -0.4791 1.3938 0.4434
C57A C -0.6166(5) 1.4579(3) 0.4567(2)
H33A H -0.6354 1.4683 0.4245
C58A C -0.6820(5) 1.4862(3) 0.4932(3)
H34A H -0.7471 1.5147 0.4859
C59A C -0.6526(5) 1.4728(3) 0.5405(3)
H35A H -0.6957 1.4934 0.5653
C60A C -0.5585(4) 1.4284(3) 0.5507(2)
H36A H -0.5401 1.4180 0.5830
N3A N 0.3204(4) 1.1334(3) 0.1254(2)
C61A C 0.3187(6) 1.0833(5) 0.1569(3)
H37A H 0.3507 1.0800 0.1867
C62A C 0.2703(9) 1.0365(6) 0.1462(5)
H38A H 0.2665 1.0022 0.1684
C63A C 0.2283(9) 1.0427(8) 0.1015(7)
H39A H 0.1965 1.0113 0.0929
C64A C 0.2313(9) 1.0934(8) 0.0688(5)
H40A H 0.2016 1.0968 0.0385
C65A C 0.2784(7) 1.1387(5) 0.0814(3)
H41A H 0.2816 1.1735 0.0597
N4A N 0.4514(4) 1.2663(3) 0.1597(2)
C66A C 0.4843(6) 1.2651(4) 0.2054(3)
H42A H 0.4737 1.2327 0.2279
C67A C 0.5320(9) 1.3091(7) 0.2200(4)
H43A H 0.5543 1.3064 0.2517
C68A C 0.5466(11) 1.3568(8) 0.1879(7)
H44A H 0.5776 1.3880 0.1976
C69A C 0.5155(12) 1.3593(6) 0.1408(6)
H45A H 0.5264 1.3918 0.1184
C70A C 0.4680(7) 1.3131(6) 0.1269(4)
H46A H 0.4476 1.3143 0.0950
N5A N -0.3380(4) 1.2002(2) 0.58394(16)
C71A C -0.2753(6) 1.1459(3) 0.5663(2)
H47A H -0.2026 1.1405 0.5631
C72A C -0.3203(8) 1.0977(5) 0.5529(4)
H48A H -0.2772 1.0612 0.5393
C73A C -0.4215(10) 1.1026(5) 0.5590(4)
H49A H -0.4510 1.0701 0.5506
C74A C -0.4812(8) 1.1570(5) 0.5781(3)
H50A H -0.5534 1.1615 0.5830
C75A C -0.4402(5) 1.2056(4) 0.5904(2)
H51A H -0.4840 1.2423 0.6034
N6A N -0.2161(4) 1.3363(2) 0.61709(16)
C76A C -0.1147(6) 1.3300(4) 0.6115(2)
H52A H -0.0719 1.2925 0.5993
C77A C -0.0691(7) 1.3780(6) 0.6235(4)
H53A H 0.0030 1.3737 0.6189
C78A C -0.1360(10) 1.4332(4) 0.6428(4)
H54A H -0.1089 1.4658 0.6530
C79A C -0.2400(8) 1.4379(4) 0.6462(3)
H55A H -0.2865 1.4754 0.6568
C80A C -0.2764(5) 1.3898(4) 0.6347(2)
H56A H -0.3484 1.3935 0.6391
C81A C 1.0000(13) 0.9772(9) 0.1671(14)
C82A C 0.9970(16) 0.9639(9) 0.1677(14)
H57A H 0.9569 0.9886 0.1408
H58A H 1.0514 0.9852 0.1741
C83A C 1.0521(10) 0.8964(8) 0.1513(12)
O9A O 1.1528(10) 0.8843(11) 0.1499(10)
N7A N 0.9997(11) 0.8591(7) 0.1354(8)
C84A C 1.0614(19) 0.7952(7) 0.1221(7)
H59A H 1.0240 0.7800 0.0979
H60A H 1.1288 0.7986 0.1078
C85A C 1.081(2) 0.7457(8) 0.1660(7)
H61A H 1.0136 0.7449 0.1819
H62A H 1.1229 0.7593 0.1891
C86A C 1.137(3) 0.6782(7) 0.1522(7)
H63A H 1.2058 0.6786 0.1376
H64A H 1.0967 0.6652 0.1282
C87A C 1.152(3) 0.6297(9) 0.1948(8)
H65A H 1.2002 0.6396 0.2170
H66A H 1.0849 0.6331 0.2119
C88A C 1.196(3) 0.5616(7) 0.1802(8)
H67A H 1.2429 0.5627 0.1521
C93? C -0.3945(10) 1.2878(6) 0.7417(4)
C94? C -0.4693(12) 1.3467(6) 0.7334(4)
H76? H -0.4729 1.3687 0.7029
C95? C -0.5389(11) 1.3725(6) 0.7706(6)
H77? H -0.5890 1.4119 0.7651
C96? C -0.5336(10) 1.3396(7) 0.8161(5)
H78? H -0.5801 1.3569 0.8411
C97? C -0.4587(12) 1.2807(7) 0.8244(4)
H79? H -0.4551 1.2586 0.8549
C98? C -0.3891(10) 1.2548(6) 0.7872(5)
H80? H -0.3390 1.2154 0.7927
C99? C 0.4314(18) 0.8552(10) 0.9805(5)
C100? C 0.3316(16) 0.8903(10) 0.9958(7)
H81? H 0.2824 0.9121 0.9730
C101? C 0.3055(12) 0.8927(9) 1.0450(8)
H82? H 0.2387 0.9161 1.0552
C102? C 0.3791(14) 0.8600(9) 1.0790(5)
H83? H 0.3616 0.8616 1.1120
C103? C 0.4788(13) 0.8249(8) 1.0637(5)
H84? H 0.5280 0.8031 1.0865
C104? C 0.5050(12) 0.8226(8) 1.0145(6)
H85? H 0.5717 0.7991 1.0043
C105? C 0.3989(11) 0.8145(6) 0.9761(4)
C106? C 0.3079(10) 0.8556(5) 0.9950(5)
H86? H 0.2688 0.8903 0.9757
C107? C 0.2753(9) 0.8449(6) 1.0428(5)
H87? H 0.2144 0.8724 1.0554
C108? C 0.3337(10) 0.7930(6) 1.0717(4)
H88? H 0.3119 0.7858 1.1036
C109? C 0.4247(10) 0.7519(5) 1.0527(4)
H89? H 0.4637 0.7172 1.0721
C110? C 0.4573(8) 0.7626(5) 1.0049(4)
H90? H 0.5181 0.7351 0.9923
C111? C 0.8332(13) 0.6265(6) 0.8914(5)
C112? C 0.7811(10) 0.6052(8) 0.9317(6)
H91? H 0.7128 0.6282 0.9402
C113? C 0.8310(15) 0.5496(9) 0.9594(5)
H92? H 0.7961 0.5354 0.9864
C114? C 0.9330(15) 0.5152(7) 0.9468(6)
H93? H 0.9664 0.4779 0.9653
C115? C 0.9851(11) 0.5364(8) 0.9064(6)
H94? H 1.0534 0.5134 0.8979
C116? C 0.9352(13) 0.5920(8) 0.8787(5)
H95? H 0.9701 0.6062 0.8517
H96? H -0.1378 1.4540 0.8298
C117? C -0.2534(19) 1.4847(8) 0.7832(9)
H97? H -0.3247 1.4796 0.7828
H98? H -0.2202 1.4735 0.7518
C118? C -0.261(2) 1.5546(8) 0.7885(8)
H99? H -0.2098 1.5581 0.8117
H100? H -0.3309 1.5756 0.8011
C119? C -0.241(3) 1.5891(11) 0.7404(10)
H101? H -0.2461 1.6338 0.7451
H102? H -0.1710 1.5690 0.7281
H103? H -0.2920 1.5864 0.7176
C120? C 0.1119(12) 1.1302(12) 0.8546(7)
H104? H 0.1241 1.1676 0.8355
H105? H 0.1358 1.0930 0.8351
C121? C 0.1761(13) 1.1188(18) 0.8987(7)
H106? H 0.1553 1.0859 0.9201
H107? H 0.1592 1.1585 0.9156
C122? C 0.2935(13) 1.0979(14) 0.8901(7)
H108? H 0.3115 1.0570 0.8750
H109? H 0.3145 1.1297 0.8678
C123? C 0.3541(17) 1.0903(11) 0.9353(9)
H110? H 0.3038 1.0988 0.9623
H111? H 0.3922 1.1236 0.9335
C124? C 0.431(2) 1.0266(14) 0.9467(8)
H112? H 0.4119 0.9938 0.9296
H113? H 0.5009 1.0292 0.9343
C125? C 0.4388(19) 1.0059(18) 0.9982(10)
H114? H 0.4074 1.0447 1.0151
H115? H 0.3909 0.9783 1.0040
C126? C 0.5302(18) 0.9741(18) 1.0235(8)
H116? H 0.5711 1.0053 1.0263
H117? H 0.5720 0.9409 1.0035
C127? C 0.5200(19) 0.9426(14) 1.0734(9)
H118? H 0.5891 0.9231 1.0858
H119? H 0.4817 0.9748 1.0946
H120? H 0.4826 0.9099 1.0717
H121? H 0.0402 0.9986 0.8600
H122? H -0.0498 0.9996 0.8238
C128? C -0.0575(10) 1.0912(8) 0.8460(11)
O10? O -0.1579(9) 1.1039(7) 0.8427(8)
N8? N -0.0093(9) 1.1336(6) 0.8569(6)
C129? C -0.0762(13) 1.1973(6) 0.8685(6)
H123? H -0.0343 1.2202 0.8846
H124? H -0.1328 1.1915 0.8909
C130? C -0.1246(18) 1.2387(7) 0.8229(7)
H125? H -0.0681 1.2481 0.8021
H126? H -0.1604 1.2139 0.8051
C131? C -0.2025(16) 1.3021(8) 0.8348(8)
H127? H -0.2719 1.2947 0.8412
H128? H -0.1810 1.3169 0.8640
C132? C -0.2097(17) 1.3534(8) 0.7950(7)
H129? H -0.2252 1.3371 0.7652
H130? H -0.1416 1.3632 0.7904
C133? C -0.2925(19) 1.4145(8) 0.8043(9)
H131? H -0.2971 1.4432 0.7752
H132? H -0.3597 1.4036 0.8089
C134? C -0.281(3) 1.4504(11) 0.8442(9)
H133? H -0.2185 1.4262 0.8613
H134? H -0.3412 1.4516 0.8663
C135? C -0.273(3) 1.5184(12) 0.8344(13)
H135? H -0.3427 1.5480 0.8360
H136? H -0.2434 1.5233 0.8018
C136? C -0.203(5) 1.536(2) 0.871(2)
H137? H -0.1988 1.5795 0.8635
H138? H -0.2322 1.5315 0.9029
H139? H -0.1331 1.5069 0.8688
C137? C 0.1013(9) 1.1154(9) 0.8683(6)
H140? H 0.1269 1.0685 0.8694
H141? H 0.1088 1.1290 0.9003
C138? C 0.1683(10) 1.1441(7) 0.8329(6)
H142? H 0.1491 1.1379 0.8005
H143? H 0.1505 1.1904 0.8364
C139? C 0.2846(10) 1.1186(10) 0.8364(6)
H144? H 0.3005 1.0732 0.8478
H145? H 0.3090 1.1416 0.8605
C140? C 0.3448(13) 1.1247(12) 0.7899(7)
H146? H 0.3441 1.1700 0.7836
H147? H 0.3065 1.1135 0.7642
C141? C 0.4570(15) 1.0856(16) 0.7861(8)
H148? H 0.4998 1.1050 0.8049
H149? H 0.4613 1.0425 0.8009
C142? C 0.5028(16) 1.0793(15) 0.7379(8)
H150? H 0.4647 1.0525 0.7235
H151? H 0.4765 1.1223 0.7223
C143? C 0.6028(17) 1.0590(16) 0.7184(9)
H152? H 0.6506 1.0492 0.7452
H153? H 0.6171 1.0961 0.6996
C144? C 0.635(3) 1.0025(13) 0.6866(11)
H154? H 0.7084 0.9962 0.6766
H155? H 0.6262 0.9640 0.7044
H156? H 0.5924 1.0112 0.6584
C145? C 1.162(4) 0.6886(10) 0.6941(7)
H157? H 1.2228 0.6883 0.6729
H158? H 1.1651 0.6440 0.7050
C146? C 1.170(3) 0.7254(9) 0.7383(6)
O11? O 1.172(2) 0.6924(9) 0.7789(6)
N9? N 1.1819(18) 0.7832(7) 0.7350(5)
C147? C 1.1843(16) 0.8126(9) 0.7814(6)
H159? H 1.1925 0.8562 0.7747
H160? H 1.2449 0.7875 0.7994
C148? C 1.0823(18) 0.8155(14) 0.8127(6)
H161? H 1.0258 0.8505 0.7992
H162? H 1.0622 0.7754 0.8104
C149? C 1.092(3) 0.8254(13) 0.8653(6)
H163? H 1.1651 0.8235 0.8713
H164? H 1.0495 0.8683 0.8722
C150? C 1.058(4) 0.7767(18) 0.8989(7)
H165? H 1.0943 0.7336 0.8896
H166? H 0.9827 0.7822 0.8960
C151? C 1.081(3) 0.7824(18) 0.9506(7)
H167? H 1.1570 0.7730 0.9532
H168? H 1.0518 0.8273 0.9579
C152? C 1.043(3) 0.7430(15) 0.9876(8)
H169? H 1.1007 0.7241 1.0094
H170? H 1.0275 0.7075 0.9722
C153? C 0.948(3) 0.7735(17) 1.0180(16)
H171? H 0.8998 0.8068 0.9984
H172? H 0.9698 0.7938 1.0445
C154? C 0.892(4) 0.723(3) 1.0385(18)
H173? H 0.8312 0.7436 1.0578
H174? H 0.8693 0.7033 1.0123
H175? H 0.9392 0.6903 1.0583
C155? C 1.1740(15) 0.8220(8) 0.6904(6)
H176? H 1.2023 0.7939 0.6645
H177? H 1.2182 0.8516 0.6919
C156? C 1.0671(19) 0.8600(10) 0.6778(7)
H178? H 1.0288 0.8299 0.6686
H179? H 1.0738 0.8877 0.6491
C157? C 1.0000(16) 0.9012(12) 0.7134(7)
H180? H 1.0453 0.9153 0.7346
H181? H 0.9615 0.8753 0.7333
C158? C 0.9230(15) 0.9593(9) 0.6921(11)
H182? H 0.9316 0.9965 0.7078
H183? H 0.9436 0.9649 0.6582
C159? C 0.8091(15) 0.9625(10) 0.6940(11)
H184? H 0.7925 0.9463 0.6644
H185? H 0.7962 0.9332 0.7207
C160? C 0.7366(15) 1.0246(11) 0.6997(12)
H186? H 0.7769 1.0477 0.7167
H187? H 0.7302 1.0448 0.6670
C161? C 0.636(2) 1.0449(19) 0.7195(11)
H188? H 0.6363 1.0792 0.7404
H189? H 0.6237 1.0090 0.7405
C162? C 0.5411(17) 1.069(2) 0.6880(15)
H190? H 0.4783 1.0809 0.7082
H191? H 0.5486 1.1062 0.6678
H192? H 0.5360 1.0355 0.6680
C163? C 1.154(3) 0.6702(13) 0.6947(7)
H193? H 1.2202 0.6629 0.6760
H194? H 1.1384 0.6288 0.7027
C164? C 1.163(3) 0.7031(9) 0.7412(6)
O12? O 1.148(3) 0.6700(11) 0.7800(6)
N10? N 1.1788(19) 0.7594(7) 0.7403(5)
C165? C 1.1780(15) 0.7883(9) 0.7870(6)
H195? H 1.2285 0.8144 0.7851
H196? H 1.2001 0.7540 0.8123
C166? C 1.0672(16) 0.8312(13) 0.8009(6)
H197? H 1.0426 0.8626 0.7740
H198? H 1.0185 0.8040 0.8055
C167? C 1.064(2) 0.8666(10) 0.8459(7)
H199? H 1.1301 0.8792 0.8470
H200? H 1.0073 0.9059 0.8435
C168? C 1.050(2) 0.8295(18) 0.8915(7)
H201? H 0.9903 0.8116 0.8887
H202? H 1.0336 0.8589 0.9174
C169? C 1.145(3) 0.7755(15) 0.9050(9)
H203? H 1.1444 0.7388 0.8867
H204? H 1.2079 0.7893 0.8946
C170? C 1.155(2) 0.7536(14) 0.9553(9)
H205? H 1.0881 0.7451 0.9664
H206? H 1.1630 0.7894 0.9728
C171? C 1.240(2) 0.6959(15) 0.9706(11)
H207? H 1.3065 0.7078 0.9709
H208? H 1.2477 0.6631 0.9474
C172? C 1.216(3) 0.6680(18) 1.0209(11)
H209? H 1.2724 0.6308 1.0299
H210? H 1.2096 0.7002 1.0440
H211? H 1.1509 0.6555 1.0206
C173? C 1.2150(18) 0.7901(8) 0.6971(6)
H212? H 1.1878 0.7762 0.6689
H213? H 1.2916 0.7764 0.6949
C174? C 1.180(2) 0.8622(8) 0.6969(7)
H214? H 1.1716 0.8743 0.7303
H215? H 1.2352 0.8799 0.6815
C175? C 1.0792(19) 0.8928(12) 0.6718(8)
H216? H 1.0499 0.9359 0.6828
H217? H 1.0287 0.8675 0.6804
C176? C 1.095(2) 0.8973(16) 0.6179(8)
H218? H 1.1550 0.9150 0.6104
H219? H 1.1135 0.8536 0.6071
C177? C 1.005(2) 0.9365(18) 0.5885(9)
H220? H 0.9526 0.9119 0.5876
H221? H 0.9721 0.9755 0.6049
C178? C 1.032(3) 0.9548(18) 0.5394(10)
H222? H 1.0382 0.9988 0.5410
H223? H 1.1041 0.9286 0.5346
C179? C 0.987(3) 0.9558(16) 0.4954(9)
H224? H 0.9121 0.9593 0.5020
H225? H 1.0167 0.9139 0.4825
C180? C 0.994(4) 1.0069(19) 0.4555(10)
H226? H 0.9583 1.0005 0.4276
H227? H 0.9619 1.0491 0.4666
H228? H 1.0672 1.0035 0.4470
C181? C 1.144(4) 0.6749(16) 0.7004(7)
H229? H 1.1563 0.7033 0.7240
H230? H 1.2104 0.6594 0.6826
C182? C 1.1184(16) 0.6165(8) 0.7284(5)
O13? O 1.1101(19) 0.6206(10) 0.7746(5)
N11? N 1.0840(17) 0.5741(8) 0.7077(5)
C183? C 1.0370(17) 0.5314(11) 0.7410(7)
H231? H 0.9904 0.5137 0.7231
H232? H 0.9948 0.5567 0.7660
C184? C 1.123(3) 0.4753(12) 0.7650(9)
H233? H 1.1198 0.4350 0.7520
H234? H 1.1917 0.4821 0.7562
C185? C 1.112(3) 0.4683(12) 0.8193(9)
H235? H 1.1534 0.4938 0.8331
H236? H 1.0387 0.4862 0.8288
C186? C 1.147(2) 0.4004(15) 0.8403(10)
H237? H 1.2090 0.3958 0.8595
H238? H 1.1672 0.3716 0.8141
C187? C 1.064(2) 0.3804(17) 0.8714(14)
H239? H 1.0195 0.4191 0.8852
H240? H 1.0196 0.3652 0.8504
C188? C 1.093(2) 0.3325(16) 0.9102(11)
H241? H 1.0596 0.2983 0.9053
H242? H 1.0625 0.3520 0.9398
C189? C 1.207(2) 0.301(2) 0.9191(16)
H243? H 1.2379 0.3312 0.9339
H244? H 1.2440 0.2907 0.8884
C190? C 1.220(3) 0.2395(17) 0.9523(14)
H245? H 1.2934 0.2201 0.9575
H246? H 1.1837 0.2500 0.9828
H247? H 1.1898 0.2096 0.9374
C191? C 1.1174(17) 0.5558(11) 0.6598(6)
H248? H 1.1531 0.5099 0.6616
H249? H 1.1688 0.5790 0.6478
C192? C 1.0329(18) 0.5679(15) 0.6244(6)
H250? H 0.9884 0.6114 0.6274
H251? H 0.9895 0.5381 0.6330
C193? C 1.068(2) 0.5611(16) 0.5726(6)
H252? H 1.1223 0.5839 0.5655
H253? H 1.0993 0.5156 0.5679
C194? C 0.982(2) 0.5862(14) 0.5376(8)
H254? H 0.9661 0.6331 0.5358
H255? H 0.9196 0.5743 0.5511
C195? C 0.999(3) 0.5652(16) 0.4872(7)
H256? H 0.9569 0.5991 0.4658
H257? H 1.0730 0.5610 0.4778
C196? C 0.975(5) 0.5050(14) 0.4794(11)
H258? H 1.0413 0.4725 0.4835
H259? H 0.9308 0.4979 0.5075
C197? C 0.929(3) 0.4852(17) 0.4413(19)
H260? H 0.9200 0.5195 0.4156
H261? H 0.8585 0.4829 0.4523
C198? C 0.981(3) 0.423(2) 0.4187(13)
H262? H 0.9383 0.4168 0.3929
H263? H 1.0496 0.4240 0.4058
H264? H 0.9878 0.3872 0.4428
P4? P 0.4216(11) 0.5364(7) 0.6845(5)
F16? F 0.488(2) 0.4964(10) 0.7258(9)
F17? F 0.3528(16) 0.5659(9) 0.6398(7)
F18? F 0.5145(13) 0.5468(12) 0.6526(6)
F19? F 0.3221(15) 0.5260(12) 0.7111(8)
F20? F 0.3950(17) 0.6073(9) 0.7028(7)
F21? F 0.4407(17) 0.4692(7) 0.6634(7)
F22? F 0.9550(19) 1.0326(10) 1.0451(5)
F23? F 0.9579(14) 1.0582(10) 0.9650(8)
F24? F 1.1075(11) 1.0167(10) 1.0040(8)
Cl9? Cl 0.3755(12) 0.9700(9) 0.5839(5)
Cl10? Cl 0.5456(10) 0.9257(9) 0.6440(5)
C199? C 0.5068(18) 0.9250(15) 0.5856(8)
H265? H 0.5131 0.8809 0.5773
H266? H 0.5501 0.9443 0.5628
Cl11? Cl 0.537(4) 0.7035(18) 0.6207(16)
Cl12? Cl 0.4895(15) 0.8218(17) 0.6480(7)
C200? C 0.422(4) 0.762(3) 0.642(5)
H267? H 0.3676 0.7745 0.6179
H268? H 0.3938 0.7473 0.6724
Cl13? Cl 0.443(3) 0.8833(16) 0.6153(15)
Cl14? Cl 0.406(2) 0.7689(17) 0.5958(11)
C201? C 0.366(14) 0.852(3) 0.577(6)
H269? H 0.2909 0.8699 0.5833
H270? H 0.3830 0.8597 0.5432
Cl15? Cl 0.484(3) 0.7429(14) 0.6343(14)
Cl16? Cl 0.389(4) 0.8556(18) 0.592(2)
C202? C 0.415(15) 0.773(3) 0.580(4)
H271? H 0.4596 0.7629 0.5514
H272? H 0.3514 0.7591 0.5784
Cl17? Cl 0.759(4) 0.751(2) 0.3246(16)
Cl18? Cl 0.7354(14) 0.6592(9) 0.3952(12)
C203? C 0.774(12) 0.666(2) 0.3336(19)
H273? H 0.7290 0.6518 0.3129
H274? H 0.8473 0.6422 0.3281
Cl19? Cl 0.810(3) 0.7789(16) 0.2885(9)
Cl20? Cl 0.723(3) 0.6937(15) 0.3337(12)
C204? C 0.798(4) 0.747(2) 0.3494(12)
H275? H 0.8654 0.7248 0.3632
H276? H 0.7587 0.7799 0.3706
Cl21? Cl 0.762(3) 0.7110(12) 0.4556(13)
Cl22? Cl 0.7546(18) 0.8404(12) 0.4581(9)
C205? C 0.806(11) 0.774(3) 0.422(3)
H277? H 0.8828 0.7635 0.4200
H278? H 0.7780 0.7822 0.3900
Cl23? Cl 0.6711(19) 0.7630(17) 0.5044(10)
Cl24? Cl 0.7898(18) 0.7512(16) 0.4189(14)
C206? C 0.736(10) 0.808(3) 0.462(3)
H279? H 0.6859 0.8454 0.4475
H280? H 0.7906 0.8214 0.4773
Cl25? Cl 1.285(4) 0.566(2) 0.8820(15)
Cl26? Cl 1.215(4) 0.5506(17) 0.7990(11)
C207? C 1.274(9) 0.500(2) 0.849(2)
H281? H 1.3425 0.4717 0.8401
H282? H 1.2289 0.4754 0.8647
Cl27? Cl 1.438(3) 0.4540(16) 0.8899(16)
Cl28? Cl 1.310(3) 0.5331(19) 0.9457(15)
C208? C 1.394(9) 0.454(3) 0.951(2)
H283? H 1.3565 0.4214 0.9603
H284? H 1.4509 0.4503 0.9737
Cl29? Cl 0.900(3) 0.6000(11) 0.5886(12)
Cl30? Cl 0.857(3) 0.5962(11) 0.6813(12)
C209? C 0.969(3) 0.591(7) 0.6434(16)
H285? H 1.0211 0.5493 0.6476
H286? H 1.0025 0.6258 0.6467
loop_
_geom_bond_atom_site_label_1
_geom_bond_atom_site_label_2
_geom_bond_site_symmetry_1
_geom_bond_site_symmetry_2
Co1 O3 1_555 1_555
Co2 O7 1_555 1_555
O1 C1 1_555 1_555
C1 C2 1_555 1_555
C2 H1 1_555 1_555
C3 C2 1_555 1_555
O2 C3 1_555 1_555
N1 C4 1_555 1_555
C4 C5 1_555 1_555
C5 H2 1_555 1_555
C6 C3 1_555 1_555
C7 C6 1_555 1_555
H3 C7 1_555 1_555
C8 C7 1_555 1_555
H4 C8 1_555 1_555
C9 C4 1_555 1_555
C10 C9 1_555 1_555
C11 C10 1_555 1_555
H5 C11 1_555 1_555
C12 C11 1_555 1_555
H6 C12 1_555 1_555
C13 C12 1_555 1_555
C14 C13 1_555 1_555
H7 C14 1_555 1_555
C15 N1 1_555 1_555
C16 C13 1_555 1_555
O3 C16 1_555 1_555
C17 C16 1_555 1_555
H8 C17 1_555 1_555
C18 C17 1_555 1_555
O4 Co1 1_555 1_555
C19 C1 1_555 1_555
C20 C19 1_555 1_555
H9 C20 1_555 1_555
C21 C20 1_555 1_555
H10 C21 1_555 1_555
C22 C21 1_555 1_555
H11 C22 1_555 1_555
C23 C22 1_555 1_555
H12 C23 1_555 1_555
C24 C19 1_555 1_555
H13 C24 1_555 1_555
C25 C18 1_555 1_555
C26 C25 1_555 1_555
H14 C26 1_555 1_555
C27 C26 1_555 1_555
H15 C27 1_555 1_555
C28 C27 1_555 1_555
H16 C28 1_555 1_555
C29 C28 1_555 1_555
H17 C29 1_555 1_555
C30 C25 1_555 1_555
H18 C30 1_555 1_555
O5 Co1 1_555 1_555
C31 O5 1_555 1_555
C32 C31 1_555 1_555
H19 C32 1_555 1_555
C33 C32 1_555 1_555
O6 Co1 1_555 1_555
N2 C34 1_555 1_555
C34 C35 1_555 1_555
C35 H20 1_555 1_555
C36 C33 1_555 1_555
C37 C36 1_555 1_555
H21 C37 1_555 1_555
C38 C37 1_555 1_555
H22 C38 1_555 1_555
C39 C34 1_555 1_555
C40 C39 1_555 1_555
C41 C40 1_555 1_555
H23 C41 1_555 1_555
C42 C41 1_555 1_555
H24 C42 1_555 1_555
C43 C42 1_555 1_555
C44 C43 1_555 1_555
H25 C44 1_555 1_555
C45 N2 1_555 1_555
C46 C43 1_555 1_555
O7 C46 1_555 1_555
C47 C46 1_555 1_555
H26 C47 1_555 1_555
C48 C47 1_555 1_555
O8 Co2 1_555 1_555
C49 C31 1_555 1_555
C50 C49 1_555 1_555
H27 C50 1_555 1_555
C51 C50 1_555 1_555
H28 C51 1_555 1_555
C52 C51 1_555 1_555
H29 C52 1_555 1_555
C53 C52 1_555 1_555
H30 C53 1_555 1_555
C54 C49 1_555 1_555
H31 C54 1_555 1_555
C55 C48 1_555 1_555
C56 C55 1_555 1_555
H32 C56 1_555 1_555
C57 C56 1_555 1_555
H33 C57 1_555 1_555
C58 C57 1_555 1_555
H34 C58 1_555 1_555
C59 C58 1_555 1_555
H35 C59 1_555 1_555
C60 C55 1_555 1_555
H36 C60 1_555 1_555
N3 Co1 1_555 1_555
C61 N3 1_555 1_555
H37 C61 1_555 1_555
C62 C61 1_555 1_555
H38 C62 1_555 1_555
C63 C62 1_555 1_555
H39 C63 1_555 1_555
C64 C63 1_555 1_555
H40 C64 1_555 1_555
C65 N3 1_555 1_555
H41 C65 1_555 1_555
N4 Co1 1_555 1_555
C66 N4 1_555 1_555
H42 C66 1_555 1_555
C67 C66 1_555 1_555
H43 C67 1_555 1_555
C68 C67 1_555 1_555
H44 C68 1_555 1_555
C69 C68 1_555 1_555
H45 C69 1_555 1_555
C70 N4 1_555 1_555
H46 C70 1_555 1_555
N5 Co2 1_555 1_555
C71 N5 1_555 1_555
H47 C71 1_555 1_555
C72 C71 1_555 1_555
H48 C72 1_555 1_555
C73 C72 1_555 1_555
H49 C73 1_555 1_555
C74 C73 1_555 1_555
H50 C74 1_555 1_555
C75 N5 1_555 1_555
H51 C75 1_555 1_555
N6 Co2 1_555 1_555
C76 N6 1_555 1_555
H52 C76 1_555 1_555
C77 C76 1_555 1_555
H53 C77 1_555 1_555
C78 C77 1_555 1_555
H54 C78 1_555 1_555
C79 C78 1_555 1_555
H55 C79 1_555 1_555
C80 N6 1_555 1_555
H56 C80 1_555 1_555
C81 N1 1_555 1_555
C82 N1 1_555 1_555
H57 C81 1_555 1_555
H58 C81 1_555 1_555
C83 C81 1_555 1_555
O9 C83 1_555 1_555
N7 C83 1_555 1_555
C84 N7 1_555 1_555
H59 C84 1_555 1_555
H60 C84 1_555 1_555
C85 C84 1_555 1_555
H61 C85 1_555 1_555
H62 C85 1_555 1_555
C86 C85 1_555 1_555
H63 C86 1_555 1_555
H64 C86 1_555 1_555
C87 C86 1_555 1_555
H65 C87 1_555 1_555
H66 C87 1_555 1_555
C88 C87 1_555 1_555
H67 C88 1_555 1_555
P1 F1 1_555 1_555
F2 P1 1_555 1_555
F3 P1 1_555 1_555
F4 P1 1_555 1_555
F5 P1 1_555 1_555
F6 P1 1_555 1_555
P2 F7 1_555 1_555
F8 P2 1_555 1_555
F9 P2 1_555 1_555
F10 P2 1_555 1_555
F11 P2 1_555 1_555
F12 P2 1_555 1_555
P3 F13 1_555 1_555
F14 P3 1_555 1_555
F15 P3 1_555 1_555
Cl1 C89 1_555 1_555
Cl2 C89 1_555 1_555
C89 H68 1_555 1_555
H69 C89 1_555 1_555
Cl3 C90 1_555 1_555
Cl4 C90 1_555 1_555
C90 H70 1_555 1_555
H71 C90 1_555 1_555
Cl5 C91 1_555 1_555
Cl6 C91 1_555 1_555
C91 H72 1_555 1_555
H73 C91 1_555 1_555
Cl7 C92 1_555 1_555
Cl8 C92 1_555 1_555
C92 H74 1_555 1_555
H75 C92 1_555 1_555
Co1A O3A 1_555 1_555
Co2A O1 1_555 1_555
O1A Co2 1_555 1_555
C1A O1A 1_555 1_555
C2A C1A 1_555 1_555
H1A C2A 1_555 1_555
C3A C2A 1_555 1_555
O2A Co2 1_555 1_555
N1A C4A 1_555 1_555
C4A C5A 1_555 1_555
C5A H2A 1_555 1_555
C6A C3A 1_555 1_555
C7A C6A 1_555 1_555
H3A C7A 1_555 1_555
C8A C7A 1_555 1_555
H4A C8A 1_555 1_555
C9A C4A 1_555 1_555
C10A C9A 1_555 1_555
C11A C10A 1_555 1_555
H5A C11A 1_555 1_555
C12A C11A 1_555 1_555
H6A C12A 1_555 1_555
C13A C12A 1_555 1_555
C14A C13A 1_555 1_555
H7A C14A 1_555 1_555
C15A N1A 1_555 1_555
C16A C13A 1_555 1_555
O3A C16A 1_555 1_555
C17A C16A 1_555 1_555
H8A C17A 1_555 1_555
C18A C17A 1_555 1_555
O4A Co1A 1_555 1_555
C19A C1A 1_555 1_555
C20A C19A 1_555 1_555
H9A C20A 1_555 1_555
C21A C20A 1_555 1_555
H10A C21A 1_555 1_555
C22A C21A 1_555 1_555
H11A C22A 1_555 1_555
C23A C22A 1_555 1_555
H12A C23A 1_555 1_555
C24A C19A 1_555 1_555
H13A C24A 1_555 1_555
C25A C18A 1_555 1_555
C26A C25A 1_555 1_555
H14A C26A 1_555 1_555
C27A C26A 1_555 1_555
H15A C27A 1_555 1_555
C28A C27A 1_555 1_555
H16A C28A 1_555 1_555
C29A C28A 1_555 1_555
H17A C29A 1_555 1_555
C30A C25A 1_555 1_555
H18A C30A 1_555 1_555
O5A Co1A 1_555 1_555
C31A O5A 1_555 1_555
C32A C31A 1_555 1_555
H19A C32A 1_555 1_555
C33A C32A 1_555 1_555
O6A Co1A 1_555 1_555
N2A C34A 1_555 1_555
C34A C35A 1_555 1_555
C35A H20A 1_555 1_555
C36A C33A 1_555 1_555
C37A C36A 1_555 1_555
H21A C37A 1_555 1_555
C38A C37A 1_555 1_555
H22A C38A 1_555 1_555
C39A C34A 1_555 1_555
C40A C39A 1_555 1_555
C41A C40A 1_555 1_555
H23A C41A 1_555 1_555
C42A C41A 1_555 1_555
H24A C42A 1_555 1_555
C43A C42A 1_555 1_555
C44A C43A 1_555 1_555
H25A C44A 1_555 1_555
C45A N2A 1_555 1_555
C46A C43A 1_555 1_555
O7A Co2A 1_555 1_555
C47A C46A 1_555 1_555
H26A C47A 1_555 1_555
C48A C47A 1_555 1_555
O8A Co2A 1_555 1_555
C49A C31A 1_555 1_555
C50A C49A 1_555 1_555
H27A C50A 1_555 1_555
C51A C50A 1_555 1_555
H28A C51A 1_555 1_555
C52A C51A 1_555 1_555
H29A C52A 1_555 1_555
C53A C52A 1_555 1_555
H30A C53A 1_555 1_555
C54A C49A 1_555 1_555
H31A C54A 1_555 1_555
C55A C48A 1_555 1_555
C56A C55A 1_555 1_555
H32A C56A 1_555 1_555
C57A C56A 1_555 1_555
H33A C57A 1_555 1_555
C58A C57A 1_555 1_555
H34A C58A 1_555 1_555
C59A C58A 1_555 1_555
H35A C59A 1_555 1_555
C60A C55A 1_555 1_555
H36A C60A 1_555 1_555
N3A Co1A 1_555 1_555
C61A N3A 1_555 1_555
H37A C61A 1_555 1_555
C62A C61A 1_555 1_555
H38A C62A 1_555 1_555
C63A C62A 1_555 1_555
H39A C63A 1_555 1_555
C64A C63A 1_555 1_555
H40A C64A 1_555 1_555
C65A N3A 1_555 1_555
H41A C65A 1_555 1_555
N4A Co1A 1_555 1_555
C66A N4A 1_555 1_555
H42A C66A 1_555 1_555
C67A C66A 1_555 1_555
H43A C67A 1_555 1_555
C68A C67A 1_555 1_555
H44A C68A 1_555 1_555
C69A C68A 1_555 1_555
H45A C69A 1_555 1_555
C70A N4A 1_555 1_555
H46A C70A 1_555 1_555
N5A Co2A 1_555 1_555
C71A N5A 1_555 1_555
H47A C71A 1_555 1_555
C72A C71A 1_555 1_555
H48A C72A 1_555 1_555
C73A C72A 1_555 1_555
H49A C73A 1_555 1_555
C74A C73A 1_555 1_555
H50A C74A 1_555 1_555
C75A N5A 1_555 1_555
H51A C75A 1_555 1_555
N6A Co2A 1_555 1_555
C76A N6A 1_555 1_555
H52A C76A 1_555 1_555
C77A C76A 1_555 1_555
H53A C77A 1_555 1_555
C78A C77A 1_555 1_555
H54A C78A 1_555 1_555
C79A C78A 1_555 1_555
H55A C79A 1_555 1_555
C80A N6A 1_555 1_555
H56A C80A 1_555 1_555
C81A N1A 1_555 1_555
C82A N1A 1_555 1_555
H57A C81A 1_555 1_555
H58A C81A 1_555 1_555
C83A C81A 1_555 1_555
O9A C83A 1_555 1_555
N7A C83A 1_555 1_555
C84A N7A 1_555 1_555
H59A C84A 1_555 1_555
H60A C84A 1_555 1_555
C85A C84A 1_555 1_555
H61A C85A 1_555 1_555
H62A C85A 1_555 1_555
C86A C85A 1_555 1_555
H63A C86A 1_555 1_555
H64A C86A 1_555 1_555
C87A C86A 1_555 1_555
H65A C87A 1_555 1_555
H66A C87A 1_555 1_555
C88A C87A 1_555 1_555
H67A C88A 1_555 1_555
F13A P3 1_555 1_555
F14A P3 1_555 1_555
F15A P3 1_555 1_555
O2 Co2A 1_555 1_555
C5 C6 1_555 1_555
C8 C9 1_555 1_555
C10 C15 1_555 1_555
C14 C15 1_555 1_555
C18 O4 1_555 1_555
C23 C24 1_555 1_555
C29 C30 1_555 1_555
C33 O6 1_555 1_555
C35 C36 1_555 1_555
C38 C39 1_555 1_555
C40 C45 1_555 1_555
C44 C45 1_555 1_555
C48 O8 1_555 1_555
C53 C54 1_555 1_555
C59 C60 1_555 1_555
C64 C65 1_555 1_555
C69 C70 1_555 1_555
C74 C75 1_555 1_555
C79 C80 1_555 1_555
C82 H57 1_555 1_555
C82 H58 1_555 1_555
C82 C83 1_555 1_555
C3A O2A 1_555 1_555
C5A C6A 1_555 1_555
C8A C9A 1_555 1_555
C10A C15A 1_555 1_555
C14A C15A 1_555 1_555
C18A O4A 1_555 1_555
C23A C24A 1_555 1_555
C29A C30A 1_555 1_555
C33A O6A 1_555 1_555
C35A C36A 1_555 1_555
C38A C39A 1_555 1_555
C40A C45A 1_555 1_555
C44A C45A 1_555 1_555
C46A O7A 1_555 1_555
C48A O8A 1_555 1_555
C53A C54A 1_555 1_555
C59A C60A 1_555 1_555
C64A C65A 1_555 1_555
C69A C70A 1_555 1_555
C74A C75A 1_555 1_555
C79A C80A 1_555 1_555
C82A H57A 1_555 1_555
C82A H58A 1_555 1_555
C82A C83A 1_555 1_555

#END
