# generated using pymatgen
data_Zn10H372C354S3N51(O4F3)3
_symmetry_space_group_name_H-M   'P 1'
_cell_length_a   35.22400000
_cell_length_b   35.22400000
_cell_length_c   43.35400000
_cell_angle_alpha   90.00000000
_cell_angle_beta   90.00000000
_cell_angle_gamma   120.00000000
_symmetry_Int_Tables_number   1
_chemical_formula_structural   Zn10H372C354S3N51(O4F3)3
_chemical_formula_sum   'Zn40 H1488 C1416 S12 N204 O48 F36'
_cell_volume   46584.03998478
_cell_formula_units_Z   4
loop_
 _symmetry_equiv_pos_site_id
 _symmetry_equiv_pos_as_xyz
  1  'x, y, z'
loop_
 _atom_site_type_symbol
 _atom_site_label
 _atom_site_symmetry_multiplicity
 _atom_site_fract_x
 _atom_site_fract_y
 _atom_site_fract_z
 _atom_site_occupancy
  Zn  Zn1  1  0.333333  0.666667  0.882900  1
  Zn  Zn2  1  0.666667  0.333333  0.617100  1
  Zn  Zn3  1  0.666667  0.333333  0.117100  1
  Zn  Zn4  1  0.333333  0.666667  0.382900  1
  Zn  Zn5  1  0.714860  0.737760  0.500270  1.0
  Zn  Zn6  1  0.022900  0.285140  0.500270  1.0
  Zn  Zn7  1  0.262240  0.977100  0.500270  1.0
  Zn  Zn8  1  0.977100  0.262240  0.999730  1.0
  Zn  Zn9  1  0.737760  0.714860  0.999730  1.0
  Zn  Zn10  1  0.285140  0.022900  0.999730  1.0
  Zn  Zn11  1  0.285140  0.262240  0.499730  1.0
  Zn  Zn12  1  0.977100  0.714860  0.499730  1.0
  Zn  Zn13  1  0.737760  0.022900  0.499730  1.0
  Zn  Zn14  1  0.022900  0.737760  0.000270  1.0
  Zn  Zn15  1  0.262240  0.285140  0.000270  1.0
  Zn  Zn16  1  0.714860  0.977100  0.000270  1.0
  Zn  Zn17  1  0.573500  0.700100  0.721890  1.0
  Zn  Zn18  1  0.126600  0.426500  0.721890  1.0
  Zn  Zn19  1  0.299900  0.873400  0.721890  1.0
  Zn  Zn20  1  0.873400  0.299900  0.778110  1.0
  Zn  Zn21  1  0.700100  0.573500  0.778110  1.0
  Zn  Zn22  1  0.426500  0.126600  0.778110  1.0
  Zn  Zn23  1  0.426500  0.299900  0.278110  1.0
  Zn  Zn24  1  0.873400  0.573500  0.278110  1.0
  Zn  Zn25  1  0.700100  0.126600  0.278110  1.0
  Zn  Zn26  1  0.126600  0.700100  0.221890  1.0
  Zn  Zn27  1  0.299900  0.426500  0.221890  1.0
  Zn  Zn28  1  0.573500  0.873400  0.221890  1.0
  Zn  Zn29  1  0.503750  0.879130  0.506030  1.0
  Zn  Zn30  1  0.375380  0.496250  0.506030  1.0
  Zn  Zn31  1  0.120870  0.624620  0.506030  1.0
  Zn  Zn32  1  0.624620  0.120870  0.993970  1.0
  Zn  Zn33  1  0.879130  0.503750  0.993970  1.0
  Zn  Zn34  1  0.496250  0.375380  0.993970  1.0
  Zn  Zn35  1  0.496250  0.120870  0.493970  1.0
  Zn  Zn36  1  0.624620  0.503750  0.493970  1.0
  Zn  Zn37  1  0.879130  0.375380  0.493970  1.0
  Zn  Zn38  1  0.375380  0.879130  0.006030  1.0
  Zn  Zn39  1  0.120870  0.496250  0.006030  1.0
  Zn  Zn40  1  0.503750  0.624620  0.006030  1.0
  H  H41  1  0.565800  0.811600  0.619700  1
  H  H42  1  0.245800  0.434200  0.619700  1
  H  H43  1  0.188400  0.754200  0.619700  1
  H  H44  1  0.754200  0.188400  0.880300  1
  H  H45  1  0.811600  0.565800  0.880300  1
  H  H46  1  0.434200  0.245800  0.880300  1
  H  H47  1  0.434200  0.188400  0.380300  1
  H  H48  1  0.754200  0.565800  0.380300  1
  H  H49  1  0.811600  0.245800  0.380300  1
  H  H50  1  0.245800  0.811600  0.119700  1
  H  H51  1  0.188400  0.434200  0.119700  1
  H  H52  1  0.565800  0.754200  0.119700  1
  H  H53  1  0.554900  0.848900  0.626900  1
  H  H54  1  0.294000  0.445100  0.626900  1
  H  H55  1  0.151100  0.706000  0.626900  1
  H  H56  1  0.706000  0.151100  0.873100  1
  H  H57  1  0.848900  0.554900  0.873100  1
  H  H58  1  0.445100  0.294000  0.873100  1
  H  H59  1  0.445100  0.151100  0.373100  1
  H  H60  1  0.706000  0.554900  0.373100  1
  H  H61  1  0.848900  0.294000  0.373100  1
  H  H62  1  0.294000  0.848900  0.126900  1
  H  H63  1  0.151100  0.445100  0.126900  1
  H  H64  1  0.554900  0.706000  0.126900  1
  H  H65  1  0.517200  0.791000  0.657900  1
  H  H66  1  0.273800  0.482800  0.657900  1
  H  H67  1  0.209000  0.726200  0.657900  1
  H  H68  1  0.726200  0.209000  0.842100  1
  H  H69  1  0.791000  0.517200  0.842100  1
  H  H70  1  0.482800  0.273800  0.842100  1
  H  H71  1  0.482800  0.209000  0.342100  1
  H  H72  1  0.726200  0.517200  0.342100  1
  H  H73  1  0.791000  0.273800  0.342100  1
  H  H74  1  0.273800  0.791000  0.157900  1
  H  H75  1  0.209000  0.482800  0.157900  1
  H  H76  1  0.517200  0.726200  0.157900  1
  H  H77  1  0.493900  0.759400  0.629100  1
  H  H78  1  0.265500  0.506100  0.629100  1
  H  H79  1  0.240600  0.734500  0.629100  1
  H  H80  1  0.734500  0.240600  0.870900  1
  H  H81  1  0.759400  0.493900  0.870900  1
  H  H82  1  0.506100  0.265500  0.870900  1
  H  H83  1  0.506100  0.240600  0.370900  1
  H  H84  1  0.734500  0.493900  0.370900  1
  H  H85  1  0.759400  0.265500  0.370900  1
  H  H86  1  0.265500  0.759400  0.129100  1
  H  H87  1  0.240600  0.506100  0.129100  1
  H  H88  1  0.493900  0.734500  0.129100  1
  H  H89  1  0.483500  0.797600  0.637000  1
  H  H90  1  0.314100  0.516500  0.637000  1
  H  H91  1  0.202400  0.685900  0.637000  1
  H  H92  1  0.685900  0.202400  0.863000  1
  H  H93  1  0.797600  0.483500  0.863000  1
  H  H94  1  0.516500  0.314100  0.863000  1
  H  H95  1  0.516500  0.202400  0.363000  1
  H  H96  1  0.685900  0.483500  0.363000  1
  H  H97  1  0.797600  0.314100  0.363000  1
  H  H98  1  0.314100  0.797600  0.137000  1
  H  H99  1  0.202400  0.516500  0.137000  1
  H  H100  1  0.483500  0.685900  0.137000  1
  H  H101  1  0.466700  0.893700  0.634900  1
  H  H102  1  0.427000  0.533300  0.634900  1
  H  H103  1  0.106300  0.573000  0.634900  1
  H  H104  1  0.573000  0.106300  0.865100  1
  H  H105  1  0.893700  0.466700  0.865100  1
  H  H106  1  0.533300  0.427000  0.865100  1
  H  H107  1  0.533300  0.106300  0.365100  1
  H  H108  1  0.573000  0.466700  0.365100  1
  H  H109  1  0.893700  0.427000  0.365100  1
  H  H110  1  0.427000  0.893700  0.134900  1
  H  H111  1  0.106300  0.533300  0.134900  1
  H  H112  1  0.466700  0.573000  0.134900  1
  H  H113  1  0.453100  0.931200  0.634300  1
  H  H114  1  0.478100  0.546900  0.634300  1
  H  H115  1  0.068800  0.521900  0.634300  1
  H  H116  1  0.521900  0.068800  0.865700  1
  H  H117  1  0.931200  0.453100  0.865700  1
  H  H118  1  0.546900  0.478100  0.865700  1
  H  H119  1  0.546900  0.068800  0.365700  1
  H  H120  1  0.521900  0.453100  0.365700  1
  H  H121  1  0.931200  0.478100  0.365700  1
  H  H122  1  0.478100  0.931200  0.134300  1
  H  H123  1  0.068800  0.546900  0.134300  1
  H  H124  1  0.453100  0.521900  0.134300  1
  H  H125  1  0.524800  0.960300  0.656400  1
  H  H126  1  0.435500  0.475200  0.656400  1
  H  H127  1  0.039700  0.564500  0.656400  1
  H  H128  1  0.564500  0.039700  0.843600  1
  H  H129  1  0.960300  0.524800  0.843600  1
  H  H130  1  0.475200  0.435500  0.843600  1
  H  H131  1  0.475200  0.039700  0.343600  1
  H  H132  1  0.564500  0.524800  0.343600  1
  H  H133  1  0.960300  0.435500  0.343600  1
  H  H134  1  0.435500  0.960300  0.156400  1
  H  H135  1  0.039700  0.475200  0.156400  1
  H  H136  1  0.524800  0.564500  0.156400  1
  H  H137  1  0.527800  0.985400  0.625000  1
  H  H138  1  0.457600  0.472200  0.625000  1
  H  H139  1  0.014600  0.542400  0.625000  1
  H  H140  1  0.542400  0.014600  0.875000  1
  H  H141  1  0.985400  0.527800  0.875000  1
  H  H142  1  0.472200  0.457600  0.875000  1
  H  H143  1  0.472200  0.014600  0.375000  1
  H  H144  1  0.542400  0.527800  0.375000  1
  H  H145  1  0.985400  0.457600  0.375000  1
  H  H146  1  0.457600  0.985400  0.125000  1
  H  H147  1  0.014600  0.472200  0.125000  1
  H  H148  1  0.527800  0.542400  0.125000  1
  H  H149  1  0.541300  0.948200  0.625500  1
  H  H150  1  0.406900  0.458700  0.625500  1
  H  H151  1  0.051800  0.593100  0.625500  1
  H  H152  1  0.593100  0.051800  0.874500  1
  H  H153  1  0.948200  0.541300  0.874500  1
  H  H154  1  0.458700  0.406900  0.874500  1
  H  H155  1  0.458700  0.051800  0.374500  1
  H  H156  1  0.593100  0.541300  0.374500  1
  H  H157  1  0.948200  0.406900  0.374500  1
  H  H158  1  0.406900  0.948200  0.125500  1
  H  H159  1  0.051800  0.458700  0.125500  1
  H  H160  1  0.541300  0.593100  0.125500  1
  H  H161  1  0.474400  0.509800  0.726100  1
  H  H162  1  0.035400  0.525600  0.726100  1
  H  H163  1  0.490200  0.964600  0.726100  1
  H  H164  1  0.964600  0.490200  0.773900  1
  H  H165  1  0.509800  0.474400  0.773900  1
  H  H166  1  0.525600  0.035400  0.773900  1
  H  H167  1  0.525600  0.490200  0.273900  1
  H  H168  1  0.964600  0.474400  0.273900  1
  H  H169  1  0.509800  0.035400  0.273900  1
  H  H170  1  0.035400  0.509800  0.226100  1
  H  H171  1  0.490200  0.525600  0.226100  1
  H  H172  1  0.474400  0.964600  0.226100  1
  H  H173  1  0.426100  0.501500  0.734700  1
  H  H174  1  0.075400  0.573900  0.734700  1
  H  H175  1  0.498500  0.924600  0.734700  1
  H  H176  1  0.924600  0.498500  0.765300  1
  H  H177  1  0.501500  0.426100  0.765300  1
  H  H178  1  0.573900  0.075400  0.765300  1
  H  H179  1  0.573900  0.498500  0.265300  1
  H  H180  1  0.924600  0.426100  0.265300  1
  H  H181  1  0.501500  0.075400  0.265300  1
  H  H182  1  0.075400  0.501500  0.234700  1
  H  H183  1  0.498500  0.573900  0.234700  1
  H  H184  1  0.426100  0.924600  0.234700  1
  H  H185  1  0.451200  0.472300  0.775300  1
  H  H186  1  0.021100  0.548800  0.775300  1
  H  H187  1  0.527700  0.978900  0.775300  1
  H  H188  1  0.978900  0.527700  0.724700  1
  H  H189  1  0.472300  0.451200  0.724700  1
  H  H190  1  0.548800  0.021100  0.724700  1
  H  H191  1  0.548800  0.527700  0.224700  1
  H  H192  1  0.978900  0.451200  0.224700  1
  H  H193  1  0.472300  0.021100  0.224700  1
  H  H194  1  0.021100  0.472300  0.275300  1
  H  H195  1  0.527700  0.548800  0.275300  1
  H  H196  1  0.451200  0.978900  0.275300  1
  H  H197  1  0.446200  0.512100  0.788300  1
  H  H198  1  0.065900  0.553800  0.788300  1
  H  H199  1  0.487900  0.934100  0.788300  1
  H  H200  1  0.934100  0.487900  0.711700  1
  H  H201  1  0.512100  0.446200  0.711700  1
  H  H202  1  0.553800  0.065900  0.711700  1
  H  H203  1  0.553800  0.487900  0.211700  1
  H  H204  1  0.934100  0.446200  0.211700  1
  H  H205  1  0.512100  0.065900  0.211700  1
  H  H206  1  0.065900  0.512100  0.288300  1
  H  H207  1  0.487900  0.553800  0.288300  1
  H  H208  1  0.446200  0.934100  0.288300  1
  H  H209  1  0.493700  0.519800  0.779700  1
  H  H210  1  0.026100  0.506300  0.779700  1
  H  H211  1  0.480200  0.973900  0.779700  1
  H  H212  1  0.973900  0.480200  0.720300  1
  H  H213  1  0.519800  0.493700  0.720300  1
  H  H214  1  0.506300  0.026100  0.720300  1
  H  H215  1  0.506300  0.480200  0.220300  1
  H  H216  1  0.973900  0.493700  0.220300  1
  H  H217  1  0.519800  0.026100  0.220300  1
  H  H218  1  0.026100  0.519800  0.279700  1
  H  H219  1  0.480200  0.506300  0.279700  1
  H  H220  1  0.493700  0.973900  0.279700  1
  H  H221  1  0.751800  0.682000  0.467800  1.0
  H  H222  1  0.930200  0.248200  0.467800  1.0
  H  H223  1  0.318000  0.069800  0.467800  1.0
  H  H224  1  0.069800  0.318000  0.032200  1.0
  H  H225  1  0.682000  0.751800  0.032200  1.0
  H  H226  1  0.248200  0.930200  0.032200  1.0
  H  H227  1  0.248200  0.318000  0.532200  1.0
  H  H228  1  0.069800  0.751800  0.532200  1.0
  H  H229  1  0.682000  0.930200  0.532200  1.0
  H  H230  1  0.930200  0.682000  0.967800  1.0
  H  H231  1  0.318000  0.248200  0.967800  1.0
  H  H232  1  0.751800  0.069800  0.967800  1.0
  H  H233  1  0.729400  0.628800  0.429700  1.0
  H  H234  1  0.899400  0.270600  0.429700  1.0
  H  H235  1  0.371200  0.100600  0.429700  1.0
  H  H236  1  0.100600  0.371200  0.070300  1.0
  H  H237  1  0.628800  0.729400  0.070300  1.0
  H  H238  1  0.270600  0.899400  0.070300  1.0
  H  H239  1  0.270600  0.371200  0.570300  1.0
  H  H240  1  0.100600  0.729400  0.570300  1.0
  H  H241  1  0.628800  0.899400  0.570300  1.0
  H  H242  1  0.899400  0.628800  0.929700  1.0
  H  H243  1  0.371200  0.270600  0.929700  1.0
  H  H244  1  0.729400  0.100600  0.929700  1.0
  H  H245  1  0.670900  0.616900  0.397800  1.0
  H  H246  1  0.946000  0.329100  0.397800  1.0
  H  H247  1  0.383100  0.054000  0.397800  1.0
  H  H248  1  0.054000  0.383100  0.102200  1.0
  H  H249  1  0.616900  0.670900  0.102200  1.0
  H  H250  1  0.329100  0.946000  0.102200  1.0
  H  H251  1  0.329100  0.383100  0.602200  1.0
  H  H252  1  0.054000  0.670900  0.602200  1.0
  H  H253  1  0.616900  0.946000  0.602200  1.0
  H  H254  1  0.946000  0.616900  0.897800  1.0
  H  H255  1  0.383100  0.329100  0.897800  1.0
  H  H256  1  0.670900  0.054000  0.897800  1.0
  H  H257  1  0.629800  0.650600  0.409800  1.0
  H  H258  1  0.020800  0.370200  0.409800  1.0
  H  H259  1  0.349400  0.979200  0.409800  1.0
  H  H260  1  0.979200  0.349400  0.090200  1.0
  H  H261  1  0.650600  0.629800  0.090200  1.0
  H  H262  1  0.370200  0.020800  0.090200  1.0
  H  H263  1  0.370200  0.349400  0.590200  1.0
  H  H264  1  0.979200  0.629800  0.590200  1.0
  H  H265  1  0.650600  0.020800  0.590200  1.0
  H  H266  1  0.020800  0.650600  0.909800  1.0
  H  H267  1  0.349400  0.370200  0.909800  1.0
  H  H268  1  0.629800  0.979200  0.909800  1.0
  H  H269  1  0.625900  0.712000  0.440900  1.0
  H  H270  1  0.086100  0.374100  0.440900  1.0
  H  H271  1  0.288000  0.913900  0.440900  1.0
  H  H272  1  0.913900  0.288000  0.059100  1.0
  H  H273  1  0.712000  0.625900  0.059100  1.0
  H  H274  1  0.374100  0.086100  0.059100  1.0
  H  H275  1  0.374100  0.288000  0.559100  1.0
  H  H276  1  0.913900  0.625900  0.559100  1.0
  H  H277  1  0.712000  0.086100  0.559100  1.0
  H  H278  1  0.086100  0.712000  0.940900  1.0
  H  H279  1  0.288000  0.374100  0.940900  1.0
  H  H280  1  0.625900  0.913900  0.940900  1.0
  H  H281  1  0.576900  0.710900  0.475400  1.0
  H  H282  1  0.134000  0.423100  0.475400  1.0
  H  H283  1  0.289100  0.866000  0.475400  1.0
  H  H284  1  0.866000  0.289100  0.024600  1.0
  H  H285  1  0.710900  0.576900  0.024600  1.0
  H  H286  1  0.423100  0.134000  0.024600  1.0
  H  H287  1  0.423100  0.289100  0.524600  1.0
  H  H288  1  0.866000  0.576900  0.524600  1.0
  H  H289  1  0.710900  0.134000  0.524600  1.0
  H  H290  1  0.134000  0.710900  0.975400  1.0
  H  H291  1  0.289100  0.423100  0.975400  1.0
  H  H292  1  0.576900  0.866000  0.975400  1.0
  H  H293  1  0.540700  0.750000  0.485700  1.0
  H  H294  1  0.209300  0.459300  0.485700  1.0
  H  H295  1  0.250000  0.790700  0.485700  1.0
  H  H296  1  0.790700  0.250000  0.014300  1.0
  H  H297  1  0.750000  0.540700  0.014300  1.0
  H  H298  1  0.459300  0.209300  0.014300  1.0
  H  H299  1  0.459300  0.250000  0.514300  1.0
  H  H300  1  0.790700  0.540700  0.514300  1.0
  H  H301  1  0.750000  0.209300  0.514300  1.0
  H  H302  1  0.209300  0.750000  0.985700  1.0
  H  H303  1  0.250000  0.459300  0.985700  1.0
  H  H304  1  0.540700  0.790700  0.985700  1.0
  H  H305  1  0.657000  0.858100  0.505700  1.0
  H  H306  1  0.201100  0.343000  0.505700  1.0
  H  H307  1  0.141900  0.798900  0.505700  1.0
  H  H308  1  0.798900  0.141900  0.994300  1.0
  H  H309  1  0.858100  0.657000  0.994300  1.0
  H  H310  1  0.343000  0.201100  0.994300  1.0
  H  H311  1  0.343000  0.141900  0.494300  1.0
  H  H312  1  0.798900  0.657000  0.494300  1.0
  H  H313  1  0.858100  0.201100  0.494300  1.0
  H  H314  1  0.201100  0.858100  0.005700  1.0
  H  H315  1  0.141900  0.343000  0.005700  1.0
  H  H316  1  0.657000  0.798900  0.005700  1.0
  H  H317  1  0.693300  0.819100  0.495300  1.0
  H  H318  1  0.125800  0.306700  0.495300  1.0
  H  H319  1  0.180900  0.874200  0.495300  1.0
  H  H320  1  0.874200  0.180900  0.004700  1.0
  H  H321  1  0.819100  0.693300  0.004700  1.0
  H  H322  1  0.306700  0.125800  0.004700  1.0
  H  H323  1  0.306700  0.180900  0.504700  1.0
  H  H324  1  0.874200  0.693300  0.504700  1.0
  H  H325  1  0.819100  0.125800  0.504700  1.0
  H  H326  1  0.125800  0.819100  0.995300  1.0
  H  H327  1  0.180900  0.306700  0.995300  1.0
  H  H328  1  0.693300  0.874200  0.995300  1.0
  H  H329  1  0.511300  0.878800  0.605100  1.0
  H  H330  1  0.367500  0.488700  0.605100  1.0
  H  H331  1  0.121200  0.632500  0.605100  1.0
  H  H332  1  0.632500  0.121200  0.894900  1.0
  H  H333  1  0.878800  0.511300  0.894900  1.0
  H  H334  1  0.488700  0.367500  0.894900  1.0
  H  H335  1  0.488700  0.121200  0.394900  1.0
  H  H336  1  0.632500  0.511300  0.394900  1.0
  H  H337  1  0.878800  0.367500  0.394900  1.0
  H  H338  1  0.367500  0.878800  0.105100  1.0
  H  H339  1  0.121200  0.488700  0.105100  1.0
  H  H340  1  0.511300  0.632500  0.105100  1.0
  H  H341  1  0.519400  0.906000  0.408200  1.0
  H  H342  1  0.386600  0.480600  0.408200  1.0
  H  H343  1  0.094000  0.613400  0.408200  1.0
  H  H344  1  0.613400  0.094000  0.091800  1.0
  H  H345  1  0.906000  0.519400  0.091800  1.0
  H  H346  1  0.480600  0.386600  0.091800  1.0
  H  H347  1  0.480600  0.094000  0.591800  1.0
  H  H348  1  0.613400  0.519400  0.591800  1.0
  H  H349  1  0.906000  0.386600  0.591800  1.0
  H  H350  1  0.386600  0.906000  0.908200  1.0
  H  H351  1  0.094000  0.480600  0.908200  1.0
  H  H352  1  0.519400  0.613400  0.908200  1.0
  H  H353  1  0.458700  0.017600  0.509900  1.0
  H  H354  1  0.558900  0.541300  0.509900  1.0
  H  H355  1  0.982400  0.441100  0.509900  1.0
  H  H356  1  0.441100  0.982400  0.990100  1.0
  H  H357  1  0.017600  0.458700  0.990100  1.0
  H  H358  1  0.541300  0.558900  0.990100  1.0
  H  H359  1  0.541300  0.982400  0.490100  1.0
  H  H360  1  0.441100  0.458700  0.490100  1.0
  H  H361  1  0.017600  0.558900  0.490100  1.0
  H  H362  1  0.558900  0.017600  0.009900  1.0
  H  H363  1  0.982400  0.541300  0.009900  1.0
  H  H364  1  0.458700  0.441100  0.009900  1.0
  H  H365  1  0.408800  0.042400  0.516500  1.0
  H  H366  1  0.633600  0.591200  0.516500  1.0
  H  H367  1  0.957600  0.366400  0.516500  1.0
  H  H368  1  0.366400  0.957600  0.983500  1.0
  H  H369  1  0.042400  0.408800  0.983500  1.0
  H  H370  1  0.591200  0.633600  0.983500  1.0
  H  H371  1  0.591200  0.957600  0.483500  1.0
  H  H372  1  0.366400  0.408800  0.483500  1.0
  H  H373  1  0.042400  0.633600  0.483500  1.0
  H  H374  1  0.633600  0.042400  0.016500  1.0
  H  H375  1  0.957600  0.591200  0.016500  1.0
  H  H376  1  0.408800  0.366400  0.016500  1.0
  H  H377  1  0.310500  0.917000  0.527900  1.0
  H  H378  1  0.606500  0.689500  0.527900  1.0
  H  H379  1  0.083000  0.393500  0.527900  1.0
  H  H380  1  0.393500  0.083000  0.972100  1.0
  H  H381  1  0.917000  0.310500  0.972100  1.0
  H  H382  1  0.689500  0.606500  0.972100  1.0
  H  H383  1  0.689500  0.083000  0.472100  1.0
  H  H384  1  0.393500  0.310500  0.472100  1.0
  H  H385  1  0.917000  0.606500  0.472100  1.0
  H  H386  1  0.606500  0.917000  0.027900  1.0
  H  H387  1  0.083000  0.689500  0.027900  1.0
  H  H388  1  0.310500  0.393500  0.027900  1.0
  H  H389  1  0.360500  0.892300  0.521300  1.0
  H  H390  1  0.531800  0.639500  0.521300  1.0
  H  H391  1  0.107700  0.468200  0.521300  1.0
  H  H392  1  0.468200  0.107700  0.978700  1.0
  H  H393  1  0.892300  0.360500  0.978700  1.0
  H  H394  1  0.639500  0.531800  0.978700  1.0
  H  H395  1  0.639500  0.107700  0.478700  1.0
  H  H396  1  0.468200  0.360500  0.478700  1.0
  H  H397  1  0.892300  0.531800  0.478700  1.0
  H  H398  1  0.531800  0.892300  0.021300  1.0
  H  H399  1  0.107700  0.639500  0.021300  1.0
  H  H400  1  0.360500  0.468200  0.021300  1.0
  H  H401  1  0.358700  0.041300  0.556100  1.0
  H  H402  1  0.682600  0.641300  0.556100  1.0
  H  H403  1  0.958700  0.317400  0.556100  1.0
  H  H404  1  0.317400  0.958700  0.943900  1.0
  H  H405  1  0.041300  0.358700  0.943900  1.0
  H  H406  1  0.641300  0.682600  0.943900  1.0
  H  H407  1  0.641300  0.958700  0.443900  1.0
  H  H408  1  0.317400  0.358700  0.443900  1.0
  H  H409  1  0.041300  0.682600  0.443900  1.0
  H  H410  1  0.682600  0.041300  0.056100  1.0
  H  H411  1  0.958700  0.641300  0.056100  1.0
  H  H412  1  0.358700  0.317400  0.056100  1.0
  H  H413  1  0.331200  0.079700  0.587000  1.0
  H  H414  1  0.748500  0.668800  0.587000  1.0
  H  H415  1  0.920300  0.251500  0.587000  1.0
  H  H416  1  0.251500  0.920300  0.913000  1.0
  H  H417  1  0.079700  0.331200  0.913000  1.0
  H  H418  1  0.668800  0.748500  0.913000  1.0
  H  H419  1  0.668800  0.920300  0.413000  1.0
  H  H420  1  0.251500  0.331200  0.413000  1.0
  H  H421  1  0.079700  0.748500  0.413000  1.0
  H  H422  1  0.748500  0.079700  0.087000  1.0
  H  H423  1  0.920300  0.668800  0.087000  1.0
  H  H424  1  0.331200  0.251500  0.087000  1.0
  H  H425  1  0.284500  0.109000  0.591100  1.0
  H  H426  1  0.824500  0.715500  0.591100  1.0
  H  H427  1  0.891000  0.175500  0.591100  1.0
  H  H428  1  0.175500  0.891000  0.908900  1.0
  H  H429  1  0.109000  0.284500  0.908900  1.0
  H  H430  1  0.715500  0.824500  0.908900  1.0
  H  H431  1  0.715500  0.891000  0.408900  1.0
  H  H432  1  0.175500  0.284500  0.408900  1.0
  H  H433  1  0.109000  0.824500  0.408900  1.0
  H  H434  1  0.824500  0.109000  0.091100  1.0
  H  H435  1  0.891000  0.715500  0.091100  1.0
  H  H436  1  0.284500  0.175500  0.091100  1.0
  H  H437  1  0.234200  0.096200  0.551600  1.0
  H  H438  1  0.862000  0.765800  0.551600  1.0
  H  H439  1  0.903800  0.138000  0.551600  1.0
  H  H440  1  0.138000  0.903800  0.948400  1.0
  H  H441  1  0.096200  0.234200  0.948400  1.0
  H  H442  1  0.765800  0.862000  0.948400  1.0
  H  H443  1  0.765800  0.903800  0.448400  1.0
  H  H444  1  0.138000  0.234200  0.448400  1.0
  H  H445  1  0.096200  0.862000  0.448400  1.0
  H  H446  1  0.862000  0.096200  0.051600  1.0
  H  H447  1  0.903800  0.765800  0.051600  1.0
  H  H448  1  0.234200  0.138000  0.051600  1.0
  H  H449  1  0.229800  0.052600  0.509800  1.0
  H  H450  1  0.822800  0.770200  0.509800  1.0
  H  H451  1  0.947400  0.177200  0.509800  1.0
  H  H452  1  0.177200  0.947400  0.990200  1.0
  H  H453  1  0.052600  0.229800  0.990200  1.0
  H  H454  1  0.770200  0.822800  0.990200  1.0
  H  H455  1  0.770200  0.947400  0.490200  1.0
  H  H456  1  0.177200  0.229800  0.490200  1.0
  H  H457  1  0.052600  0.822800  0.490200  1.0
  H  H458  1  0.822800  0.052600  0.009800  1.0
  H  H459  1  0.947400  0.770200  0.009800  1.0
  H  H460  1  0.229800  0.177200  0.009800  1.0
  H  H461  1  0.583200  0.783300  0.586100  1.0
  H  H462  1  0.200100  0.416800  0.586100  1.0
  H  H463  1  0.216700  0.799900  0.586100  1.0
  H  H464  1  0.799900  0.216700  0.913900  1.0
  H  H465  1  0.783300  0.583200  0.913900  1.0
  H  H466  1  0.416800  0.200100  0.913900  1.0
  H  H467  1  0.416800  0.216700  0.413900  1.0
  H  H468  1  0.799900  0.583200  0.413900  1.0
  H  H469  1  0.783300  0.200100  0.413900  1.0
  H  H470  1  0.200100  0.783300  0.086100  1.0
  H  H471  1  0.216700  0.416800  0.086100  1.0
  H  H472  1  0.583200  0.799900  0.086100  1.0
  H  H473  1  0.617200  0.808200  0.558700  1.0
  H  H474  1  0.191000  0.382800  0.558700  1.0
  H  H475  1  0.191800  0.809000  0.558700  1.0
  H  H476  1  0.809000  0.191800  0.941300  1.0
  H  H477  1  0.808200  0.617200  0.941300  1.0
  H  H478  1  0.382800  0.191000  0.941300  1.0
  H  H479  1  0.382800  0.191800  0.441300  1.0
  H  H480  1  0.809000  0.617200  0.441300  1.0
  H  H481  1  0.808200  0.191000  0.441300  1.0
  H  H482  1  0.191000  0.808200  0.058700  1.0
  H  H483  1  0.191800  0.382800  0.058700  1.0
  H  H484  1  0.617200  0.809000  0.058700  1.0
  H  H485  1  0.571100  0.765400  0.551500  1.0
  H  H486  1  0.194300  0.428900  0.551500  1.0
  H  H487  1  0.234600  0.805700  0.551500  1.0
  H  H488  1  0.805700  0.234600  0.948500  1.0
  H  H489  1  0.765400  0.571100  0.948500  1.0
  H  H490  1  0.428900  0.194300  0.948500  1.0
  H  H491  1  0.428900  0.234600  0.448500  1.0
  H  H492  1  0.805700  0.571100  0.448500  1.0
  H  H493  1  0.765400  0.194300  0.448500  1.0
  H  H494  1  0.194300  0.765400  0.051500  1.0
  H  H495  1  0.234600  0.428900  0.051500  1.0
  H  H496  1  0.571100  0.805700  0.051500  1.0
  H  H497  1  0.517600  0.820800  0.625100  1.0
  H  H498  1  0.303200  0.482400  0.625100  1.0
  H  H499  1  0.179200  0.696800  0.625100  1.0
  H  H500  1  0.696800  0.179200  0.874900  1.0
  H  H501  1  0.820800  0.517600  0.874900  1.0
  H  H502  1  0.482400  0.303200  0.874900  1.0
  H  H503  1  0.482400  0.179200  0.374900  1.0
  H  H504  1  0.696800  0.517600  0.374900  1.0
  H  H505  1  0.820800  0.303200  0.374900  1.0
  H  H506  1  0.303200  0.820800  0.125100  1.0
  H  H507  1  0.179200  0.482400  0.125100  1.0
  H  H508  1  0.517600  0.696800  0.125100  1.0
  H  H509  1  0.538300  0.790100  0.618900  1.0
  H  H510  1  0.251800  0.461700  0.618900  1.0
  H  H511  1  0.209900  0.748200  0.618900  1.0
  H  H512  1  0.748200  0.209900  0.881100  1.0
  H  H513  1  0.790100  0.538300  0.881100  1.0
  H  H514  1  0.461700  0.251800  0.881100  1.0
  H  H515  1  0.461700  0.209900  0.381100  1.0
  H  H516  1  0.748200  0.538300  0.381100  1.0
  H  H517  1  0.790100  0.251800  0.381100  1.0
  H  H518  1  0.251800  0.790100  0.118900  1.0
  H  H519  1  0.209900  0.461700  0.118900  1.0
  H  H520  1  0.538300  0.748200  0.118900  1.0
  H  H521  1  0.578300  0.841700  0.655300  1.0
  H  H522  1  0.263400  0.421700  0.655300  1.0
  H  H523  1  0.158300  0.736600  0.655300  1.0
  H  H524  1  0.736600  0.158300  0.844700  1.0
  H  H525  1  0.841700  0.578300  0.844700  1.0
  H  H526  1  0.421700  0.263400  0.844700  1.0
  H  H527  1  0.421700  0.158300  0.344700  1.0
  H  H528  1  0.736600  0.578300  0.344700  1.0
  H  H529  1  0.841700  0.263400  0.344700  1.0
  H  H530  1  0.263400  0.841700  0.155300  1.0
  H  H531  1  0.158300  0.421700  0.155300  1.0
  H  H532  1  0.578300  0.736600  0.155300  1.0
  H  H533  1  0.586700  0.880100  0.631600  1.0
  H  H534  1  0.293400  0.413300  0.631600  1.0
  H  H535  1  0.119900  0.706600  0.631600  1.0
  H  H536  1  0.706600  0.119900  0.868400  1.0
  H  H537  1  0.880100  0.586700  0.868400  1.0
  H  H538  1  0.413300  0.293400  0.868400  1.0
  H  H539  1  0.413300  0.119900  0.368400  1.0
  H  H540  1  0.706600  0.586700  0.368400  1.0
  H  H541  1  0.880100  0.293400  0.368400  1.0
  H  H542  1  0.293400  0.880100  0.131600  1.0
  H  H543  1  0.119900  0.413300  0.131600  1.0
  H  H544  1  0.586700  0.706600  0.131600  1.0
  H  H545  1  0.607500  0.849600  0.625100  1.0
  H  H546  1  0.242100  0.392500  0.625100  1.0
  H  H547  1  0.150400  0.757900  0.625100  1.0
  H  H548  1  0.757900  0.150400  0.874900  1.0
  H  H549  1  0.849600  0.607500  0.874900  1.0
  H  H550  1  0.392500  0.242100  0.874900  1.0
  H  H551  1  0.392500  0.150400  0.374900  1.0
  H  H552  1  0.757900  0.607500  0.374900  1.0
  H  H553  1  0.849600  0.242100  0.374900  1.0
  H  H554  1  0.242100  0.849600  0.125100  1.0
  H  H555  1  0.150400  0.392500  0.125100  1.0
  H  H556  1  0.607500  0.757900  0.125100  1.0
  H  H557  1  0.495600  0.914700  0.634200  1.0
  H  H558  1  0.419100  0.504400  0.634200  1.0
  H  H559  1  0.085300  0.580900  0.634200  1.0
  H  H560  1  0.580900  0.085300  0.865800  1.0
  H  H561  1  0.914700  0.495600  0.865800  1.0
  H  H562  1  0.504400  0.419100  0.865800  1.0
  H  H563  1  0.504400  0.085300  0.365800  1.0
  H  H564  1  0.580900  0.495600  0.365800  1.0
  H  H565  1  0.914700  0.419100  0.365800  1.0
  H  H566  1  0.419100  0.914700  0.134200  1.0
  H  H567  1  0.085300  0.504400  0.134200  1.0
  H  H568  1  0.495600  0.580900  0.134200  1.0
  H  H569  1  0.483300  0.952700  0.633500  1.0
  H  H570  1  0.469400  0.516700  0.633500  1.0
  H  H571  1  0.047300  0.530600  0.633500  1.0
  H  H572  1  0.530600  0.047300  0.866500  1.0
  H  H573  1  0.952700  0.483300  0.866500  1.0
  H  H574  1  0.516700  0.469400  0.866500  1.0
  H  H575  1  0.516700  0.047300  0.366500  1.0
  H  H576  1  0.530600  0.483300  0.366500  1.0
  H  H577  1  0.952700  0.469400  0.366500  1.0
  H  H578  1  0.469400  0.952700  0.133500  1.0
  H  H579  1  0.047300  0.516700  0.133500  1.0
  H  H580  1  0.483300  0.530600  0.133500  1.0
  H  H581  1  0.430300  0.892200  0.661900  1.0
  H  H582  1  0.461900  0.569700  0.661900  1.0
  H  H583  1  0.107800  0.538100  0.661900  1.0
  H  H584  1  0.538100  0.107800  0.838100  1.0
  H  H585  1  0.892200  0.430300  0.838100  1.0
  H  H586  1  0.569700  0.461900  0.838100  1.0
  H  H587  1  0.569700  0.107800  0.338100  1.0
  H  H588  1  0.538100  0.430300  0.338100  1.0
  H  H589  1  0.892200  0.461900  0.338100  1.0
  H  H590  1  0.461900  0.892200  0.161900  1.0
  H  H591  1  0.107800  0.569700  0.161900  1.0
  H  H592  1  0.430300  0.538100  0.161900  1.0
  H  H593  1  0.420000  0.861200  0.632400  1.0
  H  H594  1  0.441200  0.580000  0.632400  1.0
  H  H595  1  0.138800  0.558800  0.632400  1.0
  H  H596  1  0.558800  0.138800  0.867600  1.0
  H  H597  1  0.861200  0.420000  0.867600  1.0
  H  H598  1  0.580000  0.441200  0.867600  1.0
  H  H599  1  0.580000  0.138800  0.367600  1.0
  H  H600  1  0.558800  0.420000  0.367600  1.0
  H  H601  1  0.861200  0.441200  0.367600  1.0
  H  H602  1  0.441200  0.861200  0.132400  1.0
  H  H603  1  0.138800  0.580000  0.132400  1.0
  H  H604  1  0.420000  0.558800  0.132400  1.0
  H  H605  1  0.407900  0.899300  0.632000  1.0
  H  H606  1  0.491400  0.592100  0.632000  1.0
  H  H607  1  0.100700  0.508600  0.632000  1.0
  H  H608  1  0.508600  0.100700  0.868000  1.0
  H  H609  1  0.899300  0.407900  0.868000  1.0
  H  H610  1  0.592100  0.491400  0.868000  1.0
  H  H611  1  0.592100  0.100700  0.368000  1.0
  H  H612  1  0.508600  0.407900  0.368000  1.0
  H  H613  1  0.899300  0.491400  0.368000  1.0
  H  H614  1  0.491400  0.899300  0.132000  1.0
  H  H615  1  0.100700  0.592100  0.132000  1.0
  H  H616  1  0.407900  0.508600  0.132000  1.0
  H  H617  1  0.431900  0.963300  0.604700  1.0
  H  H618  1  0.531400  0.568100  0.604700  1.0
  H  H619  1  0.036700  0.468600  0.604700  1.0
  H  H620  1  0.468600  0.036700  0.895300  1.0
  H  H621  1  0.963300  0.431900  0.895300  1.0
  H  H622  1  0.568100  0.531400  0.895300  1.0
  H  H623  1  0.568100  0.036700  0.395300  1.0
  H  H624  1  0.468600  0.431900  0.395300  1.0
  H  H625  1  0.963300  0.531400  0.395300  1.0
  H  H626  1  0.531400  0.963300  0.104700  1.0
  H  H627  1  0.036700  0.568100  0.104700  1.0
  H  H628  1  0.431900  0.468600  0.104700  1.0
  H  H629  1  0.399500  0.943700  0.575800  1.0
  H  H630  1  0.544200  0.600500  0.575800  1.0
  H  H631  1  0.056300  0.455800  0.575800  1.0
  H  H632  1  0.455800  0.056300  0.924200  1.0
  H  H633  1  0.943700  0.399500  0.924200  1.0
  H  H634  1  0.600500  0.544200  0.924200  1.0
  H  H635  1  0.600500  0.056300  0.424200  1.0
  H  H636  1  0.455800  0.399500  0.424200  1.0
  H  H637  1  0.943700  0.544200  0.424200  1.0
  H  H638  1  0.544200  0.943700  0.075800  1.0
  H  H639  1  0.056300  0.600500  0.075800  1.0
  H  H640  1  0.399500  0.455800  0.075800  1.0
  H  H641  1  0.444000  0.989600  0.572800  1.0
  H  H642  1  0.545600  0.556000  0.572800  1.0
  H  H643  1  0.010400  0.454400  0.572800  1.0
  H  H644  1  0.454400  0.010400  0.927200  1.0
  H  H645  1  0.989600  0.444000  0.927200  1.0
  H  H646  1  0.556000  0.545600  0.927200  1.0
  H  H647  1  0.556000  0.010400  0.427200  1.0
  H  H648  1  0.454400  0.444000  0.427200  1.0
  H  H649  1  0.989600  0.545600  0.427200  1.0
  H  H650  1  0.545600  0.989600  0.072800  1.0
  H  H651  1  0.010400  0.556000  0.072800  1.0
  H  H652  1  0.444000  0.454400  0.072800  1.0
  H  H653  1  0.432600  0.992000  0.450200  1.0
  H  H654  1  0.559400  0.567400  0.450200  1.0
  H  H655  1  0.008000  0.440600  0.450200  1.0
  H  H656  1  0.440600  0.008000  0.049800  1.0
  H  H657  1  0.992000  0.432600  0.049800  1.0
  H  H658  1  0.567400  0.559400  0.049800  1.0
  H  H659  1  0.567400  0.008000  0.549800  1.0
  H  H660  1  0.440600  0.432600  0.549800  1.0
  H  H661  1  0.992000  0.559400  0.549800  1.0
  H  H662  1  0.559400  0.992000  0.950200  1.0
  H  H663  1  0.008000  0.567400  0.950200  1.0
  H  H664  1  0.432600  0.440600  0.950200  1.0
  H  H665  1  0.389500  0.947200  0.459600  1.0
  H  H666  1  0.557700  0.610500  0.459600  1.0
  H  H667  1  0.052800  0.442300  0.459600  1.0
  H  H668  1  0.442300  0.052800  0.040400  1.0
  H  H669  1  0.947200  0.389500  0.040400  1.0
  H  H670  1  0.610500  0.557700  0.040400  1.0
  H  H671  1  0.610500  0.052800  0.540400  1.0
  H  H672  1  0.442300  0.389500  0.540400  1.0
  H  H673  1  0.947200  0.557700  0.540400  1.0
  H  H674  1  0.557700  0.947200  0.959600  1.0
  H  H675  1  0.052800  0.610500  0.959600  1.0
  H  H676  1  0.389500  0.442300  0.959600  1.0
  H  H677  1  0.406300  0.955300  0.424600  1.0
  H  H678  1  0.549000  0.593700  0.424600  1.0
  H  H679  1  0.044700  0.451000  0.424600  1.0
  H  H680  1  0.451000  0.044700  0.075400  1.0
  H  H681  1  0.955300  0.406300  0.075400  1.0
  H  H682  1  0.593700  0.549000  0.075400  1.0
  H  H683  1  0.593700  0.044700  0.575400  1.0
  H  H684  1  0.451000  0.406300  0.575400  1.0
  H  H685  1  0.955300  0.549000  0.575400  1.0
  H  H686  1  0.549000  0.955300  0.924600  1.0
  H  H687  1  0.044700  0.593700  0.924600  1.0
  H  H688  1  0.406300  0.451000  0.924600  1.0
  H  H689  1  0.495700  0.952800  0.388900  1.0
  H  H690  1  0.457100  0.504300  0.388900  1.0
  H  H691  1  0.047200  0.542900  0.388900  1.0
  H  H692  1  0.542900  0.047200  0.111100  1.0
  H  H693  1  0.952800  0.495700  0.111100  1.0
  H  H694  1  0.504300  0.457100  0.111100  1.0
  H  H695  1  0.504300  0.047200  0.611100  1.0
  H  H696  1  0.542900  0.495700  0.611100  1.0
  H  H697  1  0.952800  0.457100  0.611100  1.0
  H  H698  1  0.457100  0.952800  0.888900  1.0
  H  H699  1  0.047200  0.504300  0.888900  1.0
  H  H700  1  0.495700  0.542900  0.888900  1.0
  H  H701  1  0.453600  0.958400  0.392700  1.0
  H  H702  1  0.504800  0.546400  0.392700  1.0
  H  H703  1  0.041600  0.495200  0.392700  1.0
  H  H704  1  0.495200  0.041600  0.107300  1.0
  H  H705  1  0.958400  0.453600  0.107300  1.0
  H  H706  1  0.546400  0.504800  0.107300  1.0
  H  H707  1  0.546400  0.041600  0.607300  1.0
  H  H708  1  0.495200  0.453600  0.607300  1.0
  H  H709  1  0.958400  0.504800  0.607300  1.0
  H  H710  1  0.504800  0.958400  0.892700  1.0
  H  H711  1  0.041600  0.546400  0.892700  1.0
  H  H712  1  0.453600  0.495200  0.892700  1.0
  H  H713  1  0.445200  0.874000  0.385600  1.0
  H  H714  1  0.428800  0.554800  0.385600  1.0
  H  H715  1  0.126000  0.571200  0.385600  1.0
  H  H716  1  0.571200  0.126000  0.114400  1.0
  H  H717  1  0.874000  0.445200  0.114400  1.0
  H  H718  1  0.554800  0.428800  0.114400  1.0
  H  H719  1  0.554800  0.126000  0.614400  1.0
  H  H720  1  0.571200  0.445200  0.614400  1.0
  H  H721  1  0.874000  0.428800  0.614400  1.0
  H  H722  1  0.428800  0.874000  0.885600  1.0
  H  H723  1  0.126000  0.554800  0.885600  1.0
  H  H724  1  0.445200  0.571200  0.885600  1.0
  H  H725  1  0.443600  0.901400  0.356700  1.0
  H  H726  1  0.457800  0.556400  0.356700  1.0
  H  H727  1  0.098600  0.542200  0.356700  1.0
  H  H728  1  0.542200  0.098600  0.143300  1.0
  H  H729  1  0.901400  0.443600  0.143300  1.0
  H  H730  1  0.556400  0.457800  0.143300  1.0
  H  H731  1  0.556400  0.098600  0.643300  1.0
  H  H732  1  0.542200  0.443600  0.643300  1.0
  H  H733  1  0.901400  0.457800  0.643300  1.0
  H  H734  1  0.457800  0.901400  0.856700  1.0
  H  H735  1  0.098600  0.556400  0.856700  1.0
  H  H736  1  0.443600  0.542200  0.856700  1.0
  H  H737  1  0.406500  0.885200  0.382800  1.0
  H  H738  1  0.478700  0.593500  0.382800  1.0
  H  H739  1  0.114800  0.521300  0.382800  1.0
  H  H740  1  0.521300  0.114800  0.117200  1.0
  H  H741  1  0.885200  0.406500  0.117200  1.0
  H  H742  1  0.593500  0.478700  0.117200  1.0
  H  H743  1  0.593500  0.114800  0.617200  1.0
  H  H744  1  0.521300  0.406500  0.617200  1.0
  H  H745  1  0.885200  0.478700  0.617200  1.0
  H  H746  1  0.478700  0.885200  0.882800  1.0
  H  H747  1  0.114800  0.593500  0.882800  1.0
  H  H748  1  0.406500  0.521300  0.882800  1.0
  H  H749  1  0.604300  0.884500  0.384400  1.0
  H  H750  1  0.280200  0.395700  0.384400  1.0
  H  H751  1  0.115500  0.719800  0.384400  1.0
  H  H752  1  0.719800  0.115500  0.115600  1.0
  H  H753  1  0.884500  0.604300  0.115600  1.0
  H  H754  1  0.395700  0.280200  0.115600  1.0
  H  H755  1  0.395700  0.115500  0.615600  1.0
  H  H756  1  0.719800  0.604300  0.615600  1.0
  H  H757  1  0.884500  0.280200  0.615600  1.0
  H  H758  1  0.280200  0.884500  0.884400  1.0
  H  H759  1  0.115500  0.395700  0.884400  1.0
  H  H760  1  0.604300  0.719800  0.884400  1.0
  H  H761  1  0.569700  0.901300  0.382400  1.0
  H  H762  1  0.331600  0.430300  0.382400  1.0
  H  H763  1  0.098700  0.668400  0.382400  1.0
  H  H764  1  0.668400  0.098700  0.117600  1.0
  H  H765  1  0.901300  0.569700  0.117600  1.0
  H  H766  1  0.430300  0.331600  0.117600  1.0
  H  H767  1  0.430300  0.098700  0.617600  1.0
  H  H768  1  0.668400  0.569700  0.617600  1.0
  H  H769  1  0.901300  0.331600  0.617600  1.0
  H  H770  1  0.331600  0.901300  0.882400  1.0
  H  H771  1  0.098700  0.430300  0.882400  1.0
  H  H772  1  0.569700  0.668400  0.882400  1.0
  H  H773  1  0.550300  0.813700  0.374000  1.0
  H  H774  1  0.263400  0.449700  0.374000  1.0
  H  H775  1  0.186300  0.736600  0.374000  1.0
  H  H776  1  0.736600  0.186300  0.126000  1.0
  H  H777  1  0.813700  0.550300  0.126000  1.0
  H  H778  1  0.449700  0.263400  0.126000  1.0
  H  H779  1  0.449700  0.186300  0.626000  1.0
  H  H780  1  0.736600  0.550300  0.626000  1.0
  H  H781  1  0.813700  0.263400  0.626000  1.0
  H  H782  1  0.263400  0.813700  0.874000  1.0
  H  H783  1  0.186300  0.449700  0.874000  1.0
  H  H784  1  0.550300  0.736600  0.874000  1.0
  H  H785  1  0.548100  0.844800  0.348100  1.0
  H  H786  1  0.296700  0.451900  0.348100  1.0
  H  H787  1  0.155200  0.703300  0.348100  1.0
  H  H788  1  0.703300  0.155200  0.151900  1.0
  H  H789  1  0.844800  0.548100  0.151900  1.0
  H  H790  1  0.451900  0.296700  0.151900  1.0
  H  H791  1  0.451900  0.155200  0.651900  1.0
  H  H792  1  0.703300  0.548100  0.651900  1.0
  H  H793  1  0.844800  0.296700  0.651900  1.0
  H  H794  1  0.296700  0.844800  0.848100  1.0
  H  H795  1  0.155200  0.451900  0.848100  1.0
  H  H796  1  0.548100  0.703300  0.848100  1.0
  H  H797  1  0.513200  0.827200  0.375700  1.0
  H  H798  1  0.314000  0.486800  0.375700  1.0
  H  H799  1  0.172800  0.686000  0.375700  1.0
  H  H800  1  0.686000  0.172800  0.124300  1.0
  H  H801  1  0.827200  0.513200  0.124300  1.0
  H  H802  1  0.486800  0.314000  0.124300  1.0
  H  H803  1  0.486800  0.172800  0.624300  1.0
  H  H804  1  0.686000  0.513200  0.624300  1.0
  H  H805  1  0.827200  0.314000  0.624300  1.0
  H  H806  1  0.314000  0.827200  0.875700  1.0
  H  H807  1  0.172800  0.486800  0.875700  1.0
  H  H808  1  0.513200  0.686000  0.875700  1.0
  H  H809  1  0.619700  0.842300  0.409600  1.0
  H  H810  1  0.222600  0.380300  0.409600  1.0
  H  H811  1  0.157700  0.777400  0.409600  1.0
  H  H812  1  0.777400  0.157700  0.090400  1.0
  H  H813  1  0.842300  0.619700  0.090400  1.0
  H  H814  1  0.380300  0.222600  0.090400  1.0
  H  H815  1  0.380300  0.157700  0.590400  1.0
  H  H816  1  0.777400  0.619700  0.590400  1.0
  H  H817  1  0.842300  0.222600  0.590400  1.0
  H  H818  1  0.222600  0.842300  0.909600  1.0
  H  H819  1  0.157700  0.380300  0.909600  1.0
  H  H820  1  0.619700  0.777400  0.909600  1.0
  H  H821  1  0.586800  0.796800  0.426000  1.0
  H  H822  1  0.210000  0.413200  0.426000  1.0
  H  H823  1  0.203200  0.790000  0.426000  1.0
  H  H824  1  0.790000  0.203200  0.074000  1.0
  H  H825  1  0.796800  0.586800  0.074000  1.0
  H  H826  1  0.413200  0.210000  0.074000  1.0
  H  H827  1  0.413200  0.203200  0.574000  1.0
  H  H828  1  0.790000  0.586800  0.574000  1.0
  H  H829  1  0.796800  0.210000  0.574000  1.0
  H  H830  1  0.210000  0.796800  0.926000  1.0
  H  H831  1  0.203200  0.413200  0.926000  1.0
  H  H832  1  0.586800  0.790000  0.926000  1.0
  H  H833  1  0.629600  0.832700  0.443800  1.0
  H  H834  1  0.203100  0.370400  0.443800  1.0
  H  H835  1  0.167300  0.796900  0.443800  1.0
  H  H836  1  0.796900  0.167300  0.056200  1.0
  H  H837  1  0.832700  0.629600  0.056200  1.0
  H  H838  1  0.370400  0.203100  0.056200  1.0
  H  H839  1  0.370400  0.167300  0.556200  1.0
  H  H840  1  0.796900  0.629600  0.556200  1.0
  H  H841  1  0.832700  0.203100  0.556200  1.0
  H  H842  1  0.203100  0.832700  0.943800  1.0
  H  H843  1  0.167300  0.370400  0.943800  1.0
  H  H844  1  0.629600  0.796900  0.943800  1.0
  H  H845  1  0.775100  0.784700  0.440400  1.0
  H  H846  1  0.009600  0.224900  0.440400  1.0
  H  H847  1  0.215300  0.990400  0.440400  1.0
  H  H848  1  0.990400  0.215300  0.059600  1.0
  H  H849  1  0.784700  0.775100  0.059600  1.0
  H  H850  1  0.224900  0.009600  0.059600  1.0
  H  H851  1  0.224900  0.215300  0.559600  1.0
  H  H852  1  0.990400  0.775100  0.559600  1.0
  H  H853  1  0.784700  0.009600  0.559600  1.0
  H  H854  1  0.009600  0.784700  0.940400  1.0
  H  H855  1  0.215300  0.224900  0.940400  1.0
  H  H856  1  0.775100  0.990400  0.940400  1.0
  H  H857  1  0.827500  0.855100  0.425600  1.0
  H  H858  1  0.027600  0.172500  0.425600  1.0
  H  H859  1  0.144900  0.972400  0.425600  1.0
  H  H860  1  0.972400  0.144900  0.074400  1.0
  H  H861  1  0.855100  0.827500  0.074400  1.0
  H  H862  1  0.172500  0.027600  0.074400  1.0
  H  H863  1  0.172500  0.144900  0.574400  1.0
  H  H864  1  0.972400  0.827500  0.574400  1.0
  H  H865  1  0.855100  0.027600  0.574400  1.0
  H  H866  1  0.027600  0.855100  0.925600  1.0
  H  H867  1  0.144900  0.172500  0.925600  1.0
  H  H868  1  0.827500  0.972400  0.925600  1.0
  H  H869  1  0.857000  0.910200  0.463300  1.0
  H  H870  1  0.053200  0.143000  0.463300  1.0
  H  H871  1  0.089800  0.946800  0.463300  1.0
  H  H872  1  0.946800  0.089800  0.036700  1.0
  H  H873  1  0.910200  0.857000  0.036700  1.0
  H  H874  1  0.143000  0.053200  0.036700  1.0
  H  H875  1  0.143000  0.089800  0.536700  1.0
  H  H876  1  0.946800  0.857000  0.536700  1.0
  H  H877  1  0.910200  0.053200  0.536700  1.0
  H  H878  1  0.053200  0.910200  0.963300  1.0
  H  H879  1  0.089800  0.143000  0.963300  1.0
  H  H880  1  0.857000  0.946800  0.963300  1.0
  H  H881  1  0.829100  0.894000  0.513600  1.0
  H  H882  1  0.064900  0.170900  0.513600  1.0
  H  H883  1  0.106000  0.935100  0.513600  1.0
  H  H884  1  0.935100  0.106000  0.986400  1.0
  H  H885  1  0.894000  0.829100  0.986400  1.0
  H  H886  1  0.170900  0.064900  0.986400  1.0
  H  H887  1  0.170900  0.106000  0.486400  1.0
  H  H888  1  0.935100  0.829100  0.486400  1.0
  H  H889  1  0.894000  0.064900  0.486400  1.0
  H  H890  1  0.064900  0.894000  0.013600  1.0
  H  H891  1  0.106000  0.170900  0.013600  1.0
  H  H892  1  0.829100  0.935100  0.013600  1.0
  H  H893  1  0.776200  0.837900  0.551700  1.0
  H  H894  1  0.061700  0.223800  0.551700  1.0
  H  H895  1  0.162100  0.938300  0.551700  1.0
  H  H896  1  0.938300  0.162100  0.948300  1.0
  H  H897  1  0.837900  0.776200  0.948300  1.0
  H  H898  1  0.223800  0.061700  0.948300  1.0
  H  H899  1  0.223800  0.162100  0.448300  1.0
  H  H900  1  0.938300  0.776200  0.448300  1.0
  H  H901  1  0.837900  0.061700  0.448300  1.0
  H  H902  1  0.061700  0.837900  0.051700  1.0
  H  H903  1  0.162100  0.223800  0.051700  1.0
  H  H904  1  0.776200  0.938300  0.051700  1.0
  H  H905  1  0.647300  0.755700  0.551900  1.0
  H  H906  1  0.108400  0.352700  0.551900  1.0
  H  H907  1  0.244300  0.891600  0.551900  1.0
  H  H908  1  0.891600  0.244300  0.948100  1.0
  H  H909  1  0.755700  0.647300  0.948100  1.0
  H  H910  1  0.352700  0.108400  0.948100  1.0
  H  H911  1  0.352700  0.244300  0.448100  1.0
  H  H912  1  0.891600  0.647300  0.448100  1.0
  H  H913  1  0.755700  0.108400  0.448100  1.0
  H  H914  1  0.108400  0.755700  0.051900  1.0
  H  H915  1  0.244300  0.352700  0.051900  1.0
  H  H916  1  0.647300  0.891600  0.051900  1.0
  H  H917  1  0.610200  0.733600  0.599100  1.0
  H  H918  1  0.123400  0.389800  0.599100  1.0
  H  H919  1  0.266400  0.876600  0.599100  1.0
  H  H920  1  0.876600  0.266400  0.900900  1.0
  H  H921  1  0.733600  0.610200  0.900900  1.0
  H  H922  1  0.389800  0.123400  0.900900  1.0
  H  H923  1  0.389800  0.266400  0.400900  1.0
  H  H924  1  0.876600  0.610200  0.400900  1.0
  H  H925  1  0.733600  0.123400  0.400900  1.0
  H  H926  1  0.123400  0.733600  0.099100  1.0
  H  H927  1  0.266400  0.389800  0.099100  1.0
  H  H928  1  0.610200  0.876600  0.099100  1.0
  H  H929  1  0.722700  0.757100  0.641200  1.0
  H  H930  1  0.034400  0.277300  0.641200  1.0
  H  H931  1  0.242900  0.965600  0.641200  1.0
  H  H932  1  0.965600  0.242900  0.858800  1.0
  H  H933  1  0.757100  0.722700  0.858800  1.0
  H  H934  1  0.277300  0.034400  0.858800  1.0
  H  H935  1  0.277300  0.242900  0.358800  1.0
  H  H936  1  0.965600  0.722700  0.358800  1.0
  H  H937  1  0.757100  0.034400  0.358800  1.0
  H  H938  1  0.034400  0.757100  0.141200  1.0
  H  H939  1  0.242900  0.277300  0.141200  1.0
  H  H940  1  0.722700  0.965600  0.141200  1.0
  H  H941  1  0.759700  0.779200  0.594100  1.0
  H  H942  1  0.019500  0.240300  0.594100  1.0
  H  H943  1  0.220800  0.980500  0.594100  1.0
  H  H944  1  0.980500  0.220800  0.905900  1.0
  H  H945  1  0.779200  0.759700  0.905900  1.0
  H  H946  1  0.240300  0.019500  0.905900  1.0
  H  H947  1  0.240300  0.220800  0.405900  1.0
  H  H948  1  0.980500  0.759700  0.405900  1.0
  H  H949  1  0.779200  0.019500  0.405900  1.0
  H  H950  1  0.019500  0.779200  0.094100  1.0
  H  H951  1  0.220800  0.240300  0.094100  1.0
  H  H952  1  0.759700  0.980500  0.094100  1.0
  H  H953  1  0.535000  0.566400  0.707000  1.0
  H  H954  1  0.031400  0.465000  0.707000  1.0
  H  H955  1  0.433600  0.968600  0.707000  1.0
  H  H956  1  0.968600  0.433600  0.793000  1.0
  H  H957  1  0.566400  0.535000  0.793000  1.0
  H  H958  1  0.465000  0.031400  0.793000  1.0
  H  H959  1  0.465000  0.433600  0.293000  1.0
  H  H960  1  0.968600  0.535000  0.293000  1.0
  H  H961  1  0.566400  0.031400  0.293000  1.0
  H  H962  1  0.031400  0.566400  0.207000  1.0
  H  H963  1  0.433600  0.465000  0.207000  1.0
  H  H964  1  0.535000  0.968600  0.207000  1.0
  H  H965  1  0.613700  0.835000  0.738200  1.0
  H  H966  1  0.221300  0.386300  0.738200  1.0
  H  H967  1  0.165000  0.778700  0.738200  1.0
  H  H968  1  0.778700  0.165000  0.761800  1.0
  H  H969  1  0.835000  0.613700  0.761800  1.0
  H  H970  1  0.386300  0.221300  0.761800  1.0
  H  H971  1  0.386300  0.165000  0.261800  1.0
  H  H972  1  0.778700  0.613700  0.261800  1.0
  H  H973  1  0.835000  0.221300  0.261800  1.0
  H  H974  1  0.221300  0.835000  0.238200  1.0
  H  H975  1  0.165000  0.386300  0.238200  1.0
  H  H976  1  0.613700  0.778700  0.238200  1.0
  H  H977  1  0.479200  0.643700  0.833300  1.0
  H  H978  1  0.164500  0.520800  0.833300  1.0
  H  H979  1  0.356300  0.835500  0.833300  1.0
  H  H980  1  0.835500  0.356300  0.666700  1.0
  H  H981  1  0.643700  0.479200  0.666700  1.0
  H  H982  1  0.520800  0.164500  0.666700  1.0
  H  H983  1  0.520800  0.356300  0.166700  1.0
  H  H984  1  0.835500  0.479200  0.166700  1.0
  H  H985  1  0.643700  0.164500  0.166700  1.0
  H  H986  1  0.164500  0.643700  0.333300  1.0
  H  H987  1  0.356300  0.520800  0.333300  1.0
  H  H988  1  0.479200  0.835500  0.333300  1.0
  H  H989  1  0.420900  0.623300  0.867600  1.0
  H  H990  1  0.202400  0.579100  0.867600  1.0
  H  H991  1  0.376700  0.797600  0.867600  1.0
  H  H992  1  0.797600  0.376700  0.632400  1.0
  H  H993  1  0.623300  0.420900  0.632400  1.0
  H  H994  1  0.579100  0.202400  0.632400  1.0
  H  H995  1  0.579100  0.376700  0.132400  1.0
  H  H996  1  0.797600  0.420900  0.132400  1.0
  H  H997  1  0.623300  0.202400  0.132400  1.0
  H  H998  1  0.202400  0.623300  0.367600  1.0
  H  H999  1  0.376700  0.579100  0.367600  1.0
  H  H1000  1  0.420900  0.797600  0.367600  1.0
  H  H1001  1  0.350700  0.639300  0.800000  1.0
  H  H1002  1  0.288600  0.649300  0.800000  1.0
  H  H1003  1  0.360700  0.711400  0.800000  1.0
  H  H1004  1  0.711400  0.360700  0.700000  1.0
  H  H1005  1  0.639300  0.350700  0.700000  1.0
  H  H1006  1  0.649300  0.288600  0.700000  1.0
  H  H1007  1  0.649300  0.360700  0.200000  1.0
  H  H1008  1  0.711400  0.350700  0.200000  1.0
  H  H1009  1  0.639300  0.288600  0.200000  1.0
  H  H1010  1  0.288600  0.639300  0.300000  1.0
  H  H1011  1  0.360700  0.649300  0.300000  1.0
  H  H1012  1  0.350700  0.711400  0.300000  1.0
  H  H1013  1  0.409000  0.659700  0.765700  1.0
  H  H1014  1  0.250700  0.591000  0.765700  1.0
  H  H1015  1  0.340300  0.749300  0.765700  1.0
  H  H1016  1  0.749300  0.340300  0.734300  1.0
  H  H1017  1  0.659700  0.409000  0.734300  1.0
  H  H1018  1  0.591000  0.250700  0.734300  1.0
  H  H1019  1  0.591000  0.340300  0.234300  1.0
  H  H1020  1  0.749300  0.409000  0.234300  1.0
  H  H1021  1  0.659700  0.250700  0.234300  1.0
  H  H1022  1  0.250700  0.659700  0.265700  1.0
  H  H1023  1  0.340300  0.591000  0.265700  1.0
  H  H1024  1  0.409000  0.749300  0.265700  1.0
  H  H1025  1  0.333333  0.560433  0.865000  1.0
  H  H1026  1  0.227100  0.666667  0.865000  1.0
  H  H1027  1  0.439567  0.772900  0.865000  1.0
  H  H1028  1  0.772900  0.439567  0.635000  1.0
  H  H1029  1  0.560433  0.333333  0.635000  1.0
  H  H1030  1  0.666667  0.227100  0.635000  1.0
  H  H1031  1  0.666667  0.439567  0.135000  1.0
  H  H1032  1  0.772900  0.333333  0.135000  1.0
  H  H1033  1  0.560433  0.227100  0.135000  1.0
  H  H1034  1  0.227100  0.560433  0.365000  1.0
  H  H1035  1  0.439567  0.666667  0.365000  1.0
  H  H1036  1  0.333333  0.772900  0.365000  1.0
  H  H1037  1  0.273900  0.506200  0.901200  1.0
  H  H1038  1  0.232300  0.726100  0.901200  1.0
  H  H1039  1  0.493800  0.767700  0.901200  1.0
  H  H1040  1  0.767700  0.493800  0.598800  1.0
  H  H1041  1  0.506200  0.273900  0.598800  1.0
  H  H1042  1  0.726100  0.232300  0.598800  1.0
  H  H1043  1  0.726100  0.493800  0.098800  1.0
  H  H1044  1  0.767700  0.273900  0.098800  1.0
  H  H1045  1  0.506200  0.232300  0.098800  1.0
  H  H1046  1  0.232300  0.506200  0.401200  1.0
  H  H1047  1  0.493800  0.726100  0.401200  1.0
  H  H1048  1  0.273900  0.767700  0.401200  1.0
  H  H1049  1  0.223300  0.495000  0.940000  1.0
  H  H1050  1  0.271700  0.776700  0.940000  1.0
  H  H1051  1  0.505000  0.728300  0.940000  1.0
  H  H1052  1  0.728300  0.505000  0.560000  1.0
  H  H1053  1  0.495000  0.223300  0.560000  1.0
  H  H1054  1  0.776700  0.271700  0.560000  1.0
  H  H1055  1  0.776700  0.505000  0.060000  1.0
  H  H1056  1  0.728300  0.223300  0.060000  1.0
  H  H1057  1  0.495000  0.271700  0.060000  1.0
  H  H1058  1  0.271700  0.495000  0.440000  1.0
  H  H1059  1  0.505000  0.776700  0.440000  1.0
  H  H1060  1  0.223300  0.728300  0.440000  1.0
  H  H1061  1  0.216400  0.554000  0.957600  1.0
  H  H1062  1  0.337600  0.783600  0.957600  1.0
  H  H1063  1  0.446000  0.662400  0.957600  1.0
  H  H1064  1  0.662400  0.446000  0.542400  1.0
  H  H1065  1  0.554000  0.216400  0.542400  1.0
  H  H1066  1  0.783600  0.337600  0.542400  1.0
  H  H1067  1  0.783600  0.446000  0.042400  1.0
  H  H1068  1  0.662400  0.216400  0.042400  1.0
  H  H1069  1  0.554000  0.337600  0.042400  1.0
  H  H1070  1  0.337600  0.554000  0.457600  1.0
  H  H1071  1  0.446000  0.783600  0.457600  1.0
  H  H1072  1  0.216400  0.662400  0.457600  1.0
  H  H1073  1  0.261900  0.623700  0.937100  1.0
  H  H1074  1  0.361800  0.738100  0.937100  1.0
  H  H1075  1  0.376300  0.638200  0.937100  1.0
  H  H1076  1  0.638200  0.376300  0.562900  1.0
  H  H1077  1  0.623700  0.261900  0.562900  1.0
  H  H1078  1  0.738100  0.361800  0.562900  1.0
  H  H1079  1  0.738100  0.376300  0.062900  1.0
  H  H1080  1  0.638200  0.261900  0.062900  1.0
  H  H1081  1  0.623700  0.361800  0.062900  1.0
  H  H1082  1  0.361800  0.623700  0.437100  1.0
  H  H1083  1  0.376300  0.738100  0.437100  1.0
  H  H1084  1  0.261900  0.638200  0.437100  1.0
  H  H1085  1  0.674600  0.669300  0.621200  1.0
  H  H1086  1  0.994700  0.325400  0.621200  1.0
  H  H1087  1  0.330700  0.005300  0.621200  1.0
  H  H1088  1  0.005300  0.330700  0.878800  1.0
  H  H1089  1  0.669300  0.674600  0.878800  1.0
  H  H1090  1  0.325400  0.994700  0.878800  1.0
  H  H1091  1  0.325400  0.330700  0.378800  1.0
  H  H1092  1  0.005300  0.674600  0.378800  1.0
  H  H1093  1  0.669300  0.994700  0.378800  1.0
  H  H1094  1  0.994700  0.669300  0.121200  1.0
  H  H1095  1  0.330700  0.325400  0.121200  1.0
  H  H1096  1  0.674600  0.005300  0.121200  1.0
  H  H1097  1  0.633800  0.661900  0.600500  1.0
  H  H1098  1  0.028100  0.366200  0.600500  1.0
  H  H1099  1  0.338100  0.971900  0.600500  1.0
  H  H1100  1  0.971900  0.338100  0.899500  1.0
  H  H1101  1  0.661900  0.633800  0.899500  1.0
  H  H1102  1  0.366200  0.028100  0.899500  1.0
  H  H1103  1  0.366200  0.338100  0.399500  1.0
  H  H1104  1  0.971900  0.633800  0.399500  1.0
  H  H1105  1  0.661900  0.028100  0.399500  1.0
  H  H1106  1  0.028100  0.661900  0.100500  1.0
  H  H1107  1  0.338100  0.366200  0.100500  1.0
  H  H1108  1  0.633800  0.971900  0.100500  1.0
  H  H1109  1  0.636400  0.620700  0.613300  1.0
  H  H1110  1  0.984300  0.363600  0.613300  1.0
  H  H1111  1  0.379300  0.015700  0.613300  1.0
  H  H1112  1  0.015700  0.379300  0.886700  1.0
  H  H1113  1  0.620700  0.636400  0.886700  1.0
  H  H1114  1  0.363600  0.984300  0.886700  1.0
  H  H1115  1  0.363600  0.379300  0.386700  1.0
  H  H1116  1  0.015700  0.636400  0.386700  1.0
  H  H1117  1  0.620700  0.984300  0.386700  1.0
  H  H1118  1  0.984300  0.620700  0.113300  1.0
  H  H1119  1  0.379300  0.363600  0.113300  1.0
  H  H1120  1  0.636400  0.015700  0.113300  1.0
  H  H1121  1  0.589300  0.562600  0.636900  1.0
  H  H1122  1  0.973300  0.410700  0.636900  1.0
  H  H1123  1  0.437400  0.026700  0.636900  1.0
  H  H1124  1  0.026700  0.437400  0.863100  1.0
  H  H1125  1  0.562600  0.589300  0.863100  1.0
  H  H1126  1  0.410700  0.973300  0.863100  1.0
  H  H1127  1  0.410700  0.437400  0.363100  1.0
  H  H1128  1  0.026700  0.589300  0.363100  1.0
  H  H1129  1  0.562600  0.973300  0.363100  1.0
  H  H1130  1  0.973300  0.562600  0.136900  1.0
  H  H1131  1  0.437400  0.410700  0.136900  1.0
  H  H1132  1  0.589300  0.026700  0.136900  1.0
  H  H1133  1  0.552000  0.546000  0.662800  1.0
  H  H1134  1  0.994000  0.448000  0.662800  1.0
  H  H1135  1  0.454000  0.006000  0.662800  1.0
  H  H1136  1  0.006000  0.454000  0.837200  1.0
  H  H1137  1  0.546000  0.552000  0.837200  1.0
  H  H1138  1  0.448000  0.994000  0.837200  1.0
  H  H1139  1  0.448000  0.454000  0.337200  1.0
  H  H1140  1  0.006000  0.552000  0.337200  1.0
  H  H1141  1  0.546000  0.994000  0.337200  1.0
  H  H1142  1  0.994000  0.546000  0.162800  1.0
  H  H1143  1  0.454000  0.448000  0.162800  1.0
  H  H1144  1  0.552000  0.006000  0.162800  1.0
  H  H1145  1  0.641900  0.574000  0.674900  1.0
  H  H1146  1  0.932100  0.358100  0.674900  1.0
  H  H1147  1  0.426000  0.067900  0.674900  1.0
  H  H1148  1  0.067900  0.426000  0.825100  1.0
  H  H1149  1  0.574000  0.641900  0.825100  1.0
  H  H1150  1  0.358100  0.932100  0.825100  1.0
  H  H1151  1  0.358100  0.426000  0.325100  1.0
  H  H1152  1  0.067900  0.641900  0.325100  1.0
  H  H1153  1  0.574000  0.932100  0.325100  1.0
  H  H1154  1  0.932100  0.574000  0.174900  1.0
  H  H1155  1  0.426000  0.358100  0.174900  1.0
  H  H1156  1  0.641900  0.067900  0.174900  1.0
  H  H1157  1  0.602800  0.524200  0.675800  1.0
  H  H1158  1  0.921400  0.397200  0.675800  1.0
  H  H1159  1  0.475800  0.078600  0.675800  1.0
  H  H1160  1  0.078600  0.475800  0.824200  1.0
  H  H1161  1  0.524200  0.602800  0.824200  1.0
  H  H1162  1  0.397200  0.921400  0.824200  1.0
  H  H1163  1  0.397200  0.475800  0.324200  1.0
  H  H1164  1  0.078600  0.602800  0.324200  1.0
  H  H1165  1  0.524200  0.921400  0.324200  1.0
  H  H1166  1  0.921400  0.524200  0.175800  1.0
  H  H1167  1  0.475800  0.397200  0.175800  1.0
  H  H1168  1  0.602800  0.078600  0.175800  1.0
  H  H1169  1  0.605100  0.558500  0.701100  1.0
  H  H1170  1  0.953400  0.394900  0.701100  1.0
  H  H1171  1  0.441500  0.046600  0.701100  1.0
  H  H1172  1  0.046600  0.441500  0.798900  1.0
  H  H1173  1  0.558500  0.605100  0.798900  1.0
  H  H1174  1  0.394900  0.953400  0.798900  1.0
  H  H1175  1  0.394900  0.441500  0.298900  1.0
  H  H1176  1  0.046600  0.605100  0.298900  1.0
  H  H1177  1  0.558500  0.953400  0.298900  1.0
  H  H1178  1  0.953400  0.558500  0.201100  1.0
  H  H1179  1  0.441500  0.394900  0.201100  1.0
  H  H1180  1  0.605100  0.046600  0.201100  1.0
  H  H1181  1  0.443000  0.499900  0.760400  1.0
  H  H1182  1  0.056900  0.557000  0.760400  1.0
  H  H1183  1  0.500100  0.943100  0.760400  1.0
  H  H1184  1  0.943100  0.500100  0.739600  1.0
  H  H1185  1  0.499900  0.443000  0.739600  1.0
  H  H1186  1  0.557000  0.056900  0.739600  1.0
  H  H1187  1  0.557000  0.500100  0.239600  1.0
  H  H1188  1  0.943100  0.443000  0.239600  1.0
  H  H1189  1  0.499900  0.056900  0.239600  1.0
  H  H1190  1  0.056900  0.499900  0.260400  1.0
  H  H1191  1  0.500100  0.557000  0.260400  1.0
  H  H1192  1  0.443000  0.943100  0.260400  1.0
  H  H1193  1  0.481000  0.510000  0.735900  1.0
  H  H1194  1  0.029000  0.519000  0.735900  1.0
  H  H1195  1  0.490000  0.971000  0.735900  1.0
  H  H1196  1  0.971000  0.490000  0.764100  1.0
  H  H1197  1  0.510000  0.481000  0.764100  1.0
  H  H1198  1  0.519000  0.029000  0.764100  1.0
  H  H1199  1  0.519000  0.490000  0.264100  1.0
  H  H1200  1  0.971000  0.481000  0.264100  1.0
  H  H1201  1  0.510000  0.029000  0.264100  1.0
  H  H1202  1  0.029000  0.510000  0.235900  1.0
  H  H1203  1  0.490000  0.519000  0.235900  1.0
  H  H1204  1  0.481000  0.971000  0.235900  1.0
  H  H1205  1  0.411500  0.468200  0.712600  1.0
  H  H1206  1  0.056700  0.588500  0.712600  1.0
  H  H1207  1  0.531800  0.943300  0.712600  1.0
  H  H1208  1  0.943300  0.531800  0.787400  1.0
  H  H1209  1  0.468200  0.411500  0.787400  1.0
  H  H1210  1  0.588500  0.056700  0.787400  1.0
  H  H1211  1  0.588500  0.531800  0.287400  1.0
  H  H1212  1  0.943300  0.411500  0.287400  1.0
  H  H1213  1  0.468200  0.056700  0.287400  1.0
  H  H1214  1  0.056700  0.468200  0.212600  1.0
  H  H1215  1  0.531800  0.588500  0.212600  1.0
  H  H1216  1  0.411500  0.943300  0.212600  1.0
  H  H1217  1  0.437900  0.515000  0.696100  1.0
  H  H1218  1  0.077100  0.562100  0.696100  1.0
  H  H1219  1  0.485000  0.922900  0.696100  1.0
  H  H1220  1  0.922900  0.485000  0.803900  1.0
  H  H1221  1  0.515000  0.437900  0.803900  1.0
  H  H1222  1  0.562100  0.077100  0.803900  1.0
  H  H1223  1  0.562100  0.485000  0.303900  1.0
  H  H1224  1  0.922900  0.437900  0.303900  1.0
  H  H1225  1  0.515000  0.077100  0.303900  1.0
  H  H1226  1  0.077100  0.515000  0.196100  1.0
  H  H1227  1  0.485000  0.562100  0.196100  1.0
  H  H1228  1  0.437900  0.922900  0.196100  1.0
  H  H1229  1  0.400100  0.505800  0.720400  1.0
  H  H1230  1  0.105700  0.599900  0.720400  1.0
  H  H1231  1  0.494200  0.894300  0.720400  1.0
  H  H1232  1  0.894300  0.494200  0.779600  1.0
  H  H1233  1  0.505800  0.400100  0.779600  1.0
  H  H1234  1  0.599900  0.105700  0.779600  1.0
  H  H1235  1  0.599900  0.494200  0.279600  1.0
  H  H1236  1  0.894300  0.400100  0.279600  1.0
  H  H1237  1  0.505800  0.105700  0.279600  1.0
  H  H1238  1  0.105700  0.505800  0.220400  1.0
  H  H1239  1  0.494200  0.599900  0.220400  1.0
  H  H1240  1  0.400100  0.894300  0.220400  1.0
  H  H1241  1  0.407800  0.530200  0.777400  1.0
  H  H1242  1  0.122400  0.592200  0.777400  1.0
  H  H1243  1  0.469800  0.877600  0.777400  1.0
  H  H1244  1  0.877600  0.469800  0.722600  1.0
  H  H1245  1  0.530200  0.407800  0.722600  1.0
  H  H1246  1  0.592200  0.122400  0.722600  1.0
  H  H1247  1  0.592200  0.469800  0.222600  1.0
  H  H1248  1  0.877600  0.407800  0.222600  1.0
  H  H1249  1  0.530200  0.122400  0.222600  1.0
  H  H1250  1  0.122400  0.530200  0.277400  1.0
  H  H1251  1  0.469800  0.592200  0.277400  1.0
  H  H1252  1  0.407800  0.877600  0.277400  1.0
  H  H1253  1  0.402600  0.572600  0.781200  1.0
  H  H1254  1  0.170000  0.597400  0.781200  1.0
  H  H1255  1  0.427400  0.830000  0.781200  1.0
  H  H1256  1  0.830000  0.427400  0.718800  1.0
  H  H1257  1  0.572600  0.402600  0.718800  1.0
  H  H1258  1  0.597400  0.170000  0.718800  1.0
  H  H1259  1  0.597400  0.427400  0.218800  1.0
  H  H1260  1  0.830000  0.402600  0.218800  1.0
  H  H1261  1  0.572600  0.170000  0.218800  1.0
  H  H1262  1  0.170000  0.572600  0.281200  1.0
  H  H1263  1  0.427400  0.597400  0.281200  1.0
  H  H1264  1  0.402600  0.830000  0.281200  1.0
  H  H1265  1  0.430900  0.563100  0.805700  1.0
  H  H1266  1  0.132200  0.569100  0.805700  1.0
  H  H1267  1  0.436900  0.867800  0.805700  1.0
  H  H1268  1  0.867800  0.436900  0.694300  1.0
  H  H1269  1  0.563100  0.430900  0.694300  1.0
  H  H1270  1  0.569100  0.132200  0.694300  1.0
  H  H1271  1  0.569100  0.436900  0.194300  1.0
  H  H1272  1  0.867800  0.430900  0.194300  1.0
  H  H1273  1  0.563100  0.132200  0.194300  1.0
  H  H1274  1  0.132200  0.563100  0.305700  1.0
  H  H1275  1  0.436900  0.569100  0.305700  1.0
  H  H1276  1  0.430900  0.867800  0.305700  1.0
  H  H1277  1  0.499200  0.776600  0.823500  1.0
  H  H1278  1  0.277400  0.500800  0.823500  1.0
  H  H1279  1  0.223400  0.722600  0.823500  1.0
  H  H1280  1  0.722600  0.223400  0.676500  1.0
  H  H1281  1  0.776600  0.499200  0.676500  1.0
  H  H1282  1  0.500800  0.277400  0.676500  1.0
  H  H1283  1  0.500800  0.223400  0.176500  1.0
  H  H1284  1  0.722600  0.499200  0.176500  1.0
  H  H1285  1  0.776600  0.277400  0.176500  1.0
  H  H1286  1  0.277400  0.776600  0.323500  1.0
  H  H1287  1  0.223400  0.500800  0.323500  1.0
  H  H1288  1  0.499200  0.722600  0.323500  1.0
  H  H1289  1  0.482400  0.725800  0.829400  1.0
  H  H1290  1  0.243400  0.517600  0.829400  1.0
  H  H1291  1  0.274200  0.756600  0.829400  1.0
  H  H1292  1  0.756600  0.274200  0.670600  1.0
  H  H1293  1  0.725800  0.482400  0.670600  1.0
  H  H1294  1  0.517600  0.243400  0.670600  1.0
  H  H1295  1  0.517600  0.274200  0.170600  1.0
  H  H1296  1  0.756600  0.482400  0.170600  1.0
  H  H1297  1  0.725800  0.243400  0.170600  1.0
  H  H1298  1  0.243400  0.725800  0.329400  1.0
  H  H1299  1  0.274200  0.517600  0.329400  1.0
  H  H1300  1  0.482400  0.756600  0.329400  1.0
  H  H1301  1  0.456200  0.739900  0.806300  1.0
  H  H1302  1  0.283700  0.543800  0.806300  1.0
  H  H1303  1  0.260100  0.716300  0.806300  1.0
  H  H1304  1  0.716300  0.260100  0.693700  1.0
  H  H1305  1  0.739900  0.456200  0.693700  1.0
  H  H1306  1  0.543800  0.283700  0.693700  1.0
  H  H1307  1  0.543800  0.260100  0.193700  1.0
  H  H1308  1  0.716300  0.456200  0.193700  1.0
  H  H1309  1  0.739900  0.283700  0.193700  1.0
  H  H1310  1  0.283700  0.739900  0.306300  1.0
  H  H1311  1  0.260100  0.543800  0.306300  1.0
  H  H1312  1  0.456200  0.716300  0.306300  1.0
  H  H1313  1  0.594500  0.851400  0.780900  1.0
  H  H1314  1  0.256900  0.405500  0.780900  1.0
  H  H1315  1  0.148600  0.743100  0.780900  1.0
  H  H1316  1  0.743100  0.148600  0.719100  1.0
  H  H1317  1  0.851400  0.594500  0.719100  1.0
  H  H1318  1  0.405500  0.256900  0.719100  1.0
  H  H1319  1  0.405500  0.148600  0.219100  1.0
  H  H1320  1  0.743100  0.594500  0.219100  1.0
  H  H1321  1  0.851400  0.256900  0.219100  1.0
  H  H1322  1  0.256900  0.851400  0.280900  1.0
  H  H1323  1  0.148600  0.405500  0.280900  1.0
  H  H1324  1  0.594500  0.743100  0.280900  1.0
  H  H1325  1  0.556000  0.834500  0.806300  1.0
  H  H1326  1  0.278500  0.444000  0.806300  1.0
  H  H1327  1  0.165500  0.721500  0.806300  1.0
  H  H1328  1  0.721500  0.165500  0.693700  1.0
  H  H1329  1  0.834500  0.556000  0.693700  1.0
  H  H1330  1  0.444000  0.278500  0.693700  1.0
  H  H1331  1  0.444000  0.165500  0.193700  1.0
  H  H1332  1  0.721500  0.556000  0.193700  1.0
  H  H1333  1  0.834500  0.278500  0.193700  1.0
  H  H1334  1  0.278500  0.834500  0.306300  1.0
  H  H1335  1  0.165500  0.444000  0.306300  1.0
  H  H1336  1  0.556000  0.721500  0.306300  1.0
  H  H1337  1  0.521800  0.825400  0.747900  1.0
  H  H1338  1  0.303600  0.478200  0.747900  1.0
  H  H1339  1  0.174600  0.696400  0.747900  1.0
  H  H1340  1  0.696400  0.174600  0.752100  1.0
  H  H1341  1  0.825400  0.521800  0.752100  1.0
  H  H1342  1  0.478200  0.303600  0.752100  1.0
  H  H1343  1  0.478200  0.174600  0.252100  1.0
  H  H1344  1  0.696400  0.521800  0.252100  1.0
  H  H1345  1  0.825400  0.303600  0.252100  1.0
  H  H1346  1  0.303600  0.825400  0.247900  1.0
  H  H1347  1  0.174600  0.478200  0.247900  1.0
  H  H1348  1  0.521800  0.696400  0.247900  1.0
  H  H1349  1  0.558100  0.875500  0.754000  1.0
  H  H1350  1  0.317400  0.441900  0.754000  1.0
  H  H1351  1  0.124500  0.682600  0.754000  1.0
  H  H1352  1  0.682600  0.124500  0.746000  1.0
  H  H1353  1  0.875500  0.558100  0.746000  1.0
  H  H1354  1  0.441900  0.317400  0.746000  1.0
  H  H1355  1  0.441900  0.124500  0.246000  1.0
  H  H1356  1  0.682600  0.558100  0.246000  1.0
  H  H1357  1  0.875500  0.317400  0.246000  1.0
  H  H1358  1  0.317400  0.875500  0.254000  1.0
  H  H1359  1  0.124500  0.441900  0.254000  1.0
  H  H1360  1  0.558100  0.682600  0.254000  1.0
  H  H1361  1  0.516500  0.851400  0.776300  1.0
  H  H1362  1  0.334900  0.483500  0.776300  1.0
  H  H1363  1  0.148600  0.665100  0.776300  1.0
  H  H1364  1  0.665100  0.148600  0.723700  1.0
  H  H1365  1  0.851400  0.516500  0.723700  1.0
  H  H1366  1  0.483500  0.334900  0.723700  1.0
  H  H1367  1  0.483500  0.148600  0.223700  1.0
  H  H1368  1  0.665100  0.516500  0.223700  1.0
  H  H1369  1  0.851400  0.334900  0.223700  1.0
  H  H1370  1  0.334900  0.851400  0.276300  1.0
  H  H1371  1  0.148600  0.483500  0.276300  1.0
  H  H1372  1  0.516500  0.665100  0.276300  1.0
  H  H1373  1  0.668800  0.895400  0.668400  1.0
  H  H1374  1  0.226600  0.331200  0.668400  1.0
  H  H1375  1  0.104600  0.773400  0.668400  1.0
  H  H1376  1  0.773400  0.104600  0.831600  1.0
  H  H1377  1  0.895400  0.668800  0.831600  1.0
  H  H1378  1  0.331200  0.226600  0.831600  1.0
  H  H1379  1  0.331200  0.104600  0.331600  1.0
  H  H1380  1  0.773400  0.668800  0.331600  1.0
  H  H1381  1  0.895400  0.226600  0.331600  1.0
  H  H1382  1  0.226600  0.895400  0.168400  1.0
  H  H1383  1  0.104600  0.331200  0.168400  1.0
  H  H1384  1  0.668800  0.773400  0.168400  1.0
  H  H1385  1  0.643700  0.885900  0.700800  1.0
  H  H1386  1  0.242200  0.356300  0.700800  1.0
  H  H1387  1  0.114100  0.757800  0.700800  1.0
  H  H1388  1  0.757800  0.114100  0.799200  1.0
  H  H1389  1  0.885900  0.643700  0.799200  1.0
  H  H1390  1  0.356300  0.242200  0.799200  1.0
  H  H1391  1  0.356300  0.114100  0.299200  1.0
  H  H1392  1  0.757800  0.643700  0.299200  1.0
  H  H1393  1  0.885900  0.242200  0.299200  1.0
  H  H1394  1  0.242200  0.885900  0.200800  1.0
  H  H1395  1  0.114100  0.356300  0.200800  1.0
  H  H1396  1  0.643700  0.757800  0.200800  1.0
  H  H1397  1  0.710200  0.883200  0.720000  1.0
  H  H1398  1  0.173000  0.289800  0.720000  1.0
  H  H1399  1  0.116800  0.827000  0.720000  1.0
  H  H1400  1  0.827000  0.116800  0.780000  1.0
  H  H1401  1  0.883200  0.710200  0.780000  1.0
  H  H1402  1  0.289800  0.173000  0.780000  1.0
  H  H1403  1  0.289800  0.116800  0.280000  1.0
  H  H1404  1  0.827000  0.710200  0.280000  1.0
  H  H1405  1  0.883200  0.173000  0.280000  1.0
  H  H1406  1  0.173000  0.883200  0.220000  1.0
  H  H1407  1  0.116800  0.289800  0.220000  1.0
  H  H1408  1  0.710200  0.827000  0.220000  1.0
  H  H1409  1  0.711800  0.929200  0.717200  1.0
  H  H1410  1  0.217400  0.288200  0.717200  1.0
  H  H1411  1  0.070800  0.782600  0.717200  1.0
  H  H1412  1  0.782600  0.070800  0.782800  1.0
  H  H1413  1  0.929200  0.711800  0.782800  1.0
  H  H1414  1  0.288200  0.217400  0.782800  1.0
  H  H1415  1  0.288200  0.070800  0.282800  1.0
  H  H1416  1  0.782600  0.711800  0.282800  1.0
  H  H1417  1  0.929200  0.217400  0.282800  1.0
  H  H1418  1  0.217400  0.929200  0.217200  1.0
  H  H1419  1  0.070800  0.288200  0.217200  1.0
  H  H1420  1  0.711800  0.782600  0.217200  1.0
  H  H1421  1  0.732700  0.913800  0.690600  1.0
  H  H1422  1  0.181100  0.267300  0.690600  1.0
  H  H1423  1  0.086200  0.818900  0.690600  1.0
  H  H1424  1  0.818900  0.086200  0.809400  1.0
  H  H1425  1  0.913800  0.732700  0.809400  1.0
  H  H1426  1  0.267300  0.181100  0.809400  1.0
  H  H1427  1  0.267300  0.086200  0.309400  1.0
  H  H1428  1  0.818900  0.732700  0.309400  1.0
  H  H1429  1  0.913800  0.181100  0.309400  1.0
  H  H1430  1  0.181100  0.913800  0.190600  1.0
  H  H1431  1  0.086200  0.267300  0.190600  1.0
  H  H1432  1  0.732700  0.818900  0.190600  1.0
  H  H1433  1  0.697000  0.865300  0.637600  1.0
  H  H1434  1  0.168300  0.303000  0.637600  1.0
  H  H1435  1  0.134700  0.831700  0.637600  1.0
  H  H1436  1  0.831700  0.134700  0.862400  1.0
  H  H1437  1  0.865300  0.697000  0.862400  1.0
  H  H1438  1  0.303000  0.168300  0.862400  1.0
  H  H1439  1  0.303000  0.134700  0.362400  1.0
  H  H1440  1  0.831700  0.697000  0.362400  1.0
  H  H1441  1  0.865300  0.168300  0.362400  1.0
  H  H1442  1  0.168300  0.865300  0.137600  1.0
  H  H1443  1  0.134700  0.303000  0.137600  1.0
  H  H1444  1  0.697000  0.831700  0.137600  1.0
  H  H1445  1  0.679900  0.821300  0.617900  1.0
  H  H1446  1  0.141400  0.320100  0.617900  1.0
  H  H1447  1  0.178700  0.858600  0.617900  1.0
  H  H1448  1  0.858600  0.178700  0.882100  1.0
  H  H1449  1  0.821300  0.679900  0.882100  1.0
  H  H1450  1  0.320100  0.141400  0.882100  1.0
  H  H1451  1  0.320100  0.178700  0.382100  1.0
  H  H1452  1  0.858600  0.679900  0.382100  1.0
  H  H1453  1  0.821300  0.141400  0.382100  1.0
  H  H1454  1  0.141400  0.821300  0.117900  1.0
  H  H1455  1  0.178700  0.320100  0.117900  1.0
  H  H1456  1  0.679900  0.858600  0.117900  1.0
  H  H1457  1  0.719500  0.835800  0.641700  1.0
  H  H1458  1  0.116300  0.280500  0.641700  1.0
  H  H1459  1  0.164200  0.883700  0.641700  1.0
  H  H1460  1  0.883700  0.164200  0.858300  1.0
  H  H1461  1  0.835800  0.719500  0.858300  1.0
  H  H1462  1  0.280500  0.116300  0.858300  1.0
  H  H1463  1  0.280500  0.164200  0.358300  1.0
  H  H1464  1  0.883700  0.719500  0.358300  1.0
  H  H1465  1  0.835800  0.116300  0.358300  1.0
  H  H1466  1  0.116300  0.835800  0.141700  1.0
  H  H1467  1  0.164200  0.280500  0.141700  1.0
  H  H1468  1  0.719500  0.883700  0.141700  1.0
  H  H1469  1  0.661500  0.661800  0.796400  1.0
  H  H1470  1  0.000300  0.338500  0.796400  1.0
  H  H1471  1  0.338200  0.999700  0.796400  1.0
  H  H1472  1  0.999700  0.338200  0.703600  1.0
  H  H1473  1  0.661800  0.661500  0.703600  1.0
  H  H1474  1  0.338500  0.000300  0.703600  1.0
  H  H1475  1  0.338500  0.338200  0.203600  1.0
  H  H1476  1  0.999700  0.661500  0.203600  1.0
  H  H1477  1  0.661800  0.000300  0.203600  1.0
  H  H1478  1  0.000300  0.661800  0.296400  1.0
  H  H1479  1  0.338200  0.338500  0.296400  1.0
  H  H1480  1  0.661500  0.999700  0.296400  1.0
  H  H1481  1  0.680000  0.708700  0.812500  1.0
  H  H1482  1  0.028700  0.320000  0.812500  1.0
  H  H1483  1  0.291300  0.971300  0.812500  1.0
  H  H1484  1  0.971300  0.291300  0.687500  1.0
  H  H1485  1  0.708700  0.680000  0.687500  1.0
  H  H1486  1  0.320000  0.028700  0.687500  1.0
  H  H1487  1  0.320000  0.291300  0.187500  1.0
  H  H1488  1  0.971300  0.680000  0.187500  1.0
  H  H1489  1  0.708700  0.028700  0.187500  1.0
  H  H1490  1  0.028700  0.708700  0.312500  1.0
  H  H1491  1  0.291300  0.320000  0.312500  1.0
  H  H1492  1  0.680000  0.971300  0.312500  1.0
  H  H1493  1  0.702700  0.704100  0.781800  1.0
  H  H1494  1  0.001400  0.297300  0.781800  1.0
  H  H1495  1  0.295900  0.998600  0.781800  1.0
  H  H1496  1  0.998600  0.295900  0.718200  1.0
  H  H1497  1  0.704100  0.702700  0.718200  1.0
  H  H1498  1  0.297300  0.001400  0.718200  1.0
  H  H1499  1  0.297300  0.295900  0.218200  1.0
  H  H1500  1  0.998600  0.702700  0.218200  1.0
  H  H1501  1  0.704100  0.001400  0.218200  1.0
  H  H1502  1  0.001400  0.704100  0.281800  1.0
  H  H1503  1  0.295900  0.297300  0.281800  1.0
  H  H1504  1  0.702700  0.998600  0.281800  1.0
  H  H1505  1  0.430700  0.799000  0.520700  1.0
  H  H1506  1  0.368300  0.569300  0.520700  1.0
  H  H1507  1  0.201000  0.631700  0.520700  1.0
  H  H1508  1  0.631700  0.201000  0.979300  1.0
  H  H1509  1  0.799000  0.430700  0.979300  1.0
  H  H1510  1  0.569300  0.368300  0.979300  1.0
  H  H1511  1  0.569300  0.201000  0.479300  1.0
  H  H1512  1  0.631700  0.430700  0.479300  1.0
  H  H1513  1  0.799000  0.368300  0.479300  1.0
  H  H1514  1  0.368300  0.799000  0.020700  1.0
  H  H1515  1  0.201000  0.569300  0.020700  1.0
  H  H1516  1  0.430700  0.631700  0.020700  1.0
  H  H1517  1  0.427400  0.800800  0.493300  1.0
  H  H1518  1  0.373400  0.572600  0.493300  1.0
  H  H1519  1  0.199200  0.626600  0.493300  1.0
  H  H1520  1  0.626600  0.199200  0.006700  1.0
  H  H1521  1  0.800800  0.427400  0.006700  1.0
  H  H1522  1  0.572600  0.373400  0.006700  1.0
  H  H1523  1  0.572600  0.199200  0.506700  1.0
  H  H1524  1  0.626600  0.427400  0.506700  1.0
  H  H1525  1  0.800800  0.373400  0.506700  1.0
  H  H1526  1  0.373400  0.800800  0.993300  1.0
  H  H1527  1  0.199200  0.572600  0.993300  1.0
  H  H1528  1  0.427400  0.626600  0.993300  1.0
  C  C1529  1  0.745900  0.134100  0.630600  1
  C  C1530  1  0.388200  0.254100  0.630600  1
  C  C1531  1  0.865900  0.611800  0.630600  1
  C  C1532  1  0.611800  0.865900  0.869400  1
  C  C1533  1  0.134100  0.745900  0.869400  1
  C  C1534  1  0.254100  0.388200  0.869400  1
  C  C1535  1  0.254100  0.865900  0.369400  1
  C  C1536  1  0.611800  0.745900  0.369400  1
  C  C1537  1  0.134100  0.388200  0.369400  1
  C  C1538  1  0.388200  0.134100  0.130600  1
  C  C1539  1  0.865900  0.254100  0.130600  1
  C  C1540  1  0.745900  0.611800  0.130600  1
  C  C1541  1  0.506000  0.789000  0.637000  1
  C  C1542  1  0.283000  0.494000  0.637000  1
  C  C1543  1  0.211000  0.717000  0.637000  1
  C  C1544  1  0.717000  0.211000  0.863000  1
  C  C1545  1  0.789000  0.506000  0.863000  1
  C  C1546  1  0.494000  0.283000  0.863000  1
  C  C1547  1  0.494000  0.211000  0.363000  1
  C  C1548  1  0.717000  0.506000  0.363000  1
  C  C1549  1  0.789000  0.283000  0.363000  1
  C  C1550  1  0.283000  0.789000  0.137000  1
  C  C1551  1  0.211000  0.494000  0.137000  1
  C  C1552  1  0.506000  0.717000  0.137000  1
  C  C1553  1  0.521200  0.957200  0.634000  1
  C  C1554  1  0.436000  0.478800  0.634000  1
  C  C1555  1  0.042800  0.564000  0.634000  1
  C  C1556  1  0.564000  0.042800  0.866000  1
  C  C1557  1  0.957200  0.521200  0.866000  1
  C  C1558  1  0.478800  0.436000  0.866000  1
  C  C1559  1  0.478800  0.042800  0.366000  1
  C  C1560  1  0.564000  0.521200  0.366000  1
  C  C1561  1  0.957200  0.436000  0.366000  1
  C  C1562  1  0.436000  0.957200  0.134000  1
  C  C1563  1  0.042800  0.478800  0.134000  1
  C  C1564  1  0.521200  0.564000  0.134000  1
  C  C1565  1  0.462500  0.503900  0.774100  1
  C  C1566  1  0.041400  0.537500  0.774100  1
  C  C1567  1  0.496100  0.958600  0.774100  1
  C  C1568  1  0.958600  0.496100  0.725900  1
  C  C1569  1  0.503900  0.462500  0.725900  1
  C  C1570  1  0.537500  0.041400  0.725900  1
  C  C1571  1  0.537500  0.496100  0.225900  1
  C  C1572  1  0.958600  0.462500  0.225900  1
  C  C1573  1  0.503900  0.041400  0.225900  1
  C  C1574  1  0.041400  0.503900  0.274100  1
  C  C1575  1  0.496100  0.537500  0.274100  1
  C  C1576  1  0.462500  0.958600  0.274100  1
  C  C1577  1  0.726700  0.675600  0.455800  1.0
  C  C1578  1  0.948900  0.273300  0.455800  1.0
  C  C1579  1  0.324400  0.051100  0.455800  1.0
  C  C1580  1  0.051100  0.324400  0.044200  1.0
  C  C1581  1  0.675600  0.726700  0.044200  1.0
  C  C1582  1  0.273300  0.948900  0.044200  1.0
  C  C1583  1  0.273300  0.324400  0.544200  1.0
  C  C1584  1  0.051100  0.726700  0.544200  1.0
  C  C1585  1  0.675600  0.948900  0.544200  1.0
  C  C1586  1  0.948900  0.675600  0.955800  1.0
  C  C1587  1  0.324400  0.273300  0.955800  1.0
  C  C1588  1  0.726700  0.051100  0.955800  1.0
  C  C1589  1  0.714100  0.644400  0.432900  1.0
  C  C1590  1  0.930300  0.285900  0.432900  1.0
  C  C1591  1  0.355600  0.069700  0.432900  1.0
  C  C1592  1  0.069700  0.355600  0.067100  1.0
  C  C1593  1  0.644400  0.714100  0.067100  1.0
  C  C1594  1  0.285900  0.930300  0.067100  1.0
  C  C1595  1  0.285900  0.355600  0.567100  1.0
  C  C1596  1  0.069700  0.714100  0.567100  1.0
  C  C1597  1  0.644400  0.930300  0.567100  1.0
  C  C1598  1  0.930300  0.644400  0.932900  1.0
  C  C1599  1  0.355600  0.285900  0.932900  1.0
  C  C1600  1  0.714100  0.069700  0.932900  1.0
  C  C1601  1  0.678900  0.636400  0.414800  1.0
  C  C1602  1  0.957500  0.321100  0.414800  1.0
  C  C1603  1  0.363600  0.042500  0.414800  1.0
  C  C1604  1  0.042500  0.363600  0.085200  1.0
  C  C1605  1  0.636400  0.678900  0.085200  1.0
  C  C1606  1  0.321100  0.957500  0.085200  1.0
  C  C1607  1  0.321100  0.363600  0.585200  1.0
  C  C1608  1  0.042500  0.678900  0.585200  1.0
  C  C1609  1  0.636400  0.957500  0.585200  1.0
  C  C1610  1  0.957500  0.636400  0.914800  1.0
  C  C1611  1  0.363600  0.321100  0.914800  1.0
  C  C1612  1  0.678900  0.042500  0.914800  1.0
  C  C1613  1  0.655200  0.657000  0.421400  1.0
  C  C1614  1  0.001800  0.344800  0.421400  1.0
  C  C1615  1  0.343000  0.998200  0.421400  1.0
  C  C1616  1  0.998200  0.343000  0.078600  1.0
  C  C1617  1  0.657000  0.655200  0.078600  1.0
  C  C1618  1  0.344800  0.001800  0.078600  1.0
  C  C1619  1  0.344800  0.343000  0.578600  1.0
  C  C1620  1  0.998200  0.655200  0.578600  1.0
  C  C1621  1  0.657000  0.001800  0.578600  1.0
  C  C1622  1  0.001800  0.657000  0.921400  1.0
  C  C1623  1  0.343000  0.344800  0.921400  1.0
  C  C1624  1  0.655200  0.998200  0.921400  1.0
  C  C1625  1  0.669300  0.687300  0.445400  1.0
  C  C1626  1  0.018000  0.330700  0.445400  1.0
  C  C1627  1  0.312700  0.982000  0.445400  1.0
  C  C1628  1  0.982000  0.312700  0.054600  1.0
  C  C1629  1  0.687300  0.669300  0.054600  1.0
  C  C1630  1  0.330700  0.018000  0.054600  1.0
  C  C1631  1  0.330700  0.312700  0.554600  1.0
  C  C1632  1  0.982000  0.669300  0.554600  1.0
  C  C1633  1  0.687300  0.018000  0.554600  1.0
  C  C1634  1  0.018000  0.687300  0.945400  1.0
  C  C1635  1  0.312700  0.330700  0.945400  1.0
  C  C1636  1  0.669300  0.982000  0.945400  1.0
  C  C1637  1  0.648700  0.713400  0.453500  1.0
  C  C1638  1  0.064700  0.351300  0.453500  1.0
  C  C1639  1  0.286600  0.935300  0.453500  1.0
  C  C1640  1  0.935300  0.286600  0.046500  1.0
  C  C1641  1  0.713400  0.648700  0.046500  1.0
  C  C1642  1  0.351300  0.064700  0.046500  1.0
  C  C1643  1  0.351300  0.286600  0.546500  1.0
  C  C1644  1  0.935300  0.648700  0.546500  1.0
  C  C1645  1  0.713400  0.064700  0.546500  1.0
  C  C1646  1  0.064700  0.713400  0.953500  1.0
  C  C1647  1  0.286600  0.351300  0.953500  1.0
  C  C1648  1  0.648700  0.935300  0.953500  1.0
  C  C1649  1  0.638500  0.761300  0.484420  1.0
  C  C1650  1  0.122800  0.361500  0.484420  1.0
  C  C1651  1  0.238700  0.877200  0.484420  1.0
  C  C1652  1  0.877200  0.238700  0.015580  1.0
  C  C1653  1  0.761300  0.638500  0.015580  1.0
  C  C1654  1  0.361500  0.122800  0.015580  1.0
  C  C1655  1  0.361500  0.238700  0.515580  1.0
  C  C1656  1  0.877200  0.638500  0.515580  1.0
  C  C1657  1  0.761300  0.122800  0.515580  1.0
  C  C1658  1  0.122800  0.761300  0.984420  1.0
  C  C1659  1  0.238700  0.361500  0.984420  1.0
  C  C1660  1  0.638500  0.877200  0.984420  1.0
  C  C1661  1  0.593200  0.740800  0.481570  1.0
  C  C1662  1  0.147600  0.406800  0.481570  1.0
  C  C1663  1  0.259200  0.852400  0.481570  1.0
  C  C1664  1  0.852400  0.259200  0.018430  1.0
  C  C1665  1  0.740800  0.593200  0.018430  1.0
  C  C1666  1  0.406800  0.147600  0.018430  1.0
  C  C1667  1  0.406800  0.259200  0.518430  1.0
  C  C1668  1  0.852400  0.593200  0.518430  1.0
  C  C1669  1  0.740800  0.147600  0.518430  1.0
  C  C1670  1  0.147600  0.740800  0.981570  1.0
  C  C1671  1  0.259200  0.406800  0.981570  1.0
  C  C1672  1  0.593200  0.852400  0.981570  1.0
  C  C1673  1  0.571600  0.763900  0.487700  1.0
  C  C1674  1  0.192300  0.428400  0.487700  1.0
  C  C1675  1  0.236100  0.807700  0.487700  1.0
  C  C1676  1  0.807700  0.236100  0.012300  1.0
  C  C1677  1  0.763900  0.571600  0.012300  1.0
  C  C1678  1  0.428400  0.192300  0.012300  1.0
  C  C1679  1  0.428400  0.236100  0.512300  1.0
  C  C1680  1  0.807700  0.571600  0.512300  1.0
  C  C1681  1  0.763900  0.192300  0.512300  1.0
  C  C1682  1  0.192300  0.763900  0.987700  1.0
  C  C1683  1  0.236100  0.428400  0.987700  1.0
  C  C1684  1  0.571600  0.807700  0.987700  1.0
  C  C1685  1  0.595400  0.807600  0.496670  1.0
  C  C1686  1  0.212200  0.404600  0.496670  1.0
  C  C1687  1  0.192400  0.787800  0.496670  1.0
  C  C1688  1  0.787800  0.192400  0.003330  1.0
  C  C1689  1  0.807600  0.595400  0.003330  1.0
  C  C1690  1  0.404600  0.212200  0.003330  1.0
  C  C1691  1  0.404600  0.192400  0.503330  1.0
  C  C1692  1  0.787800  0.595400  0.503330  1.0
  C  C1693  1  0.807600  0.212200  0.503330  1.0
  C  C1694  1  0.212200  0.807600  0.996670  1.0
  C  C1695  1  0.192400  0.404600  0.996670  1.0
  C  C1696  1  0.595400  0.787800  0.996670  1.0
  C  C1697  1  0.640700  0.828100  0.499520  1.0
  C  C1698  1  0.187400  0.359300  0.499520  1.0
  C  C1699  1  0.171900  0.812600  0.499520  1.0
  C  C1700  1  0.812600  0.171900  0.000480  1.0
  C  C1701  1  0.828100  0.640700  0.000480  1.0
  C  C1702  1  0.359300  0.187400  0.000480  1.0
  C  C1703  1  0.359300  0.171900  0.500480  1.0
  C  C1704  1  0.812600  0.640700  0.500480  1.0
  C  C1705  1  0.828100  0.187400  0.500480  1.0
  C  C1706  1  0.187400  0.828100  0.999520  1.0
  C  C1707  1  0.171900  0.359300  0.999520  1.0
  C  C1708  1  0.640700  0.812600  0.999520  1.0
  C  C1709  1  0.662300  0.805000  0.493400  1.0
  C  C1710  1  0.142700  0.337700  0.493400  1.0
  C  C1711  1  0.195000  0.857300  0.493400  1.0
  C  C1712  1  0.857300  0.195000  0.006600  1.0
  C  C1713  1  0.805000  0.662300  0.006600  1.0
  C  C1714  1  0.337700  0.142700  0.006600  1.0
  C  C1715  1  0.337700  0.195000  0.506600  1.0
  C  C1716  1  0.857300  0.662300  0.506600  1.0
  C  C1717  1  0.805000  0.142700  0.506600  1.0
  C  C1718  1  0.142700  0.805000  0.993400  1.0
  C  C1719  1  0.195000  0.337700  0.993400  1.0
  C  C1720  1  0.662300  0.857300  0.993400  1.0
  C  C1721  1  0.571100  0.832900  0.499500  1.0
  C  C1722  1  0.261800  0.428900  0.499500  1.0
  C  C1723  1  0.167100  0.738200  0.499500  1.0
  C  C1724  1  0.738200  0.167100  0.000500  1.0
  C  C1725  1  0.832900  0.571100  0.000500  1.0
  C  C1726  1  0.428900  0.261800  0.000500  1.0
  C  C1727  1  0.428900  0.167100  0.500500  1.0
  C  C1728  1  0.738200  0.571100  0.500500  1.0
  C  C1729  1  0.832900  0.261800  0.500500  1.0
  C  C1730  1  0.261800  0.832900  0.999500  1.0
  C  C1731  1  0.167100  0.428900  0.999500  1.0
  C  C1732  1  0.571100  0.738200  0.999500  1.0
  C  C1733  1  0.558100  0.837500  0.529800  1.0
  C  C1734  1  0.279400  0.441900  0.529800  1.0
  C  C1735  1  0.162500  0.720600  0.529800  1.0
  C  C1736  1  0.720600  0.162500  0.970200  1.0
  C  C1737  1  0.837500  0.558100  0.970200  1.0
  C  C1738  1  0.441900  0.279400  0.970200  1.0
  C  C1739  1  0.441900  0.162500  0.470200  1.0
  C  C1740  1  0.720600  0.558100  0.470200  1.0
  C  C1741  1  0.837500  0.279400  0.470200  1.0
  C  C1742  1  0.279400  0.837500  0.029800  1.0
  C  C1743  1  0.162500  0.441900  0.029800  1.0
  C  C1744  1  0.558100  0.720600  0.029800  1.0
  C  C1745  1  0.565500  0.820400  0.559100  1.0
  C  C1746  1  0.254900  0.434500  0.559100  1.0
  C  C1747  1  0.179600  0.745100  0.559100  1.0
  C  C1748  1  0.745100  0.179600  0.940900  1.0
  C  C1749  1  0.820400  0.565500  0.940900  1.0
  C  C1750  1  0.434500  0.254900  0.940900  1.0
  C  C1751  1  0.434500  0.179600  0.440900  1.0
  C  C1752  1  0.745100  0.565500  0.440900  1.0
  C  C1753  1  0.820400  0.254900  0.440900  1.0
  C  C1754  1  0.254900  0.820400  0.059100  1.0
  C  C1755  1  0.179600  0.434500  0.059100  1.0
  C  C1756  1  0.565500  0.745100  0.059100  1.0
  C  C1757  1  0.547700  0.831900  0.582300  1.0
  C  C1758  1  0.284200  0.452300  0.582300  1.0
  C  C1759  1  0.168100  0.715800  0.582300  1.0
  C  C1760  1  0.715800  0.168100  0.917700  1.0
  C  C1761  1  0.831900  0.547700  0.917700  1.0
  C  C1762  1  0.452300  0.284200  0.917700  1.0
  C  C1763  1  0.452300  0.168100  0.417700  1.0
  C  C1764  1  0.715800  0.547700  0.417700  1.0
  C  C1765  1  0.831900  0.284200  0.417700  1.0
  C  C1766  1  0.284200  0.831900  0.082300  1.0
  C  C1767  1  0.168100  0.452300  0.082300  1.0
  C  C1768  1  0.547700  0.715800  0.082300  1.0
  C  C1769  1  0.532400  0.859400  0.568200  1.0
  C  C1770  1  0.327000  0.467600  0.568200  1.0
  C  C1771  1  0.140600  0.673000  0.568200  1.0
  C  C1772  1  0.673000  0.140600  0.931800  1.0
  C  C1773  1  0.859400  0.532400  0.931800  1.0
  C  C1774  1  0.467600  0.327000  0.931800  1.0
  C  C1775  1  0.467600  0.140600  0.431800  1.0
  C  C1776  1  0.673000  0.532400  0.431800  1.0
  C  C1777  1  0.859400  0.327000  0.431800  1.0
  C  C1778  1  0.327000  0.859400  0.068200  1.0
  C  C1779  1  0.140600  0.467600  0.068200  1.0
  C  C1780  1  0.532400  0.673000  0.068200  1.0
  C  C1781  1  0.511900  0.880600  0.583200  1.0
  C  C1782  1  0.368700  0.488100  0.583200  1.0
  C  C1783  1  0.119400  0.631300  0.583200  1.0
  C  C1784  1  0.631300  0.119400  0.916800  1.0
  C  C1785  1  0.880600  0.511900  0.916800  1.0
  C  C1786  1  0.488100  0.368700  0.916800  1.0
  C  C1787  1  0.488100  0.119400  0.416800  1.0
  C  C1788  1  0.631300  0.511900  0.416800  1.0
  C  C1789  1  0.880600  0.368700  0.416800  1.0
  C  C1790  1  0.368700  0.880600  0.083200  1.0
  C  C1791  1  0.119400  0.488100  0.083200  1.0
  C  C1792  1  0.511900  0.631300  0.083200  1.0
  C  C1793  1  0.492600  0.903600  0.570700  1.0
  C  C1794  1  0.411000  0.507400  0.570700  1.0
  C  C1795  1  0.096400  0.589000  0.570700  1.0
  C  C1796  1  0.589000  0.096400  0.929300  1.0
  C  C1797  1  0.903600  0.492600  0.929300  1.0
  C  C1798  1  0.507400  0.411000  0.929300  1.0
  C  C1799  1  0.507400  0.096400  0.429300  1.0
  C  C1800  1  0.589000  0.492600  0.429300  1.0
  C  C1801  1  0.903600  0.411000  0.429300  1.0
  C  C1802  1  0.411000  0.903600  0.070700  1.0
  C  C1803  1  0.096400  0.507400  0.070700  1.0
  C  C1804  1  0.492600  0.589000  0.070700  1.0
  C  C1805  1  0.474500  0.922100  0.591200  1.0
  C  C1806  1  0.447600  0.525500  0.591200  1.0
  C  C1807  1  0.077900  0.552400  0.591200  1.0
  C  C1808  1  0.552400  0.077900  0.908800  1.0
  C  C1809  1  0.922100  0.474500  0.908800  1.0
  C  C1810  1  0.525500  0.447600  0.908800  1.0
  C  C1811  1  0.525500  0.077900  0.408800  1.0
  C  C1812  1  0.552400  0.474500  0.408800  1.0
  C  C1813  1  0.922100  0.447600  0.408800  1.0
  C  C1814  1  0.447600  0.922100  0.091200  1.0
  C  C1815  1  0.077900  0.525500  0.091200  1.0
  C  C1816  1  0.474500  0.552400  0.091200  1.0
  C  C1817  1  0.454100  0.936600  0.571700  1.0
  C  C1818  1  0.482500  0.545900  0.571700  1.0
  C  C1819  1  0.063400  0.517500  0.571700  1.0
  C  C1820  1  0.517500  0.063400  0.928300  1.0
  C  C1821  1  0.936600  0.454100  0.928300  1.0
  C  C1822  1  0.545900  0.482500  0.928300  1.0
  C  C1823  1  0.545900  0.063400  0.428300  1.0
  C  C1824  1  0.517500  0.454100  0.428300  1.0
  C  C1825  1  0.936600  0.482500  0.428300  1.0
  C  C1826  1  0.482500  0.936600  0.071700  1.0
  C  C1827  1  0.063400  0.545900  0.071700  1.0
  C  C1828  1  0.454100  0.517500  0.071700  1.0
  C  C1829  1  0.459600  0.927300  0.539900  1.0
  C  C1830  1  0.467700  0.540400  0.539900  1.0
  C  C1831  1  0.072700  0.532300  0.539900  1.0
  C  C1832  1  0.532300  0.072700  0.960100  1.0
  C  C1833  1  0.927300  0.459600  0.960100  1.0
  C  C1834  1  0.540400  0.467700  0.960100  1.0
  C  C1835  1  0.540400  0.072700  0.460100  1.0
  C  C1836  1  0.532300  0.459600  0.460100  1.0
  C  C1837  1  0.927300  0.467700  0.460100  1.0
  C  C1838  1  0.467700  0.927300  0.039900  1.0
  C  C1839  1  0.072700  0.540400  0.039900  1.0
  C  C1840  1  0.459600  0.532300  0.039900  1.0
  C  C1841  1  0.446000  0.935400  0.511900  1.0
  C  C1842  1  0.489400  0.554000  0.511900  1.0
  C  C1843  1  0.064600  0.510600  0.511900  1.0
  C  C1844  1  0.510600  0.064600  0.988100  1.0
  C  C1845  1  0.935400  0.446000  0.988100  1.0
  C  C1846  1  0.554000  0.489400  0.988100  1.0
  C  C1847  1  0.554000  0.064600  0.488100  1.0
  C  C1848  1  0.510600  0.446000  0.488100  1.0
  C  C1849  1  0.935400  0.489400  0.488100  1.0
  C  C1850  1  0.489400  0.935400  0.011900  1.0
  C  C1851  1  0.064600  0.554000  0.011900  1.0
  C  C1852  1  0.446000  0.510600  0.011900  1.0
  C  C1853  1  0.455700  0.928700  0.481400  1.0
  C  C1854  1  0.473000  0.544300  0.481400  1.0
  C  C1855  1  0.071300  0.527000  0.481400  1.0
  C  C1856  1  0.527000  0.071300  0.018600  1.0
  C  C1857  1  0.928700  0.455700  0.018600  1.0
  C  C1858  1  0.544300  0.473000  0.018600  1.0
  C  C1859  1  0.544300  0.071300  0.518600  1.0
  C  C1860  1  0.527000  0.455700  0.518600  1.0
  C  C1861  1  0.928700  0.473000  0.518600  1.0
  C  C1862  1  0.473000  0.928700  0.981400  1.0
  C  C1863  1  0.071300  0.544300  0.981400  1.0
  C  C1864  1  0.455700  0.527000  0.981400  1.0
  C  C1865  1  0.443400  0.939800  0.453100  1.0
  C  C1866  1  0.496400  0.556600  0.453100  1.0
  C  C1867  1  0.060200  0.503600  0.453100  1.0
  C  C1868  1  0.503600  0.060200  0.046900  1.0
  C  C1869  1  0.939800  0.443400  0.046900  1.0
  C  C1870  1  0.556600  0.496400  0.046900  1.0
  C  C1871  1  0.556600  0.060200  0.546900  1.0
  C  C1872  1  0.503600  0.443400  0.546900  1.0
  C  C1873  1  0.939800  0.496400  0.546900  1.0
  C  C1874  1  0.496400  0.939800  0.953100  1.0
  C  C1875  1  0.060200  0.556600  0.953100  1.0
  C  C1876  1  0.443400  0.503600  0.953100  1.0
  C  C1877  1  0.465200  0.931000  0.430400  1.0
  C  C1878  1  0.465800  0.534800  0.430400  1.0
  C  C1879  1  0.069000  0.534200  0.430400  1.0
  C  C1880  1  0.534200  0.069000  0.069600  1.0
  C  C1881  1  0.931000  0.465200  0.069600  1.0
  C  C1882  1  0.534800  0.465800  0.069600  1.0
  C  C1883  1  0.534800  0.069000  0.569600  1.0
  C  C1884  1  0.534200  0.465200  0.569600  1.0
  C  C1885  1  0.931000  0.465800  0.569600  1.0
  C  C1886  1  0.465800  0.931000  0.930400  1.0
  C  C1887  1  0.069000  0.534800  0.930400  1.0
  C  C1888  1  0.465200  0.534200  0.930400  1.0
  C  C1889  1  0.489400  0.912800  0.444800  1.0
  C  C1890  1  0.423400  0.510600  0.444800  1.0
  C  C1891  1  0.087200  0.576600  0.444800  1.0
  C  C1892  1  0.576600  0.087200  0.055200  1.0
  C  C1893  1  0.912800  0.489400  0.055200  1.0
  C  C1894  1  0.510600  0.423400  0.055200  1.0
  C  C1895  1  0.510600  0.087200  0.555200  1.0
  C  C1896  1  0.576600  0.489400  0.555200  1.0
  C  C1897  1  0.912800  0.423400  0.555200  1.0
  C  C1898  1  0.423400  0.912800  0.944800  1.0
  C  C1899  1  0.087200  0.510600  0.944800  1.0
  C  C1900  1  0.489400  0.576600  0.944800  1.0
  C  C1901  1  0.516100  0.900100  0.429700  1.0
  C  C1902  1  0.384000  0.483900  0.429700  1.0
  C  C1903  1  0.099900  0.616000  0.429700  1.0
  C  C1904  1  0.616000  0.099900  0.070300  1.0
  C  C1905  1  0.900100  0.516100  0.070300  1.0
  C  C1906  1  0.483900  0.384000  0.070300  1.0
  C  C1907  1  0.483900  0.099900  0.570300  1.0
  C  C1908  1  0.616000  0.516100  0.570300  1.0
  C  C1909  1  0.900100  0.384000  0.570300  1.0
  C  C1910  1  0.384000  0.900100  0.929700  1.0
  C  C1911  1  0.099900  0.483900  0.929700  1.0
  C  C1912  1  0.516100  0.616000  0.929700  1.0
  C  C1913  1  0.538700  0.880200  0.441300  1.0
  C  C1914  1  0.341500  0.461300  0.441300  1.0
  C  C1915  1  0.119800  0.658500  0.441300  1.0
  C  C1916  1  0.658500  0.119800  0.058700  1.0
  C  C1917  1  0.880200  0.538700  0.058700  1.0
  C  C1918  1  0.461300  0.341500  0.058700  1.0
  C  C1919  1  0.461300  0.119800  0.558700  1.0
  C  C1920  1  0.658500  0.538700  0.558700  1.0
  C  C1921  1  0.880200  0.341500  0.558700  1.0
  C  C1922  1  0.341500  0.880200  0.941300  1.0
  C  C1923  1  0.119800  0.461300  0.941300  1.0
  C  C1924  1  0.538700  0.658500  0.941300  1.0
  C  C1925  1  0.565400  0.869100  0.422300  1.0
  C  C1926  1  0.303700  0.434600  0.422300  1.0
  C  C1927  1  0.130900  0.696300  0.422300  1.0
  C  C1928  1  0.696300  0.130900  0.077700  1.0
  C  C1929  1  0.869100  0.565400  0.077700  1.0
  C  C1930  1  0.434600  0.303700  0.077700  1.0
  C  C1931  1  0.434600  0.130900  0.577700  1.0
  C  C1932  1  0.696300  0.565400  0.577700  1.0
  C  C1933  1  0.869100  0.303700  0.577700  1.0
  C  C1934  1  0.303700  0.869100  0.922300  1.0
  C  C1935  1  0.130900  0.434600  0.922300  1.0
  C  C1936  1  0.565400  0.696300  0.922300  1.0
  C  C1937  1  0.580400  0.848500  0.442300  1.0
  C  C1938  1  0.268100  0.419600  0.442300  1.0
  C  C1939  1  0.151500  0.731900  0.442300  1.0
  C  C1940  1  0.731900  0.151500  0.057700  1.0
  C  C1941  1  0.848500  0.580400  0.057700  1.0
  C  C1942  1  0.419600  0.268100  0.057700  1.0
  C  C1943  1  0.419600  0.151500  0.557700  1.0
  C  C1944  1  0.731900  0.580400  0.557700  1.0
  C  C1945  1  0.848500  0.268100  0.557700  1.0
  C  C1946  1  0.268100  0.848500  0.942300  1.0
  C  C1947  1  0.151500  0.419600  0.942300  1.0
  C  C1948  1  0.580400  0.731900  0.942300  1.0
  C  C1949  1  0.563900  0.850200  0.472500  1.0
  C  C1950  1  0.286300  0.436100  0.472500  1.0
  C  C1951  1  0.149800  0.713700  0.472500  1.0
  C  C1952  1  0.713700  0.149800  0.027500  1.0
  C  C1953  1  0.850200  0.563900  0.027500  1.0
  C  C1954  1  0.436100  0.286300  0.027500  1.0
  C  C1955  1  0.436100  0.149800  0.527500  1.0
  C  C1956  1  0.713700  0.563900  0.527500  1.0
  C  C1957  1  0.850200  0.286300  0.527500  1.0
  C  C1958  1  0.286300  0.850200  0.972500  1.0
  C  C1959  1  0.149800  0.436100  0.972500  1.0
  C  C1960  1  0.563900  0.713700  0.972500  1.0
  C  C1961  1  0.414300  0.952600  0.515000  1.0
  C  C1962  1  0.538300  0.585700  0.515000  1.0
  C  C1963  1  0.047400  0.461700  0.515000  1.0
  C  C1964  1  0.461700  0.047400  0.985000  1.0
  C  C1965  1  0.952600  0.414300  0.985000  1.0
  C  C1966  1  0.585700  0.538300  0.985000  1.0
  C  C1967  1  0.585700  0.047400  0.485000  1.0
  C  C1968  1  0.461700  0.414300  0.485000  1.0
  C  C1969  1  0.952600  0.538300  0.485000  1.0
  C  C1970  1  0.538300  0.952600  0.015000  1.0
  C  C1971  1  0.047400  0.585700  0.015000  1.0
  C  C1972  1  0.414300  0.461700  0.015000  1.0
  C  C1973  1  0.428600  0.997200  0.513500  1.0
  C  C1974  1  0.568600  0.571400  0.513500  1.0
  C  C1975  1  0.002800  0.431400  0.513500  1.0
  C  C1976  1  0.431400  0.002800  0.986500  1.0
  C  C1977  1  0.997200  0.428600  0.986500  1.0
  C  C1978  1  0.571400  0.568600  0.986500  1.0
  C  C1979  1  0.571400  0.002800  0.486500  1.0
  C  C1980  1  0.431400  0.428600  0.486500  1.0
  C  C1981  1  0.997200  0.568600  0.486500  1.0
  C  C1982  1  0.568600  0.997200  0.013500  1.0
  C  C1983  1  0.002800  0.571400  0.013500  1.0
  C  C1984  1  0.428600  0.431400  0.013500  1.0
  C  C1985  1  0.399000  0.012000  0.517400  1.0
  C  C1986  1  0.613000  0.601000  0.517400  1.0
  C  C1987  1  0.988000  0.387000  0.517400  1.0
  C  C1988  1  0.387000  0.988000  0.982600  1.0
  C  C1989  1  0.012000  0.399000  0.982600  1.0
  C  C1990  1  0.601000  0.613000  0.982600  1.0
  C  C1991  1  0.601000  0.988000  0.482600  1.0
  C  C1992  1  0.387000  0.399000  0.482600  1.0
  C  C1993  1  0.012000  0.613000  0.482600  1.0
  C  C1994  1  0.613000  0.012000  0.017400  1.0
  C  C1995  1  0.988000  0.601000  0.017400  1.0
  C  C1996  1  0.399000  0.387000  0.017400  1.0
  C  C1997  1  0.355000  0.982100  0.522800  1.0
  C  C1998  1  0.627100  0.645000  0.522800  1.0
  C  C1999  1  0.017900  0.372900  0.522800  1.0
  C  C2000  1  0.372900  0.017900  0.977200  1.0
  C  C2001  1  0.982100  0.355000  0.977200  1.0
  C  C2002  1  0.645000  0.627100  0.977200  1.0
  C  C2003  1  0.645000  0.017900  0.477200  1.0
  C  C2004  1  0.372900  0.355000  0.477200  1.0
  C  C2005  1  0.982100  0.627100  0.477200  1.0
  C  C2006  1  0.627100  0.982100  0.022800  1.0
  C  C2007  1  0.017900  0.645000  0.022800  1.0
  C  C2008  1  0.355000  0.372900  0.022800  1.0
  C  C2009  1  0.340600  0.937500  0.524200  1.0
  C  C2010  1  0.596900  0.659400  0.524200  1.0
  C  C2011  1  0.062500  0.403100  0.524200  1.0
  C  C2012  1  0.403100  0.062500  0.975800  1.0
  C  C2013  1  0.937500  0.340600  0.975800  1.0
  C  C2014  1  0.659400  0.596900  0.975800  1.0
  C  C2015  1  0.659400  0.062500  0.475800  1.0
  C  C2016  1  0.403100  0.340600  0.475800  1.0
  C  C2017  1  0.937500  0.596900  0.475800  1.0
  C  C2018  1  0.596900  0.937500  0.024200  1.0
  C  C2019  1  0.062500  0.659400  0.024200  1.0
  C  C2020  1  0.340600  0.403100  0.024200  1.0
  C  C2021  1  0.370300  0.922800  0.520300  1.0
  C  C2022  1  0.552500  0.629700  0.520300  1.0
  C  C2023  1  0.077200  0.447500  0.520300  1.0
  C  C2024  1  0.447500  0.077200  0.979700  1.0
  C  C2025  1  0.922800  0.370300  0.979700  1.0
  C  C2026  1  0.629700  0.552500  0.979700  1.0
  C  C2027  1  0.629700  0.077200  0.479700  1.0
  C  C2028  1  0.447500  0.370300  0.479700  1.0
  C  C2029  1  0.922800  0.552500  0.479700  1.0
  C  C2030  1  0.552500  0.922800  0.020300  1.0
  C  C2031  1  0.077200  0.629700  0.020300  1.0
  C  C2032  1  0.370300  0.447500  0.020300  1.0
  C  C2033  1  0.332600  0.028900  0.544100  1.0
  C  C2034  1  0.696300  0.667400  0.544100  1.0
  C  C2035  1  0.971100  0.303700  0.544100  1.0
  C  C2036  1  0.303700  0.971100  0.955900  1.0
  C  C2037  1  0.028900  0.332600  0.955900  1.0
  C  C2038  1  0.667400  0.696300  0.955900  1.0
  C  C2039  1  0.667400  0.971100  0.455900  1.0
  C  C2040  1  0.303700  0.332600  0.455900  1.0
  C  C2041  1  0.028900  0.696300  0.455900  1.0
  C  C2042  1  0.696300  0.028900  0.044100  1.0
  C  C2043  1  0.971100  0.667400  0.044100  1.0
  C  C2044  1  0.332600  0.303700  0.044100  1.0
  C  C2045  1  0.304600  0.047700  0.546600  1.0
  C  C2046  1  0.743100  0.695400  0.546600  1.0
  C  C2047  1  0.952300  0.256900  0.546600  1.0
  C  C2048  1  0.256900  0.952300  0.953400  1.0
  C  C2049  1  0.047700  0.304600  0.953400  1.0
  C  C2050  1  0.695400  0.743100  0.953400  1.0
  C  C2051  1  0.695400  0.952300  0.453400  1.0
  C  C2052  1  0.256900  0.304600  0.453400  1.0
  C  C2053  1  0.047700  0.743100  0.453400  1.0
  C  C2054  1  0.743100  0.047700  0.046600  1.0
  C  C2055  1  0.952300  0.695400  0.046600  1.0
  C  C2056  1  0.304600  0.256900  0.046600  1.0
  C  C2057  1  0.309700  0.074000  0.571700  1.0
  C  C2058  1  0.764300  0.690300  0.571700  1.0
  C  C2059  1  0.926000  0.235700  0.571700  1.0
  C  C2060  1  0.235700  0.926000  0.928300  1.0
  C  C2061  1  0.074000  0.309700  0.928300  1.0
  C  C2062  1  0.690300  0.764300  0.928300  1.0
  C  C2063  1  0.690300  0.926000  0.428300  1.0
  C  C2064  1  0.235700  0.309700  0.428300  1.0
  C  C2065  1  0.074000  0.764300  0.428300  1.0
  C  C2066  1  0.764300  0.074000  0.071700  1.0
  C  C2067  1  0.926000  0.690300  0.071700  1.0
  C  C2068  1  0.309700  0.235700  0.071700  1.0
  C  C2069  1  0.282600  0.091600  0.573900  1.0
  C  C2070  1  0.809000  0.717400  0.573900  1.0
  C  C2071  1  0.908400  0.191000  0.573900  1.0
  C  C2072  1  0.191000  0.908400  0.926100  1.0
  C  C2073  1  0.091600  0.282600  0.926100  1.0
  C  C2074  1  0.717400  0.809000  0.926100  1.0
  C  C2075  1  0.717400  0.908400  0.426100  1.0
  C  C2076  1  0.191000  0.282600  0.426100  1.0
  C  C2077  1  0.091600  0.809000  0.426100  1.0
  C  C2078  1  0.809000  0.091600  0.073900  1.0
  C  C2079  1  0.908400  0.717400  0.073900  1.0
  C  C2080  1  0.282600  0.191000  0.073900  1.0
  C  C2081  1  0.252600  0.083700  0.550700  1.0
  C  C2082  1  0.831100  0.747400  0.550700  1.0
  C  C2083  1  0.916300  0.168900  0.550700  1.0
  C  C2084  1  0.168900  0.916300  0.949300  1.0
  C  C2085  1  0.083700  0.252600  0.949300  1.0
  C  C2086  1  0.747400  0.831100  0.949300  1.0
  C  C2087  1  0.747400  0.916300  0.449300  1.0
  C  C2088  1  0.168900  0.252600  0.449300  1.0
  C  C2089  1  0.083700  0.831100  0.449300  1.0
  C  C2090  1  0.831100  0.083700  0.050700  1.0
  C  C2091  1  0.916300  0.747400  0.050700  1.0
  C  C2092  1  0.252600  0.168900  0.050700  1.0
  C  C2093  1  0.249600  0.057000  0.526100  1.0
  C  C2094  1  0.807400  0.750400  0.526100  1.0
  C  C2095  1  0.943000  0.192600  0.526100  1.0
  C  C2096  1  0.192600  0.943000  0.973900  1.0
  C  C2097  1  0.057000  0.249600  0.973900  1.0
  C  C2098  1  0.750400  0.807400  0.973900  1.0
  C  C2099  1  0.750400  0.943000  0.473900  1.0
  C  C2100  1  0.192600  0.249600  0.473900  1.0
  C  C2101  1  0.057000  0.807400  0.473900  1.0
  C  C2102  1  0.807400  0.057000  0.026100  1.0
  C  C2103  1  0.943000  0.750400  0.026100  1.0
  C  C2104  1  0.249600  0.192600  0.026100  1.0
  C  C2105  1  0.586100  0.791800  0.564300  1.0
  C  C2106  1  0.205700  0.413900  0.564300  1.0
  C  C2107  1  0.208200  0.794300  0.564300  1.0
  C  C2108  1  0.794300  0.208200  0.935700  1.0
  C  C2109  1  0.791800  0.586100  0.935700  1.0
  C  C2110  1  0.413900  0.205700  0.935700  1.0
  C  C2111  1  0.413900  0.208200  0.435700  1.0
  C  C2112  1  0.794300  0.586100  0.435700  1.0
  C  C2113  1  0.791800  0.205700  0.435700  1.0
  C  C2114  1  0.205700  0.791800  0.064300  1.0
  C  C2115  1  0.208200  0.413900  0.064300  1.0
  C  C2116  1  0.586100  0.794300  0.064300  1.0
  C  C2117  1  0.543300  0.820200  0.616500  1.0
  C  C2118  1  0.276900  0.456700  0.616500  1.0
  C  C2119  1  0.179800  0.723100  0.616500  1.0
  C  C2120  1  0.723100  0.179800  0.883500  1.0
  C  C2121  1  0.820200  0.543300  0.883500  1.0
  C  C2122  1  0.456700  0.276900  0.883500  1.0
  C  C2123  1  0.456700  0.179800  0.383500  1.0
  C  C2124  1  0.723100  0.543300  0.383500  1.0
  C  C2125  1  0.820200  0.276900  0.383500  1.0
  C  C2126  1  0.276900  0.820200  0.116500  1.0
  C  C2127  1  0.179800  0.456700  0.116500  1.0
  C  C2128  1  0.543300  0.723100  0.116500  1.0
  C  C2129  1  0.582100  0.850300  0.633500  1.0
  C  C2130  1  0.268200  0.417900  0.633500  1.0
  C  C2131  1  0.149700  0.731800  0.633500  1.0
  C  C2132  1  0.731800  0.149700  0.866500  1.0
  C  C2133  1  0.850300  0.582100  0.866500  1.0
  C  C2134  1  0.417900  0.268200  0.866500  1.0
  C  C2135  1  0.417900  0.149700  0.366500  1.0
  C  C2136  1  0.731800  0.582100  0.366500  1.0
  C  C2137  1  0.850300  0.268200  0.366500  1.0
  C  C2138  1  0.268200  0.850300  0.133500  1.0
  C  C2139  1  0.149700  0.417900  0.133500  1.0
  C  C2140  1  0.582100  0.731800  0.133500  1.0
  C  C2141  1  0.474100  0.922600  0.626300  1.0
  C  C2142  1  0.448500  0.525900  0.626300  1.0
  C  C2143  1  0.077400  0.551500  0.626300  1.0
  C  C2144  1  0.551500  0.077400  0.873700  1.0
  C  C2145  1  0.922600  0.474100  0.873700  1.0
  C  C2146  1  0.525900  0.448500  0.873700  1.0
  C  C2147  1  0.525900  0.077400  0.373700  1.0
  C  C2148  1  0.551500  0.474100  0.373700  1.0
  C  C2149  1  0.922600  0.448500  0.373700  1.0
  C  C2150  1  0.448500  0.922600  0.126300  1.0
  C  C2151  1  0.077400  0.525900  0.126300  1.0
  C  C2152  1  0.474100  0.551500  0.126300  1.0
  C  C2153  1  0.429100  0.891000  0.639300  1.0
  C  C2154  1  0.461900  0.570900  0.639300  1.0
  C  C2155  1  0.109000  0.538100  0.639300  1.0
  C  C2156  1  0.538100  0.109000  0.860700  1.0
  C  C2157  1  0.891000  0.429100  0.860700  1.0
  C  C2158  1  0.570900  0.461900  0.860700  1.0
  C  C2159  1  0.570900  0.109000  0.360700  1.0
  C  C2160  1  0.538100  0.429100  0.360700  1.0
  C  C2161  1  0.891000  0.461900  0.360700  1.0
  C  C2162  1  0.461900  0.891000  0.139300  1.0
  C  C2163  1  0.109000  0.570900  0.139300  1.0
  C  C2164  1  0.429100  0.538100  0.139300  1.0
  C  C2165  1  0.430200  0.960400  0.582200  1.0
  C  C2166  1  0.530200  0.569800  0.582200  1.0
  C  C2167  1  0.039600  0.469800  0.582200  1.0
  C  C2168  1  0.469800  0.039600  0.917800  1.0
  C  C2169  1  0.960400  0.430200  0.917800  1.0
  C  C2170  1  0.569800  0.530200  0.917800  1.0
  C  C2171  1  0.569800  0.039600  0.417800  1.0
  C  C2172  1  0.469800  0.430200  0.417800  1.0
  C  C2173  1  0.960400  0.530200  0.417800  1.0
  C  C2174  1  0.530200  0.960400  0.082200  1.0
  C  C2175  1  0.039600  0.569800  0.082200  1.0
  C  C2176  1  0.430200  0.469800  0.082200  1.0
  C  C2177  1  0.415500  0.960400  0.446300  1.0
  C  C2178  1  0.544900  0.584500  0.446300  1.0
  C  C2179  1  0.039600  0.455100  0.446300  1.0
  C  C2180  1  0.455100  0.039600  0.053700  1.0
  C  C2181  1  0.960400  0.415500  0.053700  1.0
  C  C2182  1  0.584500  0.544900  0.053700  1.0
  C  C2183  1  0.584500  0.039600  0.553700  1.0
  C  C2184  1  0.455100  0.415500  0.553700  1.0
  C  C2185  1  0.960400  0.544900  0.553700  1.0
  C  C2186  1  0.544900  0.960400  0.946300  1.0
  C  C2187  1  0.039600  0.584500  0.946300  1.0
  C  C2188  1  0.415500  0.455100  0.946300  1.0
  C  C2189  1  0.465200  0.938400  0.396600  1.0
  C  C2190  1  0.473200  0.534800  0.396600  1.0
  C  C2191  1  0.061600  0.526800  0.396600  1.0
  C  C2192  1  0.526800  0.061600  0.103400  1.0
  C  C2193  1  0.938400  0.465200  0.103400  1.0
  C  C2194  1  0.534800  0.473200  0.103400  1.0
  C  C2195  1  0.534800  0.061600  0.603400  1.0
  C  C2196  1  0.526800  0.465200  0.603400  1.0
  C  C2197  1  0.938400  0.473200  0.603400  1.0
  C  C2198  1  0.473200  0.938400  0.896600  1.0
  C  C2199  1  0.061600  0.534800  0.896600  1.0
  C  C2200  1  0.465200  0.526800  0.896600  1.0
  C  C2201  1  0.437700  0.896000  0.378800  1.0
  C  C2202  1  0.458300  0.562300  0.378800  1.0
  C  C2203  1  0.104000  0.541700  0.378800  1.0
  C  C2204  1  0.541700  0.104000  0.121200  1.0
  C  C2205  1  0.896000  0.437700  0.121200  1.0
  C  C2206  1  0.562300  0.458300  0.121200  1.0
  C  C2207  1  0.562300  0.104000  0.621200  1.0
  C  C2208  1  0.541700  0.437700  0.621200  1.0
  C  C2209  1  0.896000  0.458300  0.621200  1.0
  C  C2210  1  0.458300  0.896000  0.878800  1.0
  C  C2211  1  0.104000  0.562300  0.878800  1.0
  C  C2212  1  0.437700  0.541700  0.878800  1.0
  C  C2213  1  0.573500  0.876400  0.388800  1.0
  C  C2214  1  0.302900  0.426500  0.388800  1.0
  C  C2215  1  0.123600  0.697100  0.388800  1.0
  C  C2216  1  0.697100  0.123600  0.111200  1.0
  C  C2217  1  0.876400  0.573500  0.111200  1.0
  C  C2218  1  0.426500  0.302900  0.111200  1.0
  C  C2219  1  0.426500  0.123600  0.611200  1.0
  C  C2220  1  0.697100  0.573500  0.611200  1.0
  C  C2221  1  0.876400  0.302900  0.611200  1.0
  C  C2222  1  0.302900  0.876400  0.888800  1.0
  C  C2223  1  0.123600  0.426500  0.888800  1.0
  C  C2224  1  0.573500  0.697100  0.888800  1.0
  C  C2225  1  0.543700  0.837100  0.370000  1.0
  C  C2226  1  0.293400  0.456300  0.370000  1.0
  C  C2227  1  0.162900  0.706600  0.370000  1.0
  C  C2228  1  0.706600  0.162900  0.130000  1.0
  C  C2229  1  0.837100  0.543700  0.130000  1.0
  C  C2230  1  0.456300  0.293400  0.130000  1.0
  C  C2231  1  0.456300  0.162900  0.630000  1.0
  C  C2232  1  0.706600  0.543700  0.630000  1.0
  C  C2233  1  0.837100  0.293400  0.630000  1.0
  C  C2234  1  0.293400  0.837100  0.870000  1.0
  C  C2235  1  0.162900  0.456300  0.870000  1.0
  C  C2236  1  0.543700  0.706600  0.870000  1.0
  C  C2237  1  0.606500  0.828300  0.429300  1.0
  C  C2238  1  0.221800  0.393500  0.429300  1.0
  C  C2239  1  0.171700  0.778200  0.429300  1.0
  C  C2240  1  0.778200  0.171700  0.070700  1.0
  C  C2241  1  0.828300  0.606500  0.070700  1.0
  C  C2242  1  0.393500  0.221800  0.070700  1.0
  C  C2243  1  0.393500  0.171700  0.570700  1.0
  C  C2244  1  0.778200  0.606500  0.570700  1.0
  C  C2245  1  0.828300  0.221800  0.570700  1.0
  C  C2246  1  0.221800  0.828300  0.929300  1.0
  C  C2247  1  0.171700  0.393500  0.929300  1.0
  C  C2248  1  0.606500  0.778200  0.929300  1.0
  C  C2249  1  0.785200  0.807600  0.455100  1.0
  C  C2250  1  0.022400  0.214800  0.455100  1.0
  C  C2251  1  0.192400  0.977600  0.455100  1.0
  C  C2252  1  0.977600  0.192400  0.044900  1.0
  C  C2253  1  0.807600  0.785200  0.044900  1.0
  C  C2254  1  0.214800  0.022400  0.044900  1.0
  C  C2255  1  0.214800  0.192400  0.544900  1.0
  C  C2256  1  0.977600  0.785200  0.544900  1.0
  C  C2257  1  0.807600  0.022400  0.544900  1.0
  C  C2258  1  0.022400  0.807600  0.955100  1.0
  C  C2259  1  0.192400  0.214800  0.955100  1.0
  C  C2260  1  0.785200  0.977600  0.955100  1.0
  C  C2261  1  0.817300  0.849100  0.446300  1.0
  C  C2262  1  0.031800  0.182700  0.446300  1.0
  C  C2263  1  0.150900  0.968200  0.446300  1.0
  C  C2264  1  0.968200  0.150900  0.053700  1.0
  C  C2265  1  0.849100  0.817300  0.053700  1.0
  C  C2266  1  0.182700  0.031800  0.053700  1.0
  C  C2267  1  0.182700  0.150900  0.553700  1.0
  C  C2268  1  0.968200  0.817300  0.553700  1.0
  C  C2269  1  0.849100  0.031800  0.553700  1.0
  C  C2270  1  0.031800  0.849100  0.946300  1.0
  C  C2271  1  0.150900  0.182700  0.946300  1.0
  C  C2272  1  0.817300  0.968200  0.946300  1.0
  C  C2273  1  0.834100  0.881500  0.468400  1.0
  C  C2274  1  0.047400  0.165900  0.468400  1.0
  C  C2275  1  0.118500  0.952600  0.468400  1.0
  C  C2276  1  0.952600  0.118500  0.031600  1.0
  C  C2277  1  0.881500  0.834100  0.031600  1.0
  C  C2278  1  0.165900  0.047400  0.031600  1.0
  C  C2279  1  0.165900  0.118500  0.531600  1.0
  C  C2280  1  0.952600  0.834100  0.531600  1.0
  C  C2281  1  0.881500  0.047400  0.531600  1.0
  C  C2282  1  0.047400  0.881500  0.968400  1.0
  C  C2283  1  0.118500  0.165900  0.968400  1.0
  C  C2284  1  0.834100  0.952600  0.968400  1.0
  C  C2285  1  0.817500  0.872200  0.498000  1.0
  C  C2286  1  0.054700  0.182500  0.498000  1.0
  C  C2287  1  0.127800  0.945300  0.498000  1.0
  C  C2288  1  0.945300  0.127800  0.002000  1.0
  C  C2289  1  0.872200  0.817500  0.002000  1.0
  C  C2290  1  0.182500  0.054700  0.002000  1.0
  C  C2291  1  0.182500  0.127800  0.502000  1.0
  C  C2292  1  0.945300  0.817500  0.502000  1.0
  C  C2293  1  0.872200  0.054700  0.502000  1.0
  C  C2294  1  0.054700  0.872200  0.998000  1.0
  C  C2295  1  0.127800  0.182500  0.998000  1.0
  C  C2296  1  0.817500  0.945300  0.998000  1.0
  C  C2297  1  0.783400  0.830100  0.504700  1.0
  C  C2298  1  0.046700  0.216600  0.504700  1.0
  C  C2299  1  0.169900  0.953300  0.504700  1.0
  C  C2300  1  0.953300  0.169900  0.995300  1.0
  C  C2301  1  0.830100  0.783400  0.995300  1.0
  C  C2302  1  0.216600  0.046700  0.995300  1.0
  C  C2303  1  0.216600  0.169900  0.495300  1.0
  C  C2304  1  0.953300  0.783400  0.495300  1.0
  C  C2305  1  0.830100  0.046700  0.495300  1.0
  C  C2306  1  0.046700  0.830100  0.004700  1.0
  C  C2307  1  0.169900  0.216600  0.004700  1.0
  C  C2308  1  0.783400  0.953300  0.004700  1.0
  C  C2309  1  0.763000  0.818300  0.534900  1.0
  C  C2310  1  0.055300  0.237000  0.534900  1.0
  C  C2311  1  0.181700  0.944700  0.534900  1.0
  C  C2312  1  0.944700  0.181700  0.965100  1.0
  C  C2313  1  0.818300  0.763000  0.965100  1.0
  C  C2314  1  0.237000  0.055300  0.965100  1.0
  C  C2315  1  0.237000  0.181700  0.465100  1.0
  C  C2316  1  0.944700  0.763000  0.465100  1.0
  C  C2317  1  0.818300  0.055300  0.465100  1.0
  C  C2318  1  0.055300  0.818300  0.034900  1.0
  C  C2319  1  0.181700  0.237000  0.034900  1.0
  C  C2320  1  0.763000  0.944700  0.034900  1.0
  C  C2321  1  0.707000  0.769500  0.568570  1.0
  C  C2322  1  0.062500  0.293000  0.568570  1.0
  C  C2323  1  0.230500  0.937500  0.568570  1.0
  C  C2324  1  0.937500  0.230500  0.931430  1.0
  C  C2325  1  0.769500  0.707000  0.931430  1.0
  C  C2326  1  0.293000  0.062500  0.931430  1.0
  C  C2327  1  0.293000  0.230500  0.431430  1.0
  C  C2328  1  0.937500  0.707000  0.431430  1.0
  C  C2329  1  0.769500  0.062500  0.431430  1.0
  C  C2330  1  0.062500  0.769500  0.068570  1.0
  C  C2331  1  0.230500  0.293000  0.068570  1.0
  C  C2332  1  0.707000  0.937500  0.068570  1.0
  C  C2333  1  0.662600  0.756000  0.570070  1.0
  C  C2334  1  0.093400  0.337400  0.570070  1.0
  C  C2335  1  0.244000  0.906600  0.570070  1.0
  C  C2336  1  0.906600  0.244000  0.929930  1.0
  C  C2337  1  0.756000  0.662600  0.929930  1.0
  C  C2338  1  0.337400  0.093400  0.929930  1.0
  C  C2339  1  0.337400  0.244000  0.429930  1.0
  C  C2340  1  0.906600  0.662600  0.429930  1.0
  C  C2341  1  0.756000  0.093400  0.429930  1.0
  C  C2342  1  0.093400  0.756000  0.070070  1.0
  C  C2343  1  0.244000  0.337400  0.070070  1.0
  C  C2344  1  0.662600  0.906600  0.070070  1.0
  C  C2345  1  0.640600  0.742900  0.598100  1.0
  C  C2346  1  0.102300  0.359400  0.598100  1.0
  C  C2347  1  0.257100  0.897700  0.598100  1.0
  C  C2348  1  0.897700  0.257100  0.901900  1.0
  C  C2349  1  0.742900  0.640600  0.901900  1.0
  C  C2350  1  0.359400  0.102300  0.901900  1.0
  C  C2351  1  0.359400  0.257100  0.401900  1.0
  C  C2352  1  0.897700  0.640600  0.401900  1.0
  C  C2353  1  0.742900  0.102300  0.401900  1.0
  C  C2354  1  0.102300  0.742900  0.098100  1.0
  C  C2355  1  0.257100  0.359400  0.098100  1.0
  C  C2356  1  0.640600  0.897700  0.098100  1.0
  C  C2357  1  0.663000  0.743300  0.624600  1.0
  C  C2358  1  0.080300  0.337000  0.624600  1.0
  C  C2359  1  0.256700  0.919700  0.624600  1.0
  C  C2360  1  0.919700  0.256700  0.875400  1.0
  C  C2361  1  0.743300  0.663000  0.875400  1.0
  C  C2362  1  0.337000  0.080300  0.875400  1.0
  C  C2363  1  0.337000  0.256700  0.375400  1.0
  C  C2364  1  0.919700  0.663000  0.375400  1.0
  C  C2365  1  0.743300  0.080300  0.375400  1.0
  C  C2366  1  0.080300  0.743300  0.124600  1.0
  C  C2367  1  0.256700  0.337000  0.124600  1.0
  C  C2368  1  0.663000  0.919700  0.124600  1.0
  C  C2369  1  0.707400  0.756800  0.623110  1.0
  C  C2370  1  0.049400  0.292600  0.623110  1.0
  C  C2371  1  0.243200  0.950600  0.623110  1.0
  C  C2372  1  0.950600  0.243200  0.876890  1.0
  C  C2373  1  0.756800  0.707400  0.876890  1.0
  C  C2374  1  0.292600  0.049400  0.876890  1.0
  C  C2375  1  0.292600  0.243200  0.376890  1.0
  C  C2376  1  0.950600  0.707400  0.376890  1.0
  C  C2377  1  0.756800  0.049400  0.376890  1.0
  C  C2378  1  0.049400  0.756800  0.123110  1.0
  C  C2379  1  0.243200  0.292600  0.123110  1.0
  C  C2380  1  0.707400  0.950600  0.123110  1.0
  C  C2381  1  0.729400  0.770000  0.595100  1.0
  C  C2382  1  0.040600  0.270600  0.595100  1.0
  C  C2383  1  0.230000  0.959400  0.595100  1.0
  C  C2384  1  0.959400  0.230000  0.904900  1.0
  C  C2385  1  0.770000  0.729400  0.904900  1.0
  C  C2386  1  0.270600  0.040600  0.904900  1.0
  C  C2387  1  0.270600  0.230000  0.404900  1.0
  C  C2388  1  0.959400  0.729400  0.404900  1.0
  C  C2389  1  0.770000  0.040600  0.404900  1.0
  C  C2390  1  0.040600  0.770000  0.095100  1.0
  C  C2391  1  0.230000  0.270600  0.095100  1.0
  C  C2392  1  0.729400  0.959400  0.095100  1.0
  C  C2393  1  0.639700  0.730800  0.655300  1.0
  C  C2394  1  0.091100  0.360300  0.655300  1.0
  C  C2395  1  0.269200  0.908900  0.655300  1.0
  C  C2396  1  0.908900  0.269200  0.844700  1.0
  C  C2397  1  0.730800  0.639700  0.844700  1.0
  C  C2398  1  0.360300  0.091100  0.844700  1.0
  C  C2399  1  0.360300  0.269200  0.344700  1.0
  C  C2400  1  0.908900  0.639700  0.344700  1.0
  C  C2401  1  0.730800  0.091100  0.344700  1.0
  C  C2402  1  0.091100  0.730800  0.155300  1.0
  C  C2403  1  0.269200  0.360300  0.155300  1.0
  C  C2404  1  0.639700  0.908900  0.155300  1.0
  C  C2405  1  0.615900  0.685100  0.662200  1.0
  C  C2406  1  0.069200  0.384100  0.662200  1.0
  C  C2407  1  0.314900  0.930800  0.662200  1.0
  C  C2408  1  0.930800  0.314900  0.837800  1.0
  C  C2409  1  0.685100  0.615900  0.837800  1.0
  C  C2410  1  0.384100  0.069200  0.837800  1.0
  C  C2411  1  0.384100  0.314900  0.337800  1.0
  C  C2412  1  0.930800  0.615900  0.337800  1.0
  C  C2413  1  0.685100  0.069200  0.337800  1.0
  C  C2414  1  0.069200  0.685100  0.162200  1.0
  C  C2415  1  0.314900  0.384100  0.162200  1.0
  C  C2416  1  0.615900  0.930800  0.162200  1.0
  C  C2417  1  0.618600  0.650400  0.646600  1.0
  C  C2418  1  0.031800  0.381400  0.646600  1.0
  C  C2419  1  0.349600  0.968200  0.646600  1.0
  C  C2420  1  0.968200  0.349600  0.853400  1.0
  C  C2421  1  0.650400  0.618600  0.853400  1.0
  C  C2422  1  0.381400  0.031800  0.853400  1.0
  C  C2423  1  0.381400  0.349600  0.353400  1.0
  C  C2424  1  0.968200  0.618600  0.353400  1.0
  C  C2425  1  0.650400  0.031800  0.353400  1.0
  C  C2426  1  0.031800  0.650400  0.146600  1.0
  C  C2427  1  0.349600  0.381400  0.146600  1.0
  C  C2428  1  0.618600  0.968200  0.146600  1.0
  C  C2429  1  0.592400  0.612900  0.662900  1.0
  C  C2430  1  0.020500  0.407600  0.662900  1.0
  C  C2431  1  0.387100  0.979500  0.662900  1.0
  C  C2432  1  0.979500  0.387100  0.837100  1.0
  C  C2433  1  0.612900  0.592400  0.837100  1.0
  C  C2434  1  0.407600  0.020500  0.837100  1.0
  C  C2435  1  0.407600  0.387100  0.337100  1.0
  C  C2436  1  0.979500  0.592400  0.337100  1.0
  C  C2437  1  0.612900  0.020500  0.337100  1.0
  C  C2438  1  0.020500  0.612900  0.162900  1.0
  C  C2439  1  0.387100  0.407600  0.162900  1.0
  C  C2440  1  0.592400  0.979500  0.162900  1.0
  C  C2441  1  0.573100  0.623900  0.687600  1.0
  C  C2442  1  0.050800  0.426900  0.687600  1.0
  C  C2443  1  0.376100  0.949200  0.687600  1.0
  C  C2444  1  0.949200  0.376100  0.812400  1.0
  C  C2445  1  0.623900  0.573100  0.812400  1.0
  C  C2446  1  0.426900  0.050800  0.812400  1.0
  C  C2447  1  0.426900  0.376100  0.312400  1.0
  C  C2448  1  0.949200  0.573100  0.312400  1.0
  C  C2449  1  0.623900  0.050800  0.312400  1.0
  C  C2450  1  0.050800  0.623900  0.187600  1.0
  C  C2451  1  0.376100  0.426900  0.187600  1.0
  C  C2452  1  0.573100  0.949200  0.187600  1.0
  C  C2453  1  0.540900  0.595800  0.708300  1.0
  C  C2454  1  0.054900  0.459100  0.708300  1.0
  C  C2455  1  0.404200  0.945100  0.708300  1.0
  C  C2456  1  0.945100  0.404200  0.791700  1.0
  C  C2457  1  0.595800  0.540900  0.791700  1.0
  C  C2458  1  0.459100  0.054900  0.791700  1.0
  C  C2459  1  0.459100  0.404200  0.291700  1.0
  C  C2460  1  0.945100  0.540900  0.291700  1.0
  C  C2461  1  0.595800  0.054900  0.291700  1.0
  C  C2462  1  0.054900  0.595800  0.208300  1.0
  C  C2463  1  0.404200  0.459100  0.208300  1.0
  C  C2464  1  0.540900  0.945100  0.208300  1.0
  C  C2465  1  0.515500  0.601800  0.730400  1.0
  C  C2466  1  0.086300  0.484500  0.730400  1.0
  C  C2467  1  0.398200  0.913700  0.730400  1.0
  C  C2468  1  0.913700  0.398200  0.769600  1.0
  C  C2469  1  0.601800  0.515500  0.769600  1.0
  C  C2470  1  0.484500  0.086300  0.769600  1.0
  C  C2471  1  0.484500  0.398200  0.269600  1.0
  C  C2472  1  0.913700  0.515500  0.269600  1.0
  C  C2473  1  0.601800  0.086300  0.269600  1.0
  C  C2474  1  0.086300  0.601800  0.230400  1.0
  C  C2475  1  0.398200  0.484500  0.230400  1.0
  C  C2476  1  0.515500  0.913700  0.230400  1.0
  C  C2477  1  0.476300  0.564700  0.746600  1.0
  C  C2478  1  0.088400  0.523700  0.746600  1.0
  C  C2479  1  0.435300  0.911600  0.746600  1.0
  C  C2480  1  0.911600  0.435300  0.753400  1.0
  C  C2481  1  0.564700  0.476300  0.753400  1.0
  C  C2482  1  0.523700  0.088400  0.753400  1.0
  C  C2483  1  0.523700  0.435300  0.253400  1.0
  C  C2484  1  0.911600  0.476300  0.253400  1.0
  C  C2485  1  0.564700  0.088400  0.253400  1.0
  C  C2486  1  0.088400  0.564700  0.246600  1.0
  C  C2487  1  0.435300  0.523700  0.246600  1.0
  C  C2488  1  0.476300  0.911600  0.246600  1.0
  C  C2489  1  0.463200  0.587400  0.764500  1.0
  C  C2490  1  0.124200  0.536800  0.764500  1.0
  C  C2491  1  0.412600  0.875800  0.764500  1.0
  C  C2492  1  0.875800  0.412600  0.735500  1.0
  C  C2493  1  0.587400  0.463200  0.735500  1.0
  C  C2494  1  0.536800  0.124200  0.735500  1.0
  C  C2495  1  0.536800  0.412600  0.235500  1.0
  C  C2496  1  0.875800  0.463200  0.235500  1.0
  C  C2497  1  0.587400  0.124200  0.235500  1.0
  C  C2498  1  0.124200  0.587400  0.264500  1.0
  C  C2499  1  0.412600  0.536800  0.264500  1.0
  C  C2500  1  0.463200  0.875800  0.264500  1.0
  C  C2501  1  0.489300  0.634000  0.758700  1.0
  C  C2502  1  0.144700  0.510700  0.758700  1.0
  C  C2503  1  0.366000  0.855300  0.758700  1.0
  C  C2504  1  0.855300  0.366000  0.741300  1.0
  C  C2505  1  0.634000  0.489300  0.741300  1.0
  C  C2506  1  0.510700  0.144700  0.741300  1.0
  C  C2507  1  0.510700  0.366000  0.241300  1.0
  C  C2508  1  0.855300  0.489300  0.241300  1.0
  C  C2509  1  0.634000  0.144700  0.241300  1.0
  C  C2510  1  0.144700  0.634000  0.258700  1.0
  C  C2511  1  0.366000  0.510700  0.258700  1.0
  C  C2512  1  0.489300  0.855300  0.258700  1.0
  C  C2513  1  0.487000  0.667200  0.774300  1.0
  C  C2514  1  0.180200  0.513000  0.774300  1.0
  C  C2515  1  0.332800  0.819800  0.774300  1.0
  C  C2516  1  0.819800  0.332800  0.725700  1.0
  C  C2517  1  0.667200  0.487000  0.725700  1.0
  C  C2518  1  0.513000  0.180200  0.725700  1.0
  C  C2519  1  0.513000  0.332800  0.225700  1.0
  C  C2520  1  0.819800  0.487000  0.225700  1.0
  C  C2521  1  0.667200  0.180200  0.225700  1.0
  C  C2522  1  0.180200  0.667200  0.274300  1.0
  C  C2523  1  0.332800  0.513000  0.274300  1.0
  C  C2524  1  0.487000  0.819800  0.274300  1.0
  C  C2525  1  0.514600  0.712700  0.769900  1.0
  C  C2526  1  0.198100  0.485400  0.769900  1.0
  C  C2527  1  0.287300  0.801900  0.769900  1.0
  C  C2528  1  0.801900  0.287300  0.730100  1.0
  C  C2529  1  0.712700  0.514600  0.730100  1.0
  C  C2530  1  0.485400  0.198100  0.730100  1.0
  C  C2531  1  0.485400  0.287300  0.230100  1.0
  C  C2532  1  0.801900  0.514600  0.230100  1.0
  C  C2533  1  0.712700  0.198100  0.230100  1.0
  C  C2534  1  0.198100  0.712700  0.269900  1.0
  C  C2535  1  0.287300  0.485400  0.269900  1.0
  C  C2536  1  0.514600  0.801900  0.269900  1.0
  C  C2537  1  0.513700  0.747600  0.787100  1.0
  C  C2538  1  0.233900  0.486300  0.787100  1.0
  C  C2539  1  0.252400  0.766100  0.787100  1.0
  C  C2540  1  0.766100  0.252400  0.712900  1.0
  C  C2541  1  0.747600  0.513700  0.712900  1.0
  C  C2542  1  0.486300  0.233900  0.712900  1.0
  C  C2543  1  0.486300  0.252400  0.212900  1.0
  C  C2544  1  0.766100  0.513700  0.212900  1.0
  C  C2545  1  0.747600  0.233900  0.212900  1.0
  C  C2546  1  0.233900  0.747600  0.287100  1.0
  C  C2547  1  0.252400  0.486300  0.287100  1.0
  C  C2548  1  0.513700  0.766100  0.287100  1.0
  C  C2549  1  0.547200  0.786400  0.775100  1.0
  C  C2550  1  0.239200  0.452800  0.775100  1.0
  C  C2551  1  0.213600  0.760800  0.775100  1.0
  C  C2552  1  0.760800  0.213600  0.724900  1.0
  C  C2553  1  0.786400  0.547200  0.724900  1.0
  C  C2554  1  0.452800  0.239200  0.724900  1.0
  C  C2555  1  0.452800  0.213600  0.224900  1.0
  C  C2556  1  0.760800  0.547200  0.224900  1.0
  C  C2557  1  0.786400  0.239200  0.224900  1.0
  C  C2558  1  0.239200  0.786400  0.275100  1.0
  C  C2559  1  0.213600  0.452800  0.275100  1.0
  C  C2560  1  0.547200  0.760800  0.275100  1.0
  C  C2561  1  0.567700  0.774700  0.750600  1.0
  C  C2562  1  0.207000  0.432300  0.750600  1.0
  C  C2563  1  0.225300  0.793000  0.750600  1.0
  C  C2564  1  0.793000  0.225300  0.749400  1.0
  C  C2565  1  0.774700  0.567700  0.749400  1.0
  C  C2566  1  0.432300  0.207000  0.749400  1.0
  C  C2567  1  0.432300  0.225300  0.249400  1.0
  C  C2568  1  0.793000  0.567700  0.249400  1.0
  C  C2569  1  0.774700  0.207000  0.249400  1.0
  C  C2570  1  0.207000  0.774700  0.250600  1.0
  C  C2571  1  0.225300  0.432300  0.250600  1.0
  C  C2572  1  0.567700  0.793000  0.250600  1.0
  C  C2573  1  0.601800  0.805400  0.732200  1.0
  C  C2574  1  0.203600  0.398200  0.732200  1.0
  C  C2575  1  0.194600  0.796400  0.732200  1.0
  C  C2576  1  0.796400  0.194600  0.767800  1.0
  C  C2577  1  0.805400  0.601800  0.767800  1.0
  C  C2578  1  0.398200  0.203600  0.767800  1.0
  C  C2579  1  0.398200  0.194600  0.267800  1.0
  C  C2580  1  0.796400  0.601800  0.267800  1.0
  C  C2581  1  0.805400  0.203600  0.267800  1.0
  C  C2582  1  0.203600  0.805400  0.232200  1.0
  C  C2583  1  0.194600  0.398200  0.232200  1.0
  C  C2584  1  0.601800  0.796400  0.232200  1.0
  C  C2585  1  0.620600  0.798200  0.706200  1.0
  C  C2586  1  0.177600  0.379400  0.706200  1.0
  C  C2587  1  0.201800  0.822400  0.706200  1.0
  C  C2588  1  0.822400  0.201800  0.793800  1.0
  C  C2589  1  0.798200  0.620600  0.793800  1.0
  C  C2590  1  0.379400  0.177600  0.793800  1.0
  C  C2591  1  0.379400  0.201800  0.293800  1.0
  C  C2592  1  0.822400  0.620600  0.293800  1.0
  C  C2593  1  0.798200  0.177600  0.293800  1.0
  C  C2594  1  0.177600  0.798200  0.206200  1.0
  C  C2595  1  0.201800  0.379400  0.206200  1.0
  C  C2596  1  0.620600  0.822400  0.206200  1.0
  C  C2597  1  0.649300  0.833200  0.685200  1.0
  C  C2598  1  0.183900  0.350700  0.685200  1.0
  C  C2599  1  0.166800  0.816100  0.685200  1.0
  C  C2600  1  0.816100  0.166800  0.814800  1.0
  C  C2601  1  0.833200  0.649300  0.814800  1.0
  C  C2602  1  0.350700  0.183900  0.814800  1.0
  C  C2603  1  0.350700  0.166800  0.314800  1.0
  C  C2604  1  0.816100  0.649300  0.314800  1.0
  C  C2605  1  0.833200  0.183900  0.314800  1.0
  C  C2606  1  0.183900  0.833200  0.185200  1.0
  C  C2607  1  0.166800  0.350700  0.185200  1.0
  C  C2608  1  0.649300  0.816100  0.185200  1.0
  C  C2609  1  0.659500  0.809500  0.663100  1.0
  C  C2610  1  0.150000  0.340500  0.663100  1.0
  C  C2611  1  0.190500  0.850000  0.663100  1.0
  C  C2612  1  0.850000  0.190500  0.836900  1.0
  C  C2613  1  0.809500  0.659500  0.836900  1.0
  C  C2614  1  0.340500  0.150000  0.836900  1.0
  C  C2615  1  0.340500  0.190500  0.336900  1.0
  C  C2616  1  0.850000  0.659500  0.336900  1.0
  C  C2617  1  0.809500  0.150000  0.336900  1.0
  C  C2618  1  0.150000  0.809500  0.163100  1.0
  C  C2619  1  0.190500  0.340500  0.163100  1.0
  C  C2620  1  0.659500  0.850000  0.163100  1.0
  C  C2621  1  0.636700  0.764000  0.671100  1.0
  C  C2622  1  0.127300  0.363300  0.671100  1.0
  C  C2623  1  0.236000  0.872700  0.671100  1.0
  C  C2624  1  0.872700  0.236000  0.828900  1.0
  C  C2625  1  0.764000  0.636700  0.828900  1.0
  C  C2626  1  0.363300  0.127300  0.828900  1.0
  C  C2627  1  0.363300  0.236000  0.328900  1.0
  C  C2628  1  0.872700  0.636700  0.328900  1.0
  C  C2629  1  0.764000  0.127300  0.328900  1.0
  C  C2630  1  0.127300  0.764000  0.171100  1.0
  C  C2631  1  0.236000  0.363300  0.171100  1.0
  C  C2632  1  0.636700  0.872700  0.171100  1.0
  C  C2633  1  0.449600  0.653700  0.796300  1.0
  C  C2634  1  0.204100  0.550400  0.796300  1.0
  C  C2635  1  0.346300  0.795900  0.796300  1.0
  C  C2636  1  0.795900  0.346300  0.703700  1.0
  C  C2637  1  0.653700  0.449600  0.703700  1.0
  C  C2638  1  0.550400  0.204100  0.703700  1.0
  C  C2639  1  0.550400  0.346300  0.203700  1.0
  C  C2640  1  0.795900  0.449600  0.203700  1.0
  C  C2641  1  0.653700  0.204100  0.203700  1.0
  C  C2642  1  0.204100  0.653700  0.296300  1.0
  C  C2643  1  0.346300  0.550400  0.296300  1.0
  C  C2644  1  0.449600  0.795900  0.296300  1.0
  C  C2645  1  0.453100  0.642800  0.826600  1.0
  C  C2646  1  0.189700  0.546900  0.826600  1.0
  C  C2647  1  0.357200  0.810300  0.826600  1.0
  C  C2648  1  0.810300  0.357200  0.673400  1.0
  C  C2649  1  0.642800  0.453100  0.673400  1.0
  C  C2650  1  0.546900  0.189700  0.673400  1.0
  C  C2651  1  0.546900  0.357200  0.173400  1.0
  C  C2652  1  0.810300  0.453100  0.173400  1.0
  C  C2653  1  0.642800  0.189700  0.173400  1.0
  C  C2654  1  0.189700  0.642800  0.326600  1.0
  C  C2655  1  0.357200  0.546900  0.326600  1.0
  C  C2656  1  0.453100  0.810300  0.326600  1.0
  C  C2657  1  0.418500  0.630700  0.846950  1.0
  C  C2658  1  0.212200  0.581500  0.846950  1.0
  C  C2659  1  0.369300  0.787800  0.846950  1.0
  C  C2660  1  0.787800  0.369300  0.653050  1.0
  C  C2661  1  0.630700  0.418500  0.653050  1.0
  C  C2662  1  0.581500  0.212200  0.653050  1.0
  C  C2663  1  0.581500  0.369300  0.153050  1.0
  C  C2664  1  0.787800  0.418500  0.153050  1.0
  C  C2665  1  0.630700  0.212200  0.153050  1.0
  C  C2666  1  0.212200  0.630700  0.346950  1.0
  C  C2667  1  0.369300  0.581500  0.346950  1.0
  C  C2668  1  0.418500  0.787800  0.346950  1.0
  C  C2669  1  0.380300  0.629400  0.837100  1.0
  C  C2670  1  0.249100  0.619700  0.837100  1.0
  C  C2671  1  0.370600  0.750900  0.837100  1.0
  C  C2672  1  0.750900  0.370600  0.662900  1.0
  C  C2673  1  0.629400  0.380300  0.662900  1.0
  C  C2674  1  0.619700  0.249100  0.662900  1.0
  C  C2675  1  0.619700  0.370600  0.162900  1.0
  C  C2676  1  0.750900  0.380300  0.162900  1.0
  C  C2677  1  0.629400  0.249100  0.162900  1.0
  C  C2678  1  0.249100  0.629400  0.337100  1.0
  C  C2679  1  0.370600  0.619700  0.337100  1.0
  C  C2680  1  0.380300  0.750900  0.337100  1.0
  C  C2681  1  0.376800  0.640200  0.806800  1.0
  C  C2682  1  0.263400  0.623200  0.806800  1.0
  C  C2683  1  0.359800  0.736600  0.806800  1.0
  C  C2684  1  0.736600  0.359800  0.693200  1.0
  C  C2685  1  0.640200  0.376800  0.693200  1.0
  C  C2686  1  0.623200  0.263400  0.693200  1.0
  C  C2687  1  0.623200  0.359800  0.193200  1.0
  C  C2688  1  0.736600  0.376800  0.193200  1.0
  C  C2689  1  0.640200  0.263400  0.193200  1.0
  C  C2690  1  0.263400  0.640200  0.306800  1.0
  C  C2691  1  0.359800  0.623200  0.306800  1.0
  C  C2692  1  0.376800  0.736600  0.306800  1.0
  C  C2693  1  0.411400  0.652300  0.786390  1.0
  C  C2694  1  0.240900  0.588600  0.786390  1.0
  C  C2695  1  0.347700  0.759100  0.786390  1.0
  C  C2696  1  0.759100  0.347700  0.713610  1.0
  C  C2697  1  0.652300  0.411400  0.713610  1.0
  C  C2698  1  0.588600  0.240900  0.713610  1.0
  C  C2699  1  0.588600  0.347700  0.213610  1.0
  C  C2700  1  0.759100  0.411400  0.213610  1.0
  C  C2701  1  0.652300  0.240900  0.213610  1.0
  C  C2702  1  0.240900  0.652300  0.286390  1.0
  C  C2703  1  0.347700  0.588600  0.286390  1.0
  C  C2704  1  0.411400  0.759100  0.286390  1.0
  C  C2705  1  0.327100  0.582200  0.872100  1.0
  C  C2706  1  0.255100  0.672900  0.872100  1.0
  C  C2707  1  0.417800  0.744900  0.872100  1.0
  C  C2708  1  0.744900  0.417800  0.627900  1.0
  C  C2709  1  0.582200  0.327100  0.627900  1.0
  C  C2710  1  0.672900  0.255100  0.627900  1.0
  C  C2711  1  0.672900  0.417800  0.127900  1.0
  C  C2712  1  0.744900  0.327100  0.127900  1.0
  C  C2713  1  0.582200  0.255100  0.127900  1.0
  C  C2714  1  0.255100  0.582200  0.372100  1.0
  C  C2715  1  0.417800  0.672900  0.372100  1.0
  C  C2716  1  0.327100  0.744900  0.372100  1.0
  C  C2717  1  0.296200  0.571700  0.897300  1.0
  C  C2718  1  0.275500  0.703800  0.897300  1.0
  C  C2719  1  0.428300  0.724500  0.897300  1.0
  C  C2720  1  0.724500  0.428300  0.602700  1.0
  C  C2721  1  0.571700  0.296200  0.602700  1.0
  C  C2722  1  0.703800  0.275500  0.602700  1.0
  C  C2723  1  0.703800  0.428300  0.102700  1.0
  C  C2724  1  0.724500  0.296200  0.102700  1.0
  C  C2725  1  0.571700  0.275500  0.102700  1.0
  C  C2726  1  0.275500  0.571700  0.397300  1.0
  C  C2727  1  0.428300  0.703800  0.397300  1.0
  C  C2728  1  0.296200  0.724500  0.397300  1.0
  C  C2729  1  0.270900  0.529900  0.908800  1.0
  C  C2730  1  0.259000  0.729100  0.908800  1.0
  C  C2731  1  0.470100  0.741000  0.908800  1.0
  C  C2732  1  0.741000  0.470100  0.591200  1.0
  C  C2733  1  0.529900  0.270900  0.591200  1.0
  C  C2734  1  0.729100  0.259000  0.591200  1.0
  C  C2735  1  0.729100  0.470100  0.091200  1.0
  C  C2736  1  0.741000  0.270900  0.091200  1.0
  C  C2737  1  0.529900  0.259000  0.091200  1.0
  C  C2738  1  0.259000  0.529900  0.408800  1.0
  C  C2739  1  0.470100  0.729100  0.408800  1.0
  C  C2740  1  0.270900  0.741000  0.408800  1.0
  C  C2741  1  0.241100  0.523300  0.931600  1.0
  C  C2742  1  0.282200  0.758900  0.931600  1.0
  C  C2743  1  0.476700  0.717800  0.931600  1.0
  C  C2744  1  0.717800  0.476700  0.568400  1.0
  C  C2745  1  0.523300  0.241100  0.568400  1.0
  C  C2746  1  0.758900  0.282200  0.568400  1.0
  C  C2747  1  0.758900  0.476700  0.068400  1.0
  C  C2748  1  0.717800  0.241100  0.068400  1.0
  C  C2749  1  0.523300  0.282200  0.068400  1.0
  C  C2750  1  0.282200  0.523300  0.431600  1.0
  C  C2751  1  0.476700  0.758900  0.431600  1.0
  C  C2752  1  0.241100  0.717800  0.431600  1.0
  C  C2753  1  0.237200  0.558200  0.942100  1.0
  C  C2754  1  0.321000  0.762800  0.942100  1.0
  C  C2755  1  0.441800  0.679000  0.942100  1.0
  C  C2756  1  0.679000  0.441800  0.557900  1.0
  C  C2757  1  0.558200  0.237200  0.557900  1.0
  C  C2758  1  0.762800  0.321000  0.557900  1.0
  C  C2759  1  0.762800  0.441800  0.057900  1.0
  C  C2760  1  0.679000  0.237200  0.057900  1.0
  C  C2761  1  0.558200  0.321000  0.057900  1.0
  C  C2762  1  0.321000  0.558200  0.442100  1.0
  C  C2763  1  0.441800  0.762800  0.442100  1.0
  C  C2764  1  0.237200  0.679000  0.442100  1.0
  C  C2765  1  0.264300  0.599600  0.929700  1.0
  C  C2766  1  0.335300  0.735700  0.929700  1.0
  C  C2767  1  0.400400  0.664700  0.929700  1.0
  C  C2768  1  0.664700  0.400400  0.570300  1.0
  C  C2769  1  0.599600  0.264300  0.570300  1.0
  C  C2770  1  0.735700  0.335300  0.570300  1.0
  C  C2771  1  0.735700  0.400400  0.070300  1.0
  C  C2772  1  0.664700  0.264300  0.070300  1.0
  C  C2773  1  0.599600  0.335300  0.070300  1.0
  C  C2774  1  0.335300  0.599600  0.429700  1.0
  C  C2775  1  0.400400  0.735700  0.429700  1.0
  C  C2776  1  0.264300  0.664700  0.429700  1.0
  C  C2777  1  0.643000  0.650600  0.617900  1.0
  C  C2778  1  0.007600  0.357000  0.617900  1.0
  C  C2779  1  0.349400  0.992400  0.617900  1.0
  C  C2780  1  0.992400  0.349400  0.882100  1.0
  C  C2781  1  0.650600  0.643000  0.882100  1.0
  C  C2782  1  0.357000  0.007600  0.882100  1.0
  C  C2783  1  0.357000  0.349400  0.382100  1.0
  C  C2784  1  0.992400  0.643000  0.382100  1.0
  C  C2785  1  0.650600  0.007600  0.382100  1.0
  C  C2786  1  0.007600  0.650600  0.117900  1.0
  C  C2787  1  0.349400  0.357000  0.117900  1.0
  C  C2788  1  0.643000  0.992400  0.117900  1.0
  C  C2789  1  0.583500  0.566600  0.658700  1.0
  C  C2790  1  0.983100  0.416500  0.658700  1.0
  C  C2791  1  0.433400  0.016900  0.658700  1.0
  C  C2792  1  0.016900  0.433400  0.841300  1.0
  C  C2793  1  0.566600  0.583500  0.841300  1.0
  C  C2794  1  0.416500  0.983100  0.841300  1.0
  C  C2795  1  0.416500  0.433400  0.341300  1.0
  C  C2796  1  0.016900  0.583500  0.341300  1.0
  C  C2797  1  0.566600  0.983100  0.341300  1.0
  C  C2798  1  0.983100  0.566600  0.158700  1.0
  C  C2799  1  0.433400  0.416500  0.158700  1.0
  C  C2800  1  0.583500  0.016900  0.158700  1.0
  C  C2801  1  0.610800  0.554800  0.679500  1.0
  C  C2802  1  0.944000  0.389200  0.679500  1.0
  C  C2803  1  0.445200  0.056000  0.679500  1.0
  C  C2804  1  0.056000  0.445200  0.820500  1.0
  C  C2805  1  0.554800  0.610800  0.820500  1.0
  C  C2806  1  0.389200  0.944000  0.820500  1.0
  C  C2807  1  0.389200  0.445200  0.320500  1.0
  C  C2808  1  0.056000  0.610800  0.320500  1.0
  C  C2809  1  0.554800  0.944000  0.320500  1.0
  C  C2810  1  0.944000  0.554800  0.179500  1.0
  C  C2811  1  0.445200  0.389200  0.179500  1.0
  C  C2812  1  0.610800  0.056000  0.179500  1.0
  C  C2813  1  0.457200  0.516100  0.741200  1.0
  C  C2814  1  0.058900  0.542800  0.741200  1.0
  C  C2815  1  0.483900  0.941100  0.741200  1.0
  C  C2816  1  0.941100  0.483900  0.758800  1.0
  C  C2817  1  0.516100  0.457200  0.758800  1.0
  C  C2818  1  0.542800  0.058900  0.758800  1.0
  C  C2819  1  0.542800  0.483900  0.258800  1.0
  C  C2820  1  0.941100  0.457200  0.258800  1.0
  C  C2821  1  0.516100  0.058900  0.258800  1.0
  C  C2822  1  0.058900  0.516100  0.241200  1.0
  C  C2823  1  0.483900  0.542800  0.241200  1.0
  C  C2824  1  0.457200  0.941100  0.241200  1.0
  C  C2825  1  0.423700  0.499800  0.715300  1.0
  C  C2826  1  0.076100  0.576300  0.715300  1.0
  C  C2827  1  0.500200  0.923900  0.715300  1.0
  C  C2828  1  0.923900  0.500200  0.784700  1.0
  C  C2829  1  0.499800  0.423700  0.784700  1.0
  C  C2830  1  0.576300  0.076100  0.784700  1.0
  C  C2831  1  0.576300  0.500200  0.284700  1.0
  C  C2832  1  0.923900  0.423700  0.284700  1.0
  C  C2833  1  0.499800  0.076100  0.284700  1.0
  C  C2834  1  0.076100  0.499800  0.215300  1.0
  C  C2835  1  0.500200  0.576300  0.215300  1.0
  C  C2836  1  0.423700  0.923900  0.215300  1.0
  C  C2837  1  0.422600  0.561100  0.783900  1.0
  C  C2838  1  0.138500  0.577400  0.783900  1.0
  C  C2839  1  0.438900  0.861500  0.783900  1.0
  C  C2840  1  0.861500  0.438900  0.716100  1.0
  C  C2841  1  0.561100  0.422600  0.716100  1.0
  C  C2842  1  0.577400  0.138500  0.716100  1.0
  C  C2843  1  0.577400  0.438900  0.216100  1.0
  C  C2844  1  0.861500  0.422600  0.216100  1.0
  C  C2845  1  0.561100  0.138500  0.216100  1.0
  C  C2846  1  0.138500  0.561100  0.283900  1.0
  C  C2847  1  0.438900  0.577400  0.283900  1.0
  C  C2848  1  0.422600  0.861500  0.283900  1.0
  C  C2849  1  0.485300  0.747500  0.814000  1.0
  C  C2850  1  0.262200  0.514700  0.814000  1.0
  C  C2851  1  0.252500  0.737800  0.814000  1.0
  C  C2852  1  0.737800  0.252500  0.686000  1.0
  C  C2853  1  0.747500  0.485300  0.686000  1.0
  C  C2854  1  0.514700  0.262200  0.686000  1.0
  C  C2855  1  0.514700  0.252500  0.186000  1.0
  C  C2856  1  0.737800  0.485300  0.186000  1.0
  C  C2857  1  0.747500  0.262200  0.186000  1.0
  C  C2858  1  0.262200  0.747500  0.314000  1.0
  C  C2859  1  0.252500  0.514700  0.314000  1.0
  C  C2860  1  0.485300  0.737800  0.314000  1.0
  C  C2861  1  0.562500  0.832800  0.784200  1.0
  C  C2862  1  0.270300  0.437500  0.784200  1.0
  C  C2863  1  0.167200  0.729700  0.784200  1.0
  C  C2864  1  0.729700  0.167200  0.715800  1.0
  C  C2865  1  0.832800  0.562500  0.715800  1.0
  C  C2866  1  0.437500  0.270300  0.715800  1.0
  C  C2867  1  0.437500  0.167200  0.215800  1.0
  C  C2868  1  0.729700  0.562500  0.215800  1.0
  C  C2869  1  0.832800  0.270300  0.215800  1.0
  C  C2870  1  0.270300  0.832800  0.284200  1.0
  C  C2871  1  0.167200  0.437500  0.284200  1.0
  C  C2872  1  0.562500  0.729700  0.284200  1.0
  C  C2873  1  0.537500  0.847600  0.763800  1.0
  C  C2874  1  0.310100  0.462500  0.763800  1.0
  C  C2875  1  0.152400  0.689900  0.763800  1.0
  C  C2876  1  0.689900  0.152400  0.736200  1.0
  C  C2877  1  0.847600  0.537500  0.736200  1.0
  C  C2878  1  0.462500  0.310100  0.736200  1.0
  C  C2879  1  0.462500  0.152400  0.236200  1.0
  C  C2880  1  0.689900  0.537500  0.236200  1.0
  C  C2881  1  0.847600  0.310100  0.236200  1.0
  C  C2882  1  0.310100  0.847600  0.263800  1.0
  C  C2883  1  0.152400  0.462500  0.263800  1.0
  C  C2884  1  0.537500  0.689900  0.263800  1.0
  C  C2885  1  0.665500  0.881900  0.689000  1.0
  C  C2886  1  0.216400  0.334500  0.689000  1.0
  C  C2887  1  0.118100  0.783600  0.689000  1.0
  C  C2888  1  0.783600  0.118100  0.811000  1.0
  C  C2889  1  0.881900  0.665500  0.811000  1.0
  C  C2890  1  0.334500  0.216400  0.811000  1.0
  C  C2891  1  0.334500  0.118100  0.311000  1.0
  C  C2892  1  0.783600  0.665500  0.311000  1.0
  C  C2893  1  0.881900  0.216400  0.311000  1.0
  C  C2894  1  0.216400  0.881900  0.189000  1.0
  C  C2895  1  0.118100  0.334500  0.189000  1.0
  C  C2896  1  0.665500  0.783600  0.189000  1.0
  C  C2897  1  0.708800  0.903900  0.705600  1.0
  C  C2898  1  0.195100  0.291200  0.705600  1.0
  C  C2899  1  0.096100  0.804900  0.705600  1.0
  C  C2900  1  0.804900  0.096100  0.794400  1.0
  C  C2901  1  0.903900  0.708800  0.794400  1.0
  C  C2902  1  0.291200  0.195100  0.794400  1.0
  C  C2903  1  0.291200  0.096100  0.294400  1.0
  C  C2904  1  0.804900  0.708800  0.294400  1.0
  C  C2905  1  0.903900  0.195100  0.294400  1.0
  C  C2906  1  0.195100  0.903900  0.205600  1.0
  C  C2907  1  0.096100  0.291200  0.205600  1.0
  C  C2908  1  0.708800  0.804900  0.205600  1.0
  C  C2909  1  0.691800  0.835200  0.637800  1.0
  C  C2910  1  0.143400  0.308200  0.637800  1.0
  C  C2911  1  0.164800  0.856600  0.637800  1.0
  C  C2912  1  0.856600  0.164800  0.862200  1.0
  C  C2913  1  0.835200  0.691800  0.862200  1.0
  C  C2914  1  0.308200  0.143400  0.862200  1.0
  C  C2915  1  0.308200  0.164800  0.362200  1.0
  C  C2916  1  0.856600  0.691800  0.362200  1.0
  C  C2917  1  0.835200  0.143400  0.362200  1.0
  C  C2918  1  0.143400  0.835200  0.137800  1.0
  C  C2919  1  0.164800  0.308200  0.137800  1.0
  C  C2920  1  0.691800  0.856600  0.137800  1.0
  C  C2921  1  0.645400  0.701500  0.774100  1.0
  C  C2922  1  0.056100  0.354600  0.774100  1.0
  C  C2923  1  0.298500  0.943900  0.774100  1.0
  C  C2924  1  0.943900  0.298500  0.725900  1.0
  C  C2925  1  0.701500  0.645400  0.725900  1.0
  C  C2926  1  0.354600  0.056100  0.725900  1.0
  C  C2927  1  0.354600  0.298500  0.225900  1.0
  C  C2928  1  0.943900  0.645400  0.225900  1.0
  C  C2929  1  0.701500  0.056100  0.225900  1.0
  C  C2930  1  0.056100  0.701500  0.274100  1.0
  C  C2931  1  0.298500  0.354600  0.274100  1.0
  C  C2932  1  0.645400  0.943900  0.274100  1.0
  C  C2933  1  0.674800  0.693400  0.792700  1.0
  C  C2934  1  0.018600  0.325200  0.792700  1.0
  C  C2935  1  0.306600  0.981400  0.792700  1.0
  C  C2936  1  0.981400  0.306600  0.707300  1.0
  C  C2937  1  0.693400  0.674800  0.707300  1.0
  C  C2938  1  0.325200  0.018600  0.707300  1.0
  C  C2939  1  0.325200  0.306600  0.207300  1.0
  C  C2940  1  0.981400  0.674800  0.207300  1.0
  C  C2941  1  0.693400  0.018600  0.207300  1.0
  C  C2942  1  0.018600  0.693400  0.292700  1.0
  C  C2943  1  0.306600  0.325200  0.292700  1.0
  C  C2944  1  0.674800  0.981400  0.292700  1.0
  S  S2945  1  0.693000  0.134800  0.614240  1
  S  S2946  1  0.441800  0.307000  0.614240  1
  S  S2947  1  0.865200  0.558200  0.614240  1
  S  S2948  1  0.558200  0.865200  0.885760  1
  S  S2949  1  0.134800  0.693000  0.885760  1
  S  S2950  1  0.307000  0.441800  0.885760  1
  S  S2951  1  0.307000  0.865200  0.385760  1
  S  S2952  1  0.558200  0.693000  0.385760  1
  S  S2953  1  0.134800  0.441800  0.385760  1
  S  S2954  1  0.441800  0.134800  0.114240  1
  S  S2955  1  0.865200  0.307000  0.114240  1
  S  S2956  1  0.693000  0.558200  0.114240  1
  N  N2957  1  0.705400  0.697400  0.462000  1.0
  N  N2958  1  0.992000  0.294600  0.462000  1.0
  N  N2959  1  0.302600  0.008000  0.462000  1.0
  N  N2960  1  0.008000  0.302600  0.038000  1.0
  N  N2961  1  0.697400  0.705400  0.038000  1.0
  N  N2962  1  0.294600  0.992000  0.038000  1.0
  N  N2963  1  0.294600  0.302600  0.538000  1.0
  N  N2964  1  0.008000  0.705400  0.538000  1.0
  N  N2965  1  0.697400  0.992000  0.538000  1.0
  N  N2966  1  0.992000  0.697400  0.962000  1.0
  N  N2967  1  0.302600  0.294600  0.962000  1.0
  N  N2968  1  0.705400  0.008000  0.962000  1.0
  N  N2969  1  0.661600  0.738000  0.477600  1.0
  N  N2970  1  0.076400  0.338400  0.477600  1.0
  N  N2971  1  0.262000  0.923600  0.477600  1.0
  N  N2972  1  0.923600  0.262000  0.022400  1.0
  N  N2973  1  0.738000  0.661600  0.022400  1.0
  N  N2974  1  0.338400  0.076400  0.022400  1.0
  N  N2975  1  0.338400  0.262000  0.522400  1.0
  N  N2976  1  0.923600  0.661600  0.522400  1.0
  N  N2977  1  0.738000  0.076400  0.522400  1.0
  N  N2978  1  0.076400  0.738000  0.977600  1.0
  N  N2979  1  0.262000  0.338400  0.977600  1.0
  N  N2980  1  0.661600  0.923600  0.977600  1.0
  N  N2981  1  0.324100  0.997000  0.526700  1.0
  N  N2982  1  0.672900  0.675900  0.526700  1.0
  N  N2983  1  0.003000  0.327100  0.526700  1.0
  N  N2984  1  0.327100  0.003000  0.973300  1.0
  N  N2985  1  0.997000  0.324100  0.973300  1.0
  N  N2986  1  0.675900  0.672900  0.973300  1.0
  N  N2987  1  0.675900  0.003000  0.473300  1.0
  N  N2988  1  0.327100  0.324100  0.473300  1.0
  N  N2989  1  0.997000  0.672900  0.473300  1.0
  N  N2990  1  0.672900  0.997000  0.026700  1.0
  N  N2991  1  0.003000  0.675900  0.026700  1.0
  N  N2992  1  0.324100  0.327100  0.026700  1.0
  N  N2993  1  0.274100  0.037500  0.524600  1.0
  N  N2994  1  0.763400  0.725900  0.524600  1.0
  N  N2995  1  0.962500  0.236600  0.524600  1.0
  N  N2996  1  0.236600  0.962500  0.975400  1.0
  N  N2997  1  0.037500  0.274100  0.975400  1.0
  N  N2998  1  0.725900  0.763400  0.975400  1.0
  N  N2999  1  0.725900  0.962500  0.475400  1.0
  N  N3000  1  0.236600  0.274100  0.475400  1.0
  N  N3001  1  0.037500  0.763400  0.475400  1.0
  N  N3002  1  0.763400  0.037500  0.024600  1.0
  N  N3003  1  0.962500  0.725900  0.024600  1.0
  N  N3004  1  0.274100  0.236600  0.024600  1.0
  N  N3005  1  0.482600  0.910300  0.475900  1.0
  N  N3006  1  0.427700  0.517400  0.475900  1.0
  N  N3007  1  0.089700  0.572300  0.475900  1.0
  N  N3008  1  0.572300  0.089700  0.024100  1.0
  N  N3009  1  0.910300  0.482600  0.024100  1.0
  N  N3010  1  0.517400  0.427700  0.024100  1.0
  N  N3011  1  0.517400  0.089700  0.524100  1.0
  N  N3012  1  0.572300  0.482600  0.524100  1.0
  N  N3013  1  0.910300  0.427700  0.524100  1.0
  N  N3014  1  0.427700  0.910300  0.975900  1.0
  N  N3015  1  0.089700  0.517400  0.975900  1.0
  N  N3016  1  0.482600  0.572300  0.975900  1.0
  N  N3017  1  0.539700  0.870800  0.471700  1.0
  N  N3018  1  0.331100  0.460300  0.471700  1.0
  N  N3019  1  0.129200  0.668900  0.471700  1.0
  N  N3020  1  0.668900  0.129200  0.028300  1.0
  N  N3021  1  0.870800  0.539700  0.028300  1.0
  N  N3022  1  0.460300  0.331100  0.028300  1.0
  N  N3023  1  0.460300  0.129200  0.528300  1.0
  N  N3024  1  0.668900  0.539700  0.528300  1.0
  N  N3025  1  0.870800  0.331100  0.528300  1.0
  N  N3026  1  0.331100  0.870800  0.971700  1.0
  N  N3027  1  0.129200  0.460300  0.971700  1.0
  N  N3028  1  0.539700  0.668900  0.971700  1.0
  N  N3029  1  0.537300  0.861500  0.536400  1.0
  N  N3030  1  0.324200  0.462700  0.536400  1.0
  N  N3031  1  0.138500  0.675800  0.536400  1.0
  N  N3032  1  0.675800  0.138500  0.963600  1.0
  N  N3033  1  0.861500  0.537300  0.963600  1.0
  N  N3034  1  0.462700  0.324200  0.963600  1.0
  N  N3035  1  0.462700  0.138500  0.463600  1.0
  N  N3036  1  0.675800  0.537300  0.463600  1.0
  N  N3037  1  0.861500  0.324200  0.463600  1.0
  N  N3038  1  0.324200  0.861500  0.036400  1.0
  N  N3039  1  0.138500  0.462700  0.036400  1.0
  N  N3040  1  0.537300  0.675800  0.036400  1.0
  N  N3041  1  0.484900  0.906700  0.540900  1.0
  N  N3042  1  0.421800  0.515100  0.540900  1.0
  N  N3043  1  0.093300  0.578200  0.540900  1.0
  N  N3044  1  0.578200  0.093300  0.959100  1.0
  N  N3045  1  0.906700  0.484900  0.959100  1.0
  N  N3046  1  0.515100  0.421800  0.959100  1.0
  N  N3047  1  0.515100  0.093300  0.459100  1.0
  N  N3048  1  0.578200  0.484900  0.459100  1.0
  N  N3049  1  0.906700  0.421800  0.459100  1.0
  N  N3050  1  0.421800  0.906700  0.040900  1.0
  N  N3051  1  0.093300  0.515100  0.040900  1.0
  N  N3052  1  0.484900  0.578200  0.040900  1.0
  N  N3053  1  0.767300  0.797800  0.483500  1.0
  N  N3054  1  0.030500  0.232700  0.483500  1.0
  N  N3055  1  0.202200  0.969500  0.483500  1.0
  N  N3056  1  0.969500  0.202200  0.016500  1.0
  N  N3057  1  0.797800  0.767300  0.016500  1.0
  N  N3058  1  0.232700  0.030500  0.016500  1.0
  N  N3059  1  0.232700  0.202200  0.516500  1.0
  N  N3060  1  0.969500  0.767300  0.516500  1.0
  N  N3061  1  0.797800  0.030500  0.516500  1.0
  N  N3062  1  0.030500  0.797800  0.983500  1.0
  N  N3063  1  0.202200  0.232700  0.983500  1.0
  N  N3064  1  0.767300  0.969500  0.983500  1.0
  N  N3065  1  0.727600  0.781900  0.539400  1.0
  N  N3066  1  0.054300  0.272400  0.539400  1.0
  N  N3067  1  0.218100  0.945700  0.539400  1.0
  N  N3068  1  0.945700  0.218100  0.960600  1.0
  N  N3069  1  0.781900  0.727600  0.960600  1.0
  N  N3070  1  0.272400  0.054300  0.960600  1.0
  N  N3071  1  0.272400  0.218100  0.460600  1.0
  N  N3072  1  0.945700  0.727600  0.460600  1.0
  N  N3073  1  0.781900  0.054300  0.460600  1.0
  N  N3074  1  0.054300  0.781900  0.039400  1.0
  N  N3075  1  0.218100  0.272400  0.039400  1.0
  N  N3076  1  0.727600  0.945700  0.039400  1.0
  N  N3077  1  0.346300  0.620100  0.859100  1.0
  N  N3078  1  0.273800  0.653700  0.859100  1.0
  N  N3079  1  0.379900  0.726200  0.859100  1.0
  N  N3080  1  0.726200  0.379900  0.640900  1.0
  N  N3081  1  0.620100  0.346300  0.640900  1.0
  N  N3082  1  0.653700  0.273800  0.640900  1.0
  N  N3083  1  0.653700  0.379900  0.140900  1.0
  N  N3084  1  0.726200  0.346300  0.140900  1.0
  N  N3085  1  0.620100  0.273800  0.140900  1.0
  N  N3086  1  0.273800  0.620100  0.359100  1.0
  N  N3087  1  0.379900  0.653700  0.359100  1.0
  N  N3088  1  0.346300  0.726200  0.359100  1.0
  N  N3089  1  0.293800  0.606500  0.907500  1.0
  N  N3090  1  0.312700  0.706200  0.907500  1.0
  N  N3091  1  0.393500  0.687300  0.907500  1.0
  N  N3092  1  0.687300  0.393500  0.592500  1.0
  N  N3093  1  0.606500  0.293800  0.592500  1.0
  N  N3094  1  0.706200  0.312700  0.592500  1.0
  N  N3095  1  0.706200  0.393500  0.092500  1.0
  N  N3096  1  0.687300  0.293800  0.092500  1.0
  N  N3097  1  0.606500  0.312700  0.092500  1.0
  N  N3098  1  0.312700  0.606500  0.407500  1.0
  N  N3099  1  0.393500  0.706200  0.407500  1.0
  N  N3100  1  0.293800  0.687300  0.407500  1.0
  N  N3101  1  0.548500  0.730200  0.748200  1.0
  N  N3102  1  0.181700  0.451500  0.748200  1.0
  N  N3103  1  0.269800  0.818300  0.748200  1.0
  N  N3104  1  0.818300  0.269800  0.751800  1.0
  N  N3105  1  0.730200  0.548500  0.751800  1.0
  N  N3106  1  0.451500  0.181700  0.751800  1.0
  N  N3107  1  0.451500  0.269800  0.251800  1.0
  N  N3108  1  0.818300  0.548500  0.251800  1.0
  N  N3109  1  0.730200  0.181700  0.251800  1.0
  N  N3110  1  0.181700  0.730200  0.248200  1.0
  N  N3111  1  0.269800  0.451500  0.248200  1.0
  N  N3112  1  0.548500  0.818300  0.248200  1.0
  N  N3113  1  0.612100  0.757600  0.696900  1.0
  N  N3114  1  0.145500  0.387900  0.696900  1.0
  N  N3115  1  0.242400  0.854500  0.696900  1.0
  N  N3116  1  0.854500  0.242400  0.803100  1.0
  N  N3117  1  0.757600  0.612100  0.803100  1.0
  N  N3118  1  0.387900  0.145500  0.803100  1.0
  N  N3119  1  0.387900  0.242400  0.303100  1.0
  N  N3120  1  0.854500  0.612100  0.303100  1.0
  N  N3121  1  0.757600  0.145500  0.303100  1.0
  N  N3122  1  0.145500  0.757600  0.196900  1.0
  N  N3123  1  0.242400  0.387900  0.196900  1.0
  N  N3124  1  0.612100  0.854500  0.196900  1.0
  N  N3125  1  0.588700  0.668900  0.688000  1.0
  N  N3126  1  0.080200  0.411300  0.688000  1.0
  N  N3127  1  0.331100  0.919800  0.688000  1.0
  N  N3128  1  0.919800  0.331100  0.812000  1.0
  N  N3129  1  0.668900  0.588700  0.812000  1.0
  N  N3130  1  0.411300  0.080200  0.812000  1.0
  N  N3131  1  0.411300  0.331100  0.312000  1.0
  N  N3132  1  0.919800  0.588700  0.312000  1.0
  N  N3133  1  0.668900  0.080200  0.312000  1.0
  N  N3134  1  0.080200  0.668900  0.188000  1.0
  N  N3135  1  0.331100  0.411300  0.188000  1.0
  N  N3136  1  0.588700  0.919800  0.188000  1.0
  N  N3137  1  0.522700  0.642500  0.738300  1.0
  N  N3138  1  0.119800  0.477300  0.738300  1.0
  N  N3139  1  0.357500  0.880200  0.738300  1.0
  N  N3140  1  0.880200  0.357500  0.761700  1.0
  N  N3141  1  0.642500  0.522700  0.761700  1.0
  N  N3142  1  0.477300  0.119800  0.761700  1.0
  N  N3143  1  0.477300  0.357500  0.261700  1.0
  N  N3144  1  0.880200  0.522700  0.261700  1.0
  N  N3145  1  0.642500  0.119800  0.261700  1.0
  N  N3146  1  0.119800  0.642500  0.238300  1.0
  N  N3147  1  0.357500  0.477300  0.238300  1.0
  N  N3148  1  0.522700  0.880200  0.238300  1.0
  N  N3149  1  0.624800  0.702600  0.755200  1.0
  N  N3150  1  0.077800  0.375200  0.755200  1.0
  N  N3151  1  0.297400  0.922200  0.755200  1.0
  N  N3152  1  0.922200  0.297400  0.744800  1.0
  N  N3153  1  0.702600  0.624800  0.744800  1.0
  N  N3154  1  0.375200  0.077800  0.744800  1.0
  N  N3155  1  0.375200  0.297400  0.244800  1.0
  N  N3156  1  0.922200  0.624800  0.244800  1.0
  N  N3157  1  0.702600  0.077800  0.244800  1.0
  N  N3158  1  0.077800  0.702600  0.255200  1.0
  N  N3159  1  0.297400  0.375200  0.255200  1.0
  N  N3160  1  0.624800  0.922200  0.255200  1.0
  O  O3161  1  0.663500  0.087800  0.613300  1
  O  O3162  1  0.424300  0.336500  0.613300  1
  O  O3163  1  0.912200  0.575700  0.613300  1
  O  O3164  1  0.575700  0.912200  0.886700  1
  O  O3165  1  0.087800  0.663500  0.886700  1
  O  O3166  1  0.336500  0.424300  0.886700  1
  O  O3167  1  0.336500  0.912200  0.386700  1
  O  O3168  1  0.575700  0.663500  0.386700  1
  O  O3169  1  0.087800  0.424300  0.386700  1
  O  O3170  1  0.424300  0.087800  0.113300  1
  O  O3171  1  0.912200  0.336500  0.113300  1
  O  O3172  1  0.663500  0.575700  0.113300  1
  O  O3173  1  0.682700  0.157000  0.636800  1
  O  O3174  1  0.474300  0.317300  0.636800  1
  O  O3175  1  0.843000  0.525700  0.636800  1
  O  O3176  1  0.525700  0.843000  0.863200  1
  O  O3177  1  0.157000  0.682700  0.863200  1
  O  O3178  1  0.317300  0.474300  0.863200  1
  O  O3179  1  0.317300  0.843000  0.363200  1
  O  O3180  1  0.525700  0.682700  0.363200  1
  O  O3181  1  0.157000  0.474300  0.363200  1
  O  O3182  1  0.474300  0.157000  0.136800  1
  O  O3183  1  0.843000  0.317300  0.136800  1
  O  O3184  1  0.682700  0.525700  0.136800  1
  O  O3185  1  0.705600  0.153200  0.585400  1
  O  O3186  1  0.447600  0.294400  0.585400  1
  O  O3187  1  0.846800  0.552400  0.585400  1
  O  O3188  1  0.552400  0.846800  0.914600  1
  O  O3189  1  0.153200  0.705600  0.914600  1
  O  O3190  1  0.294400  0.447600  0.914600  1
  O  O3191  1  0.294400  0.846800  0.414600  1
  O  O3192  1  0.552400  0.705600  0.414600  1
  O  O3193  1  0.153200  0.447600  0.414600  1
  O  O3194  1  0.447600  0.153200  0.085400  1
  O  O3195  1  0.846800  0.294400  0.085400  1
  O  O3196  1  0.705600  0.552400  0.085400  1
  O  O3197  1  0.445100  0.817800  0.506800  1.0
  O  O3198  1  0.372700  0.554900  0.506800  1.0
  O  O3199  1  0.182200  0.627300  0.506800  1.0
  O  O3200  1  0.627300  0.182200  0.993200  1.0
  O  O3201  1  0.817800  0.445100  0.993200  1.0
  O  O3202  1  0.554900  0.372700  0.993200  1.0
  O  O3203  1  0.554900  0.182200  0.493200  1.0
  O  O3204  1  0.627300  0.445100  0.493200  1.0
  O  O3205  1  0.817800  0.372700  0.493200  1.0
  O  O3206  1  0.372700  0.817800  0.006800  1.0
  O  O3207  1  0.182200  0.554900  0.006800  1.0
  O  O3208  1  0.445100  0.627300  0.006800  1.0
  F  F3209  1  0.760000  0.116500  0.610500  1
  F  F3210  1  0.356500  0.240000  0.610500  1
  F  F3211  1  0.883500  0.643500  0.610500  1
  F  F3212  1  0.643500  0.883500  0.889500  1
  F  F3213  1  0.116500  0.760000  0.889500  1
  F  F3214  1  0.240000  0.356500  0.889500  1
  F  F3215  1  0.240000  0.883500  0.389500  1
  F  F3216  1  0.643500  0.760000  0.389500  1
  F  F3217  1  0.116500  0.356500  0.389500  1
  F  F3218  1  0.356500  0.116500  0.110500  1
  F  F3219  1  0.883500  0.240000  0.110500  1
  F  F3220  1  0.760000  0.643500  0.110500  1
  F  F3221  1  0.731500  0.111900  0.657200  1
  F  F3222  1  0.380400  0.268500  0.657200  1
  F  F3223  1  0.888100  0.619600  0.657200  1
  F  F3224  1  0.619600  0.888100  0.842800  1
  F  F3225  1  0.111900  0.731500  0.842800  1
  F  F3226  1  0.268500  0.380400  0.842800  1
  F  F3227  1  0.268500  0.888100  0.342800  1
  F  F3228  1  0.619600  0.731500  0.342800  1
  F  F3229  1  0.111900  0.380400  0.342800  1
  F  F3230  1  0.380400  0.111900  0.157200  1
  F  F3231  1  0.888100  0.268500  0.157200  1
  F  F3232  1  0.731500  0.619600  0.157200  1
  F  F3233  1  0.773300  0.175900  0.635500  1
  F  F3234  1  0.402600  0.226700  0.635500  1
  F  F3235  1  0.824100  0.597400  0.635500  1
  F  F3236  1  0.597400  0.824100  0.864500  1
  F  F3237  1  0.175900  0.773300  0.864500  1
  F  F3238  1  0.226700  0.402600  0.864500  1
  F  F3239  1  0.226700  0.824100  0.364500  1
  F  F3240  1  0.597400  0.773300  0.364500  1
  F  F3241  1  0.175900  0.402600  0.364500  1
  F  F3242  1  0.402600  0.175900  0.135500  1
  F  F3243  1  0.824100  0.226700  0.135500  1
  F  F3244  1  0.773300  0.597400  0.135500  1
