
#######################################################################
#
#                 Cambridge Crystallographic Data Centre
#                                CCDC 
#
#######################################################################
#
# If this CIF has been generated from an entry in the Cambridge 
# Structural Database, then it will include bibliographic, chemical, 
# crystal, experimental, refinement or atomic coordinate data resulting 
# from the CCDC's data processing and validation procedures.
#
#######################################################################

data_GAKFOQ
_chemical_formula_moiety         'C342 H327 N51 O3 Zn10 8+,8(C1 F3 O3 S1 1-)'
_chemical_name_systematic        
"hexakis(\m-N,N'-((2,8,12,18-tetraethyl-3,7,13,17-tetramethylporphine-5,15-diyl)di-4,1-phenylene)bis(1-(pyridin-2-yl)methanimine))-tris(acetonitrile)-triaqua-deca-zinc octakis(trifluoromethanesulfonate) unknown solvate"
_symmetry_cell_setting           trigonal
_symmetry_space_group_name_H-M   'P -3 c 1'
_symmetry_Int_Tables_number      165
_space_group_name_Hall           '-P 3 2"c'
loop_
_symmetry_equiv_pos_site_id
_symmetry_equiv_pos_as_xyz
1 x,y,z
2 -y,x-y,z
3 -x+y,-x,z
4 y,x,1/2-z
5 x-y,-y,1/2-z
6 -x,-x+y,1/2-z
7 -x,-y,-z
8 y,-x+y,-z
9 x-y,x,-z
10 -y,-x,1/2+z
11 -x+y,y,1/2+z
12 x,x-y,1/2+z
_cell_length_a                   35.2240(14)
_cell_length_b                   35.2240(14)
_cell_length_c                   43.354(2)
_cell_angle_alpha                90
_cell_angle_beta                 90
_cell_angle_gamma                120
_cell_volume                     46584
_exptl_crystal_colour            'dark red'
_exptl_crystal_description       block
_cell_formula_units_Z            4
_exptl_crystal_recrystallization_method 'diethyl ether/acetonitrile'
loop_
_atom_site_label
_atom_site_type_symbol
_atom_site_fract_x
_atom_site_fract_y
_atom_site_fract_z
Zn1 Zn 0.28514(6) 0.02290(6) 0.49973(4)
Zn2 Zn 0.6667 0.3333 0.11710(6)
Zn3 Zn 0.42650(6) 0.12660(7) 0.27811(4)
Zn4 Zn 0.49625(6) 0.37538(5) 0.49397(4)
N1 N 0.2946(4) -0.0080(3) 0.5380(2)
N2 N 0.3384(3) 0.0764(3) 0.5224(3)
N3 N 0.6759(3) 0.6729(3) 0.4733(3)
N4 N 0.7259(4) 0.7634(4) 0.4754(2)
N5 N 0.5174(4) 0.4277(3) 0.5241(2)
N6 N 0.4603(4) 0.3311(4) 0.5283(3)
N7 N 0.4627(5) 0.3242(4) 0.4636(3)
N8 N 0.5151(4) 0.4218(4) 0.4591(2)
N9 N 0.2327(4) 0.0305(5) 0.5165(3)
N10 N 0.2724(4) 0.0543(4) 0.4606(3)
N11 N 0.6537(3) 0.2738(3) 0.1409(2)
N12 N 0.7062(3) 0.3127(3) 0.0925(2)
N13 N 0.4515(4) 0.1817(5) 0.2518(3)
N14 N 0.3879(4) 0.1455(4) 0.3031(3)
N15 N 0.4113(4) 0.0802(3) 0.3120(2)
N16 N 0.4773(4) 0.1198(4) 0.2617(3)
N17 N 0.3752(5) 0.0778(5) 0.2448(3)
C1 C 0.2733(4) -0.0511(3) 0.5442(3)
H1 H 0.2482 -0.0698 0.5322
C2 C 0.2859(6) -0.0697(3) 0.5671(4)
H2 H 0.2706 -0.1006 0.5703
C3 C 0.3211(6) -0.0425(4) 0.5852(4)
H3 H 0.3291 -0.0540 0.6022
C4 C 0.3448(4) 0.0018(4) 0.5786(3)
H4 H 0.3702 0.0208 0.5902
C5 C 0.3307(4) 0.0180(3) 0.5546(3)
C6 C 0.3513(5) 0.0647(4) 0.5465(3)
H5 H 0.3741 0.0861 0.5591
C7 C 0.3615(3) 0.1228(2) 0.51558(19)
C8 C 0.4068(3) 0.1476(3) 0.51843(19)
H6 H 0.4231 0.1340 0.5246
C9 C 0.4284(2) 0.1923(3) 0.5123(2)
H7 H 0.4593 0.2093 0.5143
C10 C 0.4046(3) 0.2122(2) 0.50333(19)
C11 C 0.3593(3) 0.1874(3) 0.50048(19)
H8 H 0.3430 0.2011 0.4943
C12 C 0.3377(2) 0.1427(3) 0.5066(2)
H9 H 0.3067 0.1258 0.5047
C13 C 0.4289(4) 0.2618(3) 0.5005(3)
C14 C 0.4419(5) 0.2794(4) 0.4702(3)
C15 C 0.4345(6) 0.2549(4) 0.4409(3)
C16 C 0.4523(7) 0.2842(5) 0.4177(3)
C17 C 0.4676(6) 0.3270(5) 0.4318(4)
C18 C 0.4881(6) 0.3687(5) 0.4168(3)
H10 H 0.4887 0.3675 0.3949
C19 C 0.5074(5) 0.4110(5) 0.4293(3)
C20 C 0.5255(5) 0.4476(5) 0.4088(3)
C21 C 0.5459(5) 0.4825(4) 0.4283(3)
C22 C 0.5404(4) 0.4677(4) 0.4601(3)
C23 C 0.5540(4) 0.4894(3) 0.4881(3)
C24 C 0.5443(4) 0.4730(4) 0.5186(3)
C25 C 0.5566(4) 0.4964(4) 0.5469(3)
C26 C 0.5348(5) 0.4658(5) 0.5696(3)
C27 C 0.5106(5) 0.4234(5) 0.5552(3)
C28 C 0.4839(5) 0.3840(5) 0.5703(3)
H11 H 0.4806 0.3866 0.5918
C29 C 0.4613(5) 0.3415(5) 0.5587(3)
C30 C 0.4346(5) 0.3037(5) 0.5777(3)
C31 C 0.4196(5) 0.2681(4) 0.5577(3)
C32 C 0.4361(4) 0.2863(4) 0.5275(3)
C33 C 0.5857(3) 0.5383(2) 0.4850(2)
C34 C 0.5714(2) 0.5686(3) 0.4865(2)
H12 H 0.5413 0.5589 0.4901
C35 C 0.6010(3) 0.6130(3) 0.4826(2)
H13 H 0.5912 0.6336 0.4835
C36 C 0.6450(3) 0.6271(2) 0.4772(2)
C37 C 0.6594(2) 0.5969(3) 0.4758(2)
H14 H 0.6895 0.6065 0.4721
C38 C 0.6297(3) 0.5525(3) 0.4797(2)
H15 H 0.6395 0.5318 0.4787
C39 C 0.6674(5) 0.6963(5) 0.4559(3)
H16 H 0.6413 0.6826 0.4439
C40 C 0.6954(4) 0.7431(3) 0.4534(3)
C41 C 0.6903(4) 0.7643(4) 0.4283(3)
H17 H 0.6688 0.7485 0.4130
C42 C 0.7174(5) 0.8090(4) 0.4261(3)
H18 H 0.7155 0.8245 0.4089
C43 C 0.7474(5) 0.8311(3) 0.4493(4)
H19 H 0.7658 0.8620 0.4484
C44 C 0.7504(5) 0.8074(4) 0.4739(3)
H20 H 0.7702 0.8228 0.4902
C45 C 0.4139(6) 0.2057(4) 0.4357(3)
H21 H 0.4168 0.2001 0.4139
H22 H 0.3828 0.1910 0.4413
H23 H 0.4289 0.1943 0.4485
C46 C 0.4567(8) 0.2769(6) 0.3835(3)
H24 H 0.4824 0.3032 0.3749
H25 H 0.4617 0.2518 0.3811
C47 C 0.4179(9) 0.2682(10) 0.3665(7)
H26 H 0.4217 0.2634 0.3447
H27 H 0.4133 0.2934 0.3684
H28 H 0.3925 0.2421 0.3749
C48 C 0.5259(7) 0.4485(5) 0.3737(3)
H29 H 0.5044 0.4191 0.3658
H30 H 0.5167 0.4694 0.3665
C49 C 0.5709(9) 0.4619(11) 0.3607(7)
H31 H 0.5697 0.4619 0.3381
H32 H 0.5800 0.4412 0.3676
H33 H 0.5921 0.4914 0.3680
C50 C 0.5698(5) 0.5302(4) 0.4178(3)
H34 H 0.5681 0.5314 0.3953
H35 H 0.6005 0.5442 0.4242
H36 H 0.5560 0.5456 0.4272
C51 C 0.5845(5) 0.5449(4) 0.5537(3)
H37 H 0.5674 0.5594 0.5498
H38 H 0.6105 0.5577 0.5404
H39 H 0.5937 0.5490 0.5754
C52 C 0.5348(6) 0.4732(5) 0.6034(3)
H40 H 0.5043 0.4571 0.6111
H41 H 0.5464 0.5048 0.6073
C53 C 0.5623(7) 0.4583(6) 0.6212(4)
H42 H 0.5548 0.4288 0.6144
H43 H 0.5564 0.4578 0.6433
H44 H 0.5935 0.4787 0.6172
C54 C 0.4265(5) 0.3029(5) 0.6112(3)
H45 H 0.3957 0.2802 0.6156
H46 H 0.4303 0.3316 0.6176
C55 C 0.4563(5) 0.2934(5) 0.6300(4)
H47 H 0.4497 0.2634 0.6260
H48 H 0.4519 0.2967 0.6519
H49 H 0.4868 0.3140 0.6243
C56 C 0.3935(5) 0.2218(4) 0.5707(3)
H50 H 0.3803 0.2226 0.5904
H51 H 0.4132 0.2100 0.5740
H52 H 0.3704 0.2031 0.5562
C57 C 0.2148(6) 0.0224(7) 0.5449(3)
H53 H 0.2249 0.0096 0.5596
C58 C 0.1827(7) 0.0318(9) 0.5537(3)
H54 H 0.1725 0.0276 0.5744
C59 C 0.1659(7) 0.0474(9) 0.5316(4)
H55 H 0.1430 0.0532 0.5367
C60 C 0.1825(5) 0.0547(7) 0.5020(3)
H56 H 0.1709 0.0649 0.4864
C61 C 0.2166(5) 0.0467(6) 0.4953(3)
C62 C 0.2370(5) 0.0553(6) 0.4651(3)
H57 H 0.2238 0.0617 0.4483
C63 C 0.2930(3) 0.0625(3) 0.43143(19)
C64 C 0.3374(3) 0.0934(3) 0.42993(19)
H58 H 0.3527 0.1084 0.4481
C65 C 0.3594(2) 0.1023(3) 0.4019(2)
H59 H 0.3898 0.1234 0.4009
C66 C 0.3370(3) 0.0803(3) 0.37540(18)
C67 C 0.2926(3) 0.0494(3) 0.37689(19)
H60 H 0.2773 0.0344 0.3588
C68 C 0.2706(2) 0.0406(3) 0.4049(2)
H61 H 0.2403 0.0195 0.4059
C69 C 0.3603(4) 0.0911(4) 0.3447(3)
C70 C 0.3841(4) 0.0692(4) 0.3378(3)
C71 C 0.3814(4) 0.0318(4) 0.3534(3)
C72 C 0.4076(5) 0.0205(5) 0.3371(3)
C73 C 0.4269(5) 0.0508(5) 0.3124(4)
C74 C 0.4591(5) 0.0549(4) 0.2917(3)
H62 H 0.4650 0.0314 0.2930
C75 C 0.4845(5) 0.0863(5) 0.2696(3)
C76 C 0.5237(6) 0.0884(6) 0.2534(4)
C77 C 0.5368(5) 0.1242(5) 0.2355(3)
C78 C 0.5107(5) 0.1447(5) 0.2413(3)
C79 C 0.5130(4) 0.1802(5) 0.2257(3)
C80 C 0.4854(5) 0.1981(5) 0.2301(4)
C81 C 0.4863(6) 0.2339(6) 0.2129(4)
C82 C 0.4528(6) 0.2392(6) 0.2249(4)
C83 C 0.4323(6) 0.2070(6) 0.2494(4)
C84 C 0.3982(6) 0.2036(6) 0.2678(4)
H63 H 0.3863 0.2213 0.2618
C85 C 0.3794(5) 0.1776(5) 0.2938(4)
C86 C 0.3507(6) 0.1839(6) 0.3148(4)
C87 C 0.3405(6) 0.1500(6) 0.3369(4)
C88 C 0.3633(5) 0.1273(5) 0.3289(4)
C89 C 0.5504(3) 0.2041(3) 0.2037(2)
C90 C 0.5469(3) 0.1897(3) 0.1734(2)
H64 H 0.5208 0.1645 0.1667
C91 C 0.5815(3) 0.2122(3) 0.15305(17)
H65 H 0.5791 0.2024 0.1324
C92 C 0.6197(3) 0.2491(3) 0.1629(2)
C93 C 0.6232(3) 0.2634(3) 0.1932(2)
H66 H 0.6493 0.2886 0.2000
C94 C 0.5886(3) 0.2409(3) 0.21361(17)
H67 H 0.5910 0.2507 0.2343
C95 C 0.6729(5) 0.2551(4) 0.1279(3)
H68 H 0.6667 0.2271 0.1350
C96 C 0.7038(4) 0.2755(4) 0.1027(3)
C97 C 0.7291(5) 0.2590(4) 0.0912(3)
H69 H 0.7261 0.2323 0.0988
C98 C 0.7589(5) 0.2822(5) 0.0684(4)
H70 H 0.7767 0.2717 0.0600
C99 C 0.7628(5) 0.3210(5) 0.0579(3)
H71 H 0.7836 0.3376 0.0424
C100 C 0.7357(4) 0.3353(4) 0.0703(3)
H72 H 0.7381 0.3618 0.0629
C101 C 0.3570(5) 0.0076(4) 0.3821(3)
H73 H 0.3254 -0.0053 0.3788
H74 H 0.3662 0.0281 0.3995
H75 H 0.3636 -0.0157 0.3867
C102 C 0.4165(5) -0.0169(4) 0.3413(3)
H76 H 0.4107 -0.0267 0.3631
H77 H 0.4480 -0.0060 0.3372
C103 C 0.3892(5) -0.0560(4) 0.3205(3)
H78 H 0.3581 -0.0679 0.3251
H79 H 0.3972 -0.0786 0.3242
H80 H 0.3949 -0.0466 0.2989
C104 C 0.5428(6) 0.0589(5) 0.2588(5)
H81 H 0.5570 0.0569 0.2396
H82 H 0.5190 0.0290 0.2641
C105 C 0.5763(11) 0.0761(12) 0.2847(8)
H83 H 0.5885 0.0567 0.2874
H84 H 0.5621 0.0771 0.3039
H85 H 0.5999 0.1057 0.2796
C106 C 0.5774(6) 0.1385(6) 0.2161(4)
H86 H 0.5922 0.1224 0.2226
H87 H 0.5974 0.1700 0.2188
H88 H 0.5691 0.1322 0.1943
C107 C 0.5147(6) 0.2622(6) 0.1860(4)
H89 H 0.5008 0.2774 0.1765
H90 H 0.5176 0.2434 0.1706
H91 H 0.5438 0.2837 0.1937
C108 C 0.4375(8) 0.2703(7) 0.2158(5)
H92 H 0.4055 0.2569 0.2191
H93 H 0.4440 0.2785 0.1937
C109 C 0.4625(9) 0.3101(8) 0.2362(6)
H94 H 0.4782 0.3036 0.2521
H95 H 0.4419 0.3174 0.2460
H96 H 0.4835 0.3349 0.2237
C110 C 0.3345(7) 0.2164(7) 0.3110(5)
H97 H 0.3312 0.2266 0.3316
H98 H 0.3563 0.2422 0.2992
C111 C 0.2912(8) 0.1951(9) 0.2944(6)
H99 H 0.2898 0.1730 0.2800
H100 H 0.2882 0.2174 0.2828
H101 H 0.2673 0.1811 0.3094
C112 C 0.3082(6) 0.1434(6) 0.3622(4)
H102 H 0.3030 0.1683 0.3624
H103 H 0.3201 0.1414 0.3821
H104 H 0.2805 0.1163 0.3583
C113 C 0.3546(7) 0.0561(7) 0.2259(4)
C114 C 0.3252(7) 0.0186(6) 0.2073(4)
H105 H 0.3385 0.0003 0.2036
H106 H 0.3200 0.0287 0.1875
H107 H 0.2973 0.0014 0.2182
O1 O 0.5549(4) 0.3727(3) 0.4932(2)
H108 H 0.5693 0.3683 0.4793
H109 H 0.5726 0.3734 0.5067
Zn1A Zn 0.97710(6) 0.26224(8) 0.49973(4)
Zn3A Zn 0.87340(7) 0.29990(9) 0.27811(4)
Zn4A Zn 0.62462(5) 0.12087(8) 0.49397(4)
N1A N 1.0080(3) 0.3026(5) 0.5380(2)
N2A N 0.9236(3) 0.2620(4) 0.5224(3)
N3A N 0.3271(3) 0.0030(4) 0.4733(3)
N4A N 0.2366(4) -0.0375(6) 0.4754(2)
N5A N 0.5723(3) 0.0897(5) 0.5241(2)
N6A N 0.6689(4) 0.1292(6) 0.5283(3)
N7A N 0.6758(4) 0.1385(6) 0.4636(3)
N8A N 0.5782(4) 0.0933(6) 0.4591(2)
N9A N 0.9695(5) 0.2022(6) 0.5165(3)
N10A N 0.9457(4) 0.2181(6) 0.4606(3)
N11A N 0.7262(3) 0.3799(4) 0.1409(2)
N12A N 0.6873(3) 0.3935(4) 0.0925(2)
N13A N 0.8183(5) 0.2698(6) 0.2518(3)
N14A N 0.8545(4) 0.2424(6) 0.3031(3)
N15A N 0.9198(3) 0.3311(5) 0.3120(2)
N16A N 0.8802(4) 0.3575(6) 0.2617(3)
N17A N 0.9222(5) 0.2974(7) 0.2448(3)
C1A C 1.0511(3) 0.3244(5) 0.5442(3)
H1A H 1.0698 0.3180 0.5322
C2A C 1.0697(3) 0.3556(7) 0.5671(4)
H2A H 1.1006 0.3712 0.5703
C3A C 1.0425(4) 0.3636(7) 0.5852(4)
H3A H 1.0540 0.3831 0.6022
C4A C 0.9982(4) 0.3430(6) 0.5786(3)
H4A H 0.9792 0.3494 0.5902
C5A C 0.9820(3) 0.3127(5) 0.5546(3)
C6A C 0.9353(4) 0.2866(6) 0.5465(3)
H5A H 0.9139 0.2880 0.5591
C7A C 0.8772(2) 0.2387(4) 0.51558(19)
C8A C 0.8524(3) 0.2592(4) 0.51843(19)
H6A H 0.8660 0.2891 0.5246
C9A C 0.8077(3) 0.2361(4) 0.5123(2)
H7A H 0.7907 0.2500 0.5143
C10A C 0.7878(2) 0.1924(4) 0.50333(19)
C11A C 0.8126(3) 0.1719(4) 0.50048(19)
H8A H 0.7989 0.1419 0.4943
C12A C 0.8573(3) 0.1950(4) 0.5066(2)
H9A H 0.8742 0.1809 0.5047
C13A C 0.7382(3) 0.1671(5) 0.5005(3)
C14A C 0.7206(4) 0.1625(6) 0.4702(3)
C15A C 0.7451(4) 0.1796(7) 0.4409(3)
C16A C 0.7158(5) 0.1681(9) 0.4177(3)
C17A C 0.6730(5) 0.1406(8) 0.4318(4)
C18A C 0.6313(5) 0.1194(8) 0.4168(3)
H10A H 0.6325 0.1212 0.3949
C19A C 0.5890(5) 0.0964(7) 0.4293(3)
C20A C 0.5524(5) 0.0779(7) 0.4088(3)
C21A C 0.5175(4) 0.0634(6) 0.4283(3)
C22A C 0.5323(4) 0.0727(6) 0.4601(3)
C23A C 0.5106(3) 0.0646(5) 0.4881(3)
C24A C 0.5270(4) 0.0713(6) 0.5186(3)
C25A C 0.5036(4) 0.0602(6) 0.5469(3)
C26A C 0.5342(5) 0.0690(7) 0.5696(3)
C27A C 0.5766(5) 0.0872(7) 0.5552(3)
C28A C 0.6160(5) 0.0999(7) 0.5703(3)
H11A H 0.6134 0.0940 0.5918
C29A C 0.6585(5) 0.1198(7) 0.5587(3)
C30A C 0.6963(5) 0.1309(7) 0.5777(3)
C31A C 0.7319(4) 0.1515(6) 0.5577(3)
C32A C 0.7137(4) 0.1498(6) 0.5275(3)
C33A C 0.4617(2) 0.0474(4) 0.4850(2)
C34A C 0.4314(3) 0.0028(4) 0.4865(2)
H12A H 0.4411 -0.0176 0.4901
C35A C 0.3870(3) -0.0120(4) 0.4826(2)
H13A H 0.3664 -0.0424 0.4835
C36A C 0.3729(2) 0.0179(4) 0.4772(2)
C37A C 0.4031(3) 0.0625(4) 0.4758(2)
H14A H 0.3935 0.0830 0.4721
C38A C 0.4475(3) 0.0772(4) 0.4797(2)
H15A H 0.4682 0.1077 0.4787
C39A C 0.3037(5) -0.0289(7) 0.4559(3)
H16A H 0.3174 -0.0413 0.4439
C40A C 0.2569(3) -0.0477(5) 0.4534(3)
C41A C 0.2357(4) -0.0740(6) 0.4283(3)
H17A H 0.2515 -0.0797 0.4130
C42A C 0.1910(4) -0.0916(6) 0.4261(3)
H18A H 0.1755 -0.1090 0.4089
C43A C 0.1689(3) -0.0837(6) 0.4493(4)
H19A H 0.1380 -0.0962 0.4484
C44A C 0.1926(4) -0.0570(6) 0.4739(3)
H20A H 0.1772 -0.0526 0.4902
C45A C 0.7943(4) 0.2082(7) 0.4357(3)
H21A H 0.7999 0.2167 0.4139
H22A H 0.8090 0.1918 0.4413
H23A H 0.8057 0.2346 0.4485
C46A C 0.7231(6) 0.1798(10) 0.3835(3)
H24A H 0.6968 0.1792 0.3749
H25A H 0.7482 0.2099 0.3811
C47A C 0.7318(10) 0.1497(13) 0.3665(7)
H26A H 0.7366 0.1583 0.3447
H27A H 0.7066 0.1199 0.3684
H28A H 0.7579 0.1504 0.3749
C48A C 0.5515(5) 0.0774(9) 0.3737(3)
H29A H 0.5809 0.0853 0.3658
H30A H 0.5306 0.0473 0.3665
C49A C 0.5381(11) 0.1090(14) 0.3607(7)
H31A H 0.5381 0.1078 0.3381
H32A H 0.5588 0.1388 0.3676
H33A H 0.5086 0.1007 0.3680
C50A C 0.4698(4) 0.0396(6) 0.4178(3)
H34A H 0.4686 0.0367 0.3953
H35A H 0.4558 0.0563 0.4242
H36A H 0.4544 0.0104 0.4272
C51A C 0.4551(4) 0.0396(6) 0.5537(3)
H37A H 0.4406 0.0080 0.5498
H38A H 0.4423 0.0528 0.5404
H39A H 0.4510 0.0447 0.5754
C52A C 0.5268(5) 0.0616(8) 0.6034(3)
H40A H 0.5429 0.0472 0.6111
H41A H 0.4952 0.0416 0.6073
C53A C 0.5417(6) 0.1040(9) 0.6212(4)
H42A H 0.5712 0.1260 0.6144
H43A H 0.5422 0.0986 0.6433
H44A H 0.5213 0.1148 0.6172
C54A C 0.6971(5) 0.1236(7) 0.6112(3)
H45A H 0.7198 0.1155 0.6156
H46A H 0.6684 0.0987 0.6176
C55A C 0.7066(5) 0.1629(7) 0.6300(4)
H47A H 0.7366 0.1863 0.6260
H48A H 0.7033 0.1552 0.6519
H49A H 0.6860 0.1728 0.6243
C56A C 0.7782(4) 0.1717(6) 0.5707(3)
H50A H 0.7774 0.1577 0.5904
H51A H 0.7900 0.2032 0.5740
H52A H 0.7969 0.1673 0.5562
C57A C 0.9776(7) 0.1924(9) 0.5449(3)
H53A H 0.9904 0.2153 0.5596
C58A C 0.9682(9) 0.1509(11) 0.5537(3)
H54A H 0.9724 0.1449 0.5744
C59A C 0.9526(9) 0.1185(11) 0.5316(4)
H55A H 0.9468 0.0898 0.5367
C60A C 0.9453(7) 0.1278(9) 0.5020(3)
H56A H 0.9351 0.1060 0.4864
C61A C 0.9533(6) 0.1699(8) 0.4953(3)
C62A C 0.9447(6) 0.1817(8) 0.4651(3)
H57A H 0.9383 0.1621 0.4483
C63A C 0.9375(3) 0.2305(4) 0.43143(19)
C64A C 0.9066(3) 0.2440(4) 0.42993(19)
H58A H 0.8916 0.2443 0.4481
C65A C 0.8977(3) 0.2571(4) 0.4019(2)
H59A H 0.8766 0.2664 0.4009
C66A C 0.9197(3) 0.2567(4) 0.37540(18)
C67A C 0.9506(3) 0.2432(4) 0.37689(19)
H60A H 0.9656 0.2429 0.3588
C68A C 0.9594(3) 0.2300(4) 0.4049(2)
H61A H 0.9805 0.2208 0.4059
C69A C 0.9089(4) 0.2692(6) 0.3447(3)
C70A C 0.9308(4) 0.3149(6) 0.3378(3)
C71A C 0.9682(4) 0.3496(6) 0.3534(3)
C72A C 0.9795(5) 0.3871(7) 0.3371(3)
C73A C 0.9492(5) 0.3761(7) 0.3124(4)
C74A C 0.9451(4) 0.4042(6) 0.2917(3)
H62A H 0.9686 0.4336 0.2930
C75A C 0.9137(5) 0.3982(7) 0.2696(3)
C76A C 0.9116(6) 0.4353(8) 0.2534(4)
C77A C 0.8758(5) 0.4126(7) 0.2355(3)
C78A C 0.8553(5) 0.3660(7) 0.2413(3)
C79A C 0.8198(5) 0.3328(6) 0.2257(3)
C80A C 0.8019(5) 0.2873(7) 0.2301(4)
C81A C 0.7661(6) 0.2524(8) 0.2129(4)
C82A C 0.7608(6) 0.2136(8) 0.2249(4)
C83A C 0.7930(6) 0.2253(8) 0.2494(4)
C84A C 0.7964(6) 0.1946(8) 0.2678(4)
H63A H 0.7787 0.1650 0.2618
C85A C 0.8224(5) 0.2018(7) 0.2938(4)
C86A C 0.8161(6) 0.1668(8) 0.3148(4)
C87A C 0.8500(6) 0.1905(8) 0.3369(4)
C88A C 0.8727(5) 0.2360(7) 0.3289(4)
C89A C 0.7959(3) 0.3463(4) 0.2037(2)
C90A C 0.8103(3) 0.3572(4) 0.1734(2)
H64A H 0.8355 0.3563 0.1667
C91A C 0.7878(3) 0.3693(4) 0.15305(17)
H65A H 0.7976 0.3767 0.1324
C92A C 0.7509(3) 0.3706(4) 0.1629(2)
C93A C 0.7366(3) 0.3598(4) 0.1932(2)
H66A H 0.7114 0.3607 0.2000
C94A C 0.7591(3) 0.3477(4) 0.21361(17)
H67A H 0.7493 0.3403 0.2343
C95A C 0.7449(4) 0.4178(6) 0.1279(3)
H68A H 0.7729 0.4396 0.1350
C96A C 0.7245(4) 0.4283(6) 0.1027(3)
C97A C 0.7410(4) 0.4701(6) 0.0912(3)
H69A H 0.7677 0.4938 0.0988
C98A C 0.7178(5) 0.4767(7) 0.0684(4)
H70A H 0.7283 0.5050 0.0600
C99A C 0.6790(5) 0.4418(7) 0.0579(3)
H71A H 0.6624 0.4460 0.0424
C100A C 0.6647(4) 0.4004(6) 0.0703(3)
H72A H 0.6382 0.3763 0.0629
C101A C 0.9924(4) 0.3494(6) 0.3821(3)
H73A H 1.0053 0.3307 0.3788
H74A H 0.9719 0.3381 0.3995
H75A H 1.0157 0.3793 0.3867
C102A C 1.0169(4) 0.4334(6) 0.3413(3)
H76A H 1.0267 0.4374 0.3631
H77A H 1.0060 0.4540 0.3372
C103A C 1.0560(4) 0.4452(6) 0.3205(3)
H78A H 1.0679 0.4260 0.3251
H79A H 1.0786 0.4758 0.3242
H80A H 1.0466 0.4415 0.2989
C104A C 0.9411(5) 0.4839(8) 0.2588(5)
H81A H 0.9431 0.5001 0.2396
H82A H 0.9710 0.4900 0.2641
C105A C 0.9239(12) 0.5002(16) 0.2847(8)
H83A H 0.9433 0.5318 0.2874
H84A H 0.9229 0.4850 0.3039
H85A H 0.8943 0.4942 0.2796
C106A C 0.8615(6) 0.4389(8) 0.2161(4)
H86A H 0.8776 0.4698 0.2226
H87A H 0.8300 0.4274 0.2188
H88A H 0.8678 0.4369 0.1943
C107A C 0.7378(6) 0.2525(8) 0.1860(4)
H89A H 0.7226 0.2234 0.1765
H90A H 0.7566 0.2742 0.1706
H91A H 0.7163 0.2601 0.1937
C108A C 0.7297(7) 0.1672(11) 0.2158(5)
H92A H 0.7431 0.1486 0.2191
H93A H 0.7215 0.1655 0.1937
C109A C 0.6899(8) 0.1524(12) 0.2362(6)
H94A H 0.6964 0.1746 0.2521
H95A H 0.6826 0.1245 0.2460
H96A H 0.6651 0.1486 0.2237
C110A C 0.7836(7) 0.1181(10) 0.3110(5)
H97A H 0.7734 0.1046 0.3316
H98A H 0.7578 0.1141 0.2992
C111A C 0.8049(9) 0.0961(12) 0.2944(6)
H99A H 0.8270 0.1168 0.2800
H100A H 0.7826 0.0708 0.2828
H101A H 0.8189 0.0862 0.3094
C112A C 0.8566(6) 0.1648(8) 0.3622(4)
H102A H 0.8317 0.1347 0.3624
H103A H 0.8586 0.1787 0.3821
H104A H 0.8837 0.1642 0.3583
C113A C 0.9439(7) 0.2985(10) 0.2259(4)
C114A C 0.9814(6) 0.3066(9) 0.2073(4)
H105A H 0.9997 0.3382 0.2036
H106A H 0.9713 0.2913 0.1875
H107A H 0.9986 0.2959 0.2182
O1A O 0.6273(3) 0.1822(5) 0.4932(2)
H108A H 0.6317 0.2010 0.4793
H109A H 0.6266 0.1992 0.5067
Zn1B Zn 0.73776(8) 0.71486(6) 0.49973(4)
Zn3B Zn 0.70010(9) 0.57350(6) 0.27811(4)
Zn4B Zn 0.87913(8) 0.50375(6) 0.49397(4)
N1B N 0.6974(5) 0.7054(4) 0.5380(2)
N2B N 0.7380(4) 0.6616(3) 0.5224(3)
N3B N 0.9970(4) 0.3241(3) 0.4733(3)
N4B N 1.0375(6) 0.2741(4) 0.4754(2)
N5B N 0.9103(5) 0.4826(4) 0.5241(2)
N6B N 0.8708(6) 0.5397(4) 0.5283(3)
N7B N 0.8615(6) 0.5373(5) 0.4636(3)
N8B N 0.9067(6) 0.4849(4) 0.4591(2)
N9B N 0.7978(6) 0.7673(4) 0.5165(3)
N10B N 0.7819(6) 0.7276(4) 0.4606(3)
N11B N 0.6201(4) 0.3463(3) 0.1409(2)
N12B N 0.6065(4) 0.2938(3) 0.0925(2)
N13B N 0.7302(6) 0.5485(4) 0.2518(3)
N14B N 0.7576(6) 0.6121(4) 0.3031(3)
N15B N 0.6689(5) 0.5887(4) 0.3120(2)
N16B N 0.6425(6) 0.5227(4) 0.2617(3)
N17B N 0.7026(7) 0.6248(5) 0.2448(3)
C1B C 0.6756(5) 0.7267(4) 0.5442(3)
H1B H 0.6820 0.7518 0.5322
C2B C 0.6444(7) 0.7141(6) 0.5671(4)
H2B H 0.6288 0.7294 0.5703
C3B C 0.6364(7) 0.6789(6) 0.5852(4)
H3B H 0.6169 0.6709 0.6022
C4B C 0.6570(6) 0.6552(4) 0.5786(3)
H4B H 0.6506 0.6298 0.5902
C5B C 0.6873(5) 0.6693(4) 0.5546(3)
C6B C 0.7134(6) 0.6487(5) 0.5465(3)
H5B H 0.7120 0.6259 0.5591
C7B C 0.7613(4) 0.6385(3) 0.51558(19)
C8B C 0.7408(4) 0.5932(3) 0.51843(19)
H6B H 0.7109 0.5769 0.5246
C9B C 0.7639(4) 0.5716(2) 0.5123(2)
H7B H 0.7500 0.5407 0.5143
C10B C 0.8076(4) 0.5954(3) 0.50333(19)
C11B C 0.8281(4) 0.6407(3) 0.50048(19)
H8B H 0.8581 0.6570 0.4943
C12B C 0.8050(4) 0.6623(2) 0.5066(2)
H9B H 0.8191 0.6933 0.5047
C13B C 0.8329(5) 0.5711(4) 0.5005(3)
C14B C 0.8375(6) 0.5581(5) 0.4702(3)
C15B C 0.8204(7) 0.5655(6) 0.4409(3)
C16B C 0.8319(9) 0.5477(7) 0.4177(3)
C17B C 0.8594(8) 0.5324(6) 0.4318(4)
C18B C 0.8806(8) 0.5119(6) 0.4168(3)
H10B H 0.8788 0.5113 0.3949
C19B C 0.9036(7) 0.4926(5) 0.4293(3)
C20B C 0.9221(7) 0.4745(5) 0.4088(3)
C21B C 0.9366(6) 0.4541(5) 0.4283(3)
C22B C 0.9273(6) 0.4596(4) 0.4601(3)
C23B C 0.9354(5) 0.4460(4) 0.4881(3)
C24B C 0.9287(6) 0.4557(4) 0.5186(3)
C25B C 0.9398(6) 0.4434(4) 0.5469(3)
C26B C 0.9310(7) 0.4652(5) 0.5696(3)
C27B C 0.9128(7) 0.4894(5) 0.5552(3)
C28B C 0.9001(7) 0.5161(5) 0.5703(3)
H11B H 0.9060 0.5194 0.5918
C29B C 0.8802(7) 0.5387(5) 0.5587(3)
C30B C 0.8691(7) 0.5654(5) 0.5777(3)
C31B C 0.8485(6) 0.5804(5) 0.5577(3)
C32B C 0.8502(6) 0.5639(4) 0.5275(3)
C33B C 0.9526(4) 0.4143(3) 0.4850(2)
C34B C 0.9972(4) 0.4286(2) 0.4865(2)
H12B H 1.0176 0.4587 0.4901
C35B C 1.0120(4) 0.3990(3) 0.4826(2)
H13B H 1.0424 0.4088 0.4835
C36B C 0.9821(4) 0.3550(3) 0.4772(2)
C37B C 0.9375(4) 0.3406(2) 0.4758(2)
H14B H 0.9170 0.3105 0.4721
C38B C 0.9228(4) 0.3703(3) 0.4797(2)
H15B H 0.8923 0.3605 0.4787
C39B C 1.0289(7) 0.3326(5) 0.4559(3)
H16B H 1.0413 0.3587 0.4439
C40B C 1.0477(5) 0.3046(4) 0.4534(3)
C41B C 1.0740(6) 0.3097(4) 0.4283(3)
H17B H 1.0797 0.3312 0.4130
C42B C 1.0916(6) 0.2826(5) 0.4261(3)
H18B H 1.1090 0.2845 0.4089
C43B C 1.0837(6) 0.2526(5) 0.4493(4)
H19B H 1.0962 0.2342 0.4484
C44B C 1.0570(6) 0.2496(5) 0.4739(3)
H20B H 1.0526 0.2298 0.4902
C45B C 0.7918(7) 0.5861(6) 0.4357(3)
H21B H 0.7833 0.5832 0.4139
H22B H 0.8082 0.6172 0.4413
H23B H 0.7654 0.5711 0.4485
C46B C 0.8202(10) 0.5433(8) 0.3835(3)
H24B H 0.8208 0.5176 0.3749
H25B H 0.7901 0.5383 0.3811
C47B C 0.8503(13) 0.5821(9) 0.3665(7)
H26B H 0.8417 0.5783 0.3447
H27B H 0.8801 0.5867 0.3684
H28B H 0.8496 0.6075 0.3749
C48B C 0.9226(9) 0.4741(7) 0.3737(3)
H29B H 0.9147 0.4956 0.3658
H30B H 0.9527 0.4833 0.3665
C49B C 0.8910(14) 0.4291(9) 0.3607(7)
H31B H 0.8922 0.4303 0.3381
H32B H 0.8612 0.4200 0.3676
H33B H 0.8993 0.4079 0.3680
C50B C 0.9604(6) 0.4302(5) 0.4178(3)
H34B H 0.9633 0.4319 0.3953
H35B H 0.9437 0.3995 0.4242
H36B H 0.9896 0.4440 0.4272
C51B C 0.9604(6) 0.4155(5) 0.5537(3)
H37B H 0.9920 0.4326 0.5498
H38B H 0.9472 0.3895 0.5404
H39B H 0.9553 0.4063 0.5754
C52B C 0.9384(8) 0.4652(6) 0.6034(3)
H40B H 0.9528 0.4957 0.6111
H41B H 0.9584 0.4536 0.6073
C53B C 0.8960(9) 0.4377(7) 0.6212(4)
H42B H 0.8740 0.4452 0.6144
H43B H 0.9014 0.4436 0.6433
H44B H 0.8852 0.4065 0.6172
C54B C 0.8764(7) 0.5735(5) 0.6112(3)
H45B H 0.8845 0.6043 0.6156
H46B H 0.9013 0.5697 0.6176
C55B C 0.8371(7) 0.5437(5) 0.6300(4)
H47B H 0.8137 0.5503 0.6260
H48B H 0.8448 0.5481 0.6519
H49B H 0.8272 0.5132 0.6243
C56B C 0.8283(6) 0.6065(5) 0.5707(3)
H50B H 0.8423 0.6197 0.5904
H51B H 0.7968 0.5868 0.5740
H52B H 0.8327 0.6296 0.5562
C57B C 0.8076(9) 0.7852(6) 0.5449(3)
H53B H 0.7847 0.7751 0.5596
C58B C 0.8491(11) 0.8173(7) 0.5537(3)
H54B H 0.8551 0.8275 0.5744
C59B C 0.8815(11) 0.8341(7) 0.5316(4)
H55B H 0.9102 0.8570 0.5367
C60B C 0.8722(9) 0.8175(5) 0.5020(3)
H56B H 0.8940 0.8291 0.4864
C61B C 0.8301(8) 0.7834(5) 0.4953(3)
C62B C 0.8183(8) 0.7630(5) 0.4651(3)
H57B H 0.8379 0.7762 0.4483
C63B C 0.7695(4) 0.7070(3) 0.43143(19)
C64B C 0.7560(4) 0.6626(3) 0.42993(19)
H58B H 0.7557 0.6473 0.4481
C65B C 0.7429(4) 0.6406(2) 0.4019(2)
H59B H 0.7336 0.6102 0.4009
C66B C 0.7433(4) 0.6630(3) 0.37540(18)
C67B C 0.7568(4) 0.7074(3) 0.37689(19)
H60B H 0.7571 0.7227 0.3588
C68B C 0.7700(4) 0.7294(2) 0.4049(2)
H61B H 0.7792 0.7597 0.4059
C69B C 0.7308(6) 0.6397(4) 0.3447(3)
C70B C 0.6851(6) 0.6159(4) 0.3378(3)
C71B C 0.6504(6) 0.6186(4) 0.3534(3)
C72B C 0.6129(7) 0.5924(5) 0.3371(3)
C73B C 0.6239(7) 0.5731(5) 0.3124(4)
C74B C 0.5958(6) 0.5409(5) 0.2917(3)
H62B H 0.5664 0.5350 0.2930
C75B C 0.6018(7) 0.5155(5) 0.2696(3)
C76B C 0.5647(8) 0.4763(6) 0.2534(4)
C77B C 0.5874(7) 0.4632(5) 0.2355(3)
C78B C 0.6340(7) 0.4893(5) 0.2413(3)
C79B C 0.6672(6) 0.4870(4) 0.2257(3)
C80B C 0.7127(7) 0.5146(5) 0.2301(4)
C81B C 0.7476(8) 0.5137(6) 0.2129(4)
C82B C 0.7864(8) 0.5472(6) 0.2249(4)
C83B C 0.7747(8) 0.5677(6) 0.2494(4)
C84B C 0.8054(8) 0.6018(6) 0.2678(4)
H63B H 0.8350 0.6137 0.2618
C85B C 0.7982(7) 0.6206(5) 0.2938(4)
C86B C 0.8332(8) 0.6493(6) 0.3148(4)
C87B C 0.8095(8) 0.6595(6) 0.3369(4)
C88B C 0.7640(7) 0.6367(5) 0.3289(4)
C89B C 0.6537(4) 0.4496(3) 0.2037(2)
C90B C 0.6428(4) 0.4531(3) 0.1734(2)
H64B H 0.6437 0.4792 0.1667
C91B C 0.6307(4) 0.4185(3) 0.15305(17)
H65B H 0.6233 0.4209 0.1324
C92B C 0.6294(4) 0.3803(3) 0.1629(2)
C93B C 0.6402(4) 0.3768(3) 0.1932(2)
H66B H 0.6393 0.3507 0.2000
C94B C 0.6523(4) 0.4114(3) 0.21361(17)
H67B H 0.6597 0.4090 0.2343
C95B C 0.5822(6) 0.3271(5) 0.1279(3)
H68B H 0.5604 0.3333 0.1350
C96B C 0.5717(6) 0.2962(4) 0.1027(3)
C97B C 0.5299(6) 0.2709(5) 0.0912(3)
H69B H 0.5062 0.2739 0.0988
C98B C 0.5233(7) 0.2411(5) 0.0684(4)
H70B H 0.4950 0.2233 0.0600
C99B C 0.5582(7) 0.2372(5) 0.0579(3)
H71B H 0.5540 0.2164 0.0424
C100B C 0.5996(6) 0.2643(4) 0.0703(3)
H72B H 0.6237 0.2619 0.0629
C101B C 0.6506(6) 0.6430(5) 0.3821(3)
H73B H 0.6693 0.6746 0.3788
H74B H 0.6619 0.6338 0.3995
H75B H 0.6207 0.6364 0.3867
C102B C 0.5666(6) 0.5835(5) 0.3413(3)
H76B H 0.5626 0.5893 0.3631
H77B H 0.5460 0.5520 0.3372
C103B C 0.5548(6) 0.6108(5) 0.3205(3)
H78B H 0.5740 0.6419 0.3251
H79B H 0.5242 0.6028 0.3242
H80B H 0.5585 0.6051 0.2989
C104B C 0.5161(8) 0.4572(6) 0.2588(5)
H81B H 0.4999 0.4430 0.2396
H82B H 0.5100 0.4810 0.2641
C105B C 0.4998(16) 0.4237(11) 0.2847(8)
H83B H 0.4682 0.4115 0.2874
H84B H 0.5150 0.4379 0.3039
H85B H 0.5058 0.4001 0.2796
C106B C 0.5611(8) 0.4226(6) 0.2161(4)
H86B H 0.5302 0.4078 0.2226
H87B H 0.5726 0.4026 0.2188
H88B H 0.5631 0.4309 0.1943
C107B C 0.7475(8) 0.4853(6) 0.1860(4)
H89B H 0.7766 0.4992 0.1765
H90B H 0.7258 0.4824 0.1706
H91B H 0.7399 0.4562 0.1937
C108B C 0.8328(11) 0.5625(8) 0.2158(5)
H92B H 0.8514 0.5945 0.2191
H93B H 0.8345 0.5560 0.1937
C109B C 0.8476(12) 0.5375(9) 0.2362(6)
H94B H 0.8254 0.5218 0.2521
H95B H 0.8755 0.5581 0.2460
H96B H 0.8514 0.5165 0.2237
C110B C 0.8819(10) 0.6655(7) 0.3110(5)
H97B H 0.8954 0.6688 0.3316
H98B H 0.8859 0.6437 0.2992
C111B C 0.9039(12) 0.7088(8) 0.2944(6)
H99B H 0.8832 0.7102 0.2800
H100B H 0.9292 0.7118 0.2828
H101B H 0.9138 0.7327 0.3094
C112B C 0.8352(8) 0.6918(6) 0.3622(4)
H102B H 0.8653 0.6970 0.3624
H103B H 0.8213 0.6799 0.3821
H104B H 0.8358 0.7195 0.3583
C113B C 0.7015(10) 0.6454(7) 0.2259(4)
C114B C 0.6934(9) 0.6748(7) 0.2073(4)
H105B H 0.6618 0.6615 0.2036
H106B H 0.7087 0.6800 0.1875
H107B H 0.7041 0.7027 0.2182
O1B O 0.8178(5) 0.4451(4) 0.4932(2)
H108B H 0.7990 0.4307 0.4793
H109B H 0.8008 0.4274 0.5067
S1 S 0.3070(2) 0.4418(2) 0.38576(16)
O2 O 0.3365(5) 0.4243(5) 0.3867(3)
O3 O 0.3173(5) 0.4743(5) 0.3632(3)
O4 O 0.2944(5) 0.4476(5) 0.4146(3)
C115 C 0.2541(7) 0.3882(7) 0.3694(5)
F1 F 0.2400(5) 0.3565(6) 0.3895(3)
F2 F 0.2685(5) 0.3804(5) 0.3428(3)
F3 F 0.2267(5) 0.4026(6) 0.3645(3)
H110? H 0.4342 0.2458 0.3803
H111? H 0.4451 0.2940 0.3731
C116? C 0.494(3) 0.283(5) 0.363(3)
H112? H 0.4828 0.2738 0.3421
H113? H 0.5061 0.2655 0.3709
H114? H 0.5165 0.3141 0.3630
H115? H 0.5333 0.4270 0.3651
H116? H 0.5469 0.4781 0.3657
C117? C 0.4788(11) 0.4360(16) 0.3660(12)
H117? H 0.4752 0.4355 0.3436
H118? H 0.4722 0.4576 0.3750
H119? H 0.4587 0.4069 0.3745
H120? H 0.5256 0.0354 0.2739
H121? H 0.5739 0.0754 0.2653
C118? C 0.5375(15) 0.0414(14) 0.2259(7)
H122? H 0.5488 0.0211 0.2247
H123? H 0.5538 0.0659 0.2117
H124? H 0.5063 0.0261 0.2203
loop_
_geom_bond_atom_site_label_1
_geom_bond_atom_site_label_2
_geom_bond_site_symmetry_1
_geom_bond_site_symmetry_2
Zn1 N1 1_555 1_555
Zn2 N11 1_555 1_555
Zn3 N13 1_555 1_555
Zn4 N5 1_555 1_555
N1 C1 1_555 1_555
N2 Zn1 1_555 1_555
N3 C36 1_555 1_555
N4 C40 1_555 1_555
N5 C24 1_555 1_555
N6 Zn4 1_555 1_555
N7 Zn4 1_555 1_555
N8 Zn4 1_555 1_555
N9 Zn1 1_555 1_555
N10 Zn1 1_555 1_555
N11 C92 1_555 1_555
N12 Zn2 1_555 1_555
N13 C80 1_555 1_555
N14 Zn3 1_555 1_555
N15 Zn3 1_555 1_555
N16 Zn3 1_555 1_555
N17 Zn3 1_555 1_555
C1 H1 1_555 1_555
C2 C1 1_555 1_555
H2 C2 1_555 1_555
C3 C2 1_555 1_555
H3 C3 1_555 1_555
C4 C3 1_555 1_555
H4 C4 1_555 1_555
C5 N1 1_555 1_555
C6 N2 1_555 1_555
H5 C6 1_555 1_555
C7 N2 1_555 1_555
C8 C7 1_555 1_555
H6 C8 1_555 1_555
C9 C8 1_555 1_555
H7 C9 1_555 1_555
C10 C9 1_555 1_555
C11 C10 1_555 1_555
H8 C11 1_555 1_555
C12 C7 1_555 1_555
H9 C12 1_555 1_555
C13 C10 1_555 1_555
C14 N7 1_555 1_555
C15 C14 1_555 1_555
C16 C15 1_555 1_555
C17 N7 1_555 1_555
C18 C17 1_555 1_555
H10 C18 1_555 1_555
C19 N8 1_555 1_555
C20 C19 1_555 1_555
C21 C20 1_555 1_555
C22 N8 1_555 1_555
C23 C22 1_555 1_555
C24 C23 1_555 1_555
C25 C24 1_555 1_555
C26 C25 1_555 1_555
C27 N5 1_555 1_555
C28 C27 1_555 1_555
H11 C28 1_555 1_555
C29 N6 1_555 1_555
C30 C29 1_555 1_555
C31 C30 1_555 1_555
C32 N6 1_555 1_555
C33 C23 1_555 1_555
C34 C33 1_555 1_555
H12 C34 1_555 1_555
C35 C34 1_555 1_555
H13 C35 1_555 1_555
C36 C35 1_555 1_555
C37 C36 1_555 1_555
H14 C37 1_555 1_555
C38 C33 1_555 1_555
H15 C38 1_555 1_555
C39 N3 1_555 1_555
H16 C39 1_555 1_555
C40 C39 1_555 1_555
C41 C40 1_555 1_555
H17 C41 1_555 1_555
C42 C41 1_555 1_555
H18 C42 1_555 1_555
C43 C42 1_555 1_555
H19 C43 1_555 1_555
C44 N4 1_555 1_555
H20 C44 1_555 1_555
C45 C15 1_555 1_555
H21 C45 1_555 1_555
H22 C45 1_555 1_555
H23 C45 1_555 1_555
C46 C16 1_555 1_555
H24 C46 1_555 1_555
H25 C46 1_555 1_555
C47 C46 1_555 1_555
H26 C47 1_555 1_555
H27 C47 1_555 1_555
H28 C47 1_555 1_555
C48 C20 1_555 1_555
H29 C48 1_555 1_555
H30 C48 1_555 1_555
C49 C48 1_555 1_555
H31 C49 1_555 1_555
H32 C49 1_555 1_555
H33 C49 1_555 1_555
C50 C21 1_555 1_555
H34 C50 1_555 1_555
H35 C50 1_555 1_555
H36 C50 1_555 1_555
C51 C25 1_555 1_555
H37 C51 1_555 1_555
H38 C51 1_555 1_555
H39 C51 1_555 1_555
C52 C26 1_555 1_555
H40 C52 1_555 1_555
H41 C52 1_555 1_555
C53 C52 1_555 1_555
H42 C53 1_555 1_555
H43 C53 1_555 1_555
H44 C53 1_555 1_555
C54 C30 1_555 1_555
H45 C54 1_555 1_555
H46 C54 1_555 1_555
C55 C54 1_555 1_555
H47 C55 1_555 1_555
H48 C55 1_555 1_555
H49 C55 1_555 1_555
C56 C31 1_555 1_555
H50 C56 1_555 1_555
H51 C56 1_555 1_555
H52 C56 1_555 1_555
C57 N9 1_555 1_555
H53 C57 1_555 1_555
C58 C57 1_555 1_555
H54 C58 1_555 1_555
C59 C58 1_555 1_555
H55 C59 1_555 1_555
C60 C59 1_555 1_555
H56 C60 1_555 1_555
C61 N9 1_555 1_555
C62 N10 1_555 1_555
H57 C62 1_555 1_555
C63 N10 1_555 1_555
C64 C63 1_555 1_555
H58 C64 1_555 1_555
C65 C64 1_555 1_555
H59 C65 1_555 1_555
C66 C65 1_555 1_555
C67 C66 1_555 1_555
H60 C67 1_555 1_555
C68 C63 1_555 1_555
H61 C68 1_555 1_555
C69 C66 1_555 1_555
C70 N15 1_555 1_555
C71 C70 1_555 1_555
C72 C71 1_555 1_555
C73 N15 1_555 1_555
C74 C73 1_555 1_555
H62 C74 1_555 1_555
C75 N16 1_555 1_555
C76 C75 1_555 1_555
C77 C76 1_555 1_555
C78 N16 1_555 1_555
C79 C78 1_555 1_555
C80 C79 1_555 1_555
C81 C80 1_555 1_555
C82 C81 1_555 1_555
C83 N13 1_555 1_555
C84 C83 1_555 1_555
H63 C84 1_555 1_555
C85 N14 1_555 1_555
C86 C85 1_555 1_555
C87 C86 1_555 1_555
C88 N14 1_555 1_555
C89 C79 1_555 1_555
C90 C89 1_555 1_555
H64 C90 1_555 1_555
C91 C90 1_555 1_555
H65 C91 1_555 1_555
C92 C91 1_555 1_555
C93 C92 1_555 1_555
H66 C93 1_555 1_555
C94 C89 1_555 1_555
H67 C94 1_555 1_555
C95 N11 1_555 1_555
H68 C95 1_555 1_555
C96 N12 1_555 1_555
C97 C96 1_555 1_555
H69 C97 1_555 1_555
C98 C97 1_555 1_555
H70 C98 1_555 1_555
C99 C98 1_555 1_555
H71 C99 1_555 1_555
C100 N12 1_555 1_555
H72 C100 1_555 1_555
C101 C71 1_555 1_555
H73 C101 1_555 1_555
H74 C101 1_555 1_555
H75 C101 1_555 1_555
C102 C72 1_555 1_555
H76 C102 1_555 1_555
H77 C102 1_555 1_555
C103 C102 1_555 1_555
H78 C103 1_555 1_555
H79 C103 1_555 1_555
H80 C103 1_555 1_555
C104 C76 1_555 1_555
H81 C104 1_555 1_555
H82 C104 1_555 1_555
C105 C104 1_555 1_555
H83 C105 1_555 1_555
H84 C105 1_555 1_555
H85 C105 1_555 1_555
C106 C77 1_555 1_555
H86 C106 1_555 1_555
H87 C106 1_555 1_555
H88 C106 1_555 1_555
C107 C81 1_555 1_555
H89 C107 1_555 1_555
H90 C107 1_555 1_555
H91 C107 1_555 1_555
C108 C82 1_555 1_555
H92 C108 1_555 1_555
H93 C108 1_555 1_555
C109 C108 1_555 1_555
H94 C109 1_555 1_555
H95 C109 1_555 1_555
H96 C109 1_555 1_555
C110 C86 1_555 1_555
H97 C110 1_555 1_555
H98 C110 1_555 1_555
C111 C110 1_555 1_555
H99 C111 1_555 1_555
H100 C111 1_555 1_555
H101 C111 1_555 1_555
C112 C87 1_555 1_555
H102 C112 1_555 1_555
H103 C112 1_555 1_555
H104 C112 1_555 1_555
C113 N17 1_555 1_555
C114 C113 1_555 1_555
H105 C114 1_555 1_555
H106 C114 1_555 1_555
H107 C114 1_555 1_555
O1 Zn4 1_555 1_555
H108 O1 1_555 1_555
H109 O1 1_555 1_555
S1 O2 1_555 1_555
O3 S1 1_555 1_555
O4 S1 1_555 1_555
C115 S1 1_555 1_555
F1 C115 1_555 1_555
F2 C115 1_555 1_555
F3 C115 1_555 1_555
Zn1A N1A 1_555 1_555
Zn3A N13A 1_555 1_555
Zn4A N5A 1_555 1_555
N1A C1A 1_555 1_555
N2A Zn1A 1_555 1_555
N3A Zn1 1_555 1_555
N4A Zn1 1_555 1_555
N5A C24A 1_555 1_555
N6A Zn4A 1_555 1_555
N7A Zn4A 1_555 1_555
N8A Zn4A 1_555 1_555
N9A Zn1A 1_555 1_555
N10A Zn1A 1_555 1_555
N11A Zn2 1_555 1_555
N12A Zn2 1_555 1_555
N13A C80A 1_555 1_555
N14A Zn3A 1_555 1_555
N15A Zn3A 1_555 1_555
N16A Zn3A 1_555 1_555
N17A Zn3A 1_555 1_555
C1A H1A 1_555 1_555
C2A C1A 1_555 1_555
H2A C2A 1_555 1_555
C3A C2A 1_555 1_555
H3A C3A 1_555 1_555
C4A C3A 1_555 1_555
H4A C4A 1_555 1_555
C5A N1A 1_555 1_555
C6A N2A 1_555 1_555
H5A C6A 1_555 1_555
C7A N2A 1_555 1_555
C8A C7A 1_555 1_555
H6A C8A 1_555 1_555
C9A C8A 1_555 1_555
H7A C9A 1_555 1_555
C10A C9A 1_555 1_555
C11A C10A 1_555 1_555
H8A C11A 1_555 1_555
C12A C7A 1_555 1_555
H9A C12A 1_555 1_555
C13A C10A 1_555 1_555
C14A N7A 1_555 1_555
C15A C14A 1_555 1_555
C16A C15A 1_555 1_555
C17A N7A 1_555 1_555
C18A C17A 1_555 1_555
H10A C18A 1_555 1_555
C19A N8A 1_555 1_555
C20A C19A 1_555 1_555
C21A C20A 1_555 1_555
C22A N8A 1_555 1_555
C23A C22A 1_555 1_555
C24A C23A 1_555 1_555
C25A C24A 1_555 1_555
C26A C25A 1_555 1_555
C27A N5A 1_555 1_555
C28A C27A 1_555 1_555
H11A C28A 1_555 1_555
C29A N6A 1_555 1_555
C30A C29A 1_555 1_555
C31A C30A 1_555 1_555
C32A N6A 1_555 1_555
C33A C23A 1_555 1_555
C34A C33A 1_555 1_555
H12A C34A 1_555 1_555
C35A C34A 1_555 1_555
H13A C35A 1_555 1_555
C36A N3A 1_555 1_555
C37A C36A 1_555 1_555
H14A C37A 1_555 1_555
C38A C33A 1_555 1_555
H15A C38A 1_555 1_555
C39A N3A 1_555 1_555
H16A C39A 1_555 1_555
C40A N4A 1_555 1_555
C41A C40A 1_555 1_555
H17A C41A 1_555 1_555
C42A C41A 1_555 1_555
H18A C42A 1_555 1_555
C43A C42A 1_555 1_555
H19A C43A 1_555 1_555
C44A N4A 1_555 1_555
H20A C44A 1_555 1_555
C45A C15A 1_555 1_555
H21A C45A 1_555 1_555
H22A C45A 1_555 1_555
H23A C45A 1_555 1_555
C46A C16A 1_555 1_555
H24A C46A 1_555 1_555
H25A C46A 1_555 1_555
C47A C46A 1_555 1_555
H26A C47A 1_555 1_555
H27A C47A 1_555 1_555
H28A C47A 1_555 1_555
C48A C20A 1_555 1_555
H29A C48A 1_555 1_555
H30A C48A 1_555 1_555
C49A C48A 1_555 1_555
H31A C49A 1_555 1_555
H32A C49A 1_555 1_555
H33A C49A 1_555 1_555
C50A C21A 1_555 1_555
H34A C50A 1_555 1_555
H35A C50A 1_555 1_555
H36A C50A 1_555 1_555
C51A C25A 1_555 1_555
H37A C51A 1_555 1_555
H38A C51A 1_555 1_555
H39A C51A 1_555 1_555
C52A C26A 1_555 1_555
H40A C52A 1_555 1_555
H41A C52A 1_555 1_555
C53A C52A 1_555 1_555
H42A C53A 1_555 1_555
H43A C53A 1_555 1_555
H44A C53A 1_555 1_555
C54A C30A 1_555 1_555
H45A C54A 1_555 1_555
H46A C54A 1_555 1_555
C55A C54A 1_555 1_555
H47A C55A 1_555 1_555
H48A C55A 1_555 1_555
H49A C55A 1_555 1_555
C56A C31A 1_555 1_555
H50A C56A 1_555 1_555
H51A C56A 1_555 1_555
H52A C56A 1_555 1_555
C57A N9A 1_555 1_555
H53A C57A 1_555 1_555
C58A C57A 1_555 1_555
H54A C58A 1_555 1_555
C59A C58A 1_555 1_555
H55A C59A 1_555 1_555
C60A C59A 1_555 1_555
H56A C60A 1_555 1_555
C61A N9A 1_555 1_555
C62A N10A 1_555 1_555
H57A C62A 1_555 1_555
C63A N10A 1_555 1_555
C64A C63A 1_555 1_555
H58A C64A 1_555 1_555
C65A C64A 1_555 1_555
H59A C65A 1_555 1_555
C66A C65A 1_555 1_555
C67A C66A 1_555 1_555
H60A C67A 1_555 1_555
C68A C63A 1_555 1_555
H61A C68A 1_555 1_555
C69A C66A 1_555 1_555
C70A N15A 1_555 1_555
C71A C70A 1_555 1_555
C72A C71A 1_555 1_555
C73A N15A 1_555 1_555
C74A C73A 1_555 1_555
H62A C74A 1_555 1_555
C75A N16A 1_555 1_555
C76A C75A 1_555 1_555
C77A C76A 1_555 1_555
C78A N16A 1_555 1_555
C79A C78A 1_555 1_555
C80A C79A 1_555 1_555
C81A C80A 1_555 1_555
C82A C81A 1_555 1_555
C83A N13A 1_555 1_555
C84A C83A 1_555 1_555
H63A C84A 1_555 1_555
C85A N14A 1_555 1_555
C86A C85A 1_555 1_555
C87A C86A 1_555 1_555
C88A N14A 1_555 1_555
C89A C79A 1_555 1_555
C90A C89A 1_555 1_555
H64A C90A 1_555 1_555
C91A C90A 1_555 1_555
H65A C91A 1_555 1_555
C92A N11A 1_555 1_555
C93A C92A 1_555 1_555
H66A C93A 1_555 1_555
C94A C89A 1_555 1_555
H67A C94A 1_555 1_555
C95A N11A 1_555 1_555
H68A C95A 1_555 1_555
C96A N12A 1_555 1_555
C97A C96A 1_555 1_555
H69A C97A 1_555 1_555
C98A C97A 1_555 1_555
H70A C98A 1_555 1_555
C99A C98A 1_555 1_555
H71A C99A 1_555 1_555
C100A N12A 1_555 1_555
H72A C100A 1_555 1_555
C101A C71A 1_555 1_555
H73A C101A 1_555 1_555
H74A C101A 1_555 1_555
H75A C101A 1_555 1_555
C102A C72A 1_555 1_555
H76A C102A 1_555 1_555
H77A C102A 1_555 1_555
C103A C102A 1_555 1_555
H78A C103A 1_555 1_555
H79A C103A 1_555 1_555
H80A C103A 1_555 1_555
C104A C76A 1_555 1_555
H81A C104A 1_555 1_555
H82A C104A 1_555 1_555
C105A C104A 1_555 1_555
H83A C105A 1_555 1_555
H84A C105A 1_555 1_555
H85A C105A 1_555 1_555
C106A C77A 1_555 1_555
H86A C106A 1_555 1_555
H87A C106A 1_555 1_555
H88A C106A 1_555 1_555
C107A C81A 1_555 1_555
H89A C107A 1_555 1_555
H90A C107A 1_555 1_555
H91A C107A 1_555 1_555
C108A C82A 1_555 1_555
H92A C108A 1_555 1_555
H93A C108A 1_555 1_555
C109A C108A 1_555 1_555
H94A C109A 1_555 1_555
H95A C109A 1_555 1_555
H96A C109A 1_555 1_555
C110A C86A 1_555 1_555
H97A C110A 1_555 1_555
H98A C110A 1_555 1_555
C111A C110A 1_555 1_555
H99A C111A 1_555 1_555
H100A C111A 1_555 1_555
H101A C111A 1_555 1_555
C112A C87A 1_555 1_555
H102A C112A 1_555 1_555
H103A C112A 1_555 1_555
H104A C112A 1_555 1_555
C113A N17A 1_555 1_555
C114A C113A 1_555 1_555
H105A C114A 1_555 1_555
H106A C114A 1_555 1_555
H107A C114A 1_555 1_555
O1A Zn4A 1_555 1_555
H108A O1A 1_555 1_555
H109A O1A 1_555 1_555
Zn1B N3 1_555 1_555
Zn3B N13B 1_555 1_555
Zn4B N5B 1_555 1_555
N1B Zn1B 1_555 1_555
N2B Zn1B 1_555 1_555
N3B Zn1A 1_555 1_555
N4B Zn1A 1_555 1_555
N5B C24B 1_555 1_555
N6B Zn4B 1_555 1_555
N7B Zn4B 1_555 1_555
N8B Zn4B 1_555 1_555
N9B Zn1B 1_555 1_555
N10B Zn1B 1_555 1_555
N11B Zn2 1_555 1_555
N12B Zn2 1_555 1_555
N13B C80B 1_555 1_555
N14B Zn3B 1_555 1_555
N15B Zn3B 1_555 1_555
N16B Zn3B 1_555 1_555
N17B Zn3B 1_555 1_555
C1B N1B 1_555 1_555
H1B C1B 1_555 1_555
C2B C1B 1_555 1_555
H2B C2B 1_555 1_555
C3B C2B 1_555 1_555
H3B C3B 1_555 1_555
C4B C3B 1_555 1_555
H4B C4B 1_555 1_555
C5B N1B 1_555 1_555
C6B N2B 1_555 1_555
H5B C6B 1_555 1_555
C7B N2B 1_555 1_555
C8B C7B 1_555 1_555
H6B C8B 1_555 1_555
C9B C8B 1_555 1_555
H7B C9B 1_555 1_555
C10B C9B 1_555 1_555
C11B C10B 1_555 1_555
H8B C11B 1_555 1_555
C12B C7B 1_555 1_555
H9B C12B 1_555 1_555
C13B C10B 1_555 1_555
C14B N7B 1_555 1_555
C15B C14B 1_555 1_555
C16B C15B 1_555 1_555
C17B N7B 1_555 1_555
C18B C17B 1_555 1_555
H10B C18B 1_555 1_555
C19B N8B 1_555 1_555
C20B C19B 1_555 1_555
C21B C20B 1_555 1_555
C22B N8B 1_555 1_555
C23B C22B 1_555 1_555
C24B C23B 1_555 1_555
C25B C24B 1_555 1_555
C26B C25B 1_555 1_555
C27B N5B 1_555 1_555
C28B C27B 1_555 1_555
H11B C28B 1_555 1_555
C29B N6B 1_555 1_555
C30B C29B 1_555 1_555
C31B C30B 1_555 1_555
C32B N6B 1_555 1_555
C33B C23B 1_555 1_555
C34B C33B 1_555 1_555
H12B C34B 1_555 1_555
C35B C34B 1_555 1_555
H13B C35B 1_555 1_555
C36B N3B 1_555 1_555
C37B C36B 1_555 1_555
H14B C37B 1_555 1_555
C38B C33B 1_555 1_555
H15B C38B 1_555 1_555
C39B N3B 1_555 1_555
H16B C39B 1_555 1_555
C40B N4B 1_555 1_555
C41B C40B 1_555 1_555
H17B C41B 1_555 1_555
C42B C41B 1_555 1_555
H18B C42B 1_555 1_555
C43B C42B 1_555 1_555
H19B C43B 1_555 1_555
C44B N4B 1_555 1_555
H20B C44B 1_555 1_555
C45B C15B 1_555 1_555
H21B C45B 1_555 1_555
H22B C45B 1_555 1_555
H23B C45B 1_555 1_555
C46B C16B 1_555 1_555
H24B C46B 1_555 1_555
H25B C46B 1_555 1_555
C47B C46B 1_555 1_555
H26B C47B 1_555 1_555
H27B C47B 1_555 1_555
H28B C47B 1_555 1_555
C48B C20B 1_555 1_555
H29B C48B 1_555 1_555
H30B C48B 1_555 1_555
C49B C48B 1_555 1_555
H31B C49B 1_555 1_555
H32B C49B 1_555 1_555
H33B C49B 1_555 1_555
C50B C21B 1_555 1_555
H34B C50B 1_555 1_555
H35B C50B 1_555 1_555
H36B C50B 1_555 1_555
C51B C25B 1_555 1_555
H37B C51B 1_555 1_555
H38B C51B 1_555 1_555
H39B C51B 1_555 1_555
C52B C26B 1_555 1_555
H40B C52B 1_555 1_555
H41B C52B 1_555 1_555
C53B C52B 1_555 1_555
H42B C53B 1_555 1_555
H43B C53B 1_555 1_555
H44B C53B 1_555 1_555
C54B C30B 1_555 1_555
H45B C54B 1_555 1_555
H46B C54B 1_555 1_555
C55B C54B 1_555 1_555
H47B C55B 1_555 1_555
H48B C55B 1_555 1_555
H49B C55B 1_555 1_555
C56B C31B 1_555 1_555
H50B C56B 1_555 1_555
H51B C56B 1_555 1_555
H52B C56B 1_555 1_555
C57B N9B 1_555 1_555
H53B C57B 1_555 1_555
C58B C57B 1_555 1_555
H54B C58B 1_555 1_555
C59B C58B 1_555 1_555
H55B C59B 1_555 1_555
C60B C59B 1_555 1_555
H56B C60B 1_555 1_555
C61B N9B 1_555 1_555
C62B N10B 1_555 1_555
H57B C62B 1_555 1_555
C63B N10B 1_555 1_555
C64B C63B 1_555 1_555
H58B C64B 1_555 1_555
C65B C64B 1_555 1_555
H59B C65B 1_555 1_555
C66B C65B 1_555 1_555
C67B C66B 1_555 1_555
H60B C67B 1_555 1_555
C68B C63B 1_555 1_555
H61B C68B 1_555 1_555
C69B C66B 1_555 1_555
C70B N15B 1_555 1_555
C71B C70B 1_555 1_555
C72B C71B 1_555 1_555
C73B N15B 1_555 1_555
C74B C73B 1_555 1_555
H62B C74B 1_555 1_555
C75B N16B 1_555 1_555
C76B C75B 1_555 1_555
C77B C76B 1_555 1_555
C78B N16B 1_555 1_555
C79B C78B 1_555 1_555
C80B C79B 1_555 1_555
C81B C80B 1_555 1_555
C82B C81B 1_555 1_555
C83B N13B 1_555 1_555
C84B C83B 1_555 1_555
H63B C84B 1_555 1_555
C85B N14B 1_555 1_555
C86B C85B 1_555 1_555
C87B C86B 1_555 1_555
C88B N14B 1_555 1_555
C89B C79B 1_555 1_555
C90B C89B 1_555 1_555
H64B C90B 1_555 1_555
C91B C90B 1_555 1_555
H65B C91B 1_555 1_555
C92B N11B 1_555 1_555
C93B C92B 1_555 1_555
H66B C93B 1_555 1_555
C94B C89B 1_555 1_555
H67B C94B 1_555 1_555
C95B N11B 1_555 1_555
H68B C95B 1_555 1_555
C96B N12B 1_555 1_555
C97B C96B 1_555 1_555
H69B C97B 1_555 1_555
C98B C97B 1_555 1_555
H70B C98B 1_555 1_555
C99B C98B 1_555 1_555
H71B C99B 1_555 1_555
C100B N12B 1_555 1_555
H72B C100B 1_555 1_555
C101B C71B 1_555 1_555
H73B C101B 1_555 1_555
H74B C101B 1_555 1_555
H75B C101B 1_555 1_555
C102B C72B 1_555 1_555
H76B C102B 1_555 1_555
H77B C102B 1_555 1_555
C103B C102B 1_555 1_555
H78B C103B 1_555 1_555
H79B C103B 1_555 1_555
H80B C103B 1_555 1_555
C104B C76B 1_555 1_555
H81B C104B 1_555 1_555
H82B C104B 1_555 1_555
C105B C104B 1_555 1_555
H83B C105B 1_555 1_555
H84B C105B 1_555 1_555
H85B C105B 1_555 1_555
C106B C77B 1_555 1_555
H86B C106B 1_555 1_555
H87B C106B 1_555 1_555
H88B C106B 1_555 1_555
C107B C81B 1_555 1_555
H89B C107B 1_555 1_555
H90B C107B 1_555 1_555
H91B C107B 1_555 1_555
C108B C82B 1_555 1_555
H92B C108B 1_555 1_555
H93B C108B 1_555 1_555
C109B C108B 1_555 1_555
H94B C109B 1_555 1_555
H95B C109B 1_555 1_555
H96B C109B 1_555 1_555
C110B C86B 1_555 1_555
H97B C110B 1_555 1_555
H98B C110B 1_555 1_555
C111B C110B 1_555 1_555
H99B C111B 1_555 1_555
H100B C111B 1_555 1_555
H101B C111B 1_555 1_555
C112B C87B 1_555 1_555
H102B C112B 1_555 1_555
H103B C112B 1_555 1_555
H104B C112B 1_555 1_555
C113B N17B 1_555 1_555
C114B C113B 1_555 1_555
H105B C114B 1_555 1_555
H106B C114B 1_555 1_555
H107B C114B 1_555 1_555
O1B Zn4B 1_555 1_555
H108B O1B 1_555 1_555
H109B O1B 1_555 1_555
N4 Zn1B 1_555 1_555
C4 C5 1_555 1_555
C5 C6 1_555 1_555
C11 C12 1_555 1_555
C13 C14 1_555 1_555
C13 C32 1_555 1_555
C16 C17 1_555 1_555
C18 C19 1_555 1_555
C21 C22 1_555 1_555
C26 C27 1_555 1_555
C28 C29 1_555 1_555
C31 C32 1_555 1_555
C37 C38 1_555 1_555
C43 C44 1_555 1_555
C60 C61 1_555 1_555
C61 C62 1_555 1_555
C67 C68 1_555 1_555
C69 C70 1_555 1_555
C69 C88 1_555 1_555
C72 C73 1_555 1_555
C74 C75 1_555 1_555
C77 C78 1_555 1_555
C82 C83 1_555 1_555
C84 C85 1_555 1_555
C87 C88 1_555 1_555
C93 C94 1_555 1_555
C95 C96 1_555 1_555
C99 C100 1_555 1_555
C4A C5A 1_555 1_555
C5A C6A 1_555 1_555
C11A C12A 1_555 1_555
C13A C14A 1_555 1_555
C13A C32A 1_555 1_555
C16A C17A 1_555 1_555
C18A C19A 1_555 1_555
C21A C22A 1_555 1_555
C26A C27A 1_555 1_555
C28A C29A 1_555 1_555
C31A C32A 1_555 1_555
C35A C36A 1_555 1_555
C37A C38A 1_555 1_555
C39A C40A 1_555 1_555
C43A C44A 1_555 1_555
C60A C61A 1_555 1_555
C61A C62A 1_555 1_555
C67A C68A 1_555 1_555
C69A C70A 1_555 1_555
C69A C88A 1_555 1_555
C72A C73A 1_555 1_555
C74A C75A 1_555 1_555
C77A C78A 1_555 1_555
C82A C83A 1_555 1_555
C84A C85A 1_555 1_555
C87A C88A 1_555 1_555
C91A C92A 1_555 1_555
C93A C94A 1_555 1_555
C95A C96A 1_555 1_555
C99A C100A 1_555 1_555
C4B C5B 1_555 1_555
C5B C6B 1_555 1_555
C11B C12B 1_555 1_555
C13B C14B 1_555 1_555
C13B C32B 1_555 1_555
C16B C17B 1_555 1_555
C18B C19B 1_555 1_555
C21B C22B 1_555 1_555
C26B C27B 1_555 1_555
C28B C29B 1_555 1_555
C31B C32B 1_555 1_555
C35B C36B 1_555 1_555
C37B C38B 1_555 1_555
C39B C40B 1_555 1_555
C43B C44B 1_555 1_555
C60B C61B 1_555 1_555
C61B C62B 1_555 1_555
C67B C68B 1_555 1_555
C69B C70B 1_555 1_555
C69B C88B 1_555 1_555
C72B C73B 1_555 1_555
C74B C75B 1_555 1_555
C77B C78B 1_555 1_555
C82B C83B 1_555 1_555
C84B C85B 1_555 1_555
C87B C88B 1_555 1_555
C91B C92B 1_555 1_555
C93B C94B 1_555 1_555
C95B C96B 1_555 1_555
C99B C100B 1_555 1_555

#END
