
#######################################################################
#
#                 Cambridge Crystallographic Data Centre
#                                CCDC 
#
#######################################################################
#
# If this CIF has been generated from an entry in the Cambridge 
# Structural Database, then it will include bibliographic, chemical, 
# crystal, experimental, refinement or atomic coordinate data resulting 
# from the CCDC's data processing and validation procedures.
#
#######################################################################

data_GAKFIK
_chemical_formula_moiety         
'C228 H132 N36 O24 Zn4 8+,5(C2 F6 N1 O4 S2 1-),3(F6 P1 1-)'
_chemical_name_systematic        
'hexakis(\m-2,7-bis(4-((pyridin-2-ylmethylene)amino)phenyl)benzo[lmn][3,8]phenanthroline-1,3,6,8(2H,7H)-tetrone)-tetra-zinc pentakis(bis((trifluoromethyl)sulfonyl)azanide) tris(hexafluorophosphate) unknown solvate'
_symmetry_cell_setting           monoclinic
_symmetry_space_group_name_H-M   'P 21/c'
_symmetry_Int_Tables_number      14
_space_group_name_Hall           '-P 2ybc'
loop_
_symmetry_equiv_pos_site_id
_symmetry_equiv_pos_as_xyz
1 x,y,z
2 -x,1/2+y,1/2-z
3 -x,-y,-z
4 x,1/2-y,1/2+z
_cell_length_a                   29.307(5)
_cell_length_b                   45.110(9)
_cell_length_c                   26.896(6)
_cell_angle_alpha                90
_cell_angle_beta                 91.52(3)
_cell_angle_gamma                90
_cell_volume                     35545
_exptl_crystal_colour            yellow
_exptl_crystal_description       block
_cell_formula_units_Z            4
_exptl_crystal_recrystallization_method 'diethyl ether/acetonitrile'
loop_
_atom_site_label
_atom_site_type_symbol
_atom_site_fract_x
_atom_site_fract_y
_atom_site_fract_z
Zn1 Zn 0.56449(11) 0.27006(7) 0.77165(12)
Zn2 Zn -0.03443(11) 0.30288(8) 0.32742(12)
Zn3 Zn 0.45735(13) -0.01366(7) 0.17210(11)
Zn4 Zn 0.05361(15) -0.04970(8) 0.80419(12)
N1 N 0.1288(6) -0.0455(4) 0.7955(6)
C1 C 0.1578(6) -0.0449(4) 0.7541(6)
C2 C 0.1623(7) -0.0710(4) 0.7270(7)
H1 H 0.1504 -0.0891 0.7390
C3 C 0.1844(7) -0.0701(4) 0.6823(7)
H2 H 0.1873 -0.0875 0.6629
C4 C 0.2026(6) -0.0433(4) 0.6659(6)
C5 C 0.2010(7) -0.0179(4) 0.6949(6)
H3 H 0.2155 -0.0002 0.6844
C6 C 0.1782(7) -0.0185(4) 0.7395(7)
H4 H 0.1764 -0.0012 0.7596
N2 N 0.2205(5) -0.0422(3) 0.6163(5)
C7 C 0.1896(6) -0.0458(4) 0.5759(5)
C8 C 0.2079(6) -0.0438(4) 0.5254(6)
C9 C 0.1800(7) -0.0475(5) 0.4839(6)
H5 H 0.1486 -0.0522 0.4875
C10 C 0.1978(7) -0.0444(5) 0.4368(7)
H6 H 0.1782 -0.0465 0.4083
C11 C 0.2435(6) -0.0383(4) 0.4311(5)
C12 C 0.2620(6) -0.0355(4) 0.3807(6)
N3 N 0.3078(5) -0.0274(3) 0.3770(5)
C13 C 0.3376(6) -0.0221(4) 0.4174(5)
C14 C 0.3191(6) -0.0264(3) 0.4675(5)
C15 C 0.3471(7) -0.0231(4) 0.5089(6)
H7 H 0.3782 -0.0179 0.5051
C16 C 0.3303(6) -0.0273(4) 0.5562(6)
H8 H 0.3504 -0.0254 0.5843
C17 C 0.2852(6) -0.0341(3) 0.5628(5)
C18 C 0.2678(6) -0.0369(4) 0.6136(5)
C19 C 0.2552(6) -0.0376(3) 0.5209(6)
C20 C 0.2729(6) -0.0342(3) 0.4731(6)
O1 O 0.1493(6) -0.0503(5) 0.5825(6)
O2 O 0.2401(6) -0.0406(5) 0.3424(6)
O3 O 0.3762(5) -0.0132(4) 0.4099(5)
O4 O 0.2904(5) -0.0346(3) 0.6518(5)
C21 C 0.3257(6) -0.0239(4) 0.3282(5)
C22 C 0.3480(7) -0.0475(4) 0.3067(6)
H9 H 0.3505 -0.0660 0.3234
C23 C 0.3666(7) -0.0435(4) 0.2605(6)
H10 H 0.3824 -0.0593 0.2451
C24 C 0.3618(6) -0.0162(4) 0.2366(6)
C25 C 0.3394(7) 0.0075(4) 0.2584(6)
H11 H 0.3364 0.0260 0.2416
C26 C 0.3216(7) 0.0035(4) 0.3051(6)
H12 H 0.3067 0.0194 0.3212
N4 N 0.3818(6) -0.0126(4) 0.1897(6)
C27 C 0.1457(8) -0.0425(5) 0.8383(7)
H13 H 0.1778 -0.0400 0.8423
C28 C 0.3573(8) -0.0069(5) 0.1509(6)
H14 H 0.3252 -0.0046 0.1533
C29 C 0.1174(8) -0.0428(5) 0.8827(7)
C30 C 0.3790(7) -0.0040(4) 0.1022(6)
N5 N 0.0719(8) -0.0455(5) 0.8768(7)
N6 N 0.4244(7) -0.0085(5) 0.1004(7)
C31 C 0.0469(9) -0.0453(6) 0.9178(9)
H15 H 0.0146 -0.0465 0.9143
C32 C 0.4454(8) -0.0053(6) 0.0567(7)
H16 H 0.4773 -0.0089 0.0553
C33 C 0.0664(11) -0.0432(7) 0.9655(9)
H17 H 0.0480 -0.0434 0.9941
C34 C 0.4215(9) 0.0031(6) 0.0137(8)
H18 H 0.4368 0.0058 -0.0166
C35 C 0.1129(11) -0.0408(7) 0.9697(9)
H19 H 0.1269 -0.0395 1.0019
C36 C 0.3752(9) 0.0075(6) 0.0159(8)
H20 H 0.3582 0.0132 -0.0132
C37 C 0.1398(9) -0.0402(7) 0.9287(8)
H21 H 0.1721 -0.0382 0.9316
C38 C 0.3533(8) 0.0035(6) 0.0601(7)
H22 H 0.3211 0.0058 0.0617
N7 N 0.5492(5) 0.2700(3) 0.6915(6)
C39 C 0.5062(5) 0.2692(4) 0.6655(6)
C40 C 0.4926(6) 0.2443(4) 0.6387(7)
H23 H 0.5125 0.2277 0.6375
C41 C 0.4507(6) 0.2431(4) 0.6138(7)
H24 H 0.4419 0.2260 0.5952
C42 C 0.4220(5) 0.2673(4) 0.6165(6)
C43 C 0.4347(6) 0.2924(4) 0.6444(6)
H25 H 0.4142 0.3086 0.6471
C44 C 0.4773(6) 0.2934(4) 0.6680(6)
H26 H 0.4866 0.3106 0.6858
N8 N 0.3779(4) 0.2658(3) 0.5916(5)
C45 C 0.3733(5) 0.2764(3) 0.5428(5)
C46 C 0.3258(5) 0.2783(3) 0.5229(5)
C47 C 0.3177(6) 0.2895(4) 0.4756(6)
H27 H 0.3424 0.2948 0.4552
C48 C 0.2732(5) 0.2927(4) 0.4585(6)
H28 H 0.2677 0.3011 0.4265
C49 C 0.2366(5) 0.2842(3) 0.4860(5)
C50 C 0.1895(5) 0.2877(3) 0.4663(6)
N9 N 0.1545(4) 0.2782(3) 0.4967(5)
C51 C 0.1596(5) 0.2665(3) 0.5446(5)
C52 C 0.2070(5) 0.2630(3) 0.5636(5)
C53 C 0.2158(6) 0.2508(4) 0.6096(6)
H29 H 0.1910 0.2445 0.6291
C54 C 0.2599(5) 0.2475(4) 0.6284(6)
H30 H 0.2655 0.2387 0.6601
C55 C 0.2956(5) 0.2571(3) 0.6003(5)
C56 C 0.3426(5) 0.2552(3) 0.6210(6)
C57 C 0.2890(5) 0.2691(3) 0.5522(5)
C58 C 0.2436(5) 0.2721(3) 0.5339(5)
O5 O 0.4063(5) 0.2836(4) 0.5199(6)
O6 O 0.1808(5) 0.2987(3) 0.4251(5)
O7 O 0.1266(5) 0.2611(3) 0.5684(5)
O8 O 0.3520(5) 0.2445(3) 0.6618(5)
C59 C 0.1085(5) 0.2815(4) 0.4766(6)
C60 C 0.0913(6) 0.3097(4) 0.4690(7)
H31 H 0.1087 0.3267 0.4786
C61 C 0.0483(6) 0.3127(4) 0.4472(7)
H32 H 0.0365 0.3321 0.4416
C62 C 0.0217(5) 0.2886(4) 0.4333(6)
C63 C 0.0396(6) 0.2607(4) 0.4430(7)
H33 H 0.0217 0.2437 0.4346
C64 C 0.0826(6) 0.2567(4) 0.4643(7)
H34 H 0.0942 0.2374 0.4705
N10 N -0.0209(5) 0.2929(4) 0.4085(6)
C65 C 0.5862(6) 0.2725(4) 0.6679(8)
H35 H 0.5843 0.2740 0.6327
C66 C -0.0584(6) 0.2917(5) 0.4292(8)
H36 H -0.0584 0.2884 0.4641
C67 C 0.6315(6) 0.2731(4) 0.6925(7)
C68 C -0.1027(5) 0.2952(4) 0.4029(7)
N11 N 0.6327(6) 0.2718(3) 0.7427(6)
N12 N -0.1031(5) 0.2999(4) 0.3535(6)
C69 C 0.6733(6) 0.2745(5) 0.7660(8)
H37 H 0.6753 0.2742 0.8013
C70 C -0.1416(6) 0.3026(5) 0.3267(8)
H38 H -0.1407 0.3059 0.2919
C71 C 0.7124(7) 0.2777(5) 0.7389(9)
H39 H 0.7409 0.2796 0.7563
C72 C -0.1831(7) 0.3005(6) 0.3501(9)
H40 H -0.2110 0.3019 0.3314
C73 C 0.7114(7) 0.2782(5) 0.6876(9)
H41 H 0.7388 0.2798 0.6697
C74 C -0.1832(7) 0.2964(6) 0.4007(9)
H42 H -0.2115 0.2954 0.4170
C75 C 0.6696(7) 0.2762(5) 0.6627(8)
H43 H 0.6670 0.2769 0.6275
C76 C -0.1431(6) 0.2936(6) 0.4283(8)
H44 H -0.1433 0.2906 0.4633
N13 N 0.0411(7) -0.0028(4) 0.7991(7)
C77 C 0.0743(6) 0.0195(4) 0.7918(7)
C78 C 0.1010(7) 0.0284(4) 0.8327(7)
H45 H 0.0959 0.0199 0.8643
C79 C 0.1348(7) 0.0495(4) 0.8278(7)
H46 H 0.1533 0.0552 0.8558
C80 C 0.1413(5) 0.0624(3) 0.7817(7)
C81 C 0.1141(6) 0.0541(4) 0.7413(7)
H47 H 0.1183 0.0634 0.7101
C82 C 0.0808(6) 0.0326(4) 0.7456(7)
H48 H 0.0627 0.0268 0.7175
N14 N 0.1772(5) 0.0841(3) 0.7779(5)
C83 C 0.1676(5) 0.1122(3) 0.7978(6)
C84 C 0.2059(5) 0.1332(3) 0.8012(6)
C85 C 0.1995(6) 0.1609(3) 0.8212(6)
H49 H 0.1698 0.1666 0.8309
C86 C 0.2352(5) 0.1807(4) 0.8274(6)
H50 H 0.2302 0.1995 0.8420
C87 C 0.2781(5) 0.1729(3) 0.8124(5)
C88 C 0.3162(5) 0.1940(3) 0.8181(5)
N15 N 0.3587(4) 0.1847(3) 0.8010(5)
C89 C 0.3686(5) 0.1570(3) 0.7794(5)
C90 C 0.3296(5) 0.1366(3) 0.7736(5)
C91 C 0.3361(6) 0.1093(3) 0.7526(6)
H51 H 0.3653 0.1040 0.7412
C92 C 0.3000(5) 0.0894(4) 0.7479(7)
H52 H 0.3053 0.0705 0.7337
C93 C 0.2569(5) 0.0962(3) 0.7632(6)
C94 C 0.2189(5) 0.0748(3) 0.7593(6)
C95 C 0.2493(5) 0.1246(3) 0.7844(5)
C96 C 0.2861(5) 0.1450(3) 0.7900(5)
O9 O 0.1287(5) 0.1187(3) 0.8081(6)
O10 O 0.3130(5) 0.2185(3) 0.8360(5)
O11 O 0.4075(5) 0.1514(3) 0.7667(5)
O12 O 0.2224(5) 0.0501(3) 0.7411(6)
C97 C 0.3944(5) 0.2067(3) 0.8004(6)
C98 C 0.4242(5) 0.2112(4) 0.8410(6)
H53 H 0.4225 0.1991 0.8699
C99 C 0.4564(6) 0.2336(3) 0.8384(6)
H54 H 0.4769 0.2370 0.8657
C100 C 0.4591(5) 0.2509(3) 0.7962(6)
C101 C 0.4296(6) 0.2461(4) 0.7559(6)
H55 H 0.4318 0.2581 0.7270
C102 C 0.3970(6) 0.2241(3) 0.7576(6)
H56 H 0.3766 0.2208 0.7301
N16 N 0.4916(5) 0.2737(3) 0.7933(5)
C103 C -0.0013(7) 0.0042(5) 0.7986(8)
H57 H -0.0107 0.0239 0.7912
C104 C 0.4801(6) 0.3008(3) 0.8019(6)
H58 H 0.4499 0.3054 0.8111
C105 C -0.0350(7) -0.0188(4) 0.8096(7)
C106 C 0.5143(6) 0.3245(3) 0.7973(5)
N17 N -0.0172(6) -0.0457(5) 0.8190(7)
N18 N 0.5556(6) 0.3154(4) 0.7825(6)
C107 C -0.0470(9) -0.0668(5) 0.8302(9)
H59 H -0.0353 -0.0860 0.8377
C108 C 0.5873(6) 0.3367(4) 0.7758(7)
H60 H 0.6166 0.3309 0.7649
C109 C -0.0938(9) -0.0629(6) 0.8317(10)
H61 H -0.1134 -0.0789 0.8391
C110 C 0.5792(7) 0.3662(4) 0.7841(7)
H62 H 0.6025 0.3805 0.7794
C111 C -0.1111(8) -0.0347(6) 0.8222(10)
H63 H -0.1430 -0.0311 0.8234
C112 C 0.5373(7) 0.3748(4) 0.7991(7)
H64 H 0.5313 0.3952 0.8048
C113 C -0.0815(7) -0.0121(5) 0.8108(10)
H65 H -0.0923 0.0074 0.8042
C114 C 0.5032(6) 0.3541(4) 0.8063(6)
H66 H 0.4737 0.3597 0.8169
N19 N 0.0421(6) -0.0574(4) 0.7234(6)
C115 C 0.0368(6) -0.0352(4) 0.6866(6)
C116 C -0.0037(7) -0.0195(4) 0.6818(7)
H67 H -0.0289 -0.0244 0.7017
C117 C -0.0069(7) 0.0033(4) 0.6478(7)
H68 H -0.0343 0.0145 0.6446
C118 C 0.0297(7) 0.0099(3) 0.6183(6)
C119 C 0.0701(7) -0.0063(4) 0.6218(7)
H69 H 0.0949 -0.0019 0.6009
C120 C 0.0735(7) -0.0290(4) 0.6562(7)
H70 H 0.1008 -0.0404 0.6592
N20 N 0.0266(5) 0.0340(3) 0.5833(5)
C121 C -0.0058(6) 0.0322(3) 0.5439(6)
C122 C -0.0103(5) 0.0576(3) 0.5093(6)
C123 C -0.0422(6) 0.0576(4) 0.4711(6)
H71 H -0.0609 0.0406 0.4662
C124 C -0.0482(6) 0.0816(4) 0.4395(7)
H72 H -0.0711 0.0811 0.4139
C125 C -0.0208(5) 0.1060(3) 0.4454(5)
C126 C -0.0264(5) 0.1317(3) 0.4119(6)
N21 N 0.0016(5) 0.1563(3) 0.4211(5)
C127 C 0.0358(5) 0.1584(3) 0.4584(6)
C128 C 0.0419(5) 0.1321(3) 0.4907(6)
C129 C 0.0731(6) 0.1323(4) 0.5297(7)
H73 H 0.0930 0.1488 0.5339
C130 C 0.0762(7) 0.1089(4) 0.5629(7)
H74 H 0.0968 0.1104 0.5906
C131 C 0.0503(5) 0.0836(3) 0.5571(6)
C132 C 0.0552(6) 0.0587(3) 0.5925(6)
C133 C 0.0183(5) 0.0826(3) 0.5168(6)
C134 C 0.0133(5) 0.1070(3) 0.4836(6)
O13 O -0.0299(6) 0.0104(4) 0.5408(6)
O14 O -0.0536(6) 0.1324(4) 0.3764(6)
O15 O 0.0571(5) 0.1811(3) 0.4648(6)
O16 O 0.0816(6) 0.0591(3) 0.6292(6)
C135 C -0.0060(6) 0.1818(3) 0.3898(6)
C136 C -0.0460(6) 0.1978(4) 0.3937(7)
H75 H -0.0682 0.1917 0.4166
C137 C -0.0537(6) 0.2224(4) 0.3647(6)
H76 H -0.0810 0.2336 0.3680
C138 C -0.0216(6) 0.2309(3) 0.3306(6)
C139 C 0.0187(6) 0.2148(4) 0.3279(6)
H77 H 0.0412 0.2211 0.3054
C140 C 0.0271(6) 0.1901(4) 0.3566(6)
H78 H 0.0546 0.1791 0.3538
N22 N -0.0308(6) 0.2567(4) 0.3012(6)
C141 C 0.0430(7) -0.0845(4) 0.7123(7)
H79 H 0.0405 -0.0907 0.6785
C142 C -0.0352(6) 0.2557(4) 0.2548(7)
H80 H -0.0314 0.2371 0.2388
C143 C 0.0479(6) -0.1066(4) 0.7524(6)
C144 C -0.0458(6) 0.2818(4) 0.2239(7)
N23 N 0.0523(7) -0.0956(4) 0.7990(7)
N24 N -0.0523(6) 0.3068(4) 0.2499(7)
C145 C 0.0611(8) -0.1155(5) 0.8353(8)
H81 H 0.0638 -0.1086 0.8687
C146 C -0.0663(7) 0.3308(4) 0.2246(8)
H82 H -0.0718 0.3486 0.2424
C147 C 0.0665(8) -0.1454(5) 0.8265(8)
H83 H 0.0734 -0.1585 0.8533
C148 C -0.0730(8) 0.3307(6) 0.1738(8)
H84 H -0.0838 0.3479 0.1570
C149 C 0.0619(8) -0.1562(5) 0.7790(8)
H85 H 0.0659 -0.1767 0.7724
C150 C -0.0640(8) 0.3053(5) 0.1473(8)
H86 H -0.0674 0.3052 0.1121
C151 C 0.0512(7) -0.1366(4) 0.7409(7)
H87 H 0.0463 -0.1434 0.7078
C152 C -0.0499(8) 0.2799(5) 0.1722(7)
H88 H -0.0433 0.2621 0.1549
N25 N 0.4844(6) -0.0245(3) 0.2501(5)
C153 C 0.4896(6) -0.0046(3) 0.2905(6)
C154 C 0.5295(6) 0.0113(4) 0.2992(6)
H89 H 0.5542 0.0091 0.2773
C155 C 0.5340(6) 0.0303(4) 0.3394(6)
H90 H 0.5614 0.0412 0.3454
C156 C 0.4973(6) 0.0331(3) 0.3706(5)
C157 C 0.4563(6) 0.0178(3) 0.3615(6)
H91 H 0.4313 0.0204 0.3828
C158 C 0.4526(6) -0.0013(4) 0.3214(6)
H92 H 0.4252 -0.0120 0.3149
N26 N 0.5021(5) 0.0510(3) 0.4150(5)
C159 C 0.5229(5) 0.0386(3) 0.4578(5)
C160 C 0.5238(5) 0.0567(3) 0.5037(5)
C161 C 0.5408(6) 0.0456(4) 0.5483(5)
H93 H 0.5521 0.0259 0.5491
C162 C 0.5420(6) 0.0619(3) 0.5917(6)
H94 H 0.5534 0.0533 0.6218
C163 C 0.5267(5) 0.0907(3) 0.5912(5)
C164 C 0.5312(5) 0.1095(3) 0.6359(5)
N27 N 0.5171(5) 0.1390(3) 0.6309(5)
C165 C 0.4970(5) 0.1520(3) 0.5883(5)
C166 C 0.4921(5) 0.1326(3) 0.5444(5)
C167 C 0.4744(6) 0.1435(4) 0.5005(6)
H95 H 0.4641 0.1635 0.4991
C168 C 0.4712(6) 0.1262(3) 0.4581(6)
H96 H 0.4580 0.1344 0.4285
C169 C 0.4868(5) 0.0974(3) 0.4581(5)
C170 C 0.4840(5) 0.0797(3) 0.4121(5)
C171 C 0.5061(5) 0.0857(3) 0.5027(5)
C172 C 0.5077(5) 0.1032(3) 0.5466(5)
O17 O 0.5380(5) 0.0135(3) 0.4557(5)
O18 O 0.5467(6) 0.1003(3) 0.6751(5)
O19 O 0.4871(6) 0.1781(3) 0.5866(6)
O20 O 0.4689(5) 0.0889(3) 0.3724(5)
C173 C 0.5285(6) 0.1592(3) 0.6707(6)
C174 C 0.5700(7) 0.1746(4) 0.6701(7)
H97 H 0.5906 0.1711 0.6441
C175 C 0.5810(6) 0.1948(4) 0.7071(6)
H98 H 0.6091 0.2052 0.7066
C176 C 0.5505(6) 0.1998(3) 0.7452(6)
C177 C 0.5091(6) 0.1847(4) 0.7463(6)
H99 H 0.4885 0.1882 0.7723
C178 C 0.4982(6) 0.1643(4) 0.7091(6)
H100 H 0.4701 0.1538 0.7097
N28 N 0.5625(6) 0.2215(3) 0.7815(6)
C179 C 0.4997(7) -0.0511(4) 0.2531(6)
H101 H 0.5153 -0.0578 0.2825
C180 C 0.5736(6) 0.2129(4) 0.8257(7)
H102 H 0.5725 0.1925 0.8340
C181 C 0.4928(6) -0.0712(3) 0.2105(6)
C182 C 0.5882(6) 0.2348(4) 0.8634(6)
N29 N 0.4693(6) -0.0601(4) 0.1710(6)
N30 N 0.5888(6) 0.2635(4) 0.8489(6)
C183 C 0.4614(7) -0.0784(4) 0.1322(6)
H103 H 0.4438 -0.0712 0.1045
C184 C 0.6031(8) 0.2845(5) 0.8810(7)
H104 H 0.6036 0.3046 0.8704
C185 C 0.4776(7) -0.1073(4) 0.1306(7)
H105 H 0.4723 -0.1191 0.1018
C186 C 0.6170(8) 0.2775(5) 0.9292(8)
H106 H 0.6274 0.2926 0.9515
C187 C 0.5014(7) -0.1188(4) 0.1706(7)
H107 H 0.5123 -0.1387 0.1706
C188 C 0.6155(8) 0.2485(5) 0.9439(8)
H108 H 0.6246 0.2434 0.9770
C189 C 0.5088(7) -0.1002(4) 0.2115(7)
H109 H 0.5249 -0.1074 0.2401
C190 C 0.6012(8) 0.2264(5) 0.9114(7)
H110 H 0.6003 0.2063 0.9216
N31 N 0.4697(6) 0.0340(4) 0.1838(6)
C191 C 0.4394(6) 0.0552(4) 0.2031(6)
C192 C 0.4015(6) 0.0633(4) 0.1738(7)
H111 H 0.3966 0.0544 0.1421
C193 C 0.3711(7) 0.0841(4) 0.1907(6)
H112 H 0.3452 0.0893 0.1706
C194 C 0.3784(6) 0.0975(3) 0.2372(6)
C195 C 0.4156(6) 0.0892(4) 0.2655(7)
H113 H 0.4206 0.0982 0.2972
C196 C 0.4464(6) 0.0682(4) 0.2494(6)
H114 H 0.4719 0.0627 0.2699
N32 N 0.3474(5) 0.1209(3) 0.2501(5)
C197 C 0.3056(5) 0.1119(3) 0.2690(6)
C198 C 0.2707(5) 0.1347(3) 0.2780(5)
C199 C 0.2284(6) 0.1265(4) 0.2945(7)
H115 H 0.2219 0.1062 0.3007
C200 C 0.1952(6) 0.1480(3) 0.3022(7)
H116 H 0.1666 0.1425 0.3152
C201 C 0.2039(5) 0.1774(3) 0.2908(6)
C202 C 0.1674(5) 0.1996(3) 0.2941(6)
N33 N 0.1784(5) 0.2288(3) 0.2801(5)
C203 C 0.2202(5) 0.2392(3) 0.2636(6)
C204 C 0.2561(5) 0.2165(3) 0.2606(5)
C205 C 0.2985(5) 0.2240(4) 0.2442(6)
H117 H 0.3049 0.2441 0.2359
C206 C 0.3323(6) 0.2027(3) 0.2396(6)
H118 H 0.3615 0.2085 0.2287
C207 C 0.3246(5) 0.1731(3) 0.2504(5)
C208 C 0.3600(5) 0.1505(3) 0.2413(5)
C209 C 0.2814(5) 0.1646(3) 0.2676(5)
C210 C 0.2471(5) 0.1866(3) 0.2736(5)
O21 O 0.2995(6) 0.0860(3) 0.2803(6)
O22 O 0.1299(5) 0.1936(3) 0.3095(7)
O23 O 0.2263(5) 0.2648(3) 0.2510(5)
O24 O 0.3995(5) 0.1564(3) 0.2300(5)
C211 C 0.1422(5) 0.2503(3) 0.2860(6)
C212 C 0.1090(6) 0.2556(4) 0.2492(7)
H119 H 0.1100 0.2457 0.2181
C213 C 0.0747(6) 0.2757(3) 0.2587(6)
H120 H 0.0517 0.2797 0.2340
C214 C 0.0739(5) 0.2899(3) 0.3044(6)
C215 C 0.1077(5) 0.2846(4) 0.3406(7)
H121 H 0.1071 0.2948 0.3715
C216 C 0.1420(6) 0.2646(4) 0.3315(7)
H122 H 0.1652 0.2608 0.3561
N34 N 0.0388(5) 0.3104(3) 0.3132(6)
C217 C 0.5106(7) 0.0410(5) 0.1759(7)
H123 H 0.5201 0.0607 0.1829
C218 C 0.0500(6) 0.3372(4) 0.3246(7)
H124 H 0.0812 0.3429 0.3244
C219 C 0.5441(6) 0.0202(4) 0.1565(5)
C220 C 0.0152(6) 0.3590(4) 0.3381(6)
N35 N 0.5288(6) -0.0075(4) 0.1480(5)
N36 N -0.0273(6) 0.3482(4) 0.3397(7)
C221 C 0.5575(7) -0.0259(5) 0.1258(7)
H125 H 0.5466 -0.0450 0.1169
C222 C -0.0603(7) 0.3669(5) 0.3535(8)
H126 H -0.0906 0.3595 0.3547
C223 C 0.6024(7) -0.0190(5) 0.1148(7)
H127 H 0.6220 -0.0331 0.1003
C224 C -0.0533(7) 0.3960(5) 0.3660(9)
H128 H -0.0778 0.4082 0.3760
C225 C 0.6168(7) 0.0090(5) 0.1258(7)
H129 H 0.6473 0.0147 0.1190
C226 C -0.0095(7) 0.4071(4) 0.3635(9)
H130 H -0.0033 0.4273 0.3715
C227 C 0.5876(6) 0.0294(5) 0.1467(7)
H131 H 0.5973 0.0491 0.1540
C228 C 0.0252(7) 0.3884(4) 0.3490(8)
H132 H 0.0555 0.3956 0.3466
P1 P 0.2578(6) 0.0368(4) 0.8887(7)
F1 F 0.2176(8) 0.0319(7) 0.9269(9)
F2 F 0.2889(9) 0.0529(7) 0.9320(9)
F3 F 0.3013(8) 0.0418(7) 0.8523(10)
F4 F 0.2311(9) 0.0204(6) 0.8424(9)
F5 F 0.2376(8) 0.0686(5) 0.8697(9)
F6 F 0.2778(10) 0.0040(5) 0.9053(11)
P2 P -0.0907(5) -0.0965(3) 0.6679(6)
F7 F -0.1198(7) -0.1040(4) 0.7174(8)
F8 F -0.0440(6) -0.1058(5) 0.6968(10)
F9 F -0.0622(7) -0.0913(5) 0.6169(8)
F10 F -0.1388(6) -0.0887(4) 0.6380(8)
F11 F -0.0983(7) -0.1314(3) 0.6483(9)
F12 F -0.0852(7) -0.0625(3) 0.6857(9)
P3 P 0.5023(7) 0.0729(3) 0.0189(5)
F13 F 0.4765(9) 0.0556(5) -0.0270(7)
F14 F 0.5497(8) 0.0734(5) -0.0115(9)
F15 F 0.5273(9) 0.0874(5) 0.0678(7)
F16 F 0.4530(8) 0.0707(6) 0.0447(10)
F17 F 0.4896(11) 0.1050(4) -0.0033(9)
F18 F 0.5168(10) 0.0408(4) 0.0425(7)
S1 S 0.2062(4) 0.3487(2) 0.5836(4)
O25 O 0.2112(8) 0.3806(3) 0.5846(8)
O26 O 0.1787(7) 0.3341(4) 0.5458(7)
C229 C 0.1751(8) 0.3404(6) 0.6400(7)
F19 F 0.1989(7) 0.3520(5) 0.6782(7)
F20 F 0.1327(8) 0.3499(6) 0.6323(9)
F21 F 0.1730(9) 0.3119(5) 0.6495(8)
N37 N 0.2566(5) 0.3329(5) 0.5855(9)
S2 S 0.3018(4) 0.3476(2) 0.6121(4)
O27 O 0.2902(8) 0.3692(4) 0.6484(7)
O28 O 0.3357(7) 0.3250(4) 0.6200(8)
C230 C 0.3292(8) 0.3692(5) 0.5635(8)
F22 F 0.3000(8) 0.3906(5) 0.5515(8)
F23 F 0.3687(7) 0.3788(5) 0.5803(8)
F24 F 0.3331(8) 0.3519(5) 0.5237(8)
loop_
_geom_bond_atom_site_label_1
_geom_bond_atom_site_label_2
_geom_bond_site_symmetry_1
_geom_bond_site_symmetry_2
Zn1 N7 1_555 1_555
Zn2 N10 1_555 1_555
Zn3 N4 1_555 1_555
Zn4 N1 1_555 1_555
N1 C1 1_555 1_555
C1 C2 1_555 1_555
C2 H1 1_555 1_555
C3 C2 1_555 1_555
H2 C3 1_555 1_555
C4 C3 1_555 1_555
C5 C4 1_555 1_555
H3 C5 1_555 1_555
C6 C1 1_555 1_555
H4 C6 1_555 1_555
N2 C4 1_555 1_555
C7 N2 1_555 1_555
C8 C7 1_555 1_555
C9 C8 1_555 1_555
H5 C9 1_555 1_555
C10 C9 1_555 1_555
H6 C10 1_555 1_555
C11 C10 1_555 1_555
C12 C11 1_555 1_555
N3 C12 1_555 1_555
C13 N3 1_555 1_555
C14 C13 1_555 1_555
C15 C14 1_555 1_555
H7 C15 1_555 1_555
C16 C15 1_555 1_555
H8 C16 1_555 1_555
C17 C16 1_555 1_555
C18 N2 1_555 1_555
C19 C8 1_555 1_555
C20 C11 1_555 1_555
O1 C7 1_555 1_555
O2 C12 1_555 1_555
O3 C13 1_555 1_555
O4 C18 1_555 1_555
C21 N3 1_555 1_555
C22 C21 1_555 1_555
H9 C22 1_555 1_555
C23 C22 1_555 1_555
H10 C23 1_555 1_555
C24 C23 1_555 1_555
C25 C24 1_555 1_555
H11 C25 1_555 1_555
C26 C21 1_555 1_555
H12 C26 1_555 1_555
N4 C24 1_555 1_555
C27 N1 1_555 1_555
H13 C27 1_555 1_555
C28 N4 1_555 1_555
H14 C28 1_555 1_555
C29 C27 1_555 1_555
C30 C28 1_555 1_555
N5 Zn4 1_555 1_555
N6 Zn3 1_555 1_555
C31 N5 1_555 1_555
H15 C31 1_555 1_555
C32 N6 1_555 1_555
H16 C32 1_555 1_555
C33 C31 1_555 1_555
H17 C33 1_555 1_555
C34 C32 1_555 1_555
H18 C34 1_555 1_555
C35 C33 1_555 1_555
H19 C35 1_555 1_555
C36 C34 1_555 1_555
H20 C36 1_555 1_555
C37 C29 1_555 1_555
H21 C37 1_555 1_555
C38 C30 1_555 1_555
H22 C38 1_555 1_555
N7 C39 1_555 1_555
C39 C40 1_555 1_555
C40 H23 1_555 1_555
C41 C40 1_555 1_555
H24 C41 1_555 1_555
C42 C41 1_555 1_555
C43 C42 1_555 1_555
H25 C43 1_555 1_555
C44 C39 1_555 1_555
H26 C44 1_555 1_555
N8 C42 1_555 1_555
C45 N8 1_555 1_555
C46 C45 1_555 1_555
C47 C46 1_555 1_555
H27 C47 1_555 1_555
C48 C47 1_555 1_555
H28 C48 1_555 1_555
C49 C48 1_555 1_555
C50 C49 1_555 1_555
N9 C50 1_555 1_555
C51 N9 1_555 1_555
C52 C51 1_555 1_555
C53 C52 1_555 1_555
H29 C53 1_555 1_555
C54 C53 1_555 1_555
H30 C54 1_555 1_555
C55 C54 1_555 1_555
C56 N8 1_555 1_555
C57 C46 1_555 1_555
C58 C49 1_555 1_555
O5 C45 1_555 1_555
O6 C50 1_555 1_555
O7 C51 1_555 1_555
O8 C56 1_555 1_555
C59 N9 1_555 1_555
C60 C59 1_555 1_555
H31 C60 1_555 1_555
C61 C60 1_555 1_555
H32 C61 1_555 1_555
C62 C61 1_555 1_555
C63 C62 1_555 1_555
H33 C63 1_555 1_555
C64 C59 1_555 1_555
H34 C64 1_555 1_555
N10 C62 1_555 1_555
C65 N7 1_555 1_555
H35 C65 1_555 1_555
C66 N10 1_555 1_555
H36 C66 1_555 1_555
C67 C65 1_555 1_555
C68 C66 1_555 1_555
N11 Zn1 1_555 1_555
N12 Zn2 1_555 1_555
C69 N11 1_555 1_555
H37 C69 1_555 1_555
C70 N12 1_555 1_555
H38 C70 1_555 1_555
C71 C69 1_555 1_555
H39 C71 1_555 1_555
C72 C70 1_555 1_555
H40 C72 1_555 1_555
C73 C71 1_555 1_555
H41 C73 1_555 1_555
C74 C72 1_555 1_555
H42 C74 1_555 1_555
C75 C67 1_555 1_555
H43 C75 1_555 1_555
C76 C68 1_555 1_555
H44 C76 1_555 1_555
N13 Zn4 1_555 1_555
C77 N13 1_555 1_555
C78 C77 1_555 1_555
H45 C78 1_555 1_555
C79 C78 1_555 1_555
H46 C79 1_555 1_555
C80 C79 1_555 1_555
C81 C80 1_555 1_555
H47 C81 1_555 1_555
C82 C77 1_555 1_555
H48 C82 1_555 1_555
N14 C80 1_555 1_555
C83 N14 1_555 1_555
C84 C83 1_555 1_555
C85 C84 1_555 1_555
H49 C85 1_555 1_555
C86 C85 1_555 1_555
H50 C86 1_555 1_555
C87 C86 1_555 1_555
C88 C87 1_555 1_555
N15 C88 1_555 1_555
C89 N15 1_555 1_555
C90 C89 1_555 1_555
C91 C90 1_555 1_555
H51 C91 1_555 1_555
C92 C91 1_555 1_555
H52 C92 1_555 1_555
C93 C92 1_555 1_555
C94 N14 1_555 1_555
C95 C84 1_555 1_555
C96 C87 1_555 1_555
O9 C83 1_555 1_555
O10 C88 1_555 1_555
O11 C89 1_555 1_555
O12 C94 1_555 1_555
C97 N15 1_555 1_555
C98 C97 1_555 1_555
H53 C98 1_555 1_555
C99 C98 1_555 1_555
H54 C99 1_555 1_555
C100 C99 1_555 1_555
C101 C100 1_555 1_555
H55 C101 1_555 1_555
C102 C97 1_555 1_555
H56 C102 1_555 1_555
N16 Zn1 1_555 1_555
C103 N13 1_555 1_555
H57 C103 1_555 1_555
C104 N16 1_555 1_555
H58 C104 1_555 1_555
C105 C103 1_555 1_555
C106 C104 1_555 1_555
N17 Zn4 1_555 1_555
N18 Zn1 1_555 1_555
C107 N17 1_555 1_555
H59 C107 1_555 1_555
C108 N18 1_555 1_555
H60 C108 1_555 1_555
C109 C107 1_555 1_555
H61 C109 1_555 1_555
C110 C108 1_555 1_555
H62 C110 1_555 1_555
C111 C109 1_555 1_555
H63 C111 1_555 1_555
C112 C110 1_555 1_555
H64 C112 1_555 1_555
C113 C105 1_555 1_555
H65 C113 1_555 1_555
C114 C106 1_555 1_555
H66 C114 1_555 1_555
N19 Zn4 1_555 1_555
C115 N19 1_555 1_555
C116 C115 1_555 1_555
H67 C116 1_555 1_555
C117 C116 1_555 1_555
H68 C117 1_555 1_555
C118 C117 1_555 1_555
C119 C118 1_555 1_555
H69 C119 1_555 1_555
C120 C115 1_555 1_555
H70 C120 1_555 1_555
N20 C118 1_555 1_555
C121 N20 1_555 1_555
C122 C121 1_555 1_555
C123 C122 1_555 1_555
H71 C123 1_555 1_555
C124 C123 1_555 1_555
H72 C124 1_555 1_555
C125 C124 1_555 1_555
C126 C125 1_555 1_555
N21 C126 1_555 1_555
C127 N21 1_555 1_555
C128 C127 1_555 1_555
C129 C128 1_555 1_555
H73 C129 1_555 1_555
C130 C129 1_555 1_555
H74 C130 1_555 1_555
C131 C130 1_555 1_555
C132 N20 1_555 1_555
C133 C122 1_555 1_555
C134 C125 1_555 1_555
O13 C121 1_555 1_555
O14 C126 1_555 1_555
O15 C127 1_555 1_555
O16 C132 1_555 1_555
C135 N21 1_555 1_555
C136 C135 1_555 1_555
H75 C136 1_555 1_555
C137 C136 1_555 1_555
H76 C137 1_555 1_555
C138 C137 1_555 1_555
C139 C138 1_555 1_555
H77 C139 1_555 1_555
C140 C135 1_555 1_555
H78 C140 1_555 1_555
N22 Zn2 1_555 1_555
C141 N19 1_555 1_555
H79 C141 1_555 1_555
C142 N22 1_555 1_555
H80 C142 1_555 1_555
C143 C141 1_555 1_555
C144 C142 1_555 1_555
N23 Zn4 1_555 1_555
N24 Zn2 1_555 1_555
C145 N23 1_555 1_555
H81 C145 1_555 1_555
C146 N24 1_555 1_555
H82 C146 1_555 1_555
C147 C145 1_555 1_555
H83 C147 1_555 1_555
C148 C146 1_555 1_555
H84 C148 1_555 1_555
C149 C147 1_555 1_555
H85 C149 1_555 1_555
C150 C148 1_555 1_555
H86 C150 1_555 1_555
C151 C143 1_555 1_555
H87 C151 1_555 1_555
C152 C144 1_555 1_555
H88 C152 1_555 1_555
N25 Zn3 1_555 1_555
C153 N25 1_555 1_555
C154 C153 1_555 1_555
H89 C154 1_555 1_555
C155 C154 1_555 1_555
H90 C155 1_555 1_555
C156 C155 1_555 1_555
C157 C156 1_555 1_555
H91 C157 1_555 1_555
C158 C153 1_555 1_555
H92 C158 1_555 1_555
N26 C156 1_555 1_555
C159 N26 1_555 1_555
C160 C159 1_555 1_555
C161 C160 1_555 1_555
H93 C161 1_555 1_555
C162 C161 1_555 1_555
H94 C162 1_555 1_555
C163 C162 1_555 1_555
C164 C163 1_555 1_555
N27 C164 1_555 1_555
C165 N27 1_555 1_555
C166 C165 1_555 1_555
C167 C166 1_555 1_555
H95 C167 1_555 1_555
C168 C167 1_555 1_555
H96 C168 1_555 1_555
C169 C168 1_555 1_555
C170 N26 1_555 1_555
C171 C160 1_555 1_555
C172 C163 1_555 1_555
O17 C159 1_555 1_555
O18 C164 1_555 1_555
O19 C165 1_555 1_555
O20 C170 1_555 1_555
C173 N27 1_555 1_555
C174 C173 1_555 1_555
H97 C174 1_555 1_555
C175 C174 1_555 1_555
H98 C175 1_555 1_555
C176 C175 1_555 1_555
C177 C176 1_555 1_555
H99 C177 1_555 1_555
C178 C173 1_555 1_555
H100 C178 1_555 1_555
N28 Zn1 1_555 1_555
C179 N25 1_555 1_555
H101 C179 1_555 1_555
C180 N28 1_555 1_555
H102 C180 1_555 1_555
C181 C179 1_555 1_555
C182 C180 1_555 1_555
N29 Zn3 1_555 1_555
N30 Zn1 1_555 1_555
C183 N29 1_555 1_555
H103 C183 1_555 1_555
C184 N30 1_555 1_555
H104 C184 1_555 1_555
C185 C183 1_555 1_555
H105 C185 1_555 1_555
C186 C184 1_555 1_555
H106 C186 1_555 1_555
C187 C185 1_555 1_555
H107 C187 1_555 1_555
C188 C186 1_555 1_555
H108 C188 1_555 1_555
C189 C181 1_555 1_555
H109 C189 1_555 1_555
C190 C182 1_555 1_555
H110 C190 1_555 1_555
N31 Zn3 1_555 1_555
C191 N31 1_555 1_555
C192 C191 1_555 1_555
H111 C192 1_555 1_555
C193 C192 1_555 1_555
H112 C193 1_555 1_555
C194 C193 1_555 1_555
C195 C194 1_555 1_555
H113 C195 1_555 1_555
C196 C191 1_555 1_555
H114 C196 1_555 1_555
N32 C194 1_555 1_555
C197 N32 1_555 1_555
C198 C197 1_555 1_555
C199 C198 1_555 1_555
H115 C199 1_555 1_555
C200 C199 1_555 1_555
H116 C200 1_555 1_555
C201 C200 1_555 1_555
C202 C201 1_555 1_555
N33 C202 1_555 1_555
C203 N33 1_555 1_555
C204 C203 1_555 1_555
C205 C204 1_555 1_555
H117 C205 1_555 1_555
C206 C205 1_555 1_555
H118 C206 1_555 1_555
C207 C206 1_555 1_555
C208 N32 1_555 1_555
C209 C198 1_555 1_555
C210 C201 1_555 1_555
O21 C197 1_555 1_555
O22 C202 1_555 1_555
O23 C203 1_555 1_555
O24 C208 1_555 1_555
C211 N33 1_555 1_555
C212 C211 1_555 1_555
H119 C212 1_555 1_555
C213 C212 1_555 1_555
H120 C213 1_555 1_555
C214 C213 1_555 1_555
C215 C214 1_555 1_555
H121 C215 1_555 1_555
C216 C211 1_555 1_555
H122 C216 1_555 1_555
N34 Zn2 1_555 1_555
C217 N31 1_555 1_555
H123 C217 1_555 1_555
C218 N34 1_555 1_555
H124 C218 1_555 1_555
C219 C217 1_555 1_555
C220 C218 1_555 1_555
N35 Zn3 1_555 1_555
N36 Zn2 1_555 1_555
C221 N35 1_555 1_555
H125 C221 1_555 1_555
C222 N36 1_555 1_555
H126 C222 1_555 1_555
C223 C221 1_555 1_555
H127 C223 1_555 1_555
C224 C222 1_555 1_555
H128 C224 1_555 1_555
C225 C223 1_555 1_555
H129 C225 1_555 1_555
C226 C224 1_555 1_555
H130 C226 1_555 1_555
C227 C219 1_555 1_555
H131 C227 1_555 1_555
C228 C220 1_555 1_555
H132 C228 1_555 1_555
P1 F1 1_555 1_555
F2 P1 1_555 1_555
F3 P1 1_555 1_555
F4 P1 1_555 1_555
F5 P1 1_555 1_555
F6 P1 1_555 1_555
P2 F7 1_555 1_555
F8 P2 1_555 1_555
F9 P2 1_555 1_555
F10 P2 1_555 1_555
F11 P2 1_555 1_555
F12 P2 1_555 1_555
P3 F13 1_555 1_555
F14 P3 1_555 1_555
F15 P3 1_555 1_555
F16 P3 1_555 1_555
F17 P3 1_555 1_555
F18 P3 1_555 1_555
S1 O25 1_555 1_555
O26 S1 1_555 1_555
C229 S1 1_555 1_555
F19 C229 1_555 1_555
F20 C229 1_555 1_555
F21 C229 1_555 1_555
N37 S1 1_555 1_555
S2 N37 1_555 1_555
O27 S2 1_555 1_555
O28 S2 1_555 1_555
C230 S2 1_555 1_555
F22 C230 1_555 1_555
F23 C230 1_555 1_555
F24 C230 1_555 1_555
C5 C6 1_555 1_555
C14 C20 1_555 1_555
C17 C18 1_555 1_555
C17 C19 1_555 1_555
C19 C20 1_555 1_555
C25 C26 1_555 1_555
C29 N5 1_555 1_555
C30 N6 1_555 1_555
C35 C37 1_555 1_555
C36 C38 1_555 1_555
C43 C44 1_555 1_555
C52 C58 1_555 1_555
C55 C56 1_555 1_555
C55 C57 1_555 1_555
C57 C58 1_555 1_555
C63 C64 1_555 1_555
C67 N11 1_555 1_555
C68 N12 1_555 1_555
C73 C75 1_555 1_555
C74 C76 1_555 1_555
C81 C82 1_555 1_555
C90 C96 1_555 1_555
C93 C94 1_555 1_555
C93 C95 1_555 1_555
C95 C96 1_555 1_555
C100 N16 1_555 1_555
C101 C102 1_555 1_555
C105 N17 1_555 1_555
C106 N18 1_555 1_555
C111 C113 1_555 1_555
C112 C114 1_555 1_555
C119 C120 1_555 1_555
C128 C134 1_555 1_555
C131 C132 1_555 1_555
C131 C133 1_555 1_555
C133 C134 1_555 1_555
C138 N22 1_555 1_555
C139 C140 1_555 1_555
C143 N23 1_555 1_555
C144 N24 1_555 1_555
C149 C151 1_555 1_555
C150 C152 1_555 1_555
C157 C158 1_555 1_555
C166 C172 1_555 1_555
C169 C170 1_555 1_555
C169 C171 1_555 1_555
C171 C172 1_555 1_555
C176 N28 1_555 1_555
C177 C178 1_555 1_555
C181 N29 1_555 1_555
C182 N30 1_555 1_555
C187 C189 1_555 1_555
C188 C190 1_555 1_555
C195 C196 1_555 1_555
C204 C210 1_555 1_555
C207 C208 1_555 1_555
C207 C209 1_555 1_555
C209 C210 1_555 1_555
C214 N34 1_555 1_555
C215 C216 1_555 1_555
C219 N35 1_555 1_555
C220 N36 1_555 1_555
C225 C227 1_555 1_555
C226 C228 1_555 1_555

#END
