# generated using pymatgen
data_Zn4P3H132C230S2N37(O7F6)4
_symmetry_space_group_name_H-M   'P 1'
_cell_length_a   26.89600000
_cell_length_b   29.30700000
_cell_length_c   45.11000000
_cell_angle_alpha   90.00000000
_cell_angle_beta   90.00000000
_cell_angle_gamma   91.52000000
_symmetry_Int_Tables_number   1
_chemical_formula_structural   Zn4P3H132C230S2N37(O7F6)4
_chemical_formula_sum   'Zn16 P12 H528 C920 S8 N148 O112 F96'
_cell_volume   35545.04300003
_cell_formula_units_Z   4
loop_
 _symmetry_equiv_pos_site_id
 _symmetry_equiv_pos_as_xyz
  1  'x, y, z'
loop_
 _atom_site_type_symbol
 _atom_site_label
 _atom_site_symmetry_multiplicity
 _atom_site_fract_x
 _atom_site_fract_y
 _atom_site_fract_z
 _atom_site_occupancy
  Zn  Zn1  1  0.771650  0.564490  0.270060  1
  Zn  Zn2  1  0.728350  0.435510  0.770060  1
  Zn  Zn3  1  0.228350  0.435510  0.729940  1
  Zn  Zn4  1  0.271650  0.564490  0.229940  1
  Zn  Zn5  1  0.327420  0.965570  0.302880  1
  Zn  Zn6  1  0.172580  0.034430  0.802880  1
  Zn  Zn7  1  0.672580  0.034430  0.697120  1
  Zn  Zn8  1  0.827420  0.965570  0.197120  1
  Zn  Zn9  1  0.172100  0.457350  0.986340  1
  Zn  Zn10  1  0.327900  0.542650  0.486340  1
  Zn  Zn11  1  0.827900  0.542650  0.013660  1
  Zn  Zn12  1  0.672100  0.457350  0.513660  1
  Zn  Zn13  1  0.804190  0.053610  0.950300  1
  Zn  Zn14  1  0.695810  0.946390  0.450300  1
  Zn  Zn15  1  0.195810  0.946390  0.049700  1
  Zn  Zn16  1  0.304190  0.053610  0.549700  1
  P  P17  1  0.888700  0.257800  0.036800  1
  P  P18  1  0.611300  0.742200  0.536800  1
  P  P19  1  0.111300  0.742200  0.963200  1
  P  P20  1  0.388700  0.257800  0.463200  1
  P  P21  1  0.667900  0.909300  0.903500  1
  P  P22  1  0.832100  0.090700  0.403500  1
  P  P23  1  0.332100  0.090700  0.096500  1
  P  P24  1  0.167900  0.909300  0.596500  1
  P  P25  1  0.018900  0.502300  0.072900  1
  P  P26  1  0.481100  0.497700  0.572900  1
  P  P27  1  0.981100  0.497700  0.927100  1
  P  P28  1  0.518900  0.502300  0.427100  1
  H  H29  1  0.739000  0.150400  0.910900  1
  H  H30  1  0.761000  0.849600  0.410900  1
  H  H31  1  0.261000  0.849600  0.089100  1
  H  H32  1  0.239000  0.150400  0.589100  1
  H  H33  1  0.662900  0.187300  0.912500  1
  H  H34  1  0.837100  0.812700  0.412500  1
  H  H35  1  0.337100  0.812700  0.087500  1
  H  H36  1  0.162900  0.187300  0.587500  1
  H  H37  1  0.684400  0.215500  0.999800  1
  H  H38  1  0.815600  0.784500  0.499800  1
  H  H39  1  0.315600  0.784500  0.000200  1
  H  H40  1  0.184400  0.215500  0.500200  1
  H  H41  1  0.759600  0.176400  0.998800  1
  H  H42  1  0.740400  0.823600  0.498800  1
  H  H43  1  0.240400  0.823600  0.001200  1
  H  H44  1  0.259600  0.176400  0.501200  1
  H  H45  1  0.487500  0.148600  0.947800  1
  H  H46  1  0.012500  0.851400  0.447800  1
  H  H47  1  0.512500  0.851400  0.052200  1
  H  H48  1  0.987500  0.148600  0.552200  1
  H  H49  1  0.408300  0.178200  0.953500  1
  H  H50  1  0.091700  0.821800  0.453500  1
  H  H51  1  0.591700  0.821800  0.046500  1
  H  H52  1  0.908300  0.178200  0.546500  1
  H  H53  1  0.505100  0.378200  0.982100  1
  H  H54  1  0.994900  0.621800  0.482100  1
  H  H55  1  0.494900  0.621800  0.017900  1
  H  H56  1  0.005100  0.378200  0.517900  1
  H  H57  1  0.584300  0.350400  0.974600  1
  H  H58  1  0.915700  0.649600  0.474600  1
  H  H59  1  0.415700  0.649600  0.025400  1
  H  H60  1  0.084300  0.350400  0.525400  1
  H  H61  1  0.323400  0.350500  0.934000  1
  H  H62  1  0.176600  0.649500  0.434000  1
  H  H63  1  0.676600  0.649500  0.066000  1
  H  H64  1  0.823400  0.350500  0.566000  1
  H  H65  1  0.245100  0.382400  0.940700  1
  H  H66  1  0.254900  0.617600  0.440700  1
  H  H67  1  0.754900  0.617600  0.059300  1
  H  H68  1  0.745100  0.382400  0.559300  1
  H  H69  1  0.241600  0.336400  0.026000  1
  H  H70  1  0.258400  0.663600  0.526000  1
  H  H71  1  0.758400  0.663600  0.974000  1
  H  H72  1  0.741600  0.336400  0.474000  1
  H  H73  1  0.321200  0.306700  0.019400  1
  H  H74  1  0.178800  0.693300  0.519400  1
  H  H75  1  0.678800  0.693300  0.980600  1
  H  H76  1  0.821200  0.306700  0.480600  1
  H  H77  1  0.842300  0.177800  0.960000  1
  H  H78  1  0.657700  0.822200  0.460000  1
  H  H79  1  0.157700  0.822200  0.040000  1
  H  H80  1  0.342300  0.177800  0.540000  1
  H  H81  1  0.153300  0.325200  0.995400  1
  H  H82  1  0.346700  0.674800  0.495400  1
  H  H83  1  0.846700  0.674800  0.004600  1
  H  H84  1  0.653300  0.325200  0.504600  1
  H  H85  1  0.914300  0.014600  0.953500  1
  H  H86  1  0.585700  0.985400  0.453500  1
  H  H87  1  0.085700  0.985400  0.046500  1
  H  H88  1  0.414300  0.014600  0.546500  1
  H  H89  1  0.055300  0.477300  0.991100  1
  H  H90  1  0.444700  0.522700  0.491100  1
  H  H91  1  0.944700  0.522700  0.008900  1
  H  H92  1  0.555300  0.477300  0.508900  1
  H  H93  1  0.994100  0.048000  0.956600  1
  H  H94  1  0.505900  0.952000  0.456600  1
  H  H95  1  0.005900  0.952000  0.043400  1
  H  H96  1  0.494100  0.048000  0.543400  1
  H  H97  1  0.983400  0.436800  0.005800  1
  H  H98  1  0.516600  0.563200  0.505800  1
  H  H99  1  0.016600  0.563200  0.994200  1
  H  H100  1  0.483400  0.436800  0.494200  1
  H  H101  1  0.001900  0.126900  0.960500  1
  H  H102  1  0.498100  0.873100  0.460500  1
  H  H103  1  0.998100  0.873100  0.039500  1
  H  H104  1  0.501900  0.126900  0.539500  1
  H  H105  1  0.986800  0.358200  0.013200  1
  H  H106  1  0.513200  0.641800  0.513200  1
  H  H107  1  0.013200  0.641800  0.986800  1
  H  H108  1  0.486800  0.358200  0.486800  1
  H  H109  1  0.931600  0.172100  0.961800  1
  H  H110  1  0.568400  0.827900  0.461800  1
  H  H111  1  0.068400  0.827900  0.038200  1
  H  H112  1  0.431600  0.172100  0.538200  1
  H  H113  1  0.061700  0.321100  0.005800  1
  H  H114  1  0.438300  0.678900  0.505800  1
  H  H115  1  0.938300  0.678900  0.994200  1
  H  H116  1  0.561700  0.321100  0.494200  1
  H  H117  1  0.637500  0.512500  0.227700  1
  H  H118  1  0.862500  0.487500  0.727700  1
  H  H119  1  0.362500  0.487500  0.772300  1
  H  H120  1  0.137500  0.512500  0.272300  1
  H  H121  1  0.595200  0.441900  0.226000  1
  H  H122  1  0.904800  0.558100  0.726000  1
  H  H123  1  0.404800  0.558100  0.774000  1
  H  H124  1  0.095200  0.441900  0.274000  1
  H  H125  1  0.647100  0.414200  0.308600  1
  H  H126  1  0.852900  0.585800  0.808600  1
  H  H127  1  0.352900  0.585800  0.691400  1
  H  H128  1  0.147100  0.414200  0.191400  1
  H  H129  1  0.685800  0.486600  0.310600  1
  H  H130  1  0.814200  0.513400  0.810600  1
  H  H131  1  0.314200  0.513400  0.689400  1
  H  H132  1  0.185800  0.486600  0.189400  1
  H  H133  1  0.455200  0.342400  0.294800  1
  H  H134  1  0.044800  0.657600  0.794800  1
  H  H135  1  0.544800  0.657600  0.705200  1
  H  H136  1  0.955200  0.342400  0.205200  1
  H  H137  1  0.426500  0.267700  0.301100  1
  H  H138  1  0.073500  0.732300  0.801100  1
  H  H139  1  0.573500  0.732300  0.698900  1
  H  H140  1  0.926500  0.267700  0.198900  1
  H  H141  1  0.629100  0.191000  0.244500  1
  H  H142  1  0.870900  0.809000  0.744500  1
  H  H143  1  0.370900  0.809000  0.755500  1
  H  H144  1  0.129100  0.191000  0.255500  1
  H  H145  1  0.660100  0.265500  0.238700  1
  H  H146  1  0.839900  0.734500  0.738700  1
  H  H147  1  0.339900  0.734500  0.761300  1
  H  H148  1  0.160100  0.265500  0.261300  1
  H  H149  1  0.478600  0.108700  0.326700  1
  H  H150  1  0.021400  0.891300  0.826700  1
  H  H151  1  0.521400  0.891300  0.673300  1
  H  H152  1  0.978600  0.108700  0.173300  1
  H  H153  1  0.441600  0.036500  0.332100  1
  H  H154  1  0.058400  0.963500  0.832100  1
  H  H155  1  0.558400  0.963500  0.667900  1
  H  H156  1  0.941600  0.036500  0.167900  1
  H  H157  1  0.434600  0.021700  0.243700  1
  H  H158  1  0.065400  0.978300  0.743700  1
  H  H159  1  0.565400  0.978300  0.756300  1
  H  H160  1  0.934600  0.021700  0.256300  1
  H  H161  1  0.470500  0.094200  0.237400  1
  H  H162  1  0.029500  0.905800  0.737400  1
  H  H163  1  0.529500  0.905800  0.762600  1
  H  H164  1  0.970500  0.094200  0.262600  1
  H  H165  1  0.632700  0.584300  0.274000  1
  H  H166  1  0.867300  0.415700  0.774000  1
  H  H167  1  0.367300  0.415700  0.726000  1
  H  H168  1  0.132700  0.584300  0.226000  1
  H  H169  1  0.464100  0.941600  0.288400  1
  H  H170  1  0.035900  0.058400  0.788400  1
  H  H171  1  0.535900  0.058400  0.711600  1
  H  H172  1  0.964100  0.941600  0.211600  1
  H  H173  1  0.801300  0.675300  0.274200  1
  H  H174  1  0.698700  0.324700  0.774200  1
  H  H175  1  0.198700  0.324700  0.725800  1
  H  H176  1  0.301300  0.675300  0.225800  1
  H  H177  1  0.291900  0.859300  0.305900  1
  H  H178  1  0.208100  0.140700  0.805900  1
  H  H179  1  0.708100  0.140700  0.694100  1
  H  H180  1  0.791900  0.859300  0.194100  1
  H  H181  1  0.756300  0.740900  0.279600  1
  H  H182  1  0.743700  0.259100  0.779600  1
  H  H183  1  0.243700  0.259100  0.720400  1
  H  H184  1  0.256300  0.740900  0.220400  1
  H  H185  1  0.331400  0.789000  0.301900  1
  H  H186  1  0.168600  0.211000  0.801900  1
  H  H187  1  0.668600  0.211000  0.698100  1
  H  H188  1  0.831400  0.789000  0.198100  1
  H  H189  1  0.669700  0.738800  0.279800  1
  H  H190  1  0.830300  0.261200  0.779800  1
  H  H191  1  0.330300  0.261200  0.720200  1
  H  H192  1  0.169700  0.738800  0.220200  1
  H  H193  1  0.417000  0.788500  0.295400  1
  H  H194  1  0.083000  0.211500  0.795400  1
  H  H195  1  0.583000  0.211500  0.704600  1
  H  H196  1  0.917000  0.788500  0.204600  1
  H  H197  1  0.627500  0.667000  0.276900  1
  H  H198  1  0.872500  0.333000  0.776900  1
  H  H199  1  0.372500  0.333000  0.723100  1
  H  H200  1  0.127500  0.667000  0.223100  1
  H  H201  1  0.463300  0.856700  0.290600  1
  H  H202  1  0.036700  0.143300  0.790600  1
  H  H203  1  0.536700  0.143300  0.709400  1
  H  H204  1  0.963300  0.856700  0.209400  1
  H  H205  1  0.864300  0.095900  0.019900  1
  H  H206  1  0.635700  0.904100  0.519900  1
  H  H207  1  0.135700  0.904100  0.980100  1
  H  H208  1  0.364300  0.095900  0.480100  1
  H  H209  1  0.855800  0.153300  0.055200  1
  H  H210  1  0.644200  0.846700  0.555200  1
  H  H211  1  0.144200  0.846700  0.944800  1
  H  H212  1  0.355800  0.153300  0.444800  1
  H  H213  1  0.710100  0.118300  0.063400  1
  H  H214  1  0.789900  0.881700  0.563400  1
  H  H215  1  0.289900  0.881700  0.936600  1
  H  H216  1  0.210100  0.118300  0.436600  1
  H  H217  1  0.717500  0.062700  0.026800  1
  H  H218  1  0.782500  0.937300  0.526800  1
  H  H219  1  0.282500  0.937300  0.973200  1
  H  H220  1  0.217500  0.062700  0.473200  1
  H  H221  1  0.830900  0.169800  0.166600  1
  H  H222  1  0.669100  0.830200  0.666600  1
  H  H223  1  0.169100  0.830200  0.833400  1
  H  H224  1  0.330900  0.169800  0.333400  1
  H  H225  1  0.842000  0.230200  0.199500  1
  H  H226  1  0.658000  0.769800  0.699500  1
  H  H227  1  0.158000  0.769800  0.800500  1
  H  H228  1  0.342000  0.230200  0.300500  1
  H  H229  1  0.741200  0.365300  0.104000  1
  H  H230  1  0.758800  0.634700  0.604000  1
  H  H231  1  0.258800  0.634700  0.896000  1
  H  H232  1  0.241200  0.365300  0.396000  1
  H  H233  1  0.733700  0.305300  0.070500  1
  H  H234  1  0.766300  0.694700  0.570500  1
  H  H235  1  0.266300  0.694700  0.929500  1
  H  H236  1  0.233700  0.305300  0.429500  1
  H  H237  1  0.869900  0.422500  0.199100  1
  H  H238  1  0.630100  0.577500  0.699100  1
  H  H239  1  0.130100  0.577500  0.800900  1
  H  H240  1  0.369900  0.422500  0.300900  1
  H  H241  1  0.865700  0.476900  0.237000  1
  H  H242  1  0.634300  0.523100  0.737000  1
  H  H243  1  0.134300  0.523100  0.763000  1
  H  H244  1  0.365700  0.476900  0.263000  1
  H  H245  1  0.727000  0.431800  0.258100  1
  H  H246  1  0.773000  0.568200  0.758100  1
  H  H247  1  0.273000  0.568200  0.741900  1
  H  H248  1  0.227000  0.431800  0.241900  1
  H  H249  1  0.730100  0.376600  0.220800  1
  H  H250  1  0.769900  0.623400  0.720800  1
  H  H251  1  0.269900  0.623400  0.779200  1
  H  H252  1  0.230100  0.376600  0.279200  1
  H  H253  1  0.791200  0.989300  0.023900  1
  H  H254  1  0.708800  0.010700  0.523900  1
  H  H255  1  0.208800  0.010700  0.976100  1
  H  H256  1  0.291200  0.989300  0.476100  1
  H  H257  1  0.811100  0.449900  0.305400  1
  H  H258  1  0.688900  0.550100  0.805400  1
  H  H259  1  0.188900  0.550100  0.694600  1
  H  H260  1  0.311100  0.449900  0.194600  1
  H  H261  1  0.837700  0.964700  0.914000  1
  H  H262  1  0.662300  0.035300  0.414000  1
  H  H263  1  0.162300  0.035300  0.086000  1
  H  H264  1  0.337700  0.964700  0.586000  1
  H  H265  1  0.764900  0.616600  0.330900  1
  H  H266  1  0.735100  0.383400  0.830900  1
  H  H267  1  0.235100  0.383400  0.669100  1
  H  H268  1  0.264900  0.616600  0.169100  1
  H  H269  1  0.839100  0.886600  0.921100  1
  H  H270  1  0.660900  0.113400  0.421100  1
  H  H271  1  0.160900  0.113400  0.078900  1
  H  H272  1  0.339100  0.886600  0.578900  1
  H  H273  1  0.779400  0.602500  0.380500  1
  H  H274  1  0.720600  0.397500  0.880500  1
  H  H275  1  0.220600  0.397500  0.619500  1
  H  H276  1  0.279400  0.602500  0.119500  1
  H  H277  1  0.823400  0.857000  0.968900  1
  H  H278  1  0.676600  0.143000  0.468900  1
  H  H279  1  0.176600  0.143000  0.031100  1
  H  H280  1  0.323400  0.857000  0.531100  1
  H  H281  1  0.804800  0.531300  0.395200  1
  H  H282  1  0.695200  0.468700  0.895200  1
  H  H283  1  0.195200  0.468700  0.604800  1
  H  H284  1  0.304800  0.531300  0.104800  1
  H  H285  1  0.804200  0.907700  0.007400  1
  H  H286  1  0.695800  0.092300  0.507400  1
  H  H287  1  0.195800  0.092300  0.992600  1
  H  H288  1  0.304200  0.907700  0.492600  1
  H  H289  1  0.816900  0.473700  0.359700  1
  H  H290  1  0.683100  0.526300  0.859700  1
  H  H291  1  0.183100  0.526300  0.640300  1
  H  H292  1  0.316900  0.473700  0.140300  1
  H  H293  1  0.701700  0.971100  0.975600  1
  H  H294  1  0.798300  0.028900  0.475600  1
  H  H295  1  0.298300  0.028900  0.024400  1
  H  H296  1  0.201700  0.971100  0.524400  1
  H  H297  1  0.644600  0.965700  0.014500  1
  H  H298  1  0.855400  0.034300  0.514500  1
  H  H299  1  0.355400  0.034300  0.985500  1
  H  H300  1  0.144600  0.965700  0.485500  1
  H  H301  1  0.600900  0.094900  0.998100  1
  H  H302  1  0.899100  0.905100  0.498100  1
  H  H303  1  0.399100  0.905100  0.001900  1
  H  H304  1  0.100900  0.094900  0.501900  1
  H  H305  1  0.659200  0.100800  0.959600  1
  H  H306  1  0.840800  0.899200  0.459600  1
  H  H307  1  0.340800  0.899200  0.040400  1
  H  H308  1  0.159200  0.100800  0.540400  1
  H  H309  1  0.466200  0.939100  0.040600  1
  H  H310  1  0.033800  0.060900  0.540600  1
  H  H311  1  0.533800  0.060900  0.959400  1
  H  H312  1  0.966200  0.939100  0.459400  1
  H  H313  1  0.413900  0.928900  0.081100  1
  H  H314  1  0.086100  0.071100  0.581100  1
  H  H315  1  0.586100  0.071100  0.918900  1
  H  H316  1  0.913900  0.928900  0.418900  1
  H  H317  1  0.533900  0.093000  0.148800  1
  H  H318  1  0.966100  0.907000  0.648800  1
  H  H319  1  0.466100  0.907000  0.851200  1
  H  H320  1  0.033900  0.093000  0.351200  1
  H  H321  1  0.590600  0.096800  0.110400  1
  H  H322  1  0.909400  0.903200  0.610400  1
  H  H323  1  0.409400  0.903200  0.889600  1
  H  H324  1  0.090600  0.096800  0.389600  1
  H  H325  1  0.416600  0.931800  0.191700  1
  H  H326  1  0.083400  0.068200  0.691700  1
  H  H327  1  0.583400  0.068200  0.808300  1
  H  H328  1  0.916600  0.931800  0.308300  1
  H  H329  1  0.368000  0.919000  0.233600  1
  H  H330  1  0.132000  0.081000  0.733600  1
  H  H331  1  0.632000  0.081000  0.766400  1
  H  H332  1  0.868000  0.919000  0.266400  1
  H  H333  1  0.305400  0.041200  0.221100  1
  H  H334  1  0.194600  0.958800  0.721100  1
  H  H335  1  0.694600  0.958800  0.778900  1
  H  H336  1  0.805400  0.041200  0.278900  1
  H  H337  1  0.353800  0.054600  0.179100  1
  H  H338  1  0.146200  0.945400  0.679100  1
  H  H339  1  0.646200  0.945400  0.820900  1
  H  H340  1  0.853800  0.054600  0.320900  1
  H  H341  1  0.678500  0.040500  0.909300  1
  H  H342  1  0.821500  0.959500  0.409300  1
  H  H343  1  0.321500  0.959500  0.090700  1
  H  H344  1  0.178500  0.040500  0.590700  1
  H  H345  1  0.238800  0.968600  0.237100  1
  H  H346  1  0.261200  0.031400  0.737100  1
  H  H347  1  0.761200  0.031400  0.762900  1
  H  H348  1  0.738800  0.968600  0.262900  1
  H  H349  1  0.868700  0.063800  0.891400  1
  H  H350  1  0.631300  0.936200  0.391400  1
  H  H351  1  0.131300  0.936200  0.108600  1
  H  H352  1  0.368700  0.063800  0.608600  1
  H  H353  1  0.242400  0.928200  0.348600  1
  H  H354  1  0.257600  0.071800  0.848600  1
  H  H355  1  0.757600  0.071800  0.651400  1
  H  H356  1  0.742400  0.928200  0.151400  1
  H  H357  1  0.853300  0.073400  0.841500  1
  H  H358  1  0.646700  0.926600  0.341500  1
  H  H359  1  0.146700  0.926600  0.158500  1
  H  H360  1  0.353300  0.073400  0.658500  1
  H  H361  1  0.157000  0.916200  0.347900  1
  H  H362  1  0.343000  0.083800  0.847900  1
  H  H363  1  0.843000  0.083800  0.652100  1
  H  H364  1  0.657000  0.916200  0.152100  1
  H  H365  1  0.772400  0.065900  0.823300  1
  H  H366  1  0.727600  0.934100  0.323300  1
  H  H367  1  0.227600  0.934100  0.176700  1
  H  H368  1  0.272400  0.065900  0.676700  1
  H  H369  1  0.112100  0.932600  0.305200  1
  H  H370  1  0.387900  0.067400  0.805200  1
  H  H371  1  0.887900  0.067400  0.694800  1
  H  H372  1  0.612100  0.932600  0.194800  1
  H  H373  1  0.707800  0.046300  0.856600  1
  H  H374  1  0.792200  0.953700  0.356600  1
  H  H375  1  0.292200  0.953700  0.143400  1
  H  H376  1  0.207800  0.046300  0.643400  1
  H  H377  1  0.154900  0.956700  0.262100  1
  H  H378  1  0.345100  0.043300  0.762100  1
  H  H379  1  0.845100  0.043300  0.737900  1
  H  H380  1  0.654900  0.956700  0.237900  1
  H  H381  1  0.277300  0.554200  0.009100  1
  H  H382  1  0.222700  0.445800  0.509100  1
  H  H383  1  0.722700  0.445800  0.990900  1
  H  H384  1  0.777300  0.554200  0.490900  1
  H  H385  1  0.345400  0.561400  0.041200  1
  H  H386  1  0.154600  0.438600  0.541200  1
  H  H387  1  0.654600  0.438600  0.958800  1
  H  H388  1  0.845400  0.561400  0.458800  1
  H  H389  1  0.382800  0.431300  0.020400  1
  H  H390  1  0.117200  0.568700  0.520400  1
  H  H391  1  0.617200  0.568700  0.979600  1
  H  H392  1  0.882800  0.431300  0.479600  1
  H  H393  1  0.314900  0.425200  0.988000  1
  H  H394  1  0.185100  0.574800  0.488000  1
  H  H395  1  0.685100  0.574800  0.012000  1
  H  H396  1  0.814900  0.425200  0.512000  1
  H  H397  1  0.549100  0.552100  0.025900  1
  H  H398  1  0.950900  0.447900  0.525900  1
  H  H399  1  0.450900  0.447900  0.974100  1
  H  H400  1  0.049100  0.552100  0.474100  1
  H  H401  1  0.621800  0.553400  0.053300  1
  H  H402  1  0.878200  0.446600  0.553300  1
  H  H403  1  0.378200  0.446600  0.946700  1
  H  H404  1  0.121800  0.553400  0.446700  1
  H  H405  1  0.499100  0.464100  0.163500  1
  H  H406  1  0.000900  0.535900  0.663500  1
  H  H407  1  0.500900  0.535900  0.836500  1
  H  H408  1  0.999100  0.464100  0.336500  1
  H  H409  1  0.428500  0.458000  0.134400  1
  H  H410  1  0.071500  0.542000  0.634400  1
  H  H411  1  0.571500  0.542000  0.865600  1
  H  H412  1  0.928500  0.458000  0.365600  1
  H  H413  1  0.644100  0.590600  0.171100  1
  H  H414  1  0.855900  0.409400  0.671100  1
  H  H415  1  0.355900  0.409400  0.828900  1
  H  H416  1  0.144100  0.590600  0.328900  1
  H  H417  1  0.706600  0.609100  0.205200  1
  H  H418  1  0.793400  0.390900  0.705200  1
  H  H419  1  0.293400  0.390900  0.794800  1
  H  H420  1  0.206600  0.609100  0.294800  1
  H  H421  1  0.772300  0.488500  0.188200  1
  H  H422  1  0.727700  0.511500  0.688200  1
  H  H423  1  0.227700  0.511500  0.811800  1
  H  H424  1  0.272300  0.488500  0.311800  1
  H  H425  1  0.709700  0.470100  0.153800  1
  H  H426  1  0.790300  0.529900  0.653800  1
  H  H427  1  0.290300  0.529900  0.846200  1
  H  H428  1  0.209700  0.470100  0.346200  1
  H  H429  1  0.282500  0.515300  0.942200  1
  H  H430  1  0.217500  0.484700  0.442200  1
  H  H431  1  0.717500  0.484700  0.057800  1
  H  H432  1  0.782500  0.515300  0.557800  1
  H  H433  1  0.834000  0.572500  0.192500  1
  H  H434  1  0.666000  0.427500  0.692500  1
  H  H435  1  0.166000  0.427500  0.807500  1
  H  H436  1  0.334000  0.572500  0.307500  1
  H  H437  1  0.104500  0.443800  0.928800  1
  H  H438  1  0.395500  0.556200  0.428800  1
  H  H439  1  0.895500  0.556200  0.071200  1
  H  H440  1  0.604500  0.443800  0.571200  1
  H  H441  1  0.870400  0.603600  0.304600  1
  H  H442  1  0.629600  0.396400  0.804600  1
  H  H443  1  0.129600  0.396400  0.695400  1
  H  H444  1  0.370400  0.603600  0.195400  1
  H  H445  1  0.101800  0.472300  0.880900  1
  H  H446  1  0.398200  0.527700  0.380900  1
  H  H447  1  0.898200  0.527700  0.119100  1
  H  H448  1  0.601800  0.472300  0.619100  1
  H  H449  1  0.951500  0.627400  0.292600  1
  H  H450  1  0.548500  0.372600  0.792600  1
  H  H451  1  0.048500  0.372600  0.707400  1
  H  H452  1  0.451500  0.627400  0.207400  1
  H  H453  1  0.170600  0.512300  0.861300  1
  H  H454  1  0.329400  0.487700  0.361300  1
  H  H455  1  0.829400  0.487700  0.138700  1
  H  H456  1  0.670600  0.512300  0.638700  1
  H  H457  1  0.977000  0.624600  0.243400  1
  H  H458  1  0.523000  0.375400  0.743400  1
  H  H459  1  0.023000  0.375400  0.756600  1
  H  H460  1  0.477000  0.624600  0.256600  1
  H  H461  1  0.240100  0.524900  0.892600  1
  H  H462  1  0.259900  0.475100  0.392600  1
  H  H463  1  0.759900  0.475100  0.107400  1
  H  H464  1  0.740100  0.524900  0.607400  1
  H  H465  1  0.921600  0.600300  0.206300  1
  H  H466  1  0.578400  0.399700  0.706300  1
  H  H467  1  0.078400  0.399700  0.793700  1
  H  H468  1  0.421600  0.600300  0.293700  1
  H  H469  1  0.142100  0.396600  0.054400  1
  H  H470  1  0.357900  0.603400  0.554400  1
  H  H471  1  0.857900  0.603400  0.945600  1
  H  H472  1  0.642100  0.396600  0.445600  1
  H  H473  1  0.170600  0.345200  0.089300  1
  H  H474  1  0.329400  0.654800  0.589300  1
  H  H475  1  0.829400  0.654800  0.910700  1
  H  H476  1  0.670600  0.345200  0.410700  1
  H  H477  1  0.297200  0.420600  0.098200  1
  H  H478  1  0.202800  0.579400  0.598200  1
  H  H479  1  0.702800  0.579400  0.901800  1
  H  H480  1  0.797200  0.420600  0.401800  1
  H  H481  1  0.269900  0.471900  0.062700  1
  H  H482  1  0.230100  0.528100  0.562700  1
  H  H483  1  0.730100  0.528100  0.937300  1
  H  H484  1  0.769900  0.471900  0.437300  1
  H  H485  1  0.300700  0.221900  0.106200  1
  H  H486  1  0.199300  0.778100  0.606200  1
  H  H487  1  0.699300  0.778100  0.893800  1
  H  H488  1  0.800700  0.221900  0.393800  1
  H  H489  1  0.315200  0.166600  0.142500  1
  H  H490  1  0.184800  0.833400  0.642500  1
  H  H491  1  0.684800  0.833400  0.857500  1
  H  H492  1  0.815200  0.166600  0.357500  1
  H  H493  1  0.235900  0.304900  0.244100  1
  H  H494  1  0.264100  0.695100  0.744100  1
  H  H495  1  0.764100  0.695100  0.755900  1
  H  H496  1  0.735900  0.304900  0.255900  1
  H  H497  1  0.228700  0.361500  0.208500  1
  H  H498  1  0.271300  0.638500  0.708500  1
  H  H499  1  0.771300  0.638500  0.791500  1
  H  H500  1  0.728700  0.361500  0.291500  1
  H  H501  1  0.218100  0.110000  0.245700  1
  H  H502  1  0.281900  0.890000  0.745700  1
  H  H503  1  0.781900  0.890000  0.754300  1
  H  H504  1  0.718100  0.110000  0.254300  1
  H  H505  1  0.234000  0.051700  0.279700  1
  H  H506  1  0.266000  0.948300  0.779700  1
  H  H507  1  0.766000  0.948300  0.720300  1
  H  H508  1  0.734000  0.051700  0.220300  1
  H  H509  1  0.371500  0.107100  0.294800  1
  H  H510  1  0.128500  0.892900  0.794800  1
  H  H511  1  0.628500  0.892900  0.705200  1
  H  H512  1  0.871500  0.107100  0.205200  1
  H  H513  1  0.356100  0.165200  0.260800  1
  H  H514  1  0.143900  0.834800  0.760800  1
  H  H515  1  0.643900  0.834800  0.739200  1
  H  H516  1  0.856100  0.165200  0.239200  1
  H  H517  1  0.182900  0.520100  0.060700  1
  H  H518  1  0.317100  0.479900  0.560700  1
  H  H519  1  0.817100  0.479900  0.939300  1
  H  H520  1  0.682900  0.520100  0.439300  1
  H  H521  1  0.324400  0.081200  0.342900  1
  H  H522  1  0.175600  0.918800  0.842900  1
  H  H523  1  0.675600  0.918800  0.657100  1
  H  H524  1  0.824400  0.081200  0.157100  1
  H  H525  1  0.116900  0.546600  0.955000  1
  H  H526  1  0.383100  0.453400  0.455000  1
  H  H527  1  0.883100  0.453400  0.045000  1
  H  H528  1  0.616900  0.546600  0.545000  1
  H  H529  1  0.354700  0.909400  0.359500  1
  H  H530  1  0.145300  0.090600  0.859500  1
  H  H531  1  0.645300  0.090600  0.640500  1
  H  H532  1  0.854700  0.909400  0.140500  1
  H  H533  1  0.100300  0.622000  0.966900  1
  H  H534  1  0.399700  0.378000  0.466900  1
  H  H535  1  0.899700  0.378000  0.033100  1
  H  H536  1  0.600300  0.622000  0.533100  1
  H  H537  1  0.376000  0.922200  0.408200  1
  H  H538  1  0.124000  0.077800  0.908200  1
  H  H539  1  0.624000  0.077800  0.591800  1
  H  H540  1  0.876000  0.922200  0.091800  1
  H  H541  1  0.119000  0.647300  0.014700  1
  H  H542  1  0.381000  0.352700  0.514700  1
  H  H543  1  0.881000  0.352700  0.985300  1
  H  H544  1  0.619000  0.647300  0.485300  1
  H  H545  1  0.371500  0.996700  0.427300  1
  H  H546  1  0.128500  0.003300  0.927300  1
  H  H547  1  0.628500  0.003300  0.572700  1
  H  H548  1  0.871500  0.996700  0.072700  1
  H  H549  1  0.154000  0.597300  0.049100  1
  H  H550  1  0.346000  0.402700  0.549100  1
  H  H551  1  0.846000  0.402700  0.950900  1
  H  H552  1  0.654000  0.597300  0.450900  1
  H  H553  1  0.346600  0.055500  0.395600  1
  H  H554  1  0.153400  0.944500  0.895600  1
  H  H555  1  0.653400  0.944500  0.604400  1
  H  H556  1  0.846600  0.055500  0.104400  1
  C  C557  1  0.754100  0.157800  0.955100  1
  C  C558  1  0.745900  0.842200  0.455100  1
  C  C559  1  0.245900  0.842200  0.044900  1
  C  C560  1  0.254100  0.157800  0.544900  1
  C  C561  1  0.727000  0.162300  0.929000  1
  C  C562  1  0.773000  0.837700  0.429000  1
  C  C563  1  0.273000  0.837700  0.071000  1
  C  C564  1  0.227000  0.162300  0.571000  1
  C  C565  1  0.682300  0.184400  0.929900  1
  C  C566  1  0.817700  0.815600  0.429900  1
  C  C567  1  0.317700  0.815600  0.070100  1
  C  C568  1  0.182300  0.184400  0.570100  1
  C  C569  1  0.665900  0.202600  0.956700  1
  C  C570  1  0.834100  0.797400  0.456700  1
  C  C571  1  0.334100  0.797400  0.043300  1
  C  C572  1  0.165900  0.202600  0.543300  1
  C  C573  1  0.694900  0.201000  0.982100  1
  C  C574  1  0.805100  0.799000  0.482100  1
  C  C575  1  0.305100  0.799000  0.017900  1
  C  C576  1  0.194900  0.201000  0.517900  1
  C  C577  1  0.739500  0.178200  0.981500  1
  C  C578  1  0.760500  0.821800  0.481500  1
  C  C579  1  0.260500  0.821800  0.018500  1
  C  C580  1  0.239500  0.178200  0.518500  1
  C  C581  1  0.575900  0.189600  0.954200  1
  C  C582  1  0.924100  0.810400  0.454200  1
  C  C583  1  0.424100  0.810400  0.045800  1
  C  C584  1  0.075900  0.189600  0.545800  1
  C  C585  1  0.525400  0.207900  0.956200  1
  C  C586  1  0.974600  0.792100  0.456200  1
  C  C587  1  0.474600  0.792100  0.043800  1
  C  C588  1  0.025400  0.207900  0.543800  1
  C  C589  1  0.483900  0.180000  0.952500  1
  C  C590  1  0.016100  0.820000  0.452500  1
  C  C591  1  0.516100  0.820000  0.047500  1
  C  C592  1  0.983900  0.180000  0.547500  1
  C  C593  1  0.436800  0.197800  0.955600  1
  C  C594  1  0.063200  0.802200  0.455600  1
  C  C595  1  0.563200  0.802200  0.044400  1
  C  C596  1  0.936800  0.197800  0.544400  1
  C  C597  1  0.431100  0.243500  0.961700  1
  C  C598  1  0.068900  0.756500  0.461700  1
  C  C599  1  0.568900  0.756500  0.038300  1
  C  C600  1  0.931100  0.243500  0.538300  1
  C  C601  1  0.380700  0.262000  0.964500  1
  C  C602  1  0.119300  0.738000  0.464500  1
  C  C603  1  0.619300  0.738000  0.035500  1
  C  C604  1  0.880700  0.262000  0.535500  1
  C  C605  1  0.417400  0.337600  0.977900  1
  C  C606  1  0.082600  0.662400  0.477900  1
  C  C607  1  0.582600  0.662400  0.022100  1
  C  C608  1  0.917400  0.337600  0.522100  1
  C  C609  1  0.467500  0.319100  0.973600  1
  C  C610  1  0.032500  0.680900  0.473600  1
  C  C611  1  0.532500  0.680900  0.026400  1
  C  C612  1  0.967500  0.319100  0.526400  1
  C  C613  1  0.508900  0.347100  0.976900  1
  C  C614  1  0.991100  0.652900  0.476900  1
  C  C615  1  0.491100  0.652900  0.023100  1
  C  C616  1  0.008900  0.347100  0.523100  1
  C  C617  1  0.556200  0.330300  0.972700  1
  C  C618  1  0.943800  0.669700  0.472700  1
  C  C619  1  0.443800  0.669700  0.027300  1
  C  C620  1  0.056200  0.330300  0.527300  1
  C  C621  1  0.562800  0.285200  0.965900  1
  C  C622  1  0.937200  0.714800  0.465900  1
  C  C623  1  0.437200  0.714800  0.034100  1
  C  C624  1  0.062800  0.285200  0.534100  1
  C  C625  1  0.613600  0.267800  0.963100  1
  C  C626  1  0.886400  0.732200  0.463100  1
  C  C627  1  0.386400  0.732200  0.036900  1
  C  C628  1  0.113600  0.267800  0.536900  1
  C  C629  1  0.520900  0.255200  0.962400  1
  C  C630  1  0.979100  0.744800  0.462400  1
  C  C631  1  0.479100  0.744800  0.037600  1
  C  C632  1  0.020900  0.255200  0.537600  1
  C  C633  1  0.473100  0.272900  0.965800  1
  C  C634  1  0.026900  0.727100  0.465800  1
  C  C635  1  0.526900  0.727100  0.034200  1
  C  C636  1  0.973100  0.272900  0.534200  1
  C  C637  1  0.328200  0.325700  0.976100  1
  C  C638  1  0.171800  0.674300  0.476100  1
  C  C639  1  0.671800  0.674300  0.023900  1
  C  C640  1  0.828200  0.325700  0.523900  1
  C  C641  1  0.306700  0.348000  0.952500  1
  C  C642  1  0.193300  0.652000  0.452500  1
  C  C643  1  0.693300  0.652000  0.047500  1
  C  C644  1  0.806700  0.348000  0.547500  1
  C  C645  1  0.260500  0.366600  0.956500  1
  C  C646  1  0.239500  0.633400  0.456500  1
  C  C647  1  0.739500  0.633400  0.043500  1
  C  C648  1  0.760500  0.366600  0.543500  1
  C  C649  1  0.236600  0.361800  0.983800  1
  C  C650  1  0.263400  0.638200  0.483800  1
  C  C651  1  0.763400  0.638200  0.016200  1
  C  C652  1  0.736600  0.361800  0.516200  1
  C  C653  1  0.258400  0.339400  0.007500  1
  C  C654  1  0.241600  0.660600  0.507500  1
  C  C655  1  0.741600  0.660600  0.992500  1
  C  C656  1  0.758400  0.339400  0.492500  1
  C  C657  1  0.305100  0.321600  0.003500  1
  C  C658  1  0.194900  0.678400  0.503500  1
  C  C659  1  0.694900  0.678400  0.996500  1
  C  C660  1  0.805100  0.321600  0.496500  1
  C  C661  1  0.838300  0.145700  0.957500  1
  C  C662  1  0.661700  0.854300  0.457500  1
  C  C663  1  0.161700  0.854300  0.042500  1
  C  C664  1  0.338300  0.145700  0.542500  1
  C  C665  1  0.150900  0.357300  0.993100  1
  C  C666  1  0.349100  0.642700  0.493100  1
  C  C667  1  0.849100  0.642700  0.006900  1
  C  C668  1  0.650900  0.357300  0.506900  1
  C  C669  1  0.882700  0.117400  0.957200  1
  C  C670  1  0.617300  0.882600  0.457200  1
  C  C671  1  0.117300  0.882600  0.042800  1
  C  C672  1  0.382700  0.117400  0.542800  1
  C  C673  1  0.102200  0.379000  0.996000  1
  C  C674  1  0.397800  0.621000  0.496000  1
  C  C675  1  0.897800  0.621000  0.004000  1
  C  C676  1  0.602200  0.379000  0.504000  1
  C  C677  1  0.917800  0.046900  0.954700  1
  C  C678  1  0.582200  0.953100  0.454700  1
  C  C679  1  0.082200  0.953100  0.045300  1
  C  C680  1  0.417800  0.046900  0.545300  1
  C  C681  1  0.056700  0.445400  0.994700  1
  C  C682  1  0.443300  0.554600  0.494700  1
  C  C683  1  0.943300  0.554600  0.005300  1
  C  C684  1  0.556700  0.445400  0.505300  1
  C  C685  1  0.965500  0.066400  0.956800  1
  C  C686  1  0.534500  0.933600  0.456800  1
  C  C687  1  0.034500  0.933600  0.043200  1
  C  C688  1  0.465500  0.066400  0.543200  1
  C  C689  1  0.013700  0.421500  0.003100  1
  C  C690  1  0.486300  0.578500  0.503100  1
  C  C691  1  0.986300  0.578500  0.996900  1
  C  C692  1  0.513700  0.421500  0.496900  1
  C  C693  1  0.969700  0.112900  0.959200  1
  C  C694  1  0.530300  0.887100  0.459200  1
  C  C695  1  0.030300  0.887100  0.040800  1
  C  C696  1  0.469700  0.112900  0.540800  1
  C  C697  1  0.015900  0.375200  0.007500  1
  C  C698  1  0.484100  0.624800  0.507500  1
  C  C699  1  0.984100  0.624800  0.992500  1
  C  C700  1  0.515900  0.375200  0.492500  1
  C  C701  1  0.928700  0.139800  0.959800  1
  C  C702  1  0.571300  0.860200  0.459800  1
  C  C703  1  0.071300  0.860200  0.040200  1
  C  C704  1  0.428700  0.139800  0.540200  1
  C  C705  1  0.060100  0.353300  0.003500  1
  C  C706  1  0.439900  0.646700  0.503500  1
  C  C707  1  0.939900  0.646700  0.996500  1
  C  C708  1  0.560100  0.353300  0.496500  1
  C  C709  1  0.665500  0.506200  0.269200  1
  C  C710  1  0.834500  0.493800  0.769200  1
  C  C711  1  0.334500  0.493800  0.730800  1
  C  C712  1  0.165500  0.506200  0.230800  1
  C  C713  1  0.638700  0.492600  0.244300  1
  C  C714  1  0.861300  0.507400  0.744300  1
  C  C715  1  0.361300  0.507400  0.755700  1
  C  C716  1  0.138700  0.492600  0.255700  1
  C  C717  1  0.613800  0.450700  0.243100  1
  C  C718  1  0.886200  0.549300  0.743100  1
  C  C719  1  0.386200  0.549300  0.756900  1
  C  C720  1  0.113800  0.450700  0.256900  1
  C  C721  1  0.616500  0.422000  0.267300  1
  C  C722  1  0.883500  0.578000  0.767300  1
  C  C723  1  0.383500  0.578000  0.732700  1
  C  C724  1  0.116500  0.422000  0.232700  1
  C  C725  1  0.644400  0.434700  0.292400  1
  C  C726  1  0.855600  0.565300  0.792400  1
  C  C727  1  0.355600  0.565300  0.707600  1
  C  C728  1  0.144400  0.434700  0.207600  1
  C  C729  1  0.668000  0.477300  0.293400  1
  C  C730  1  0.832000  0.522700  0.793400  1
  C  C731  1  0.332000  0.522700  0.706600  1
  C  C732  1  0.168000  0.477300  0.206600  1
  C  C733  1  0.542800  0.373300  0.276400  1
  C  C734  1  0.957200  0.626700  0.776400  1
  C  C735  1  0.457200  0.626700  0.723600  1
  C  C736  1  0.042800  0.373300  0.223600  1
  C  C737  1  0.522900  0.325800  0.278300  1
  C  C738  1  0.977100  0.674200  0.778300  1
  C  C739  1  0.477100  0.674200  0.721700  1
  C  C740  1  0.022900  0.325800  0.221700  1
  C  C741  1  0.475600  0.317700  0.289500  1
  C  C742  1  0.024400  0.682300  0.789500  1
  C  C743  1  0.524400  0.682300  0.710500  1
  C  C744  1  0.975600  0.317700  0.210500  1
  C  C745  1  0.458500  0.273200  0.292700  1
  C  C746  1  0.041500  0.726800  0.792700  1
  C  C747  1  0.541500  0.726800  0.707300  1
  C  C748  1  0.958500  0.273200  0.207300  1
  C  C749  1  0.486000  0.236600  0.284200  1
  C  C750  1  0.014000  0.763400  0.784200  1
  C  C751  1  0.514000  0.763400  0.715800  1
  C  C752  1  0.986000  0.236600  0.215800  1
  C  C753  1  0.466300  0.189500  0.287700  1
  C  C754  1  0.033700  0.810500  0.787700  1
  C  C755  1  0.533700  0.810500  0.712300  1
  C  C756  1  0.966300  0.189500  0.212300  1
  C  C757  1  0.544600  0.159600  0.266500  1
  C  C758  1  0.955400  0.840400  0.766500  1
  C  C759  1  0.455400  0.840400  0.733500  1
  C  C760  1  0.044600  0.159600  0.233500  1
  C  C761  1  0.563600  0.207000  0.263000  1
  C  C762  1  0.936400  0.793000  0.763000  1
  C  C763  1  0.436400  0.793000  0.737000  1
  C  C764  1  0.063600  0.207000  0.237000  1
  C  C765  1  0.609600  0.215800  0.250800  1
  C  C766  1  0.890400  0.784200  0.750800  1
  C  C767  1  0.390400  0.784200  0.749200  1
  C  C768  1  0.109600  0.215800  0.249200  1
  C  C769  1  0.628400  0.259900  0.247500  1
  C  C770  1  0.871600  0.740100  0.747500  1
  C  C771  1  0.371600  0.740100  0.752500  1
  C  C772  1  0.128400  0.259900  0.252500  1
  C  C773  1  0.600300  0.295600  0.257100  1
  C  C774  1  0.899700  0.704400  0.757100  1
  C  C775  1  0.399700  0.704400  0.742900  1
  C  C776  1  0.100300  0.295600  0.242900  1
  C  C777  1  0.621000  0.342600  0.255200  1
  C  C778  1  0.879000  0.657400  0.755200  1
  C  C779  1  0.379000  0.657400  0.744800  1
  C  C780  1  0.121000  0.342600  0.244800  1
  C  C781  1  0.552200  0.289000  0.269100  1
  C  C782  1  0.947800  0.711000  0.769100  1
  C  C783  1  0.447800  0.711000  0.730900  1
  C  C784  1  0.052200  0.289000  0.230900  1
  C  C785  1  0.533900  0.243600  0.272100  1
  C  C786  1  0.966100  0.756400  0.772100  1
  C  C787  1  0.466100  0.756400  0.727900  1
  C  C788  1  0.033900  0.243600  0.227900  1
  C  C789  1  0.476600  0.108500  0.281500  1
  C  C790  1  0.023400  0.891500  0.781500  1
  C  C791  1  0.523400  0.891500  0.718500  1
  C  C792  1  0.976600  0.108500  0.218500  1
  C  C793  1  0.469000  0.091300  0.309700  1
  C  C794  1  0.031000  0.908700  0.809700  1
  C  C795  1  0.531000  0.908700  0.690300  1
  C  C796  1  0.969000  0.091300  0.190300  1
  C  C797  1  0.447200  0.048300  0.312700  1
  C  C798  1  0.052800  0.951700  0.812700  1
  C  C799  1  0.552800  0.951700  0.687300  1
  C  C800  1  0.947200  0.048300  0.187300  1
  C  C801  1  0.433300  0.021700  0.288600  1
  C  C802  1  0.066700  0.978300  0.788600  1
  C  C803  1  0.566700  0.978300  0.711400  1
  C  C804  1  0.933300  0.021700  0.211400  1
  C  C805  1  0.443000  0.039600  0.260700  1
  C  C806  1  0.057000  0.960400  0.760700  1
  C  C807  1  0.557000  0.960400  0.739300  1
  C  C808  1  0.943000  0.039600  0.239300  1
  C  C809  1  0.464300  0.082600  0.256700  1
  C  C810  1  0.035700  0.917400  0.756700  1
  C  C811  1  0.535700  0.917400  0.743300  1
  C  C812  1  0.964300  0.082600  0.243300  1
  C  C813  1  0.667900  0.586200  0.272500  1
  C  C814  1  0.832100  0.413800  0.772500  1
  C  C815  1  0.332100  0.413800  0.727500  1
  C  C816  1  0.167900  0.586200  0.227500  1
  C  C817  1  0.429200  0.941600  0.291700  1
  C  C818  1  0.070800  0.058400  0.791700  1
  C  C819  1  0.570800  0.058400  0.708300  1
  C  C820  1  0.929200  0.941600  0.208300  1
  C  C821  1  0.692500  0.631500  0.273100  1
  C  C822  1  0.807500  0.368500  0.773100  1
  C  C823  1  0.307500  0.368500  0.726900  1
  C  C824  1  0.192500  0.631500  0.226900  1
  C  C825  1  0.402900  0.897300  0.295200  1
  C  C826  1  0.097100  0.102700  0.795200  1
  C  C827  1  0.597100  0.102700  0.704800  1
  C  C828  1  0.902900  0.897300  0.204800  1
  C  C829  1  0.766000  0.673300  0.274500  1
  C  C830  1  0.734000  0.326700  0.774500  1
  C  C831  1  0.234000  0.326700  0.725500  1
  C  C832  1  0.266000  0.673300  0.225500  1
  C  C833  1  0.326700  0.858400  0.302600  1
  C  C834  1  0.173300  0.141600  0.802600  1
  C  C835  1  0.673300  0.141600  0.697400  1
  C  C836  1  0.826700  0.858400  0.197400  1
  C  C837  1  0.738900  0.712400  0.277700  1
  C  C838  1  0.761100  0.287600  0.777700  1
  C  C839  1  0.261100  0.287600  0.722300  1
  C  C840  1  0.238900  0.712400  0.222300  1
  C  C841  1  0.350100  0.816900  0.300500  1
  C  C842  1  0.149900  0.183100  0.800500  1
  C  C843  1  0.649900  0.183100  0.699500  1
  C  C844  1  0.850100  0.816900  0.199500  1
  C  C845  1  0.687600  0.711400  0.278200  1
  C  C846  1  0.812400  0.288600  0.778200  1
  C  C847  1  0.312400  0.288600  0.721800  1
  C  C848  1  0.187600  0.711400  0.221800  1
  C  C849  1  0.400700  0.816800  0.296400  1
  C  C850  1  0.099300  0.183200  0.796400  1
  C  C851  1  0.599300  0.183200  0.703600  1
  C  C852  1  0.900700  0.816800  0.203600  1
  C  C853  1  0.662700  0.669600  0.276200  1
  C  C854  1  0.837300  0.330400  0.776200  1
  C  C855  1  0.337300  0.330400  0.723800  1
  C  C856  1  0.162700  0.669600  0.223800  1
  C  C857  1  0.428300  0.856900  0.293600  1
  C  C858  1  0.071700  0.143100  0.793600  1
  C  C859  1  0.571700  0.143100  0.706400  1
  C  C860  1  0.928300  0.856900  0.206400  1
  C  C861  1  0.791800  0.074300  0.019500  1
  C  C862  1  0.708200  0.925700  0.519500  1
  C  C863  1  0.208200  0.925700  0.980500  1
  C  C864  1  0.291800  0.074300  0.480500  1
  C  C865  1  0.832700  0.101000  0.028400  1
  C  C866  1  0.667300  0.899000  0.528400  1
  C  C867  1  0.167300  0.899000  0.971600  1
  C  C868  1  0.332700  0.101000  0.471600  1
  C  C869  1  0.827800  0.134800  0.049500  1
  C  C870  1  0.672200  0.865200  0.549500  1
  C  C871  1  0.172200  0.865200  0.950500  1
  C  C872  1  0.327800  0.134800  0.450500  1
  C  C873  1  0.781700  0.141300  0.062400  1
  C  C874  1  0.718300  0.858700  0.562400  1
  C  C875  1  0.218300  0.858700  0.937600  1
  C  C876  1  0.281700  0.141300  0.437600  1
  C  C877  1  0.741300  0.114100  0.054100  1
  C  C878  1  0.758700  0.885900  0.554100  1
  C  C879  1  0.258700  0.885900  0.945900  1
  C  C880  1  0.241300  0.114100  0.445900  1
  C  C881  1  0.745600  0.080800  0.032600  1
  C  C882  1  0.754400  0.919200  0.532600  1
  C  C883  1  0.254400  0.919200  0.967400  1
  C  C884  1  0.245600  0.080800  0.467400  1
  C  C885  1  0.797800  0.167600  0.112200  1
  C  C886  1  0.702200  0.832400  0.612200  1
  C  C887  1  0.202200  0.832400  0.887800  1
  C  C888  1  0.297800  0.167600  0.387800  1
  C  C889  1  0.801200  0.205900  0.133200  1
  C  C890  1  0.698800  0.794100  0.633200  1
  C  C891  1  0.198800  0.794100  0.866800  1
  C  C892  1  0.301200  0.205900  0.366800  1
  C  C893  1  0.821200  0.199500  0.160900  1
  C  C894  1  0.678800  0.800500  0.660900  1
  C  C895  1  0.178800  0.800500  0.839100  1
  C  C896  1  0.321200  0.199500  0.339100  1
  C  C897  1  0.827400  0.235200  0.180700  1
  C  C898  1  0.672600  0.764800  0.680700  1
  C  C899  1  0.172600  0.764800  0.819300  1
  C  C900  1  0.327400  0.235200  0.319300  1
  C  C901  1  0.812400  0.278100  0.172900  1
  C  C902  1  0.687600  0.721900  0.672900  1
  C  C903  1  0.187600  0.721900  0.827100  1
  C  C904  1  0.312400  0.278100  0.327100  1
  C  C905  1  0.818100  0.316200  0.194000  1
  C  C906  1  0.681900  0.683800  0.694000  1
  C  C907  1  0.181900  0.683800  0.806000  1
  C  C908  1  0.318100  0.316200  0.306000  1
  C  C909  1  0.779400  0.368600  0.157000  1
  C  C910  1  0.720600  0.631400  0.657000  1
  C  C911  1  0.220600  0.631400  0.843000  1
  C  C912  1  0.279400  0.368600  0.343000  1
  C  C913  1  0.773600  0.329600  0.136600  1
  C  C914  1  0.726400  0.670400  0.636600  1
  C  C915  1  0.226400  0.670400  0.863400  1
  C  C916  1  0.273600  0.329600  0.363400  1
  C  C917  1  0.752600  0.336100  0.109300  1
  C  C918  1  0.747400  0.663900  0.609300  1
  C  C919  1  0.247400  0.663900  0.890700  1
  C  C920  1  0.252600  0.336100  0.390700  1
  C  C921  1  0.747900  0.300000  0.089400  1
  C  C922  1  0.752100  0.700000  0.589400  1
  C  C923  1  0.252100  0.700000  0.910600  1
  C  C924  1  0.247900  0.300000  0.410600  1
  C  C925  1  0.763200  0.256900  0.096200  1
  C  C926  1  0.736800  0.743100  0.596200  1
  C  C927  1  0.236800  0.743100  0.903800  1
  C  C928  1  0.263200  0.256900  0.403800  1
  C  C929  1  0.759300  0.218900  0.074800  1
  C  C930  1  0.740700  0.781100  0.574800  1
  C  C931  1  0.240700  0.781100  0.925200  1
  C  C932  1  0.259300  0.218900  0.425200  1
  C  C933  1  0.784400  0.249300  0.124600  1
  C  C934  1  0.715600  0.750700  0.624600  1
  C  C935  1  0.215600  0.750700  0.875400  1
  C  C936  1  0.284400  0.249300  0.375400  1
  C  C937  1  0.790000  0.286100  0.145000  1
  C  C938  1  0.710000  0.713900  0.645000  1
  C  C939  1  0.210000  0.713900  0.855000  1
  C  C940  1  0.290000  0.286100  0.355000  1
  C  C941  1  0.800400  0.394400  0.206700  1
  C  C942  1  0.699600  0.605600  0.706700  1
  C  C943  1  0.199600  0.605600  0.793300  1
  C  C944  1  0.300400  0.394400  0.293300  1
  C  C945  1  0.841000  0.424200  0.211200  1
  C  C946  1  0.659000  0.575800  0.711200  1
  C  C947  1  0.159000  0.575800  0.788800  1
  C  C948  1  0.341000  0.424200  0.288800  1
  C  C949  1  0.838400  0.456400  0.233600  1
  C  C950  1  0.661600  0.543600  0.733600  1
  C  C951  1  0.161600  0.543600  0.766400  1
  C  C952  1  0.338400  0.456400  0.266400  1
  C  C953  1  0.796200  0.459100  0.250900  1
  C  C954  1  0.703800  0.540900  0.750900  1
  C  C955  1  0.203800  0.540900  0.749100  1
  C  C956  1  0.296200  0.459100  0.249100  1
  C  C957  1  0.755900  0.429600  0.246100  1
  C  C958  1  0.744100  0.570400  0.746100  1
  C  C959  1  0.244100  0.570400  0.753900  1
  C  C960  1  0.255900  0.429600  0.253900  1
  C  C961  1  0.757600  0.397000  0.224100  1
  C  C962  1  0.742400  0.603000  0.724100  1
  C  C963  1  0.242400  0.603000  0.775900  1
  C  C964  1  0.257600  0.397000  0.275900  1
  C  C965  1  0.798600  0.998700  0.004200  1
  C  C966  1  0.701400  0.001300  0.504200  1
  C  C967  1  0.201400  0.001300  0.995800  1
  C  C968  1  0.298600  0.998700  0.495800  1
  C  C969  1  0.801900  0.480100  0.300800  1
  C  C970  1  0.698100  0.519900  0.800800  1
  C  C971  1  0.198100  0.519900  0.699200  1
  C  C972  1  0.301900  0.480100  0.199200  1
  C  C973  1  0.809600  0.965000  0.981200  1
  C  C974  1  0.690400  0.035000  0.481200  1
  C  C975  1  0.190400  0.035000  0.018800  1
  C  C976  1  0.309600  0.965000  0.518800  1
  C  C977  1  0.797300  0.514300  0.324500  1
  C  C978  1  0.702700  0.485700  0.824500  1
  C  C979  1  0.202700  0.485700  0.675500  1
  C  C980  1  0.297300  0.514300  0.175500  1
  C  C981  1  0.830200  0.953000  0.933200  1
  C  C982  1  0.669800  0.047000  0.433200  1
  C  C983  1  0.169800  0.047000  0.066800  1
  C  C984  1  0.330200  0.953000  0.566800  1
  C  C985  1  0.775800  0.587300  0.336700  1
  C  C986  1  0.724200  0.412700  0.836700  1
  C  C987  1  0.224200  0.412700  0.663300  1
  C  C988  1  0.275800  0.587300  0.163300  1
  C  C989  1  0.831700  0.906200  0.937100  1
  C  C990  1  0.668300  0.093800  0.437100  1
  C  C991  1  0.168300  0.093800  0.062900  1
  C  C992  1  0.331700  0.906200  0.562900  1
  C  C993  1  0.784100  0.579200  0.366200  1
  C  C994  1  0.715900  0.420800  0.866200  1
  C  C995  1  0.215900  0.420800  0.633800  1
  C  C996  1  0.284100  0.579200  0.133800  1
  C  C997  1  0.822200  0.888900  0.965300  1
  C  C998  1  0.677800  0.111100  0.465300  1
  C  C999  1  0.177800  0.111100  0.034700  1
  C  C1000  1  0.322200  0.888900  0.534700  1
  C  C1001  1  0.799100  0.537300  0.374800  1
  C  C1002  1  0.700900  0.462700  0.874800  1
  C  C1003  1  0.200900  0.462700  0.625200  1
  C  C1004  1  0.299100  0.537300  0.125200  1
  C  C1005  1  0.810800  0.918500  0.987900  1
  C  C1006  1  0.689200  0.081500  0.487900  1
  C  C1007  1  0.189200  0.081500  0.012100  1
  C  C1008  1  0.310800  0.918500  0.512100  1
  C  C1009  1  0.806300  0.503200  0.354100  1
  C  C1010  1  0.693700  0.496800  0.854100  1
  C  C1011  1  0.193700  0.496800  0.645900  1
  C  C1012  1  0.306300  0.503200  0.145900  1
  C  C1013  1  0.686600  0.036800  0.964800  1
  C  C1014  1  0.813400  0.963200  0.464800  1
  C  C1015  1  0.313400  0.963200  0.035200  1
  C  C1016  1  0.186600  0.036800  0.535200  1
  C  C1017  1  0.681800  0.996300  0.980500  1
  C  C1018  1  0.818200  0.003700  0.480500  1
  C  C1019  1  0.318200  0.003700  0.019500  1
  C  C1020  1  0.181800  0.996300  0.519500  1
  C  C1021  1  0.647800  0.993100  0.003300  1
  C  C1022  1  0.852200  0.006900  0.503300  1
  C  C1023  1  0.352200  0.006900  0.996700  1
  C  C1024  1  0.147800  0.993100  0.496700  1
  C  C1025  1  0.618300  0.029700  0.009900  1
  C  C1026  1  0.881700  0.970300  0.509900  1
  C  C1027  1  0.381700  0.970300  0.990100  1
  C  C1028  1  0.118300  0.029700  0.490100  1
  C  C1029  1  0.621800  0.070100  0.993700  1
  C  C1030  1  0.878200  0.929900  0.493700  1
  C  C1031  1  0.378200  0.929900  0.006300  1
  C  C1032  1  0.121800  0.070100  0.506300  1
  C  C1033  1  0.656200  0.073500  0.971000  1
  C  C1034  1  0.843800  0.926500  0.471000  1
  C  C1035  1  0.343800  0.926500  0.029000  1
  C  C1036  1  0.156200  0.073500  0.529000  1
  C  C1037  1  0.543900  0.994200  0.032200  1
  C  C1038  1  0.956100  0.005800  0.532200  1
  C  C1039  1  0.456100  0.005800  0.967800  1
  C  C1040  1  0.043900  0.994200  0.467800  1
  C  C1041  1  0.509300  0.989700  0.057600  1
  C  C1042  1  0.990700  0.010300  0.557600  1
  C  C1043  1  0.490700  0.010300  0.942400  1
  C  C1044  1  0.009300  0.989700  0.442400  1
  C  C1045  1  0.471100  0.957800  0.057600  1
  C  C1046  1  0.028900  0.042200  0.557600  1
  C  C1047  1  0.528900  0.042200  0.942400  1
  C  C1048  1  0.971100  0.957800  0.442400  1
  C  C1049  1  0.439500  0.951800  0.081600  1
  C  C1050  1  0.060500  0.048200  0.581600  1
  C  C1051  1  0.560500  0.048200  0.918400  1
  C  C1052  1  0.939500  0.951800  0.418400  1
  C  C1053  1  0.445400  0.979200  0.106000  1
  C  C1054  1  0.054600  0.020800  0.606000  1
  C  C1055  1  0.554600  0.020800  0.894000  1
  C  C1056  1  0.945400  0.979200  0.394000  1
  C  C1057  1  0.411900  0.973600  0.131700  1
  C  C1058  1  0.088100  0.026400  0.631700  1
  C  C1059  1  0.588100  0.026400  0.868300  1
  C  C1060  1  0.911900  0.973600  0.368300  1
  C  C1061  1  0.458400  0.035800  0.158400  1
  C  C1062  1  0.041600  0.964200  0.658400  1
  C  C1063  1  0.541600  0.964200  0.841600  1
  C  C1064  1  0.958400  0.035800  0.341600  1
  C  C1065  1  0.490700  0.041900  0.132100  1
  C  C1066  1  0.009300  0.958100  0.632100  1
  C  C1067  1  0.509300  0.958100  0.867900  1
  C  C1068  1  0.990700  0.041900  0.367900  1
  C  C1069  1  0.529700  0.073100  0.132300  1
  C  C1070  1  0.970300  0.926900  0.632300  1
  C  C1071  1  0.470300  0.926900  0.867700  1
  C  C1072  1  0.029700  0.073100  0.367700  1
  C  C1073  1  0.562900  0.076200  0.108900  1
  C  C1074  1  0.937100  0.923800  0.608900  1
  C  C1075  1  0.437100  0.923800  0.891100  1
  C  C1076  1  0.062900  0.076200  0.391100  1
  C  C1077  1  0.557100  0.050300  0.083600  1
  C  C1078  1  0.942900  0.949700  0.583600  1
  C  C1079  1  0.442900  0.949700  0.916400  1
  C  C1080  1  0.057100  0.050300  0.416400  1
  C  C1081  1  0.592500  0.055200  0.058700  1
  C  C1082  1  0.907500  0.944800  0.558700  1
  C  C1083  1  0.407500  0.944800  0.941300  1
  C  C1084  1  0.092500  0.055200  0.441300  1
  C  C1085  1  0.516800  0.018300  0.082600  1
  C  C1086  1  0.983200  0.981700  0.582600  1
  C  C1087  1  0.483200  0.981700  0.917400  1
  C  C1088  1  0.016800  0.018300  0.417400  1
  C  C1089  1  0.483600  0.013300  0.107000  1
  C  C1090  1  0.016400  0.986700  0.607000  1
  C  C1091  1  0.516400  0.986700  0.893000  1
  C  C1092  1  0.983600  0.013300  0.393000  1
  C  C1093  1  0.389800  0.994000  0.181800  1
  C  C1094  1  0.110200  0.006000  0.681800  1
  C  C1095  1  0.610200  0.006000  0.818200  1
  C  C1096  1  0.889800  0.994000  0.318200  1
  C  C1097  1  0.393700  0.954000  0.197800  1
  C  C1098  1  0.106300  0.046000  0.697800  1
  C  C1099  1  0.606300  0.046000  0.802200  1
  C  C1100  1  0.893700  0.954000  0.302200  1
  C  C1101  1  0.364700  0.946300  0.222400  1
  C  C1102  1  0.135300  0.053700  0.722400  1
  C  C1103  1  0.635300  0.053700  0.777600  1
  C  C1104  1  0.864700  0.946300  0.277600  1
  C  C1105  1  0.330600  0.978400  0.230900  1
  C  C1106  1  0.169400  0.021600  0.730900  1
  C  C1107  1  0.669400  0.021600  0.769100  1
  C  C1108  1  0.830600  0.978400  0.269100  1
  C  C1109  1  0.327900  0.018700  0.214800  1
  C  C1110  1  0.172100  0.981300  0.714800  1
  C  C1111  1  0.672100  0.981300  0.785200  1
  C  C1112  1  0.827900  0.018700  0.285200  1
  C  C1113  1  0.356600  0.027100  0.190100  1
  C  C1114  1  0.143400  0.972900  0.690100  1
  C  C1115  1  0.643400  0.972900  0.809900  1
  C  C1116  1  0.856600  0.027100  0.309900  1
  C  C1117  1  0.712300  0.043000  0.915500  1
  C  C1118  1  0.787700  0.957000  0.415500  1
  C  C1119  1  0.287700  0.957000  0.084500  1
  C  C1120  1  0.212300  0.043000  0.584500  1
  C  C1121  1  0.254800  0.964800  0.255700  1
  C  C1122  1  0.245200  0.035200  0.755700  1
  C  C1123  1  0.745200  0.035200  0.744300  1
  C  C1124  1  0.754800  0.964800  0.244300  1
  C  C1125  1  0.752400  0.047900  0.893400  1
  C  C1126  1  0.747600  0.952100  0.393400  1
  C  C1127  1  0.247600  0.952100  0.106600  1
  C  C1128  1  0.252400  0.047900  0.606600  1
  C  C1129  1  0.223900  0.954200  0.281800  1
  C  C1130  1  0.276100  0.045800  0.781800  1
  C  C1131  1  0.776100  0.045800  0.718200  1
  C  C1132  1  0.723900  0.954200  0.218200  1
  C  C1133  1  0.835300  0.061100  0.884500  1
  C  C1134  1  0.664700  0.938900  0.384500  1
  C  C1135  1  0.164700  0.938900  0.115500  1
  C  C1136  1  0.335300  0.061100  0.615500  1
  C  C1137  1  0.224600  0.933700  0.330800  1
  C  C1138  1  0.275400  0.066300  0.830800  1
  C  C1139  1  0.775400  0.066300  0.669200  1
  C  C1140  1  0.724600  0.933700  0.169200  1
  C  C1141  1  0.826500  0.066500  0.854600  1
  C  C1142  1  0.673500  0.933500  0.354600  1
  C  C1143  1  0.173500  0.933500  0.145400  1
  C  C1144  1  0.326500  0.066500  0.645400  1
  C  C1145  1  0.173800  0.927000  0.330700  1
  C  C1146  1  0.326200  0.073000  0.830700  1
  C  C1147  1  0.826200  0.073000  0.669300  1
  C  C1148  1  0.673800  0.927000  0.169300  1
  C  C1149  1  0.779000  0.061900  0.843800  1
  C  C1150  1  0.721000  0.938100  0.343800  1
  C  C1151  1  0.221000  0.938100  0.156200  1
  C  C1152  1  0.279000  0.061900  0.656200  1
  C  C1153  1  0.147300  0.936000  0.305300  1
  C  C1154  1  0.352700  0.064000  0.805300  1
  C  C1155  1  0.852700  0.064000  0.694700  1
  C  C1156  1  0.647300  0.936000  0.194700  1
  C  C1157  1  0.740900  0.051200  0.863400  1
  C  C1158  1  0.759100  0.948800  0.363400  1
  C  C1159  1  0.259100  0.948800  0.136600  1
  C  C1160  1  0.240900  0.051200  0.636600  1
  C  C1161  1  0.172200  0.950100  0.279900  1
  C  C1162  1  0.327800  0.049900  0.779900  1
  C  C1163  1  0.827800  0.049900  0.720100  1
  C  C1164  1  0.672200  0.950100  0.220100  1
  C  C1165  1  0.290500  0.489600  0.995400  1
  C  C1166  1  0.209500  0.510400  0.495400  1
  C  C1167  1  0.709500  0.510400  0.004600  1
  C  C1168  1  0.790500  0.489600  0.504600  1
  C  C1169  1  0.299200  0.529500  0.011300  1
  C  C1170  1  0.200800  0.470500  0.511300  1
  C  C1171  1  0.700800  0.470500  0.988700  1
  C  C1172  1  0.799200  0.529500  0.488700  1
  C  C1173  1  0.339400  0.534000  0.030300  1
  C  C1174  1  0.160600  0.466000  0.530300  1
  C  C1175  1  0.660600  0.466000  0.969700  1
  C  C1176  1  0.839400  0.534000  0.469700  1
  C  C1177  1  0.370600  0.497300  0.033100  1
  C  C1178  1  0.129400  0.502700  0.533100  1
  C  C1179  1  0.629400  0.502700  0.966900  1
  C  C1180  1  0.870600  0.497300  0.466900  1
  C  C1181  1  0.361500  0.456300  0.017800  1
  C  C1182  1  0.138500  0.543700  0.517800  1
  C  C1183  1  0.638500  0.543700  0.982200  1
  C  C1184  1  0.861500  0.456300  0.482200  1
  C  C1185  1  0.321400  0.452600  0.998700  1
  C  C1186  1  0.178600  0.547400  0.498700  1
  C  C1187  1  0.678600  0.547400  0.001300  1
  C  C1188  1  0.821400  0.452600  0.501300  1
  C  C1189  1  0.457800  0.522900  0.038600  1
  C  C1190  1  0.042200  0.477100  0.538600  1
  C  C1191  1  0.542200  0.477100  0.961400  1
  C  C1192  1  0.957800  0.522900  0.461400  1
  C  C1193  1  0.503700  0.523800  0.056700  1
  C  C1194  1  0.996300  0.476200  0.556700  1
  C  C1195  1  0.496300  0.476200  0.943300  1
  C  C1196  1  0.003700  0.523800  0.443300  1
  C  C1197  1  0.548300  0.540800  0.045600  1
  C  C1198  1  0.951700  0.459200  0.545600  1
  C  C1199  1  0.451700  0.459200  0.954400  1
  C  C1200  1  0.048300  0.540800  0.454400  1
  C  C1201  1  0.591700  0.542000  0.061900  1
  C  C1202  1  0.908300  0.458000  0.561900  1
  C  C1203  1  0.408300  0.458000  0.938100  1
  C  C1204  1  0.091700  0.542000  0.438100  1
  C  C1205  1  0.591200  0.526700  0.090700  1
  C  C1206  1  0.908800  0.473300  0.590700  1
  C  C1207  1  0.408800  0.473300  0.909300  1
  C  C1208  1  0.091200  0.526700  0.409300  1
  C  C1209  1  0.635900  0.531200  0.109500  1
  C  C1210  1  0.864100  0.468800  0.609500  1
  C  C1211  1  0.364100  0.468800  0.890500  1
  C  C1212  1  0.135900  0.531200  0.390500  1
  C  C1213  1  0.588300  0.497000  0.152000  1
  C  C1214  1  0.911700  0.503000  0.652000  1
  C  C1215  1  0.411700  0.503000  0.848000  1
  C  C1216  1  0.088300  0.497000  0.348000  1
  C  C1217  1  0.544400  0.492100  0.132600  1
  C  C1218  1  0.955600  0.507900  0.632600  1
  C  C1219  1  0.455600  0.507900  0.867400  1
  C  C1220  1  0.044400  0.492100  0.367400  1
  C  C1221  1  0.500500  0.474400  0.143500  1
  C  C1222  1  0.999500  0.525600  0.643500  1
  C  C1223  1  0.499500  0.525600  0.856500  1
  C  C1224  1  0.000500  0.474400  0.356500  1
  C  C1225  1  0.458100  0.471200  0.126200  1
  C  C1226  1  0.041900  0.528800  0.626200  1
  C  C1227  1  0.541900  0.528800  0.873800  1
  C  C1228  1  0.958100  0.471200  0.373800  1
  C  C1229  1  0.458100  0.486800  0.097400  1
  C  C1230  1  0.041900  0.513200  0.597400  1
  C  C1231  1  0.541900  0.513200  0.902600  1
  C  C1232  1  0.958100  0.486800  0.402600  1
  C  C1233  1  0.412100  0.484000  0.079700  1
  C  C1234  1  0.087900  0.516000  0.579700  1
  C  C1235  1  0.587900  0.516000  0.920300  1
  C  C1236  1  0.912100  0.484000  0.420300  1
  C  C1237  1  0.502700  0.506100  0.085700  1
  C  C1238  1  0.997300  0.493900  0.585700  1
  C  C1239  1  0.497300  0.493900  0.914300  1
  C  C1240  1  0.002700  0.506100  0.414300  1
  C  C1241  1  0.546600  0.507700  0.103200  1
  C  C1242  1  0.953400  0.492300  0.603200  1
  C  C1243  1  0.453400  0.492300  0.896800  1
  C  C1244  1  0.046600  0.507700  0.396800  1
  C  C1245  1  0.670700  0.528500  0.159200  1
  C  C1246  1  0.829300  0.471500  0.659200  1
  C  C1247  1  0.329300  0.471500  0.840800  1
  C  C1248  1  0.170700  0.528500  0.340800  1
  C  C1249  1  0.670100  0.570000  0.174600  1
  C  C1250  1  0.829900  0.430000  0.674600  1
  C  C1251  1  0.329900  0.430000  0.825400  1
  C  C1252  1  0.170100  0.570000  0.325400  1
  C  C1253  1  0.707100  0.581000  0.194800  1
  C  C1254  1  0.792900  0.419000  0.694800  1
  C  C1255  1  0.292900  0.419000  0.805200  1
  C  C1256  1  0.207100  0.581000  0.305200  1
  C  C1257  1  0.745200  0.550500  0.199800  1
  C  C1258  1  0.754800  0.449500  0.699800  1
  C  C1259  1  0.254800  0.449500  0.800200  1
  C  C1260  1  0.245200  0.550500  0.300200  1
  C  C1261  1  0.746300  0.509100  0.184700  1
  C  C1262  1  0.753700  0.490900  0.684700  1
  C  C1263  1  0.253700  0.490900  0.815300  1
  C  C1264  1  0.246300  0.509100  0.315300  1
  C  C1265  1  0.709100  0.498200  0.164300  1
  C  C1266  1  0.790900  0.501800  0.664300  1
  C  C1267  1  0.290900  0.501800  0.835700  1
  C  C1268  1  0.209100  0.498200  0.335700  1
  C  C1269  1  0.253100  0.499700  0.948900  1
  C  C1270  1  0.246900  0.500300  0.448900  1
  C  C1271  1  0.746900  0.500300  0.051100  1
  C  C1272  1  0.753100  0.499700  0.551100  1
  C  C1273  1  0.825700  0.573600  0.212900  1
  C  C1274  1  0.674300  0.426400  0.712900  1
  C  C1275  1  0.174300  0.426400  0.787100  1
  C  C1276  1  0.325700  0.573600  0.287100  1
  C  C1277  1  0.210500  0.492800  0.928800  1
  C  C1278  1  0.289500  0.507200  0.428800  1
  C  C1279  1  0.789500  0.507200  0.071200  1
  C  C1280  1  0.710500  0.492800  0.571200  1
  C  C1281  1  0.863400  0.588200  0.234800  1
  C  C1282  1  0.636600  0.411800  0.734800  1
  C  C1283  1  0.136600  0.411800  0.765200  1
  C  C1284  1  0.363400  0.588200  0.265200  1
  C  C1285  1  0.132200  0.461400  0.921600  1
  C  C1286  1  0.367800  0.538600  0.421600  1
  C  C1287  1  0.867800  0.538600  0.078400  1
  C  C1288  1  0.632200  0.461400  0.578400  1
  C  C1289  1  0.881000  0.603100  0.284500  1
  C  C1290  1  0.619000  0.396900  0.784500  1
  C  C1291  1  0.119000  0.396900  0.715500  1
  C  C1292  1  0.381000  0.603100  0.215500  1
  C  C1293  1  0.130600  0.477600  0.892700  1
  C  C1294  1  0.369400  0.522400  0.392700  1
  C  C1295  1  0.869400  0.522400  0.107300  1
  C  C1296  1  0.630600  0.477600  0.607300  1
  C  C1297  1  0.929200  0.617000  0.277500  1
  C  C1298  1  0.570800  0.383000  0.777500  1
  C  C1299  1  0.070800  0.383000  0.722500  1
  C  C1300  1  0.429200  0.617000  0.222500  1
  C  C1301  1  0.170600  0.501400  0.881200  1
  C  C1302  1  0.329400  0.498600  0.381200  1
  C  C1303  1  0.829400  0.498600  0.118800  1
  C  C1304  1  0.670600  0.501400  0.618800  1
  C  C1305  1  0.943900  0.615500  0.248500  1
  C  C1306  1  0.556100  0.384500  0.748500  1
  C  C1307  1  0.056100  0.384500  0.751500  1
  C  C1308  1  0.443900  0.615500  0.251500  1
  C  C1309  1  0.211500  0.508800  0.899800  1
  C  C1310  1  0.288500  0.491200  0.399800  1
  C  C1311  1  0.788500  0.491200  0.100200  1
  C  C1312  1  0.711500  0.508800  0.600200  1
  C  C1313  1  0.911400  0.601200  0.226400  1
  C  C1314  1  0.588600  0.398800  0.726400  1
  C  C1315  1  0.088600  0.398800  0.773600  1
  C  C1316  1  0.411400  0.601200  0.273600  1
  C  C1317  1  0.203100  0.439400  0.055200  1
  C  C1318  1  0.296900  0.560600  0.555200  1
  C  C1319  1  0.796900  0.560600  0.944800  1
  C  C1320  1  0.703100  0.439400  0.444800  1
  C  C1321  1  0.173800  0.401500  0.063300  1
  C  C1322  1  0.326200  0.598500  0.563300  1
  C  C1323  1  0.826200  0.598500  0.936700  1
  C  C1324  1  0.673800  0.401500  0.436700  1
  C  C1325  1  0.190700  0.371100  0.084100  1
  C  C1326  1  0.309300  0.628900  0.584100  1
  C  C1327  1  0.809300  0.628900  0.915900  1
  C  C1328  1  0.690700  0.371100  0.415900  1
  C  C1329  1  0.237200  0.378400  0.097500  1
  C  C1330  1  0.262800  0.621600  0.597500  1
  C  C1331  1  0.762800  0.621600  0.902500  1
  C  C1332  1  0.737200  0.378400  0.402500  1
  C  C1333  1  0.265500  0.415600  0.089200  1
  C  C1334  1  0.234500  0.584400  0.589200  1
  C  C1335  1  0.734500  0.584400  0.910800  1
  C  C1336  1  0.765500  0.415600  0.410800  1
  C  C1337  1  0.249400  0.446400  0.068200  1
  C  C1338  1  0.250600  0.553600  0.568200  1
  C  C1339  1  0.750600  0.553600  0.931800  1
  C  C1340  1  0.749400  0.446400  0.431800  1
  C  C1341  1  0.269000  0.305600  0.111900  1
  C  C1342  1  0.231000  0.694400  0.611900  1
  C  C1343  1  0.731000  0.694400  0.888100  1
  C  C1344  1  0.769000  0.305600  0.388100  1
  C  C1345  1  0.278000  0.270700  0.134700  1
  C  C1346  1  0.222000  0.729300  0.634700  1
  C  C1347  1  0.722000  0.729300  0.865300  1
  C  C1348  1  0.778000  0.270700  0.365300  1
  C  C1349  1  0.294500  0.228400  0.126500  1
  C  C1350  1  0.205500  0.771600  0.626500  1
  C  C1351  1  0.705500  0.771600  0.873500  1
  C  C1352  1  0.794500  0.228400  0.373500  1
  C  C1353  1  0.302200  0.195200  0.148000  1
  C  C1354  1  0.197800  0.804800  0.648000  1
  C  C1355  1  0.697800  0.804800  0.852000  1
  C  C1356  1  0.802200  0.195200  0.352000  1
  C  C1357  1  0.290800  0.203900  0.177400  1
  C  C1358  1  0.209200  0.796100  0.677400  1
  C  C1359  1  0.709200  0.796100  0.822600  1
  C  C1360  1  0.790800  0.203900  0.322600  1
  C  C1361  1  0.294100  0.167400  0.199600  1
  C  C1362  1  0.205900  0.832600  0.699600  1
  C  C1363  1  0.705900  0.832600  0.800400  1
  C  C1364  1  0.794100  0.167400  0.300400  1
  C  C1365  1  0.263600  0.220200  0.239200  1
  C  C1366  1  0.236400  0.779800  0.739200  1
  C  C1367  1  0.736400  0.779800  0.760800  1
  C  C1368  1  0.763600  0.220200  0.260800  1
  C  C1369  1  0.260600  0.256100  0.216500  1
  C  C1370  1  0.239400  0.743900  0.716500  1
  C  C1371  1  0.739400  0.743900  0.783500  1
  C  C1372  1  0.760600  0.256100  0.283500  1
  C  C1373  1  0.244200  0.298500  0.224000  1
  C  C1374  1  0.255800  0.701500  0.724000  1
  C  C1375  1  0.755800  0.701500  0.776000  1
  C  C1376  1  0.744200  0.298500  0.276000  1
  C  C1377  1  0.239600  0.332300  0.202700  1
  C  C1378  1  0.260400  0.667700  0.702700  1
  C  C1379  1  0.760400  0.667700  0.797300  1
  C  C1380  1  0.739600  0.332300  0.297300  1
  C  C1381  1  0.250400  0.324600  0.173100  1
  C  C1382  1  0.249600  0.675400  0.673100  1
  C  C1383  1  0.749600  0.675400  0.826900  1
  C  C1384  1  0.750400  0.324600  0.326900  1
  C  C1385  1  0.241300  0.360000  0.150500  1
  C  C1386  1  0.258700  0.640000  0.650500  1
  C  C1387  1  0.758700  0.640000  0.849500  1
  C  C1388  1  0.741300  0.360000  0.349500  1
  C  C1389  1  0.267600  0.281400  0.164600  1
  C  C1390  1  0.232400  0.718600  0.664600  1
  C  C1391  1  0.732400  0.718600  0.835400  1
  C  C1392  1  0.767600  0.281400  0.335400  1
  C  C1393  1  0.273600  0.247100  0.186600  1
  C  C1394  1  0.226400  0.752900  0.686600  1
  C  C1395  1  0.726400  0.752900  0.813400  1
  C  C1396  1  0.773600  0.247100  0.313400  1
  C  C1397  1  0.286000  0.142200  0.250300  1
  C  C1398  1  0.214000  0.857800  0.750300  1
  C  C1399  1  0.714000  0.857800  0.749700  1
  C  C1400  1  0.786000  0.142200  0.249700  1
  C  C1401  1  0.249200  0.109000  0.255600  1
  C  C1402  1  0.250800  0.891000  0.755600  1
  C  C1403  1  0.750800  0.891000  0.744400  1
  C  C1404  1  0.749200  0.109000  0.244400  1
  C  C1405  1  0.258700  0.074700  0.275700  1
  C  C1406  1  0.241300  0.925300  0.775700  1
  C  C1407  1  0.741300  0.925300  0.724300  1
  C  C1408  1  0.758700  0.074700  0.224300  1
  C  C1409  1  0.304400  0.073900  0.289900  1
  C  C1410  1  0.195600  0.926100  0.789900  1
  C  C1411  1  0.695600  0.926100  0.710100  1
  C  C1412  1  0.804400  0.073900  0.210100  1
  C  C1413  1  0.340600  0.107700  0.284600  1
  C  C1414  1  0.159400  0.892300  0.784600  1
  C  C1415  1  0.659400  0.892300  0.715400  1
  C  C1416  1  0.840600  0.107700  0.215400  1
  C  C1417  1  0.331500  0.142000  0.264600  1
  C  C1418  1  0.168500  0.858000  0.764600  1
  C  C1419  1  0.668500  0.858000  0.735400  1
  C  C1420  1  0.831500  0.142000  0.235400  1
  C  C1421  1  0.175900  0.510600  0.041000  1
  C  C1422  1  0.324100  0.489400  0.541000  1
  C  C1423  1  0.824100  0.489400  0.959000  1
  C  C1424  1  0.675900  0.510600  0.459000  1
  C  C1425  1  0.324600  0.050000  0.337200  1
  C  C1426  1  0.175400  0.950000  0.837200  1
  C  C1427  1  0.675400  0.950000  0.662800  1
  C  C1428  1  0.824600  0.050000  0.162800  1
  C  C1429  1  0.156500  0.544100  0.020200  1
  C  C1430  1  0.343500  0.455900  0.520200  1
  C  C1431  1  0.843500  0.455900  0.979800  1
  C  C1432  1  0.656500  0.544100  0.479800  1
  C  C1433  1  0.338100  0.015200  0.359000  1
  C  C1434  1  0.161900  0.984800  0.859000  1
  C  C1435  1  0.661900  0.984800  0.641000  1
  C  C1436  1  0.838100  0.015200  0.141000  1
  C  C1437  1  0.125800  0.557500  0.974100  1
  C  C1438  1  0.374200  0.442500  0.474100  1
  C  C1439  1  0.874200  0.442500  0.025900  1
  C  C1440  1  0.625800  0.557500  0.525900  1
  C  C1441  1  0.353500  0.939700  0.366900  1
  C  C1442  1  0.146500  0.060300  0.866900  1
  C  C1443  1  0.646500  0.060300  0.633100  1
  C  C1444  1  0.853500  0.939700  0.133100  1
  C  C1445  1  0.114800  0.602400  0.981000  1
  C  C1446  1  0.385200  0.397600  0.481000  1
  C  C1447  1  0.885200  0.397600  0.019000  1
  C  C1448  1  0.614800  0.602400  0.519000  1
  C  C1449  1  0.366000  0.946700  0.396000  1
  C  C1450  1  0.134000  0.053300  0.896000  1
  C  C1451  1  0.634000  0.053300  0.604000  1
  C  C1452  1  0.866000  0.946700  0.104000  1
  C  C1453  1  0.125800  0.616800  0.009000  1
  C  C1454  1  0.374200  0.383200  0.509000  1
  C  C1455  1  0.874200  0.383200  0.991000  1
  C  C1456  1  0.625800  0.616800  0.491000  1
  C  C1457  1  0.363500  0.990500  0.407100  1
  C  C1458  1  0.136500  0.009500  0.907100  1
  C  C1459  1  0.636500  0.009500  0.592900  1
  C  C1460  1  0.863500  0.990500  0.092900  1
  C  C1461  1  0.146700  0.587600  0.029400  1
  C  C1462  1  0.353300  0.412400  0.529400  1
  C  C1463  1  0.853300  0.412400  0.970600  1
  C  C1464  1  0.646700  0.587600  0.470600  1
  C  C1465  1  0.349000  0.025200  0.388400  1
  C  C1466  1  0.151000  0.974800  0.888400  1
  C  C1467  1  0.651000  0.974800  0.611600  1
  C  C1468  1  0.849000  0.025200  0.111600  1
  C  C1469  1  0.640000  0.175100  0.340400  1
  C  C1470  1  0.860000  0.824900  0.840400  1
  C  C1471  1  0.360000  0.824900  0.659600  1
  C  C1472  1  0.140000  0.175100  0.159600  1
  C  C1473  1  0.563500  0.329200  0.369200  1
  C  C1474  1  0.936500  0.670800  0.869200  1
  C  C1475  1  0.436500  0.670800  0.630800  1
  C  C1476  1  0.063500  0.329200  0.130800  1
  S  S1477  1  0.583600  0.206200  0.348700  1
  S  S1478  1  0.916400  0.793800  0.848700  1
  S  S1479  1  0.416400  0.793800  0.651300  1
  S  S1480  1  0.083600  0.206200  0.151300  1
  S  S1481  1  0.612100  0.301800  0.347600  1
  S  S1482  1  0.887900  0.698200  0.847600  1
  S  S1483  1  0.387900  0.698200  0.652400  1
  S  S1484  1  0.112100  0.301800  0.152400  1
  N  N1485  1  0.795500  0.128800  0.954500  1
  N  N1486  1  0.704500  0.871200  0.454500  1
  N  N1487  1  0.204500  0.871200  0.045500  1
  N  N1488  1  0.295500  0.128800  0.545500  1
  N  N1489  1  0.616300  0.220500  0.957800  1
  N  N1490  1  0.883700  0.779500  0.457800  1
  N  N1491  1  0.383700  0.779500  0.042200  1
  N  N1492  1  0.116300  0.220500  0.542200  1
  N  N1493  1  0.377000  0.307800  0.972600  1
  N  N1494  1  0.123000  0.692200  0.472600  1
  N  N1495  1  0.623000  0.692200  0.027400  1
  N  N1496  1  0.877000  0.307800  0.527400  1
  N  N1497  1  0.189700  0.381800  0.987400  1
  N  N1498  1  0.310300  0.618200  0.487400  1
  N  N1499  1  0.810300  0.618200  0.012600  1
  N  N1500  1  0.689700  0.381800  0.512600  1
  N  N1501  1  0.876800  0.071900  0.954500  1
  N  N1502  1  0.623200  0.928100  0.454500  1
  N  N1503  1  0.123200  0.928100  0.045500  1
  N  N1504  1  0.376800  0.071900  0.545500  1
  N  N1505  1  0.100400  0.424400  0.991500  1
  N  N1506  1  0.399600  0.575600  0.491500  1
  N  N1507  1  0.899600  0.575600  0.008500  1
  N  N1508  1  0.600400  0.424400  0.508500  1
  N  N1509  1  0.691500  0.549200  0.270000  1
  N  N1510  1  0.808500  0.450800  0.770000  1
  N  N1511  1  0.308500  0.450800  0.730000  1
  N  N1512  1  0.191500  0.549200  0.230000  1
  N  N1513  1  0.591600  0.377900  0.265800  1
  N  N1514  1  0.908400  0.622100  0.765800  1
  N  N1515  1  0.408400  0.622100  0.734200  1
  N  N1516  1  0.091600  0.377900  0.234200  1
  N  N1517  1  0.496700  0.154500  0.278200  1
  N  N1518  1  0.003300  0.845500  0.778200  1
  N  N1519  1  0.503300  0.845500  0.721800  1
  N  N1520  1  0.996700  0.154500  0.221800  1
  N  N1521  1  0.408500  0.979100  0.292900  1
  N  N1522  1  0.091500  0.020900  0.792900  1
  N  N1523  1  0.591500  0.020900  0.707100  1
  N  N1524  1  0.908500  0.979100  0.207100  1
  N  N1525  1  0.742700  0.632700  0.271800  1
  N  N1526  1  0.757300  0.367300  0.771800  1
  N  N1527  1  0.257300  0.367300  0.728200  1
  N  N1528  1  0.242700  0.632700  0.228200  1
  N  N1529  1  0.353500  0.896900  0.299900  1
  N  N1530  1  0.146500  0.103100  0.799900  1
  N  N1531  1  0.646500  0.103100  0.700100  1
  N  N1532  1  0.853500  0.896900  0.200100  1
  N  N1533  1  0.799100  0.041100  0.997200  1
  N  N1534  1  0.700900  0.958900  0.497200  1
  N  N1535  1  0.200900  0.958900  0.002800  1
  N  N1536  1  0.299100  0.041100  0.502800  1
  N  N1537  1  0.777900  0.177200  0.084100  1
  N  N1538  1  0.722100  0.822800  0.584100  1
  N  N1539  1  0.222100  0.822800  0.915900  1
  N  N1540  1  0.277900  0.177200  0.415900  1
  N  N1541  1  0.801000  0.358700  0.184700  1
  N  N1542  1  0.699000  0.641300  0.684700  1
  N  N1543  1  0.199000  0.641300  0.815300  1
  N  N1544  1  0.301000  0.358700  0.315300  1
  N  N1545  1  0.793300  0.491600  0.273700  1
  N  N1546  1  0.706700  0.508400  0.773700  1
  N  N1547  1  0.206700  0.508400  0.726300  1
  N  N1548  1  0.293300  0.491600  0.226300  1
  N  N1549  1  0.819000  0.982800  0.954300  1
  N  N1550  1  0.681000  0.017200  0.454300  1
  N  N1551  1  0.181000  0.017200  0.045700  1
  N  N1552  1  0.319000  0.982800  0.545700  1
  N  N1553  1  0.782500  0.555600  0.315400  1
  N  N1554  1  0.717500  0.444400  0.815400  1
  N  N1555  1  0.217500  0.444400  0.684600  1
  N  N1556  1  0.282500  0.555600  0.184600  1
  N  N1557  1  0.723400  0.042100  0.942600  1
  N  N1558  1  0.776600  0.957900  0.442600  1
  N  N1559  1  0.276600  0.957900  0.057400  1
  N  N1560  1  0.223400  0.042100  0.557400  1
  N  N1561  1  0.583300  0.026600  0.034000  1
  N  N1562  1  0.916700  0.973400  0.534000  1
  N  N1563  1  0.416700  0.973400  0.966000  1
  N  N1564  1  0.083300  0.026600  0.466000  1
  N  N1565  1  0.421100  0.001600  0.156300  1
  N  N1566  1  0.078900  0.998400  0.656300  1
  N  N1567  1  0.578900  0.998400  0.843700  1
  N  N1568  1  0.921100  0.001600  0.343700  1
  N  N1569  1  0.301200  0.969200  0.256700  1
  N  N1570  1  0.198800  0.030800  0.756700  1
  N  N1571  1  0.698800  0.030800  0.743300  1
  N  N1572  1  0.801200  0.969200  0.243300  1
  N  N1573  1  0.799000  0.052300  0.904400  1
  N  N1574  1  0.701000  0.947700  0.404400  1
  N  N1575  1  0.201000  0.947700  0.095600  1
  N  N1576  1  0.299000  0.052300  0.595600  1
  N  N1577  1  0.249900  0.947700  0.306800  1
  N  N1578  1  0.250100  0.052300  0.806800  1
  N  N1579  1  0.750100  0.052300  0.693200  1
  N  N1580  1  0.749900  0.947700  0.193200  1
  N  N1581  1  0.250100  0.484400  0.975500  1
  N  N1582  1  0.249900  0.515600  0.475500  1
  N  N1583  1  0.749900  0.515600  0.024500  1
  N  N1584  1  0.750100  0.484400  0.524500  1
  N  N1585  1  0.415000  0.502100  0.051000  1
  N  N1586  1  0.085000  0.497900  0.551000  1
  N  N1587  1  0.585000  0.497900  0.949000  1
  N  N1588  1  0.915000  0.502100  0.449000  1
  N  N1589  1  0.630900  0.517100  0.139000  1
  N  N1590  1  0.869100  0.482900  0.639000  1
  N  N1591  1  0.369100  0.482900  0.861000  1
  N  N1592  1  0.130900  0.517100  0.361000  1
  N  N1593  1  0.781500  0.562500  0.221500  1
  N  N1594  1  0.718500  0.437500  0.721500  1
  N  N1595  1  0.218500  0.437500  0.778500  1
  N  N1596  1  0.281500  0.562500  0.278500  1
  N  N1597  1  0.171000  0.469300  0.939900  1
  N  N1598  1  0.329000  0.530700  0.439900  1
  N  N1599  1  0.829000  0.530700  0.060100  1
  N  N1600  1  0.671000  0.469300  0.560100  1
  N  N1601  1  0.848900  0.588800  0.263500  1
  N  N1602  1  0.651100  0.411200  0.763500  1
  N  N1603  1  0.151100  0.411200  0.736500  1
  N  N1604  1  0.348900  0.588800  0.236500  1
  N  N1605  1  0.183800  0.469700  0.034000  1
  N  N1606  1  0.316200  0.530300  0.534000  1
  N  N1607  1  0.816200  0.530300  0.966000  1
  N  N1608  1  0.683800  0.469700  0.466000  1
  N  N1609  1  0.250100  0.347400  0.120900  1
  N  N1610  1  0.249900  0.652600  0.620900  1
  N  N1611  1  0.749900  0.652600  0.879100  1
  N  N1612  1  0.750100  0.347400  0.379100  1
  N  N1613  1  0.280100  0.178400  0.228800  1
  N  N1614  1  0.219900  0.821600  0.728800  1
  N  N1615  1  0.719900  0.821600  0.771200  1
  N  N1616  1  0.780100  0.178400  0.271200  1
  N  N1617  1  0.313200  0.038800  0.310400  1
  N  N1618  1  0.186800  0.961200  0.810400  1
  N  N1619  1  0.686800  0.961200  0.689600  1
  N  N1620  1  0.813200  0.038800  0.189600  1
  N  N1621  1  0.148000  0.528800  0.992500  1
  N  N1622  1  0.352000  0.471200  0.492500  1
  N  N1623  1  0.852000  0.471200  0.007500  1
  N  N1624  1  0.648000  0.528800  0.507500  1
  N  N1625  1  0.339700  0.972700  0.348200  1
  N  N1626  1  0.160300  0.027300  0.848200  1
  N  N1627  1  0.660300  0.027300  0.651800  1
  N  N1628  1  0.839700  0.972700  0.151800  1
  N  N1629  1  0.585500  0.256600  0.332900  1
  N  N1630  1  0.914500  0.743400  0.832900  1
  N  N1631  1  0.414500  0.743400  0.667100  1
  N  N1632  1  0.085500  0.256600  0.167100  1
  O  O1633  1  0.582500  0.149300  0.949700  1
  O  O1634  1  0.917500  0.850700  0.449700  1
  O  O1635  1  0.417500  0.850700  0.050300  1
  O  O1636  1  0.082500  0.149300  0.550300  1
  O  O1637  1  0.342400  0.240100  0.959400  1
  O  O1638  1  0.157600  0.759900  0.459400  1
  O  O1639  1  0.657600  0.759900  0.040600  1
  O  O1640  1  0.842400  0.240100  0.540600  1
  O  O1641  1  0.409900  0.376200  0.986800  1
  O  O1642  1  0.090100  0.623800  0.486800  1
  O  O1643  1  0.590100  0.623800  0.013200  1
  O  O1644  1  0.909900  0.376200  0.513200  1
  O  O1645  1  0.651800  0.290400  0.965400  1
  O  O1646  1  0.848200  0.709600  0.465400  1
  O  O1647  1  0.348200  0.709600  0.034600  1
  O  O1648  1  0.151800  0.290400  0.534600  1
  O  O1649  1  0.519900  0.406300  0.283600  1
  O  O1650  1  0.980100  0.593700  0.783600  1
  O  O1651  1  0.480100  0.593700  0.716400  1
  O  O1652  1  0.019900  0.406300  0.216400  1
  O  O1653  1  0.425100  0.180800  0.298700  1
  O  O1654  1  0.074900  0.819200  0.798700  1
  O  O1655  1  0.574900  0.819200  0.701300  1
  O  O1656  1  0.925100  0.180800  0.201300  1
  O  O1657  1  0.568400  0.126600  0.261100  1
  O  O1658  1  0.931600  0.873400  0.761100  1
  O  O1659  1  0.431600  0.873400  0.738900  1
  O  O1660  1  0.068400  0.126600  0.238900  1
  O  O1661  1  0.661800  0.352000  0.244500  1
  O  O1662  1  0.838200  0.648000  0.744500  1
  O  O1663  1  0.338200  0.648000  0.755500  1
  O  O1664  1  0.161800  0.352000  0.255500  1
  O  O1665  1  0.808100  0.128700  0.118700  1
  O  O1666  1  0.691900  0.871300  0.618700  1
  O  O1667  1  0.191900  0.871300  0.881300  1
  O  O1668  1  0.308100  0.128700  0.381300  1
  O  O1669  1  0.836000  0.313000  0.218500  1
  O  O1670  1  0.664000  0.687000  0.718500  1
  O  O1671  1  0.164000  0.687000  0.781500  1
  O  O1672  1  0.336000  0.313000  0.281500  1
  O  O1673  1  0.766700  0.407500  0.151400  1
  O  O1674  1  0.733300  0.592500  0.651400  1
  O  O1675  1  0.233300  0.592500  0.848600  1
  O  O1676  1  0.266700  0.407500  0.348600  1
  O  O1677  1  0.741100  0.222400  0.050100  1
  O  O1678  1  0.758900  0.777600  0.550100  1
  O  O1679  1  0.258900  0.777600  0.949900  1
  O  O1680  1  0.241100  0.222400  0.449900  1
  O  O1681  1  0.540800  0.970100  0.010400  1
  O  O1682  1  0.959200  0.029900  0.510400  1
  O  O1683  1  0.459200  0.029900  0.989600  1
  O  O1684  1  0.040800  0.970100  0.489600  1
  O  O1685  1  0.376400  0.946400  0.132400  1
  O  O1686  1  0.123600  0.053600  0.632400  1
  O  O1687  1  0.623600  0.053600  0.867600  1
  O  O1688  1  0.876400  0.946400  0.367600  1
  O  O1689  1  0.464800  0.057100  0.181100  1
  O  O1690  1  0.035200  0.942900  0.681100  1
  O  O1691  1  0.535200  0.942900  0.818900  1
  O  O1692  1  0.964800  0.057100  0.318900  1
  O  O1693  1  0.629200  0.081600  0.059100  1
  O  O1694  1  0.870800  0.918400  0.559100  1
  O  O1695  1  0.370800  0.918400  0.940900  1
  O  O1696  1  0.129200  0.081600  0.440900  1
  O  O1697  1  0.455700  0.538000  0.013500  1
  O  O1698  1  0.044300  0.462000  0.513500  1
  O  O1699  1  0.544300  0.462000  0.986500  1
  O  O1700  1  0.955700  0.538000  0.486500  1
  O  O1701  1  0.675100  0.546700  0.100300  1
  O  O1702  1  0.824900  0.453300  0.600300  1
  O  O1703  1  0.324900  0.453300  0.899700  1
  O  O1704  1  0.175100  0.546700  0.399700  1
  O  O1705  1  0.586600  0.487100  0.178100  1
  O  O1706  1  0.913400  0.512900  0.678100  1
  O  O1707  1  0.413400  0.512900  0.821900  1
  O  O1708  1  0.086600  0.487100  0.321900  1
  O  O1709  1  0.372400  0.468900  0.088900  1
  O  O1710  1  0.127600  0.531100  0.588900  1
  O  O1711  1  0.627600  0.531100  0.911100  1
  O  O1712  1  0.872400  0.468900  0.411100  1
  O  O1713  1  0.280300  0.299500  0.086000  1
  O  O1714  1  0.219700  0.700500  0.586000  1
  O  O1715  1  0.719700  0.700500  0.914000  1
  O  O1716  1  0.780300  0.299500  0.414000  1
  O  O1717  1  0.309500  0.129900  0.193600  1
  O  O1718  1  0.190500  0.870100  0.693600  1
  O  O1719  1  0.690500  0.870100  0.806400  1
  O  O1720  1  0.809500  0.129900  0.306400  1
  O  O1721  1  0.251000  0.226300  0.264800  1
  O  O1722  1  0.249000  0.773700  0.764800  1
  O  O1723  1  0.749000  0.773700  0.735200  1
  O  O1724  1  0.751000  0.226300  0.235200  1
  O  O1725  1  0.230000  0.399500  0.156400  1
  O  O1726  1  0.270000  0.600500  0.656400  1
  O  O1727  1  0.770000  0.600500  0.843600  1
  O  O1728  1  0.730000  0.399500  0.343600  1
  O  O1729  1  0.584600  0.211200  0.380600  1
  O  O1730  1  0.915400  0.788800  0.880600  1
  O  O1731  1  0.415400  0.788800  0.619400  1
  O  O1732  1  0.084600  0.211200  0.119400  1
  O  O1733  1  0.545800  0.178700  0.334100  1
  O  O1734  1  0.954200  0.821300  0.834100  1
  O  O1735  1  0.454200  0.821300  0.665900  1
  O  O1736  1  0.045800  0.178700  0.165900  1
  O  O1737  1  0.648400  0.290200  0.369200  1
  O  O1738  1  0.851600  0.709800  0.869200  1
  O  O1739  1  0.351600  0.709800  0.630800  1
  O  O1740  1  0.148400  0.290200  0.130800  1
  O  O1741  1  0.620000  0.335700  0.325000  1
  O  O1742  1  0.880000  0.664300  0.825000  1
  O  O1743  1  0.380000  0.664300  0.675000  1
  O  O1744  1  0.120000  0.335700  0.175000  1
  F  F1745  1  0.926900  0.217600  0.031900  1
  F  F1746  1  0.573100  0.782400  0.531900  1
  F  F1747  1  0.073100  0.782400  0.968100  1
  F  F1748  1  0.426900  0.217600  0.468100  1
  F  F1749  1  0.932000  0.288900  0.052900  1
  F  F1750  1  0.568000  0.711100  0.552900  1
  F  F1751  1  0.068000  0.711100  0.947100  1
  F  F1752  1  0.432000  0.288900  0.447100  1
  F  F1753  1  0.852300  0.301300  0.041800  1
  F  F1754  1  0.647700  0.698700  0.541800  1
  F  F1755  1  0.147700  0.698700  0.958200  1
  F  F1756  1  0.352300  0.301300  0.458200  1
  F  F1757  1  0.842400  0.231100  0.020400  1
  F  F1758  1  0.657600  0.768900  0.520400  1
  F  F1759  1  0.157600  0.768900  0.979600  1
  F  F1760  1  0.342400  0.231100  0.479600  1
  F  F1761  1  0.869700  0.237600  0.068600  1
  F  F1762  1  0.630300  0.762400  0.568600  1
  F  F1763  1  0.130300  0.762400  0.931400  1
  F  F1764  1  0.369700  0.237600  0.431400  1
  F  F1765  1  0.905300  0.277800  0.004000  1
  F  F1766  1  0.594700  0.722200  0.504000  1
  F  F1767  1  0.094700  0.722200  0.996000  1
  F  F1768  1  0.405300  0.277800  0.496000  1
  F  F1769  1  0.717400  0.880200  0.896000  1
  F  F1770  1  0.782600  0.119800  0.396000  1
  F  F1771  1  0.282600  0.119800  0.104000  1
  F  F1772  1  0.217400  0.880200  0.604000  1
  F  F1773  1  0.696800  0.956000  0.894200  1
  F  F1774  1  0.803200  0.044000  0.394200  1
  F  F1775  1  0.303200  0.044000  0.105800  1
  F  F1776  1  0.196800  0.956000  0.605800  1
  F  F1777  1  0.616900  0.937800  0.908700  1
  F  F1778  1  0.883100  0.062200  0.408700  1
  F  F1779  1  0.383100  0.062200  0.091300  1
  F  F1780  1  0.116900  0.937800  0.591300  1
  F  F1781  1  0.638000  0.861200  0.911300  1
  F  F1782  1  0.862000  0.138800  0.411300  1
  F  F1783  1  0.362000  0.138800  0.088700  1
  F  F1784  1  0.138000  0.861200  0.588700  1
  F  F1785  1  0.648300  0.901700  0.868600  1
  F  F1786  1  0.851700  0.098300  0.368600  1
  F  F1787  1  0.351700  0.098300  0.131400  1
  F  F1788  1  0.148300  0.901700  0.631400  1
  F  F1789  1  0.685700  0.914800  0.937500  1
  F  F1790  1  0.814300  0.085200  0.437500  1
  F  F1791  1  0.314300  0.085200  0.062500  1
  F  F1792  1  0.185700  0.914800  0.562500  1
  F  F1793  1  0.973000  0.476500  0.055600  1
  F  F1794  1  0.527000  0.523500  0.555600  1
  F  F1795  1  0.027000  0.523500  0.944400  1
  F  F1796  1  0.473000  0.476500  0.444400  1
  F  F1797  1  0.988500  0.549700  0.073400  1
  F  F1798  1  0.511500  0.450300  0.573400  1
  F  F1799  1  0.011500  0.450300  0.926600  1
  F  F1800  1  0.488500  0.549700  0.426600  1
  F  F1801  1  0.067800  0.527300  0.087400  1
  F  F1802  1  0.432200  0.472700  0.587400  1
  F  F1803  1  0.932200  0.472700  0.912600  1
  F  F1804  1  0.567800  0.527300  0.412600  1
  F  F1805  1  0.044700  0.453000  0.070700  1
  F  F1806  1  0.455300  0.547000  0.570700  1
  F  F1807  1  0.955300  0.547000  0.929300  1
  F  F1808  1  0.544700  0.453000  0.429300  1
  F  F1809  1  0.996700  0.489600  0.105000  1
  F  F1810  1  0.503300  0.510400  0.605000  1
  F  F1811  1  0.003300  0.510400  0.895000  1
  F  F1812  1  0.496700  0.489600  0.395000  1
  F  F1813  1  0.042500  0.516800  0.040800  1
  F  F1814  1  0.457500  0.483200  0.540800  1
  F  F1815  1  0.957500  0.483200  0.959200  1
  F  F1816  1  0.542500  0.516800  0.459200  1
  F  F1817  1  0.678200  0.198900  0.352000  1
  F  F1818  1  0.821800  0.801100  0.852000  1
  F  F1819  1  0.321800  0.801100  0.648000  1
  F  F1820  1  0.178200  0.198900  0.148000  1
  F  F1821  1  0.632300  0.132700  0.349900  1
  F  F1822  1  0.867700  0.867300  0.849900  1
  F  F1823  1  0.367700  0.867300  0.650100  1
  F  F1824  1  0.132300  0.132700  0.150100  1
  F  F1825  1  0.649500  0.173000  0.311900  1
  F  F1826  1  0.850500  0.827000  0.811900  1
  F  F1827  1  0.350500  0.827000  0.688100  1
  F  F1828  1  0.149500  0.173000  0.188100  1
  F  F1829  1  0.551500  0.300000  0.390600  1
  F  F1830  1  0.948500  0.700000  0.890600  1
  F  F1831  1  0.448500  0.700000  0.609400  1
  F  F1832  1  0.051500  0.300000  0.109400  1
  F  F1833  1  0.580300  0.368700  0.378800  1
  F  F1834  1  0.919700  0.631300  0.878800  1
  F  F1835  1  0.419700  0.631300  0.621200  1
  F  F1836  1  0.080300  0.368700  0.121200  1
  F  F1837  1  0.523700  0.333100  0.351900  1
  F  F1838  1  0.976300  0.666900  0.851900  1
  F  F1839  1  0.476300  0.666900  0.648100  1
  F  F1840  1  0.023700  0.333100  0.148100  1
