# generated using pymatgen
data_K15Fe4H144C208N25O54
_symmetry_space_group_name_H-M   'P 1'
_cell_length_a   37.85137232
_cell_length_b   37.85137232
_cell_length_c   37.85137232
_cell_angle_alpha   109.47122063
_cell_angle_beta   109.47122063
_cell_angle_gamma   109.47122063
_symmetry_Int_Tables_number   1
_chemical_formula_structural   K15Fe4H144C208N25O54
_chemical_formula_sum   'K120 Fe32 H1152 C1664 N200 O432'
_cell_volume   41746.78145712
_cell_formula_units_Z   8
loop_
 _symmetry_equiv_pos_site_id
 _symmetry_equiv_pos_as_xyz
  1  'x, y, z'
loop_
 _atom_site_type_symbol
 _atom_site_label
 _atom_site_symmetry_multiplicity
 _atom_site_fract_x
 _atom_site_fract_y
 _atom_site_fract_z
 _atom_site_occupancy
  C  C1  1  0.922400  0.674800  0.685600  1
  C  C2  1  0.577600  0.763200  0.252400  1
  C  C3  1  0.510800  0.825200  0.247600  1
  C  C4  1  0.989200  0.736800  0.814400  1
  C  C5  1  0.674800  0.685600  0.922400  1
  C  C6  1  0.763200  0.252400  0.577600  1
  C  C7  1  0.825200  0.247600  0.510800  1
  C  C8  1  0.736800  0.814400  0.989200  1
  C  C9  1  0.685600  0.922400  0.674800  1
  C  C10  1  0.252400  0.577600  0.763200  1
  C  C11  1  0.247600  0.510800  0.825200  1
  C  C12  1  0.814400  0.989200  0.736800  1
  C  C13  1  0.422400  0.185600  0.174800  1
  C  C14  1  0.077600  0.752400  0.263200  1
  C  C15  1  0.010800  0.747600  0.325200  1
  C  C16  1  0.489200  0.314400  0.236800  1
  C  C17  1  0.174800  0.422400  0.185600  1
  C  C18  1  0.263200  0.077600  0.752400  1
  C  C19  1  0.325200  0.010800  0.747600  1
  C  C20  1  0.236800  0.489200  0.314400  1
  C  C21  1  0.185600  0.174800  0.422400  1
  C  C22  1  0.752400  0.263200  0.077600  1
  C  C23  1  0.747600  0.325200  0.010800  1
  C  C24  1  0.314400  0.236800  0.489200  1
  C  C25  1  0.958900  0.012700  0.739400  1
  C  C26  1  0.541100  0.780500  0.553800  1
  C  C27  1  0.226700  0.487300  0.946200  1
  C  C28  1  0.273300  0.719500  0.760600  1
  C  C29  1  0.012700  0.739400  0.958900  1
  C  C30  1  0.780500  0.553800  0.541100  1
  C  C31  1  0.487300  0.946200  0.226700  1
  C  C32  1  0.719500  0.760600  0.273300  1
  C  C33  1  0.739400  0.958900  0.012700  1
  C  C34  1  0.553800  0.541100  0.780500  1
  C  C35  1  0.946200  0.226700  0.487300  1
  C  C36  1  0.760600  0.273300  0.719500  1
  C  C37  1  0.458900  0.239400  0.512700  1
  C  C38  1  0.041100  0.053800  0.280500  1
  C  C39  1  0.726700  0.446200  0.987300  1
  C  C40  1  0.773300  0.260600  0.219500  1
  C  C41  1  0.512700  0.458900  0.239400  1
  C  C42  1  0.280500  0.041100  0.053800  1
  C  C43  1  0.987300  0.726700  0.446200  1
  C  C44  1  0.219500  0.773300  0.260600  1
  C  C45  1  0.239400  0.512700  0.458900  1
  C  C46  1  0.053800  0.280500  0.041100  1
  C  C47  1  0.446200  0.987300  0.726700  1
  C  C48  1  0.260600  0.219500  0.773300  1
  C  C49  1  0.011100  0.023200  0.714900  1
  C  C50  1  0.488900  0.703800  0.512100  1
  C  C51  1  0.191700  0.476800  0.987900  1
  C  C52  1  0.308300  0.796200  0.785100  1
  C  C53  1  0.023200  0.714900  0.011100  1
  C  C54  1  0.703800  0.512100  0.488900  1
  C  C55  1  0.476800  0.987900  0.191700  1
  C  C56  1  0.796200  0.785100  0.308300  1
  C  C57  1  0.714900  0.011100  0.023200  1
  C  C58  1  0.512100  0.488900  0.703800  1
  C  C59  1  0.987900  0.191700  0.476800  1
  C  C60  1  0.785100  0.308300  0.796200  1
  C  C61  1  0.511100  0.214900  0.523200  1
  C  C62  1  0.988900  0.012100  0.203800  1
  C  C63  1  0.691700  0.487900  0.976800  1
  C  C64  1  0.808300  0.285100  0.296200  1
  C  C65  1  0.523200  0.511100  0.214900  1
  C  C66  1  0.203800  0.988900  0.012100  1
  C  C67  1  0.976800  0.691700  0.487900  1
  C  C68  1  0.296200  0.808300  0.285100  1
  C  C69  1  0.214900  0.523200  0.511100  1
  C  C70  1  0.012100  0.203800  0.988900  1
  C  C71  1  0.487900  0.976800  0.691700  1
  C  C72  1  0.285100  0.296200  0.808300  1
  C  C73  1  0.947500  0.030300  0.680000  1
  C  C74  1  0.552500  0.732500  0.582800  1
  C  C75  1  0.149700  0.469700  0.917200  1
  C  C76  1  0.350300  0.767500  0.820000  1
  C  C77  1  0.030300  0.680000  0.947500  1
  C  C78  1  0.732500  0.582800  0.552500  1
  C  C79  1  0.469700  0.917200  0.149700  1
  C  C80  1  0.767500  0.820000  0.350300  1
  C  C81  1  0.680000  0.947500  0.030300  1
  C  C82  1  0.582800  0.552500  0.732500  1
  C  C83  1  0.917200  0.149700  0.469700  1
  C  C84  1  0.820000  0.350300  0.767500  1
  C  C85  1  0.447500  0.180000  0.530300  1
  C  C86  1  0.052500  0.082800  0.232500  1
  C  C87  1  0.649700  0.417200  0.969700  1
  C  C88  1  0.850300  0.320000  0.267500  1
  C  C89  1  0.530300  0.447500  0.180000  1
  C  C90  1  0.232500  0.052500  0.082800  1
  C  C91  1  0.969700  0.649700  0.417200  1
  C  C92  1  0.267500  0.850300  0.320000  1
  C  C93  1  0.180000  0.530300  0.447500  1
  C  C94  1  0.082800  0.232500  0.052500  1
  C  C95  1  0.417200  0.969700  0.649700  1
  C  C96  1  0.320000  0.267500  0.850300  1
  C  C97  1  0.934100  0.957500  0.665200  1
  C  C98  1  0.565900  0.731100  0.523400  1
  C  C99  1  0.207700  0.542500  0.976600  1
  C  C100  1  0.292300  0.768900  0.834800  1
  C  C101  1  0.957500  0.665200  0.934100  1
  C  C102  1  0.731100  0.523400  0.565900  1
  C  C103  1  0.542500  0.976600  0.207700  1
  C  C104  1  0.768900  0.834800  0.292300  1
  C  C105  1  0.665200  0.934100  0.957500  1
  C  C106  1  0.523400  0.565900  0.731100  1
  C  C107  1  0.976600  0.207700  0.542500  1
  C  C108  1  0.834800  0.292300  0.768900  1
  C  C109  1  0.434100  0.165200  0.457500  1
  C  C110  1  0.065900  0.023400  0.231100  1
  C  C111  1  0.707700  0.476600  0.042500  1
  C  C112  1  0.792300  0.334800  0.268900  1
  C  C113  1  0.457500  0.434100  0.165200  1
  C  C114  1  0.231100  0.065900  0.023400  1
  C  C115  1  0.042500  0.707700  0.476600  1
  C  C116  1  0.268900  0.792300  0.334800  1
  C  C117  1  0.165200  0.457500  0.434100  1
  C  C118  1  0.023400  0.231100  0.065900  1
  C  C119  1  0.476600  0.042500  0.707700  1
  C  C120  1  0.334800  0.268900  0.792300  1
  C  C121  1  0.913800  0.997400  0.731800  1
  C  C122  1  0.586200  0.818000  0.583600  1
  C  C123  1  0.234400  0.502600  0.916400  1
  C  C124  1  0.265600  0.682000  0.768200  1
  C  C125  1  0.997400  0.731800  0.913800  1
  C  C126  1  0.818000  0.583600  0.586200  1
  C  C127  1  0.502600  0.916400  0.234400  1
  C  C128  1  0.682000  0.768200  0.265600  1
  C  C129  1  0.731800  0.913800  0.997400  1
  C  C130  1  0.583600  0.586200  0.818000  1
  C  C131  1  0.916400  0.234400  0.502600  1
  C  C132  1  0.768200  0.265600  0.682000  1
  C  C133  1  0.413800  0.231800  0.497400  1
  C  C134  1  0.086200  0.083600  0.318000  1
  C  C135  1  0.734400  0.416400  0.002600  1
  C  C136  1  0.765600  0.268200  0.182000  1
  C  C137  1  0.497400  0.413800  0.231800  1
  C  C138  1  0.318000  0.086200  0.083600  1
  C  C139  1  0.002600  0.734400  0.416400  1
  C  C140  1  0.182000  0.765600  0.268200  1
  C  C141  1  0.231800  0.497400  0.413800  1
  C  C142  1  0.083600  0.318000  0.086200  1
  C  C143  1  0.416400  0.002600  0.734400  1
  C  C144  1  0.268200  0.182000  0.765600  1
  C  C145  1  0.041100  0.070000  0.740300  1
  C  C146  1  0.458900  0.699200  0.528900  1
  C  C147  1  0.170300  0.430000  0.971100  1
  C  C148  1  0.329700  0.800800  0.759700  1
  C  C149  1  0.070000  0.740300  0.041100  1
  C  C150  1  0.699200  0.528900  0.458900  1
  C  C151  1  0.430000  0.971100  0.170300  1
  C  C152  1  0.800800  0.759700  0.329700  1
  C  C153  1  0.740300  0.041100  0.070000  1
  C  C154  1  0.528900  0.458900  0.699200  1
  C  C155  1  0.971100  0.170300  0.430000  1
  C  C156  1  0.759700  0.329700  0.800800  1
  C  C157  1  0.541100  0.240300  0.570000  1
  C  C158  1  0.958900  0.028900  0.199200  1
  C  C159  1  0.670300  0.471100  0.930000  1
  C  C160  1  0.829700  0.259700  0.300800  1
  C  C161  1  0.570000  0.541100  0.240300  1
  C  C162  1  0.199200  0.958900  0.028900  1
  C  C163  1  0.930000  0.670300  0.471100  1
  C  C164  1  0.300800  0.829700  0.259700  1
  C  C165  1  0.240300  0.570000  0.541100  1
  C  C166  1  0.028900  0.199200  0.958900  1
  C  C167  1  0.471100  0.930000  0.670300  1
  C  C168  1  0.259700  0.300800  0.829700  1
  C  C169  1  0.952600  0.029200  0.641400  1
  C  C170  1  0.547400  0.688800  0.576600  1
  C  C171  1  0.112200  0.470800  0.923400  1
  C  C172  1  0.387800  0.811200  0.858600  1
  C  C173  1  0.029200  0.641400  0.952600  1
  C  C174  1  0.688800  0.576600  0.547400  1
  C  C175  1  0.470800  0.923400  0.112200  1
  C  C176  1  0.811200  0.858600  0.387800  1
  C  C177  1  0.641400  0.952600  0.029200  1
  C  C178  1  0.576600  0.547400  0.688800  1
  C  C179  1  0.923400  0.112200  0.470800  1
  C  C180  1  0.858600  0.387800  0.811200  1
  C  C181  1  0.452600  0.141400  0.529200  1
  C  C182  1  0.047400  0.076600  0.188800  1
  C  C183  1  0.612200  0.423400  0.970800  1
  C  C184  1  0.887800  0.358600  0.311200  1
  C  C185  1  0.529200  0.452600  0.141400  1
  C  C186  1  0.188800  0.047400  0.076600  1
  C  C187  1  0.970800  0.612200  0.423400  1
  C  C188  1  0.311200  0.887800  0.358600  1
  C  C189  1  0.141400  0.529200  0.452600  1
  C  C190  1  0.076600  0.188800  0.047400  1
  C  C191  1  0.423400  0.970800  0.612200  1
  C  C192  1  0.358600  0.311200  0.887800  1
  C  C193  1  0.947700  0.928200  0.681500  1
  C  C194  1  0.552300  0.733800  0.480500  1
  C  C195  1  0.253300  0.571800  0.019500  1
  C  C196  1  0.246700  0.766200  0.818500  1
  C  C197  1  0.928200  0.681500  0.947700  1
  C  C198  1  0.733800  0.480500  0.552300  1
  C  C199  1  0.571800  0.019500  0.253300  1
  C  C200  1  0.766200  0.818500  0.246700  1
  C  C201  1  0.681500  0.947700  0.928200  1
  C  C202  1  0.480500  0.552300  0.733800  1
  C  C203  1  0.019500  0.253300  0.571800  1
  C  C204  1  0.818500  0.246700  0.766200  1
  C  C205  1  0.447700  0.181500  0.428200  1
  C  C206  1  0.052300  0.980500  0.233800  1
  C  C207  1  0.753300  0.519500  0.071800  1
  C  C208  1  0.746700  0.318500  0.266200  1
  C  C209  1  0.428200  0.447700  0.181500  1
  C  C210  1  0.233800  0.052300  0.980500  1
  C  C211  1  0.071800  0.753300  0.519500  1
  C  C212  1  0.266200  0.746700  0.318500  1
  C  C213  1  0.181500  0.428200  0.447700  1
  C  C214  1  0.980500  0.233800  0.052300  1
  C  C215  1  0.519500  0.071800  0.753300  1
  C  C216  1  0.318500  0.266200  0.746700  1
  C  C217  1  0.885100  0.893900  0.869200  1
  C  C218  1  0.614900  0.984100  0.508800  1
  C  C219  1  0.475300  0.606100  0.991200  1
  C  C220  1  0.024700  0.515900  0.630800  1
  C  C221  1  0.893900  0.869200  0.885100  1
  C  C222  1  0.984100  0.508800  0.614900  1
  C  C223  1  0.606100  0.991200  0.475300  1
  C  C224  1  0.515900  0.630800  0.024700  1
  C  C225  1  0.869200  0.885100  0.893900  1
  C  C226  1  0.508800  0.614900  0.984100  1
  C  C227  1  0.991200  0.475300  0.606100  1
  C  C228  1  0.630800  0.024700  0.515900  1
  C  C229  1  0.385100  0.369200  0.393900  1
  C  C230  1  0.114900  0.008800  0.484100  1
  C  C231  1  0.975300  0.491200  0.106100  1
  C  C232  1  0.524700  0.130800  0.015900  1
  C  C233  1  0.393900  0.385100  0.369200  1
  C  C234  1  0.484100  0.114900  0.008800  1
  C  C235  1  0.106100  0.975300  0.491200  1
  C  C236  1  0.015900  0.524700  0.130800  1
  C  C237  1  0.369200  0.393900  0.385100  1
  C  C238  1  0.008800  0.484100  0.114900  1
  C  C239  1  0.491200  0.106100  0.975300  1
  C  C240  1  0.130800  0.015900  0.524700  1
  C  C241  1  0.910500  0.900600  0.945300  1
  C  C242  1  0.589500  0.034800  0.490100  1
  C  C243  1  0.544700  0.599400  0.009900  1
  C  C244  1  0.955300  0.465200  0.554700  1
  C  C245  1  0.900600  0.945300  0.910500  1
  C  C246  1  0.034800  0.490100  0.589500  1
  C  C247  1  0.599400  0.009900  0.544700  1
  C  C248  1  0.465200  0.554700  0.955300  1
  C  C249  1  0.945300  0.910500  0.900600  1
  C  C250  1  0.490100  0.589500  0.034800  1
  C  C251  1  0.009900  0.544700  0.599400  1
  C  C252  1  0.554700  0.955300  0.465200  1
  C  C253  1  0.410500  0.445300  0.400600  1
  C  C254  1  0.089500  0.990100  0.534800  1
  C  C255  1  0.044700  0.509900  0.099400  1
  C  C256  1  0.455300  0.054700  0.965200  1
  C  C257  1  0.400600  0.410500  0.445300  1
  C  C258  1  0.534800  0.089500  0.990100  1
  C  C259  1  0.099400  0.044700  0.509900  1
  C  C260  1  0.965200  0.455300  0.054700  1
  C  C261  1  0.445300  0.400600  0.410500  1
  C  C262  1  0.990100  0.534800  0.089500  1
  C  C263  1  0.509900  0.099400  0.044700  1
  C  C264  1  0.054700  0.965200  0.455300  1
  C  C265  1  0.848200  0.848200  0.848200  1
  C  C266  1  0.651800  0.000000  0.500000  1
  C  C267  1  0.500000  0.651800  0.000000  1
  C  C268  1  0.000000  0.500000  0.651800  1
  C  C269  1  0.348200  0.348200  0.348200  1
  C  C270  1  0.151800  0.000000  0.500000  1
  C  C271  1  0.000000  0.500000  0.151800  1
  C  C272  1  0.500000  0.151800  1.000000  1
  C  C273  1  0.930900  0.886600  0.973500  1
  C  C274  1  0.569100  0.042600  0.455700  1
  C  C275  1  0.586900  0.613400  0.044300  1
  C  C276  1  0.913100  0.457400  0.526500  1
  C  C277  1  0.886600  0.973500  0.930900  1
  C  C278  1  0.042600  0.455700  0.569100  1
  C  C279  1  0.613400  0.044300  0.586900  1
  C  C280  1  0.457400  0.526500  0.913100  1
  C  C281  1  0.973500  0.930900  0.886600  1
  C  C282  1  0.455700  0.569100  0.042600  1
  C  C283  1  0.044300  0.586900  0.613400  1
  C  C284  1  0.526500  0.913100  0.457400  1
  C  C285  1  0.430900  0.473500  0.386600  1
  C  C286  1  0.069100  0.955700  0.542600  1
  C  C287  1  0.086900  0.544300  0.113400  1
  C  C288  1  0.413100  0.026500  0.957400  1
  C  C289  1  0.386600  0.430900  0.473500  1
  C  C290  1  0.542600  0.069100  0.955700  1
  C  C291  1  0.113400  0.086900  0.544300  1
  C  C292  1  0.957400  0.413100  0.026500  1
  C  C293  1  0.473500  0.386600  0.430900  1
  C  C294  1  0.955700  0.542600  0.069100  1
  C  C295  1  0.544300  0.113400  0.086900  1
  C  C296  1  0.026500  0.957400  0.413100  1
  C  C297  1  0.957400  0.911000  0.973200  1
  C  C298  1  0.542600  0.015800  0.453600  1
  C  C299  1  0.562200  0.589000  0.046400  1
  C  C300  1  0.937800  0.484200  0.526800  1
  C  C301  1  0.911000  0.973200  0.957400  1
  C  C302  1  0.015800  0.453600  0.542600  1
  C  C303  1  0.589000  0.046400  0.562200  1
  C  C304  1  0.484200  0.526800  0.937800  1
  C  C305  1  0.973200  0.957400  0.911000  1
  C  C306  1  0.453600  0.542600  0.015800  1
  C  C307  1  0.046400  0.562200  0.589000  1
  C  C308  1  0.526800  0.937800  0.484200  1
  C  C309  1  0.457400  0.473200  0.411000  1
  C  C310  1  0.042600  0.953600  0.515800  1
  C  C311  1  0.062200  0.546400  0.089000  1
  C  C312  1  0.437800  0.026800  0.984200  1
  C  C313  1  0.411000  0.457400  0.473200  1
  C  C314  1  0.515800  0.042600  0.953600  1
  C  C315  1  0.089000  0.062200  0.546400  1
  C  C316  1  0.984200  0.437800  0.026800  1
  C  C317  1  0.473200  0.411000  0.457400  1
  C  C318  1  0.953600  0.515800  0.042600  1
  C  C319  1  0.546400  0.089000  0.062200  1
  C  C320  1  0.026800  0.984200  0.437800  1
  C  C321  1  0.223600  0.168100  0.954500  1
  C  C322  1  0.276400  0.730900  0.444500  1
  C  C323  1  0.286400  0.331900  0.055500  1
  C  C324  1  0.213600  0.769100  0.545500  1
  C  C325  1  0.168100  0.954500  0.223600  1
  C  C326  1  0.730900  0.444500  0.276400  1
  C  C327  1  0.331900  0.055500  0.286400  1
  C  C328  1  0.769100  0.545500  0.213600  1
  C  C329  1  0.954500  0.223600  0.168100  1
  C  C330  1  0.444500  0.276400  0.730900  1
  C  C331  1  0.055500  0.286400  0.331900  1
  C  C332  1  0.545500  0.213600  0.769100  1
  C  C333  1  0.723600  0.454500  0.668100  1
  C  C334  1  0.776400  0.944500  0.230900  1
  C  C335  1  0.786400  0.555500  0.831900  1
  C  C336  1  0.713600  0.045500  0.269100  1
  C  C337  1  0.668100  0.723600  0.454500  1
  C  C338  1  0.230900  0.776400  0.944500  1
  C  C339  1  0.831900  0.786400  0.555500  1
  C  C340  1  0.269100  0.713600  0.045500  1
  C  C341  1  0.454500  0.668100  0.723600  1
  C  C342  1  0.944500  0.230900  0.776400  1
  C  C343  1  0.555500  0.831900  0.786400  1
  C  C344  1  0.045500  0.269100  0.713600  1
  C  C345  1  0.187200  0.127700  0.943900  1
  C  C346  1  0.312800  0.756700  0.440500  1
  C  C347  1  0.316200  0.372300  0.059500  1
  C  C348  1  0.183800  0.743300  0.556100  1
  C  C349  1  0.127700  0.943900  0.187200  1
  C  C350  1  0.756700  0.440500  0.312800  1
  C  C351  1  0.372300  0.059500  0.316200  1
  C  C352  1  0.743300  0.556100  0.183800  1
  C  C353  1  0.943900  0.187200  0.127700  1
  C  C354  1  0.440500  0.312800  0.756700  1
  C  C355  1  0.059500  0.316200  0.372300  1
  C  C356  1  0.556100  0.183800  0.743300  1
  C  C357  1  0.687200  0.443900  0.627700  1
  C  C358  1  0.812800  0.940500  0.256700  1
  C  C359  1  0.816200  0.559500  0.872300  1
  C  C360  1  0.683800  0.056100  0.243300  1
  C  C361  1  0.627700  0.687200  0.443900  1
  C  C362  1  0.256700  0.812800  0.940500  1
  C  C363  1  0.872300  0.816200  0.559500  1
  C  C364  1  0.243300  0.683800  0.056100  1
  C  C365  1  0.443900  0.627700  0.687200  1
  C  C366  1  0.940500  0.256700  0.812800  1
  C  C367  1  0.559500  0.872300  0.816200  1
  C  C368  1  0.056100  0.243300  0.683800  1
  C  C369  1  0.165800  0.177700  0.897900  1
  C  C370  1  0.334200  0.732100  0.511900  1
  C  C371  1  0.220200  0.322300  0.988100  1
  C  C372  1  0.279800  0.767900  0.602100  1
  C  C373  1  0.177700  0.897900  0.165800  1
  C  C374  1  0.732100  0.511900  0.334200  1
  C  C375  1  0.322300  0.988100  0.220200  1
  C  C376  1  0.767900  0.602100  0.279800  1
  C  C377  1  0.897900  0.165800  0.177700  1
  C  C378  1  0.511900  0.334200  0.732100  1
  C  C379  1  0.988100  0.220200  0.322300  1
  C  C380  1  0.602100  0.279800  0.767900  1
  C  C381  1  0.665800  0.397900  0.677700  1
  C  C382  1  0.834200  0.011900  0.232100  1
  C  C383  1  0.720200  0.488100  0.822300  1
  C  C384  1  0.779800  0.102100  0.267900  1
  C  C385  1  0.677700  0.665800  0.397900  1
  C  C386  1  0.232100  0.834200  0.011900  1
  C  C387  1  0.822300  0.720200  0.488100  1
  C  C388  1  0.267900  0.779800  0.102100  1
  C  C389  1  0.397900  0.677700  0.665800  1
  C  C390  1  0.011900  0.232100  0.834200  1
  C  C391  1  0.488100  0.822300  0.720200  1
  C  C392  1  0.102100  0.267900  0.779800  1
  C  C393  1  0.963900  0.828100  0.683400  1
  C  C394  1  0.536100  0.719500  0.364200  1
  C  C395  1  0.355300  0.671900  0.135800  1
  C  C396  1  0.144700  0.780500  0.816600  1
  C  C397  1  0.828100  0.683400  0.963900  1
  C  C398  1  0.719500  0.364200  0.536100  1
  C  C399  1  0.671900  0.135800  0.355300  1
  C  C400  1  0.780500  0.816600  0.144700  1
  C  C401  1  0.683400  0.963900  0.828100  1
  C  C402  1  0.364200  0.536100  0.719500  1
  C  C403  1  0.135800  0.355300  0.671900  1
  C  C404  1  0.816600  0.144700  0.780500  1
  C  C405  1  0.463900  0.183400  0.328100  1
  C  C406  1  0.036100  0.864200  0.219500  1
  C  C407  1  0.855300  0.635800  0.171900  1
  C  C408  1  0.644700  0.316600  0.280500  1
  C  C409  1  0.328100  0.463900  0.183400  1
  C  C410  1  0.219500  0.036100  0.864200  1
  C  C411  1  0.171900  0.855300  0.635800  1
  C  C412  1  0.280500  0.644700  0.316600  1
  C  C413  1  0.183400  0.328100  0.463900  1
  C  C414  1  0.864200  0.219500  0.036100  1
  C  C415  1  0.635800  0.171900  0.855300  1
  C  C416  1  0.316600  0.280500  0.644700  1
  C  C417  1  0.001100  0.862400  0.689300  1
  C  C418  1  0.498900  0.688200  0.361300  1
  C  C419  1  0.326900  0.637600  0.138700  1
  C  C420  1  0.173100  0.811800  0.810700  1
  C  C421  1  0.862400  0.689300  0.001100  1
  C  C422  1  0.688200  0.361300  0.498900  1
  C  C423  1  0.637600  0.138700  0.326900  1
  C  C424  1  0.811800  0.810700  0.173100  1
  C  C425  1  0.689300  0.001100  0.862400  1
  C  C426  1  0.361300  0.498900  0.688200  1
  C  C427  1  0.138700  0.326900  0.637600  1
  C  C428  1  0.810700  0.173100  0.811800  1
  C  C429  1  0.501100  0.189300  0.362400  1
  C  C430  1  0.998900  0.861300  0.188200  1
  C  C431  1  0.826900  0.638700  0.137600  1
  C  C432  1  0.673100  0.310700  0.311800  1
  C  C433  1  0.362400  0.501100  0.189300  1
  C  C434  1  0.188200  0.998900  0.861300  1
  C  C435  1  0.137600  0.826900  0.638700  1
  C  C436  1  0.311800  0.673100  0.310700  1
  C  C437  1  0.189300  0.362400  0.501100  1
  C  C438  1  0.861300  0.188200  0.998900  1
  C  C439  1  0.638700  0.137600  0.826900  1
  C  C440  1  0.310700  0.311800  0.673100  1
  C  C441  1  0.793000  0.645500  0.742100  1
  C  C442  1  0.707000  0.949100  0.352500  1
  C  C443  1  0.596600  0.854500  0.147500  1
  C  C444  1  0.903400  0.550900  0.757900  1
  C  C445  1  0.645500  0.742100  0.793000  1
  C  C446  1  0.949100  0.352500  0.707000  1
  C  C447  1  0.854500  0.147500  0.596600  1
  C  C448  1  0.550900  0.757900  0.903400  1
  C  C449  1  0.742100  0.793000  0.645500  1
  C  C450  1  0.352500  0.707000  0.949100  1
  C  C451  1  0.147500  0.596600  0.854500  1
  C  C452  1  0.757900  0.903400  0.550900  1
  C  C453  1  0.293000  0.242100  0.145500  1
  C  C454  1  0.207000  0.852500  0.449100  1
  C  C455  1  0.096600  0.647500  0.354500  1
  C  C456  1  0.403400  0.257900  0.050900  1
  C  C457  1  0.145500  0.293000  0.242100  1
  C  C458  1  0.449100  0.207000  0.852500  1
  C  C459  1  0.354500  0.096600  0.647500  1
  C  C460  1  0.050900  0.403400  0.257900  1
  C  C461  1  0.242100  0.145500  0.293000  1
  C  C462  1  0.852500  0.449100  0.207000  1
  C  C463  1  0.647500  0.354500  0.096600  1
  C  C464  1  0.257900  0.050900  0.403400  1
  C  C465  1  0.829300  0.631800  0.702700  1
  C  C466  1  0.670700  0.873400  0.302500  1
  C  C467  1  0.570900  0.868200  0.197500  1
  C  C468  1  0.929100  0.626600  0.797300  1
  C  C469  1  0.631800  0.702700  0.829300  1
  C  C470  1  0.873400  0.302500  0.670700  1
  C  C471  1  0.868200  0.197500  0.570900  1
  C  C472  1  0.626600  0.797300  0.929100  1
  C  C473  1  0.702700  0.829300  0.631800  1
  C  C474  1  0.302500  0.670700  0.873400  1
  C  C475  1  0.197500  0.570900  0.868200  1
  C  C476  1  0.797300  0.929100  0.626600  1
  C  C477  1  0.329300  0.202700  0.131800  1
  C  C478  1  0.170700  0.802500  0.373400  1
  C  C479  1  0.070900  0.697500  0.368200  1
  C  C480  1  0.429100  0.297300  0.126600  1
  C  C481  1  0.131800  0.329300  0.202700  1
  C  C482  1  0.373400  0.170700  0.802500  1
  C  C483  1  0.368200  0.070900  0.697500  1
  C  C484  1  0.126600  0.429100  0.297300  1
  C  C485  1  0.202700  0.131800  0.329300  1
  C  C486  1  0.802500  0.373400  0.170700  1
  C  C487  1  0.697500  0.368200  0.070900  1
  C  C488  1  0.297300  0.126600  0.429100  1
  C  C489  1  0.757600  0.594600  0.657800  1
  C  C490  1  0.742400  0.900200  0.337000  1
  C  C491  1  0.563200  0.905400  0.163000  1
  C  C492  1  0.936800  0.599800  0.842200  1
  C  C493  1  0.594600  0.657800  0.757600  1
  C  C494  1  0.900200  0.337000  0.742400  1
  C  C495  1  0.905400  0.163000  0.563200  1
  C  C496  1  0.599800  0.842200  0.936800  1
  C  C497  1  0.657800  0.757600  0.594600  1
  C  C498  1  0.337000  0.742400  0.900200  1
  C  C499  1  0.163000  0.563200  0.905400  1
  C  C500  1  0.842200  0.936800  0.599800  1
  C  C501  1  0.257600  0.157800  0.094600  1
  C  C502  1  0.242400  0.837000  0.400200  1
  C  C503  1  0.063200  0.663000  0.405400  1
  C  C504  1  0.436800  0.342200  0.099800  1
  C  C505  1  0.094600  0.257600  0.157800  1
  C  C506  1  0.400200  0.242400  0.837000  1
  C  C507  1  0.405400  0.063200  0.663000  1
  C  C508  1  0.099800  0.436800  0.342200  1
  C  C509  1  0.157800  0.094600  0.257600  1
  C  C510  1  0.837000  0.400200  0.242400  1
  C  C511  1  0.663000  0.405400  0.063200  1
  C  C512  1  0.342200  0.099800  0.436800  1
  C  C513  1  0.101000  0.841500  0.963700  1.0
  C  C514  1  0.399000  0.862700  0.240500  1.0
  C  C515  1  0.622200  0.658500  0.259500  1.0
  C  C516  1  0.877800  0.637300  0.536300  1.0
  C  C517  1  0.841500  0.963700  0.101000  1.0
  C  C518  1  0.862700  0.240500  0.399000  1.0
  C  C519  1  0.658500  0.259500  0.622200  1.0
  C  C520  1  0.637300  0.536300  0.877800  1.0
  C  C521  1  0.963700  0.101000  0.841500  1.0
  C  C522  1  0.240500  0.399000  0.862700  1.0
  C  C523  1  0.259500  0.622200  0.658500  1.0
  C  C524  1  0.536300  0.877800  0.637300  1.0
  C  C525  1  0.601000  0.463700  0.341500  1.0
  C  C526  1  0.899000  0.740500  0.362700  1.0
  C  C527  1  0.122200  0.759500  0.158500  1.0
  C  C528  1  0.377800  0.036300  0.137300  1.0
  C  C529  1  0.341500  0.601000  0.463700  1.0
  C  C530  1  0.362700  0.899000  0.740500  1.0
  C  C531  1  0.158500  0.122200  0.759500  1.0
  C  C532  1  0.137300  0.377800  0.036300  1.0
  C  C533  1  0.463700  0.341500  0.601000  1.0
  C  C534  1  0.740500  0.362700  0.899000  1.0
  C  C535  1  0.759500  0.158500  0.122200  1.0
  C  C536  1  0.036300  0.137300  0.377800  1.0
  C  C537  1  0.112300  0.816000  0.980500  1.0
  C  C538  1  0.387700  0.868200  0.203700  1.0
  C  C539  1  0.664500  0.684000  0.296300  1.0
  C  C540  1  0.835500  0.631800  0.519500  1.0
  C  C541  1  0.816000  0.980500  0.112300  1.0
  C  C542  1  0.868200  0.203700  0.387700  1.0
  C  C543  1  0.684000  0.296300  0.664500  1.0
  C  C544  1  0.631800  0.519500  0.835500  1.0
  C  C545  1  0.980500  0.112300  0.816000  1.0
  C  C546  1  0.203700  0.387700  0.868200  1.0
  C  C547  1  0.296300  0.664500  0.684000  1.0
  C  C548  1  0.519500  0.835500  0.631800  1.0
  C  C549  1  0.612300  0.480500  0.316000  1.0
  C  C550  1  0.887700  0.703700  0.368200  1.0
  C  C551  1  0.164500  0.796300  0.184000  1.0
  C  C552  1  0.335500  0.019500  0.131800  1.0
  C  C553  1  0.316000  0.612300  0.480500  1.0
  C  C554  1  0.368200  0.887700  0.703700  1.0
  C  C555  1  0.184000  0.164500  0.796300  1.0
  C  C556  1  0.131800  0.335500  0.019500  1.0
  C  C557  1  0.480500  0.316000  0.612300  1.0
  C  C558  1  0.703700  0.368200  0.887700  1.0
  C  C559  1  0.796300  0.184000  0.164500  1.0
  C  C560  1  0.019500  0.131800  0.335500  1.0
  C  C561  1  0.119700  0.785600  0.957700  1.0
  C  C562  1  0.380300  0.838000  0.165900  1.0
  C  C563  1  0.672100  0.714400  0.334100  1.0
  C  C564  1  0.827900  0.662000  0.542300  1.0
  C  C565  1  0.785600  0.957700  0.119700  1.0
  C  C566  1  0.838000  0.165900  0.380300  1.0
  C  C567  1  0.714400  0.334100  0.672100  1.0
  C  C568  1  0.662000  0.542300  0.827900  1.0
  C  C569  1  0.957700  0.119700  0.785600  1.0
  C  C570  1  0.165900  0.380300  0.838000  1.0
  C  C571  1  0.334100  0.672100  0.714400  1.0
  C  C572  1  0.542300  0.827900  0.662000  1.0
  C  C573  1  0.619700  0.457700  0.285600  1.0
  C  C574  1  0.880300  0.665900  0.338000  1.0
  C  C575  1  0.172100  0.834100  0.214400  1.0
  C  C576  1  0.327900  0.042300  0.162000  1.0
  C  C577  1  0.285600  0.619700  0.457700  1.0
  C  C578  1  0.338000  0.880300  0.665900  1.0
  C  C579  1  0.214400  0.172100  0.834100  1.0
  C  C580  1  0.162000  0.327900  0.042300  1.0
  C  C581  1  0.457700  0.285600  0.619700  1.0
  C  C582  1  0.665900  0.338000  0.880300  1.0
  C  C583  1  0.834100  0.214400  0.172100  1.0
  C  C584  1  0.042300  0.162000  0.327900  1.0
  C  C585  1  0.114800  0.778400  0.918000  1.0
  C  C586  1  0.385200  0.803200  0.163600  1.0
  C  C587  1  0.639600  0.721600  0.336400  1.0
  C  C588  1  0.860400  0.696800  0.582000  1.0
  C  C589  1  0.778400  0.918000  0.114800  1.0
  C  C590  1  0.803200  0.163600  0.385200  1.0
  C  C591  1  0.721600  0.336400  0.639600  1.0
  C  C592  1  0.696800  0.582000  0.860400  1.0
  C  C593  1  0.918000  0.114800  0.778400  1.0
  C  C594  1  0.163600  0.385200  0.803200  1.0
  C  C595  1  0.336400  0.639600  0.721600  1.0
  C  C596  1  0.582000  0.860400  0.696800  1.0
  C  C597  1  0.614800  0.418000  0.278400  1.0
  C  C598  1  0.885200  0.663600  0.303200  1.0
  C  C599  1  0.139600  0.836400  0.221600  1.0
  C  C600  1  0.360400  0.082000  0.196800  1.0
  C  C601  1  0.278400  0.614800  0.418000  1.0
  C  C602  1  0.303200  0.885200  0.663600  1.0
  C  C603  1  0.221600  0.139600  0.836400  1.0
  C  C604  1  0.196800  0.360400  0.082000  1.0
  C  C605  1  0.418000  0.278400  0.614800  1.0
  C  C606  1  0.663600  0.303200  0.885200  1.0
  C  C607  1  0.836400  0.221600  0.139600  1.0
  C  C608  1  0.082000  0.196800  0.360400  1.0
  C  C609  1  0.103500  0.800400  0.900700  1.0
  C  C610  1  0.396500  0.797200  0.196900  1.0
  C  C611  1  0.600300  0.699600  0.303100  1.0
  C  C612  1  0.899700  0.702800  0.599300  1.0
  C  C613  1  0.800400  0.900700  0.103500  1.0
  C  C614  1  0.797200  0.196900  0.396500  1.0
  C  C615  1  0.699600  0.303100  0.600300  1.0
  C  C616  1  0.702800  0.599300  0.899700  1.0
  C  C617  1  0.900700  0.103500  0.800400  1.0
  C  C618  1  0.196900  0.396500  0.797200  1.0
  C  C619  1  0.303100  0.600300  0.699600  1.0
  C  C620  1  0.599300  0.899700  0.702800  1.0
  C  C621  1  0.603500  0.400700  0.300400  1.0
  C  C622  1  0.896500  0.696900  0.297200  1.0
  C  C623  1  0.100300  0.803100  0.199600  1.0
  C  C624  1  0.399700  0.099300  0.202800  1.0
  C  C625  1  0.300400  0.603500  0.400700  1.0
  C  C626  1  0.297200  0.896500  0.696900  1.0
  C  C627  1  0.199600  0.100300  0.803100  1.0
  C  C628  1  0.202800  0.399700  0.099300  1.0
  C  C629  1  0.400700  0.300400  0.603500  1.0
  C  C630  1  0.696900  0.297200  0.896500  1.0
  C  C631  1  0.803100  0.199600  0.100300  1.0
  C  C632  1  0.099300  0.202800  0.399700  1.0
  C  C633  1  0.096000  0.833600  0.922600  1.0
  C  C634  1  0.404000  0.826600  0.237600  1.0
  C  C635  1  0.589000  0.666400  0.262400  1.0
  C  C636  1  0.911000  0.673400  0.577400  1.0
  C  C637  1  0.833600  0.922600  0.096000  1.0
  C  C638  1  0.826600  0.237600  0.404000  1.0
  C  C639  1  0.666400  0.262400  0.589000  1.0
  C  C640  1  0.673400  0.577400  0.911000  1.0
  C  C641  1  0.922600  0.096000  0.833600  1.0
  C  C642  1  0.237600  0.404000  0.826600  1.0
  C  C643  1  0.262400  0.589000  0.666400  1.0
  C  C644  1  0.577400  0.911000  0.673400  1.0
  C  C645  1  0.596000  0.422600  0.333600  1.0
  C  C646  1  0.904000  0.737600  0.326600  1.0
  C  C647  1  0.089000  0.762400  0.166400  1.0
  C  C648  1  0.411000  0.077400  0.173400  1.0
  C  C649  1  0.333600  0.596000  0.422600  1.0
  C  C650  1  0.326600  0.904000  0.737600  1.0
  C  C651  1  0.166400  0.089000  0.762400  1.0
  C  C652  1  0.173400  0.411000  0.077400  1.0
  C  C653  1  0.422600  0.333600  0.596000  1.0
  C  C654  1  0.737600  0.326600  0.904000  1.0
  C  C655  1  0.762400  0.166400  0.089000  1.0
  C  C656  1  0.077400  0.173400  0.411000  1.0
  C  C657  1  0.087200  0.860400  0.904000  1.0
  C  C658  1  0.412800  0.816800  0.273200  1.0
  C  C659  1  0.543600  0.639600  0.226800  1.0
  C  C660  1  0.956400  0.683200  0.596000  1.0
  C  C661  1  0.860400  0.904000  0.087200  1.0
  C  C662  1  0.816800  0.273200  0.412800  1.0
  C  C663  1  0.639600  0.226800  0.543600  1.0
  C  C664  1  0.683200  0.596000  0.956400  1.0
  C  C665  1  0.904000  0.087200  0.860400  1.0
  C  C666  1  0.273200  0.412800  0.816800  1.0
  C  C667  1  0.226800  0.543600  0.639600  1.0
  C  C668  1  0.596000  0.956400  0.683200  1.0
  C  C669  1  0.587200  0.404000  0.360400  1.0
  C  C670  1  0.912800  0.773200  0.316800  1.0
  C  C671  1  0.043600  0.726800  0.139600  1.0
  C  C672  1  0.456400  0.096000  0.183200  1.0
  C  C673  1  0.360400  0.587200  0.404000  1.0
  C  C674  1  0.316800  0.912800  0.773200  1.0
  C  C675  1  0.139600  0.043600  0.726800  1.0
  C  C676  1  0.183200  0.456400  0.096000  1.0
  C  C677  1  0.404000  0.360400  0.587200  1.0
  C  C678  1  0.773200  0.316800  0.912800  1.0
  C  C679  1  0.726800  0.139600  0.043600  1.0
  C  C680  1  0.096000  0.183200  0.456400  1.0
  C  C681  1  0.095500  0.932700  0.925400  1.0
  C  C682  1  0.404500  0.829900  0.337200  1.0
  C  C683  1  0.492700  0.567300  0.162800  1.0
  C  C684  1  0.007300  0.670100  0.574600  1.0
  C  C685  1  0.932700  0.925400  0.095500  1.0
  C  C686  1  0.829900  0.337200  0.404500  1.0
  C  C687  1  0.567300  0.162800  0.492700  1.0
  C  C688  1  0.670100  0.574600  0.007300  1.0
  C  C689  1  0.925400  0.095500  0.932700  1.0
  C  C690  1  0.337200  0.404500  0.829900  1.0
  C  C691  1  0.162800  0.492700  0.567300  1.0
  C  C692  1  0.574600  0.007300  0.670100  1.0
  C  C693  1  0.595500  0.425400  0.432700  1.0
  C  C694  1  0.904500  0.837200  0.329900  1.0
  C  C695  1  0.992700  0.662800  0.067300  1.0
  C  C696  1  0.507300  0.074600  0.170100  1.0
  C  C697  1  0.432700  0.595500  0.425400  1.0
  C  C698  1  0.329900  0.904500  0.837200  1.0
  C  C699  1  0.067300  0.992700  0.662800  1.0
  C  C700  1  0.170100  0.507300  0.074600  1.0
  C  C701  1  0.425400  0.432700  0.595500  1.0
  C  C702  1  0.837200  0.329900  0.904500  1.0
  C  C703  1  0.662800  0.067300  0.992700  1.0
  C  C704  1  0.074600  0.170100  0.507300  1.0
  C  C705  1  0.104100  0.938700  0.894400  1.0
  C  C706  1  0.395900  0.790300  0.334600  1.0
  C  C707  1  0.455700  0.561300  0.165400  1.0
  C  C708  1  0.044300  0.709700  0.605600  1.0
  C  C709  1  0.938700  0.894400  0.104100  1.0
  C  C710  1  0.790300  0.334600  0.395900  1.0
  C  C711  1  0.561300  0.165400  0.455700  1.0
  C  C712  1  0.709700  0.605600  0.044300  1.0
  C  C713  1  0.894400  0.104100  0.938700  1.0
  C  C714  1  0.334600  0.395900  0.790300  1.0
  C  C715  1  0.165400  0.455700  0.561300  1.0
  C  C716  1  0.605600  0.044300  0.709700  1.0
  C  C717  1  0.604100  0.394400  0.438700  1.0
  C  C718  1  0.895900  0.834600  0.290300  1.0
  C  C719  1  0.955700  0.665400  0.061300  1.0
  C  C720  1  0.544300  0.105600  0.209700  1.0
  C  C721  1  0.438700  0.604100  0.394400  1.0
  C  C722  1  0.290300  0.895900  0.834600  1.0
  C  C723  1  0.061300  0.955700  0.665400  1.0
  C  C724  1  0.209700  0.544300  0.105600  1.0
  C  C725  1  0.394400  0.438700  0.604100  1.0
  C  C726  1  0.834600  0.290300  0.895900  1.0
  C  C727  1  0.665400  0.061300  0.955700  1.0
  C  C728  1  0.105600  0.209700  0.544300  1.0
  C  C729  1  0.106700  0.974100  0.889200  1.0
  C  C730  1  0.393300  0.782500  0.367400  1.0
  C  C731  1  0.415100  0.525900  0.132600  1.0
  C  C732  1  0.084900  0.717500  0.610800  1.0
  C  C733  1  0.974100  0.889200  0.106700  1.0
  C  C734  1  0.782500  0.367400  0.393300  1.0
  C  C735  1  0.525900  0.132600  0.415100  1.0
  C  C736  1  0.717500  0.610800  0.084900  1.0
  C  C737  1  0.889200  0.106700  0.974100  1.0
  C  C738  1  0.367400  0.393300  0.782500  1.0
  C  C739  1  0.132600  0.415100  0.525900  1.0
  C  C740  1  0.610800  0.084900  0.717500  1.0
  C  C741  1  0.606700  0.389200  0.474100  1.0
  C  C742  1  0.893300  0.867400  0.282500  1.0
  C  C743  1  0.915100  0.632600  0.025900  1.0
  C  C744  1  0.584900  0.110800  0.217500  1.0
  C  C745  1  0.474100  0.606700  0.389200  1.0
  C  C746  1  0.282500  0.893300  0.867400  1.0
  C  C747  1  0.025900  0.915100  0.632600  1.0
  C  C748  1  0.217500  0.584900  0.110800  1.0
  C  C749  1  0.389200  0.474100  0.606700  1.0
  C  C750  1  0.867400  0.282500  0.893300  1.0
  C  C751  1  0.632600  0.025900  0.915100  1.0
  C  C752  1  0.110800  0.217500  0.584900  1.0
  C  C753  1  0.099800  0.003800  0.915600  1.0
  C  C754  1  0.400200  0.815800  0.404000  1.0
  C  C755  1  0.411800  0.496200  0.096000  1.0
  C  C756  1  0.088200  0.684200  0.584400  1.0
  C  C757  1  0.003800  0.915600  0.099800  1.0
  C  C758  1  0.815800  0.404000  0.400200  1.0
  C  C759  1  0.496200  0.096000  0.411800  1.0
  C  C760  1  0.684200  0.584400  0.088200  1.0
  C  C761  1  0.915600  0.099800  0.003800  1.0
  C  C762  1  0.404000  0.400200  0.815800  1.0
  C  C763  1  0.096000  0.411800  0.496200  1.0
  C  C764  1  0.584400  0.088200  0.684200  1.0
  C  C765  1  0.599800  0.415600  0.503800  1.0
  C  C766  1  0.900200  0.904000  0.315800  1.0
  C  C767  1  0.911800  0.596000  0.996200  1.0
  C  C768  1  0.588200  0.084400  0.184200  1.0
  C  C769  1  0.503800  0.599800  0.415600  1.0
  C  C770  1  0.315800  0.900200  0.904000  1.0
  C  C771  1  0.996200  0.911800  0.596000  1.0
  C  C772  1  0.184200  0.588200  0.084400  1.0
  C  C773  1  0.415600  0.503800  0.599800  1.0
  C  C774  1  0.904000  0.315800  0.900200  1.0
  C  C775  1  0.596000  0.996200  0.911800  1.0
  C  C776  1  0.084400  0.184200  0.588200  1.0
  C  C777  1  0.092600  0.999500  0.947500  1.0
  C  C778  1  0.407400  0.854900  0.406900  1.0
  C  C779  1  0.448000  0.500500  0.093100  1.0
  C  C780  1  0.052000  0.645100  0.552500  1.0
  C  C781  1  0.999500  0.947500  0.092600  1.0
  C  C782  1  0.854900  0.406900  0.407400  1.0
  C  C783  1  0.500500  0.093100  0.448000  1.0
  C  C784  1  0.645100  0.552500  0.052000  1.0
  C  C785  1  0.947500  0.092600  0.999500  1.0
  C  C786  1  0.406900  0.407400  0.854900  1.0
  C  C787  1  0.093100  0.448000  0.500500  1.0
  C  C788  1  0.552500  0.052000  0.645100  1.0
  C  C789  1  0.592600  0.447500  0.499500  1.0
  C  C790  1  0.907400  0.906900  0.354900  1.0
  C  C791  1  0.948000  0.593100  0.000500  1.0
  C  C792  1  0.552000  0.052500  0.145100  1.0
  C  C793  1  0.499500  0.592600  0.447500  1.0
  C  C794  1  0.354900  0.907400  0.906900  1.0
  C  C795  1  0.000500  0.948000  0.593100  1.0
  C  C796  1  0.145100  0.552000  0.052500  1.0
  C  C797  1  0.447500  0.499500  0.592600  1.0
  C  C798  1  0.906900  0.354900  0.907400  1.0
  C  C799  1  0.593100  0.000500  0.948000  1.0
  C  C800  1  0.052500  0.145100  0.552000  1.0
  C  C801  1  0.088800  0.962800  0.951400  1.0
  C  C802  1  0.411200  0.862600  0.374000  1.0
  C  C803  1  0.488600  0.537200  0.126000  1.0
  C  C804  1  0.011400  0.637400  0.548600  1.0
  C  C805  1  0.962800  0.951400  0.088800  1.0
  C  C806  1  0.862600  0.374000  0.411200  1.0
  C  C807  1  0.537200  0.126000  0.488600  1.0
  C  C808  1  0.637400  0.548600  0.011400  1.0
  C  C809  1  0.951400  0.088800  0.962800  1.0
  C  C810  1  0.374000  0.411200  0.862600  1.0
  C  C811  1  0.126000  0.488600  0.537200  1.0
  C  C812  1  0.548600  0.011400  0.637400  1.0
  C  C813  1  0.588800  0.451400  0.462800  1.0
  C  C814  1  0.911200  0.874000  0.362600  1.0
  C  C815  1  0.988600  0.626000  0.037200  1.0
  C  C816  1  0.511400  0.048600  0.137400  1.0
  C  C817  1  0.462800  0.588800  0.451400  1.0
  C  C818  1  0.362600  0.911200  0.874000  1.0
  C  C819  1  0.037200  0.988600  0.626000  1.0
  C  C820  1  0.137400  0.511400  0.048600  1.0
  C  C821  1  0.451400  0.462800  0.588800  1.0
  C  C822  1  0.874000  0.362600  0.911200  1.0
  C  C823  1  0.626000  0.037200  0.988600  1.0
  C  C824  1  0.048600  0.137400  0.511400  1.0
  C  C825  1  0.079200  0.957200  0.983200  1.0
  C  C826  1  0.420800  0.904000  0.378000  1.0
  C  C827  1  0.526000  0.542800  0.122000  1.0
  C  C828  1  0.974000  0.596000  0.516800  1.0
  C  C829  1  0.957200  0.983200  0.079200  1.0
  C  C830  1  0.904000  0.378000  0.420800  1.0
  C  C831  1  0.542800  0.122000  0.526000  1.0
  C  C832  1  0.596000  0.516800  0.974000  1.0
  C  C833  1  0.983200  0.079200  0.957200  1.0
  C  C834  1  0.378000  0.420800  0.904000  1.0
  C  C835  1  0.122000  0.526000  0.542800  1.0
  C  C836  1  0.516800  0.974000  0.596000  1.0
  C  C837  1  0.579200  0.483200  0.457200  1.0
  C  C838  1  0.920800  0.878000  0.404000  1.0
  C  C839  1  0.026000  0.622000  0.042800  1.0
  C  C840  1  0.474000  0.016800  0.096000  1.0
  C  C841  1  0.457200  0.579200  0.483200  1.0
  C  C842  1  0.404000  0.920800  0.878000  1.0
  C  C843  1  0.042800  0.026000  0.622000  1.0
  C  C844  1  0.096000  0.474000  0.016800  1.0
  C  C845  1  0.483200  0.457200  0.579200  1.0
  C  C846  1  0.878000  0.404000  0.920800  1.0
  C  C847  1  0.622000  0.042800  0.026000  1.0
  C  C848  1  0.016800  0.096000  0.474000  1.0
  C  C849  1  0.076900  0.989000  0.010700  1.0
  C  C850  1  0.423100  0.933800  0.412100  1.0
  C  C851  1  0.521700  0.511000  0.087900  1.0
  C  C852  1  0.978300  0.566200  0.489300  1.0
  C  C853  1  0.989000  0.010700  0.076900  1.0
  C  C854  1  0.933800  0.412100  0.423100  1.0
  C  C855  1  0.511000  0.087900  0.521700  1.0
  C  C856  1  0.566200  0.489300  0.978300  1.0
  C  C857  1  0.010700  0.076900  0.989000  1.0
  C  C858  1  0.412100  0.423100  0.933800  1.0
  C  C859  1  0.087900  0.521700  0.511000  1.0
  C  C860  1  0.489300  0.978300  0.566200  1.0
  C  C861  1  0.576900  0.510700  0.489000  1.0
  C  C862  1  0.923100  0.912100  0.433800  1.0
  C  C863  1  0.021700  0.587900  0.011000  1.0
  C  C864  1  0.478300  0.989300  0.066200  1.0
  C  C865  1  0.489000  0.576900  0.510700  1.0
  C  C866  1  0.433800  0.923100  0.912100  1.0
  C  C867  1  0.011000  0.021700  0.587900  1.0
  C  C868  1  0.066200  0.478300  0.989300  1.0
  C  C869  1  0.510700  0.489000  0.576900  1.0
  C  C870  1  0.912100  0.433800  0.923100  1.0
  C  C871  1  0.587900  0.011000  0.021700  1.0
  C  C872  1  0.989300  0.066200  0.478300  1.0
  C  C873  1  0.082700  0.028000  0.009700  1.0
  C  C874  1  0.417300  0.927000  0.445300  1.0
  C  C875  1  0.481700  0.472000  0.054700  1.0
  C  C876  1  0.018300  0.573000  0.490300  1.0
  C  C877  1  0.028000  0.009700  0.082700  1.0
  C  C878  1  0.927000  0.445300  0.417300  1.0
  C  C879  1  0.472000  0.054700  0.481700  1.0
  C  C880  1  0.573000  0.490300  0.018300  1.0
  C  C881  1  0.009700  0.082700  0.028000  1.0
  C  C882  1  0.445300  0.417300  0.927000  1.0
  C  C883  1  0.054700  0.481700  0.472000  1.0
  C  C884  1  0.490300  0.018300  0.573000  1.0
  C  C885  1  0.582700  0.509700  0.528000  1.0
  C  C886  1  0.917300  0.945300  0.427000  1.0
  C  C887  1  0.981700  0.554700  0.972000  1.0
  C  C888  1  0.518300  0.990300  0.073000  1.0
  C  C889  1  0.528000  0.582700  0.509700  1.0
  C  C890  1  0.427000  0.917300  0.945300  1.0
  C  C891  1  0.972000  0.981700  0.554700  1.0
  C  C892  1  0.073000  0.518300  0.990300  1.0
  C  C893  1  0.509700  0.528000  0.582700  1.0
  C  C894  1  0.945300  0.427000  0.917300  1.0
  C  C895  1  0.554700  0.972000  0.981700  1.0
  C  C896  1  0.990300  0.073000  0.518300  1.0
  C  C897  1  0.089900  0.031600  0.976900  1.0
  C  C898  1  0.410100  0.887000  0.441700  1.0
  C  C899  1  0.445300  0.468400  0.058300  1.0
  C  C900  1  0.054700  0.613000  0.523100  1.0
  C  C901  1  0.031600  0.976900  0.089900  1.0
  C  C902  1  0.887000  0.441700  0.410100  1.0
  C  C903  1  0.468400  0.058300  0.445300  1.0
  C  C904  1  0.613000  0.523100  0.054700  1.0
  C  C905  1  0.976900  0.089900  0.031600  1.0
  C  C906  1  0.441700  0.410100  0.887000  1.0
  C  C907  1  0.058300  0.445300  0.468400  1.0
  C  C908  1  0.523100  0.054700  0.613000  1.0
  C  C909  1  0.589900  0.476900  0.531600  1.0
  C  C910  1  0.910100  0.941700  0.387000  1.0
  C  C911  1  0.945300  0.558300  0.968400  1.0
  C  C912  1  0.554700  0.023100  0.113000  1.0
  C  C913  1  0.531600  0.589900  0.476900  1.0
  C  C914  1  0.387000  0.910100  0.941700  1.0
  C  C915  1  0.968400  0.945300  0.558300  1.0
  C  C916  1  0.113000  0.554700  0.023100  1.0
  C  C917  1  0.476900  0.531600  0.589900  1.0
  C  C918  1  0.941700  0.387000  0.910100  1.0
  C  C919  1  0.558300  0.968400  0.945300  1.0
  C  C920  1  0.023100  0.113000  0.554700  1.0
  C  C921  1  0.127400  0.107500  0.006300  1.0
  C  C922  1  0.372600  0.878900  0.480100  1.0
  C  C923  1  0.398800  0.392500  0.019900  1.0
  C  C924  1  0.101200  0.621100  0.493700  1.0
  C  C925  1  0.107500  0.006300  0.127400  1.0
  C  C926  1  0.878900  0.480100  0.372600  1.0
  C  C927  1  0.392500  0.019900  0.398800  1.0
  C  C928  1  0.621100  0.493700  0.101200  1.0
  C  C929  1  0.006300  0.127400  0.107500  1.0
  C  C930  1  0.480100  0.372600  0.878900  1.0
  C  C931  1  0.019900  0.398800  0.392500  1.0
  C  C932  1  0.493700  0.101200  0.621100  1.0
  C  C933  1  0.627400  0.506300  0.607500  1.0
  C  C934  1  0.872600  0.980100  0.378900  1.0
  C  C935  1  0.898800  0.519900  0.892500  1.0
  C  C936  1  0.601200  0.993700  0.121100  1.0
  C  C937  1  0.607500  0.627400  0.506300  1.0
  C  C938  1  0.378900  0.872600  0.980100  1.0
  C  C939  1  0.892500  0.898800  0.519900  1.0
  C  C940  1  0.121100  0.601200  0.993700  1.0
  C  C941  1  0.506300  0.607500  0.627400  1.0
  C  C942  1  0.980100  0.378900  0.872600  1.0
  C  C943  1  0.519900  0.892500  0.898800  1.0
  C  C944  1  0.993700  0.121100  0.601200  1.0
  C  C945  1  0.132800  0.144900  0.998700  1.0
  C  C946  1  0.367200  0.865900  0.512100  1.0
  C  C947  1  0.353800  0.355100  0.987900  1.0
  C  C948  1  0.146200  0.634100  0.501300  1.0
  C  C949  1  0.144900  0.998700  0.132800  1.0
  C  C950  1  0.865900  0.512100  0.367200  1.0
  C  C951  1  0.355100  0.987900  0.353800  1.0
  C  C952  1  0.634100  0.501300  0.146200  1.0
  C  C953  1  0.998700  0.132800  0.144900  1.0
  C  C954  1  0.512100  0.367200  0.865900  1.0
  C  C955  1  0.987900  0.353800  0.355100  1.0
  C  C956  1  0.501300  0.146200  0.634100  1.0
  C  C957  1  0.632800  0.498700  0.644900  1.0
  C  C958  1  0.867200  0.012100  0.365900  1.0
  C  C959  1  0.853800  0.487900  0.855100  1.0
  C  C960  1  0.646200  0.001300  0.134100  1.0
  C  C961  1  0.644900  0.632800  0.498700  1.0
  C  C962  1  0.365900  0.867200  0.012100  1.0
  C  C963  1  0.855100  0.853800  0.487900  1.0
  C  C964  1  0.134100  0.646200  0.001300  1.0
  C  C965  1  0.498700  0.644900  0.632800  1.0
  C  C966  1  0.012100  0.365900  0.867200  1.0
  C  C967  1  0.487900  0.855100  0.853800  1.0
  C  C968  1  0.001300  0.134100  0.646200  1.0
  C  C969  1  0.167700  0.185300  0.029600  1.0
  C  C970  1  0.332300  0.861900  0.517600  1.0
  C  C971  1  0.344300  0.314700  0.982400  1.0
  C  C972  1  0.155700  0.638100  0.470400  1.0
  C  C973  1  0.185300  0.029600  0.167700  1.0
  C  C974  1  0.861900  0.517600  0.332300  1.0
  C  C975  1  0.314700  0.982400  0.344300  1.0
  C  C976  1  0.638100  0.470400  0.155700  1.0
  C  C977  1  0.029600  0.167700  0.185300  1.0
  C  C978  1  0.517600  0.332300  0.861900  1.0
  C  C979  1  0.982400  0.344300  0.314700  1.0
  C  C980  1  0.470400  0.155700  0.638100  1.0
  C  C981  1  0.667700  0.529600  0.685300  1.0
  C  C982  1  0.832300  0.017600  0.361900  1.0
  C  C983  1  0.844300  0.482400  0.814700  1.0
  C  C984  1  0.655700  0.970400  0.138100  1.0
  C  C985  1  0.685300  0.667700  0.529600  1.0
  C  C986  1  0.361900  0.832300  0.017600  1.0
  C  C987  1  0.814700  0.844300  0.482400  1.0
  C  C988  1  0.138100  0.655700  0.970400  1.0
  C  C989  1  0.529600  0.685300  0.667700  1.0
  C  C990  1  0.017600  0.361900  0.832300  1.0
  C  C991  1  0.482400  0.814700  0.844300  1.0
  C  C992  1  0.970400  0.138100  0.655700  1.0
  C  C993  1  0.175500  0.219100  0.023800  1.0
  C  C994  1  0.324500  0.848300  0.543600  1.0
  C  C995  1  0.304700  0.280900  0.956400  1.0
  C  C996  1  0.195300  0.651700  0.476200  1.0
  C  C997  1  0.219100  0.023800  0.175500  1.0
  C  C998  1  0.848300  0.543600  0.324500  1.0
  C  C999  1  0.280900  0.956400  0.304700  1.0
  C  C1000  1  0.651700  0.476200  0.195300  1.0
  C  C1001  1  0.023800  0.175500  0.219100  1.0
  C  C1002  1  0.543600  0.324500  0.848300  1.0
  C  C1003  1  0.956400  0.304700  0.280900  1.0
  C  C1004  1  0.476200  0.195300  0.651700  1.0
  C  C1005  1  0.675500  0.523800  0.719100  1.0
  C  C1006  1  0.824500  0.043600  0.348300  1.0
  C  C1007  1  0.804700  0.456400  0.780900  1.0
  C  C1008  1  0.695300  0.976200  0.151700  1.0
  C  C1009  1  0.719100  0.675500  0.523800  1.0
  C  C1010  1  0.348300  0.824500  0.043600  1.0
  C  C1011  1  0.780900  0.804700  0.456400  1.0
  C  C1012  1  0.151700  0.695300  0.976200  1.0
  C  C1013  1  0.523800  0.719100  0.675500  1.0
  C  C1014  1  0.043600  0.348300  0.824500  1.0
  C  C1015  1  0.456400  0.780900  0.804700  1.0
  C  C1016  1  0.976200  0.151700  0.695300  1.0
  C  C1017  1  0.146600  0.214800  0.983200  1.0
  C  C1018  1  0.353400  0.836600  0.568200  1.0
  C  C1019  1  0.268400  0.285200  0.931800  1.0
  C  C1020  1  0.231600  0.663400  0.516800  1.0
  C  C1021  1  0.214800  0.983200  0.146600  1.0
  C  C1022  1  0.836600  0.568200  0.353400  1.0
  C  C1023  1  0.285200  0.931800  0.268400  1.0
  C  C1024  1  0.663400  0.516800  0.231600  1.0
  C  C1025  1  0.983200  0.146600  0.214800  1.0
  C  C1026  1  0.568200  0.353400  0.836600  1.0
  C  C1027  1  0.931800  0.268400  0.285200  1.0
  C  C1028  1  0.516800  0.231600  0.663400  1.0
  C  C1029  1  0.646600  0.483200  0.714800  1.0
  C  C1030  1  0.853400  0.068200  0.336600  1.0
  C  C1031  1  0.768400  0.431800  0.785200  1.0
  C  C1032  1  0.731600  0.016800  0.163400  1.0
  C  C1033  1  0.714800  0.646600  0.483200  1.0
  C  C1034  1  0.336600  0.853400  0.068200  1.0
  C  C1035  1  0.785200  0.768400  0.431800  1.0
  C  C1036  1  0.163400  0.731600  0.016800  1.0
  C  C1037  1  0.483200  0.714800  0.646600  1.0
  C  C1038  1  0.068200  0.336600  0.853400  1.0
  C  C1039  1  0.431800  0.785200  0.768400  1.0
  C  C1040  1  0.016800  0.163400  0.731600  1.0
  C  C1041  1  0.176300  0.952500  0.111200  1.0
  C  C1042  1  0.323700  0.934900  0.276200  1.0
  C  C1043  1  0.658700  0.547500  0.223800  1.0
  C  C1044  1  0.841300  0.565100  0.388800  1.0
  C  C1045  1  0.952500  0.111200  0.176300  1.0
  C  C1046  1  0.934900  0.276200  0.323700  1.0
  C  C1047  1  0.547500  0.223800  0.658700  1.0
  C  C1048  1  0.565100  0.388800  0.841300  1.0
  C  C1049  1  0.111200  0.176300  0.952500  1.0
  C  C1050  1  0.276200  0.323700  0.934900  1.0
  C  C1051  1  0.223800  0.658700  0.547500  1.0
  C  C1052  1  0.388800  0.841300  0.565100  1.0
  C  C1053  1  0.676300  0.611200  0.452500  1.0
  C  C1054  1  0.823700  0.776200  0.434900  1.0
  C  C1055  1  0.158700  0.723800  0.047500  1.0
  C  C1056  1  0.341300  0.888800  0.065100  1.0
  C  C1057  1  0.452500  0.676300  0.611200  1.0
  C  C1058  1  0.434900  0.823700  0.776200  1.0
  C  C1059  1  0.047500  0.158700  0.723800  1.0
  C  C1060  1  0.065100  0.341300  0.888800  1.0
  C  C1061  1  0.611200  0.452500  0.676300  1.0
  C  C1062  1  0.776200  0.434900  0.823700  1.0
  C  C1063  1  0.723800  0.047500  0.158700  1.0
  C  C1064  1  0.888800  0.065100  0.341300  1.0
  C  C1065  1  0.139500  0.960200  0.103300  1.0
  C  C1066  1  0.360500  0.963800  0.320700  1.0
  C  C1067  1  0.643100  0.539800  0.179300  1.0
  C  C1068  1  0.856900  0.536200  0.396700  1.0
  C  C1069  1  0.960200  0.103300  0.139500  1.0
  C  C1070  1  0.963800  0.320700  0.360500  1.0
  C  C1071  1  0.539800  0.179300  0.643100  1.0
  C  C1072  1  0.536200  0.396700  0.856900  1.0
  C  C1073  1  0.103300  0.139500  0.960200  1.0
  C  C1074  1  0.320700  0.360500  0.963800  1.0
  C  C1075  1  0.179300  0.643100  0.539800  1.0
  C  C1076  1  0.396700  0.856900  0.536200  1.0
  C  C1077  1  0.639500  0.603300  0.460200  1.0
  C  C1078  1  0.860500  0.820700  0.463800  1.0
  C  C1079  1  0.143100  0.679300  0.039800  1.0
  C  C1080  1  0.356900  0.896700  0.036200  1.0
  C  C1081  1  0.460200  0.639500  0.603300  1.0
  C  C1082  1  0.463800  0.860500  0.820700  1.0
  C  C1083  1  0.039800  0.143100  0.679300  1.0
  C  C1084  1  0.036200  0.356900  0.896700  1.0
  C  C1085  1  0.603300  0.460200  0.639500  1.0
  C  C1086  1  0.820700  0.463800  0.860500  1.0
  C  C1087  1  0.679300  0.039800  0.143100  1.0
  C  C1088  1  0.896700  0.036200  0.356900  1.0
  C  C1089  1  0.031800  0.826900  0.050300  1.0
  C  C1090  1  0.468200  0.018500  0.295100  1.0
  C  C1091  1  0.723400  0.673100  0.204900  1.0
  C  C1092  1  0.776600  0.481500  0.449700  1.0
  C  C1093  1  0.826900  0.050300  0.031800  1.0
  C  C1094  1  0.018500  0.295100  0.468200  1.0
  C  C1095  1  0.673100  0.204900  0.723400  1.0
  C  C1096  1  0.481500  0.449700  0.776600  1.0
  C  C1097  1  0.050300  0.031800  0.826900  1.0
  C  C1098  1  0.295100  0.468200  0.018500  1.0
  C  C1099  1  0.204900  0.723400  0.673100  1.0
  C  C1100  1  0.449700  0.776600  0.481500  1.0
  C  C1101  1  0.531800  0.550300  0.326900  1.0
  C  C1102  1  0.968200  0.795100  0.518500  1.0
  C  C1103  1  0.223400  0.704900  0.173100  1.0
  C  C1104  1  0.276600  0.949700  0.981500  1.0
  C  C1105  1  0.326900  0.531800  0.550300  1.0
  C  C1106  1  0.518500  0.968200  0.795100  1.0
  C  C1107  1  0.173100  0.223400  0.704900  1.0
  C  C1108  1  0.981500  0.276600  0.949700  1.0
  C  C1109  1  0.550300  0.326900  0.531800  1.0
  C  C1110  1  0.795100  0.518500  0.968200  1.0
  C  C1111  1  0.704900  0.173100  0.223400  1.0
  C  C1112  1  0.949700  0.981500  0.276600  1.0
  C  C1113  1  0.070600  0.838400  0.088400  1.0
  C  C1114  1  0.429400  0.017800  0.267800  1.0
  C  C1115  1  0.750000  0.661600  0.232200  1.0
  C  C1116  1  0.750000  0.482200  0.411600  1.0
  C  C1117  1  0.838400  0.088400  0.070600  1.0
  C  C1118  1  0.017800  0.267800  0.429400  1.0
  C  C1119  1  0.661600  0.232200  0.750000  1.0
  C  C1120  1  0.482200  0.411600  0.750000  1.0
  C  C1121  1  0.088400  0.070600  0.838400  1.0
  C  C1122  1  0.267800  0.429400  0.017800  1.0
  C  C1123  1  0.232200  0.750000  0.661600  1.0
  C  C1124  1  0.411600  0.750000  0.482200  1.0
  C  C1125  1  0.570600  0.588400  0.338400  1.0
  C  C1126  1  0.929400  0.767800  0.517800  1.0
  C  C1127  1  0.250000  0.732200  0.161600  1.0
  C  C1128  1  0.250000  0.911600  0.982200  1.0
  C  C1129  1  0.338400  0.570600  0.588400  1.0
  C  C1130  1  0.517800  0.929400  0.767800  1.0
  C  C1131  1  0.161600  0.250000  0.732200  1.0
  C  C1132  1  0.982200  0.250000  0.911600  1.0
  C  C1133  1  0.588400  0.338400  0.570600  1.0
  C  C1134  1  0.767800  0.517800  0.929400  1.0
  C  C1135  1  0.732200  0.161600  0.250000  1.0
  C  C1136  1  0.911600  0.982200  0.250000  1.0
  C  C1137  1  0.064600  0.824800  0.116400  1.0
  C  C1138  1  0.435400  0.051800  0.260200  1.0
  C  C1139  1  0.791600  0.675200  0.239800  1.0
  C  C1140  1  0.708400  0.448200  0.383600  1.0
  C  C1141  1  0.824800  0.116400  0.064600  1.0
  C  C1142  1  0.051800  0.260200  0.435400  1.0
  C  C1143  1  0.675200  0.239800  0.791600  1.0
  C  C1144  1  0.448200  0.383600  0.708400  1.0
  C  C1145  1  0.116400  0.064600  0.824800  1.0
  C  C1146  1  0.260200  0.435400  0.051800  1.0
  C  C1147  1  0.239800  0.791600  0.675200  1.0
  C  C1148  1  0.383600  0.708400  0.448200  1.0
  C  C1149  1  0.564600  0.616400  0.324800  1.0
  C  C1150  1  0.935400  0.760200  0.551800  1.0
  C  C1151  1  0.291600  0.739800  0.175200  1.0
  C  C1152  1  0.208400  0.883600  0.948200  1.0
  C  C1153  1  0.324800  0.564600  0.616400  1.0
  C  C1154  1  0.551800  0.935400  0.760200  1.0
  C  C1155  1  0.175200  0.291600  0.739800  1.0
  C  C1156  1  0.948200  0.208400  0.883600  1.0
  C  C1157  1  0.616400  0.324800  0.564600  1.0
  C  C1158  1  0.760200  0.551800  0.935400  1.0
  C  C1159  1  0.739800  0.175200  0.291600  1.0
  C  C1160  1  0.883600  0.948200  0.208400  1.0
  C  C1161  1  0.021500  0.801900  0.109600  1.0
  C  C1162  1  0.478500  0.088100  0.280400  1.0
  C  C1163  1  0.807700  0.698100  0.219600  1.0
  C  C1164  1  0.692300  0.411900  0.390400  1.0
  C  C1165  1  0.801900  0.109600  0.021500  1.0
  C  C1166  1  0.088100  0.280400  0.478500  1.0
  C  C1167  1  0.698100  0.219600  0.807700  1.0
  C  C1168  1  0.411900  0.390400  0.692300  1.0
  C  C1169  1  0.109600  0.021500  0.801900  1.0
  C  C1170  1  0.280400  0.478500  0.088100  1.0
  C  C1171  1  0.219600  0.807700  0.698100  1.0
  C  C1172  1  0.390400  0.692300  0.411900  1.0
  C  C1173  1  0.521500  0.609600  0.301900  1.0
  C  C1174  1  0.978500  0.780400  0.588100  1.0
  C  C1175  1  0.307700  0.719600  0.198100  1.0
  C  C1176  1  0.192300  0.890400  0.911900  1.0
  C  C1177  1  0.301900  0.521500  0.609600  1.0
  C  C1178  1  0.588100  0.978500  0.780400  1.0
  C  C1179  1  0.198100  0.307700  0.719600  1.0
  C  C1180  1  0.911900  0.192300  0.890400  1.0
  C  C1181  1  0.609600  0.301900  0.521500  1.0
  C  C1182  1  0.780400  0.588100  0.978500  1.0
  C  C1183  1  0.719600  0.198100  0.307700  1.0
  C  C1184  1  0.890400  0.911900  0.192300  1.0
  C  C1185  1  0.986200  0.792200  0.074200  1.0
  C  C1186  1  0.513800  0.088000  0.306000  1.0
  C  C1187  1  0.782000  0.707800  0.194000  1.0
  C  C1188  1  0.718000  0.412000  0.425800  1.0
  C  C1189  1  0.792200  0.074200  0.986200  1.0
  C  C1190  1  0.088000  0.306000  0.513800  1.0
  C  C1191  1  0.707800  0.194000  0.782000  1.0
  C  C1192  1  0.412000  0.425800  0.718000  1.0
  C  C1193  1  0.074200  0.986200  0.792200  1.0
  C  C1194  1  0.306000  0.513800  0.088000  1.0
  C  C1195  1  0.194000  0.782000  0.707800  1.0
  C  C1196  1  0.425800  0.718000  0.412000  1.0
  C  C1197  1  0.486200  0.574200  0.292200  1.0
  C  C1198  1  0.013800  0.806000  0.588000  1.0
  C  C1199  1  0.282000  0.694000  0.207800  1.0
  C  C1200  1  0.218000  0.925800  0.912000  1.0
  C  C1201  1  0.292200  0.486200  0.574200  1.0
  C  C1202  1  0.588000  0.013800  0.806000  1.0
  C  C1203  1  0.207800  0.282000  0.694000  1.0
  C  C1204  1  0.912000  0.218000  0.925800  1.0
  C  C1205  1  0.574200  0.292200  0.486200  1.0
  C  C1206  1  0.806000  0.588000  0.013800  1.0
  C  C1207  1  0.694000  0.207800  0.282000  1.0
  C  C1208  1  0.925800  0.912000  0.218000  1.0
  C  C1209  1  0.992100  0.805000  0.045900  1.0
  C  C1210  1  0.507900  0.053800  0.312900  1.0
  C  C1211  1  0.740900  0.695000  0.187100  1.0
  C  C1212  1  0.759100  0.446200  0.454100  1.0
  C  C1213  1  0.805000  0.045900  0.992100  1.0
  C  C1214  1  0.053800  0.312900  0.507900  1.0
  C  C1215  1  0.695000  0.187100  0.740900  1.0
  C  C1216  1  0.446200  0.454100  0.759100  1.0
  C  C1217  1  0.045900  0.992100  0.805000  1.0
  C  C1218  1  0.312900  0.507900  0.053800  1.0
  C  C1219  1  0.187100  0.740900  0.695000  1.0
  C  C1220  1  0.454100  0.759100  0.446200  1.0
  C  C1221  1  0.492100  0.545900  0.305000  1.0
  C  C1222  1  0.007900  0.812900  0.553800  1.0
  C  C1223  1  0.240900  0.687100  0.195000  1.0
  C  C1224  1  0.259100  0.954100  0.946200  1.0
  C  C1225  1  0.305000  0.492100  0.545900  1.0
  C  C1226  1  0.553800  0.007900  0.812900  1.0
  C  C1227  1  0.195000  0.240900  0.687100  1.0
  C  C1228  1  0.946200  0.259100  0.954100  1.0
  C  C1229  1  0.545900  0.305000  0.492100  1.0
  C  C1230  1  0.812900  0.553800  0.007900  1.0
  C  C1231  1  0.687100  0.195000  0.240900  1.0
  C  C1232  1  0.954100  0.946200  0.259100  1.0
  C  C1233  1  0.949700  0.792400  0.007900  1.0
  C  C1234  1  0.550300  0.058200  0.342700  1.0
  C  C1235  1  0.715500  0.707600  0.157300  1.0
  C  C1236  1  0.784500  0.441800  0.492100  1.0
  C  C1237  1  0.792400  0.007900  0.949700  1.0
  C  C1238  1  0.058200  0.342700  0.550300  1.0
  C  C1239  1  0.707600  0.157300  0.715500  1.0
  C  C1240  1  0.441800  0.492100  0.784500  1.0
  C  C1241  1  0.007900  0.949700  0.792400  1.0
  C  C1242  1  0.342700  0.550300  0.058200  1.0
  C  C1243  1  0.157300  0.715500  0.707600  1.0
  C  C1244  1  0.492100  0.784500  0.441800  1.0
  C  C1245  1  0.449700  0.507900  0.292400  1.0
  C  C1246  1  0.050300  0.842700  0.558200  1.0
  C  C1247  1  0.215500  0.657300  0.207600  1.0
  C  C1248  1  0.284500  0.992100  0.941800  1.0
  C  C1249  1  0.292400  0.449700  0.507900  1.0
  C  C1250  1  0.558200  0.050300  0.842700  1.0
  C  C1251  1  0.207600  0.215500  0.657300  1.0
  C  C1252  1  0.941800  0.284500  0.992100  1.0
  C  C1253  1  0.507900  0.292400  0.449700  1.0
  C  C1254  1  0.842700  0.558200  0.050300  1.0
  C  C1255  1  0.657300  0.207600  0.215500  1.0
  C  C1256  1  0.992100  0.941800  0.284500  1.0
  C  C1257  1  0.922200  0.785500  0.936500  1.0
  C  C1258  1  0.577800  0.014300  0.363300  1.0
  C  C1259  1  0.651000  0.714500  0.136700  1.0
  C  C1260  1  0.849000  0.485700  0.563500  1.0
  C  C1261  1  0.785500  0.936500  0.922200  1.0
  C  C1262  1  0.014300  0.363300  0.577800  1.0
  C  C1263  1  0.714500  0.136700  0.651000  1.0
  C  C1264  1  0.485700  0.563500  0.849000  1.0
  C  C1265  1  0.936500  0.922200  0.785500  1.0
  C  C1266  1  0.363300  0.577800  0.014300  1.0
  C  C1267  1  0.136700  0.651000  0.714500  1.0
  C  C1268  1  0.563500  0.849000  0.485700  1.0
  C  C1269  1  0.422200  0.436500  0.285500  1.0
  C  C1270  1  0.077800  0.863300  0.514300  1.0
  C  C1271  1  0.151000  0.636700  0.214500  1.0
  C  C1272  1  0.349000  0.063500  0.985700  1.0
  C  C1273  1  0.285500  0.422200  0.436500  1.0
  C  C1274  1  0.514300  0.077800  0.863300  1.0
  C  C1275  1  0.214500  0.151000  0.636700  1.0
  C  C1276  1  0.985700  0.349000  0.063500  1.0
  C  C1277  1  0.436500  0.285500  0.422200  1.0
  C  C1278  1  0.863300  0.514300  0.077800  1.0
  C  C1279  1  0.636700  0.214500  0.151000  1.0
  C  C1280  1  0.063500  0.985700  0.349000  1.0
  C  C1281  1  0.877700  0.759700  0.923800  1.0
  C  C1282  1  0.622300  0.046100  0.382000  1.0
  C  C1283  1  0.664100  0.740300  0.118000  1.0
  C  C1284  1  0.835900  0.453900  0.576200  1.0
  C  C1285  1  0.759700  0.923800  0.877700  1.0
  C  C1286  1  0.046100  0.382000  0.622300  1.0
  C  C1287  1  0.740300  0.118000  0.664100  1.0
  C  C1288  1  0.453900  0.576200  0.835900  1.0
  C  C1289  1  0.923800  0.877700  0.759700  1.0
  C  C1290  1  0.382000  0.622300  0.046100  1.0
  C  C1291  1  0.118000  0.664100  0.740300  1.0
  C  C1292  1  0.576200  0.835900  0.453900  1.0
  C  C1293  1  0.377700  0.423800  0.259700  1.0
  C  C1294  1  0.122300  0.882000  0.546100  1.0
  C  C1295  1  0.164100  0.618000  0.240300  1.0
  C  C1296  1  0.335900  0.076200  0.953900  1.0
  C  C1297  1  0.259700  0.377700  0.423800  1.0
  C  C1298  1  0.546100  0.122300  0.882000  1.0
  C  C1299  1  0.240300  0.164100  0.618000  1.0
  C  C1300  1  0.953900  0.335900  0.076200  1.0
  C  C1301  1  0.423800  0.259700  0.377700  1.0
  C  C1302  1  0.882000  0.546100  0.122300  1.0
  C  C1303  1  0.618000  0.240300  0.164100  1.0
  C  C1304  1  0.076200  0.953900  0.335900  1.0
  C  C1305  1  0.844200  0.742700  0.878700  1.0
  C  C1306  1  0.655800  0.034500  0.398500  1.0
  C  C1307  1  0.636000  0.757300  0.101500  1.0
  C  C1308  1  0.864000  0.465500  0.621300  1.0
  C  C1309  1  0.742700  0.878700  0.844200  1.0
  C  C1310  1  0.034500  0.398500  0.655800  1.0
  C  C1311  1  0.757300  0.101500  0.636000  1.0
  C  C1312  1  0.465500  0.621300  0.864000  1.0
  C  C1313  1  0.878700  0.844200  0.742700  1.0
  C  C1314  1  0.398500  0.655800  0.034500  1.0
  C  C1315  1  0.101500  0.636000  0.757300  1.0
  C  C1316  1  0.621300  0.864000  0.465500  1.0
  C  C1317  1  0.344200  0.378700  0.242700  1.0
  C  C1318  1  0.155800  0.898500  0.534500  1.0
  C  C1319  1  0.136000  0.601500  0.257300  1.0
  C  C1320  1  0.364000  0.121300  0.965500  1.0
  C  C1321  1  0.242700  0.344200  0.378700  1.0
  C  C1322  1  0.534500  0.155800  0.898500  1.0
  C  C1323  1  0.257300  0.136000  0.601500  1.0
  C  C1324  1  0.965500  0.364000  0.121300  1.0
  C  C1325  1  0.378700  0.242700  0.344200  1.0
  C  C1326  1  0.898500  0.534500  0.155800  1.0
  C  C1327  1  0.601500  0.257300  0.136000  1.0
  C  C1328  1  0.121300  0.965500  0.364000  1.0
  C  C1329  1  0.854200  0.751400  0.849200  1.0
  C  C1330  1  0.645800  0.995000  0.397200  1.0
  C  C1331  1  0.597800  0.748600  0.102800  1.0
  C  C1332  1  0.902200  0.505000  0.650800  1.0
  C  C1333  1  0.751400  0.849200  0.854200  1.0
  C  C1334  1  0.995000  0.397200  0.645800  1.0
  C  C1335  1  0.748600  0.102800  0.597800  1.0
  C  C1336  1  0.505000  0.650800  0.902200  1.0
  C  C1337  1  0.849200  0.854200  0.751400  1.0
  C  C1338  1  0.397200  0.645800  0.995000  1.0
  C  C1339  1  0.102800  0.597800  0.748600  1.0
  C  C1340  1  0.650800  0.902200  0.505000  1.0
  C  C1341  1  0.354200  0.349200  0.251400  1.0
  C  C1342  1  0.145800  0.897200  0.495000  1.0
  C  C1343  1  0.097800  0.602800  0.248600  1.0
  C  C1344  1  0.402200  0.150800  0.005000  1.0
  C  C1345  1  0.251400  0.354200  0.349200  1.0
  C  C1346  1  0.495000  0.145800  0.897200  1.0
  C  C1347  1  0.248600  0.097800  0.602800  1.0
  C  C1348  1  0.005000  0.402200  0.150800  1.0
  C  C1349  1  0.349200  0.251400  0.354200  1.0
  C  C1350  1  0.897200  0.495000  0.145800  1.0
  C  C1351  1  0.602800  0.248600  0.097800  1.0
  C  C1352  1  0.150800  0.005000  0.402200  1.0
  C  C1353  1  0.900100  0.778700  0.864000  1.0
  C  C1354  1  0.599900  0.963900  0.378600  1.0
  C  C1355  1  0.585300  0.721300  0.121400  1.0
  C  C1356  1  0.914700  0.536100  0.636000  1.0
  C  C1357  1  0.778700  0.864000  0.900100  1.0
  C  C1358  1  0.963900  0.378600  0.599900  1.0
  C  C1359  1  0.721300  0.121400  0.585300  1.0
  C  C1360  1  0.536100  0.636000  0.914700  1.0
  C  C1361  1  0.864000  0.900100  0.778700  1.0
  C  C1362  1  0.378600  0.599900  0.963900  1.0
  C  C1363  1  0.121400  0.585300  0.721300  1.0
  C  C1364  1  0.636000  0.914700  0.536100  1.0
  C  C1365  1  0.400100  0.364000  0.278700  1.0
  C  C1366  1  0.099900  0.878600  0.463900  1.0
  C  C1367  1  0.085300  0.621400  0.221300  1.0
  C  C1368  1  0.414700  0.136000  0.036100  1.0
  C  C1369  1  0.278700  0.400100  0.364000  1.0
  C  C1370  1  0.463900  0.099900  0.878600  1.0
  C  C1371  1  0.221300  0.085300  0.621400  1.0
  C  C1372  1  0.036100  0.414700  0.136000  1.0
  C  C1373  1  0.364000  0.278700  0.400100  1.0
  C  C1374  1  0.878600  0.463900  0.099900  1.0
  C  C1375  1  0.621400  0.221300  0.085300  1.0
  C  C1376  1  0.136000  0.036100  0.414700  1.0
  C  C1377  1  0.933300  0.796200  0.906900  1.0
  C  C1378  1  0.566700  0.973600  0.362900  1.0
  C  C1379  1  0.610700  0.703800  0.137100  1.0
  C  C1380  1  0.889300  0.526400  0.593100  1.0
  C  C1381  1  0.796200  0.906900  0.933300  1.0
  C  C1382  1  0.973600  0.362900  0.566700  1.0
  C  C1383  1  0.703800  0.137100  0.610700  1.0
  C  C1384  1  0.526400  0.593100  0.889300  1.0
  C  C1385  1  0.906900  0.933300  0.796200  1.0
  C  C1386  1  0.362900  0.566700  0.973600  1.0
  C  C1387  1  0.137100  0.610700  0.703800  1.0
  C  C1388  1  0.593100  0.889300  0.526400  1.0
  C  C1389  1  0.433300  0.406900  0.296200  1.0
  C  C1390  1  0.066700  0.862900  0.473600  1.0
  C  C1391  1  0.110700  0.637100  0.203800  1.0
  C  C1392  1  0.389300  0.093100  0.026400  1.0
  C  C1393  1  0.296200  0.433300  0.406900  1.0
  C  C1394  1  0.473600  0.066700  0.862900  1.0
  C  C1395  1  0.203800  0.110700  0.637100  1.0
  C  C1396  1  0.026400  0.389300  0.093100  1.0
  C  C1397  1  0.406900  0.296200  0.433300  1.0
  C  C1398  1  0.862900  0.473600  0.066700  1.0
  C  C1399  1  0.637100  0.203800  0.110700  1.0
  C  C1400  1  0.093100  0.026400  0.389300  1.0
  C  C1401  1  0.975700  0.822700  0.919400  1.0
  C  C1402  1  0.524300  0.943700  0.347000  1.0
  C  C1403  1  0.596700  0.677300  0.153000  1.0
  C  C1404  1  0.903300  0.556300  0.580600  1.0
  C  C1405  1  0.822700  0.919400  0.975700  1.0
  C  C1406  1  0.943700  0.347000  0.524300  1.0
  C  C1407  1  0.677300  0.153000  0.596700  1.0
  C  C1408  1  0.556300  0.580600  0.903300  1.0
  C  C1409  1  0.919400  0.975700  0.822700  1.0
  C  C1410  1  0.347000  0.524300  0.943700  1.0
  C  C1411  1  0.153000  0.596700  0.677300  1.0
  C  C1412  1  0.580600  0.903300  0.556300  1.0
  C  C1413  1  0.475700  0.419400  0.322700  1.0
  C  C1414  1  0.024300  0.847000  0.443700  1.0
  C  C1415  1  0.096700  0.653000  0.177300  1.0
  C  C1416  1  0.403300  0.080600  0.056300  1.0
  C  C1417  1  0.322700  0.475700  0.419400  1.0
  C  C1418  1  0.443700  0.024300  0.847000  1.0
  C  C1419  1  0.177300  0.096700  0.653000  1.0
  C  C1420  1  0.056300  0.403300  0.080600  1.0
  C  C1421  1  0.419400  0.322700  0.475700  1.0
  C  C1422  1  0.847000  0.443700  0.024300  1.0
  C  C1423  1  0.653000  0.177300  0.096700  1.0
  C  C1424  1  0.080600  0.056300  0.403300  1.0
  C  C1425  1  0.986300  0.833500  0.892200  1.0
  C  C1426  1  0.513700  0.905900  0.347200  1.0
  C  C1427  1  0.558700  0.666500  0.152800  1.0
  C  C1428  1  0.941300  0.594100  0.607800  1.0
  C  C1429  1  0.833500  0.892200  0.986300  1.0
  C  C1430  1  0.905900  0.347200  0.513700  1.0
  C  C1431  1  0.666500  0.152800  0.558700  1.0
  C  C1432  1  0.594100  0.607800  0.941300  1.0
  C  C1433  1  0.892200  0.986300  0.833500  1.0
  C  C1434  1  0.347200  0.513700  0.905900  1.0
  C  C1435  1  0.152800  0.558700  0.666500  1.0
  C  C1436  1  0.607800  0.941300  0.594100  1.0
  C  C1437  1  0.486300  0.392200  0.333500  1.0
  C  C1438  1  0.013700  0.847200  0.405900  1.0
  C  C1439  1  0.058700  0.652800  0.166500  1.0
  C  C1440  1  0.441300  0.107800  0.094100  1.0
  C  C1441  1  0.333500  0.486300  0.392200  1.0
  C  C1442  1  0.405900  0.013700  0.847200  1.0
  C  C1443  1  0.166500  0.058700  0.652800  1.0
  C  C1444  1  0.094100  0.441300  0.107800  1.0
  C  C1445  1  0.392200  0.333500  0.486300  1.0
  C  C1446  1  0.847200  0.405900  0.013700  1.0
  C  C1447  1  0.652800  0.166500  0.058700  1.0
  C  C1448  1  0.107800  0.094100  0.441300  1.0
  C  C1449  1  0.954100  0.817200  0.849700  1.0
  C  C1450  1  0.545900  0.895600  0.363100  1.0
  C  C1451  1  0.532500  0.682800  0.136900  1.0
  C  C1452  1  0.967500  0.604400  0.650300  1.0
  C  C1453  1  0.817200  0.849700  0.954100  1.0
  C  C1454  1  0.895600  0.363100  0.545900  1.0
  C  C1455  1  0.682800  0.136900  0.532500  1.0
  C  C1456  1  0.604400  0.650300  0.967500  1.0
  C  C1457  1  0.849700  0.954100  0.817200  1.0
  C  C1458  1  0.363100  0.545900  0.895600  1.0
  C  C1459  1  0.136900  0.532500  0.682800  1.0
  C  C1460  1  0.650300  0.967500  0.604400  1.0
  C  C1461  1  0.454100  0.349700  0.317200  1.0
  C  C1462  1  0.045900  0.863100  0.395600  1.0
  C  C1463  1  0.032500  0.636900  0.182800  1.0
  C  C1464  1  0.467500  0.150300  0.104400  1.0
  C  C1465  1  0.317200  0.454100  0.349700  1.0
  C  C1466  1  0.395600  0.045900  0.863100  1.0
  C  C1467  1  0.182800  0.032500  0.636900  1.0
  C  C1468  1  0.104400  0.467500  0.150300  1.0
  C  C1469  1  0.349700  0.317200  0.454100  1.0
  C  C1470  1  0.863100  0.395600  0.045900  1.0
  C  C1471  1  0.636900  0.182800  0.032500  1.0
  C  C1472  1  0.150300  0.104400  0.467500  1.0
  C  C1473  1  0.910600  0.787500  0.833500  1.0
  C  C1474  1  0.589400  0.922900  0.376900  1.0
  C  C1475  1  0.546000  0.712500  0.123100  1.0
  C  C1476  1  0.954000  0.577100  0.666500  1.0
  C  C1477  1  0.787500  0.833500  0.910600  1.0
  C  C1478  1  0.922900  0.376900  0.589400  1.0
  C  C1479  1  0.712500  0.123100  0.546000  1.0
  C  C1480  1  0.577100  0.666500  0.954000  1.0
  C  C1481  1  0.833500  0.910600  0.787500  1.0
  C  C1482  1  0.376900  0.589400  0.922900  1.0
  C  C1483  1  0.123100  0.546000  0.712500  1.0
  C  C1484  1  0.666500  0.954000  0.577100  1.0
  C  C1485  1  0.410600  0.333500  0.287500  1.0
  C  C1486  1  0.089400  0.876900  0.422900  1.0
  C  C1487  1  0.046000  0.623100  0.212500  1.0
  C  C1488  1  0.454000  0.166500  0.077100  1.0
  C  C1489  1  0.287500  0.410600  0.333500  1.0
  C  C1490  1  0.422900  0.089400  0.876900  1.0
  C  C1491  1  0.212500  0.046000  0.623100  1.0
  C  C1492  1  0.077100  0.454000  0.166500  1.0
  C  C1493  1  0.333500  0.287500  0.410600  1.0
  C  C1494  1  0.876900  0.422900  0.089400  1.0
  C  C1495  1  0.623100  0.212500  0.046000  1.0
  C  C1496  1  0.166500  0.077100  0.454000  1.0
  C  C1497  1  0.878200  0.755400  0.755000  1.0
  C  C1498  1  0.621800  0.876800  0.377200  1.0
  C  C1499  1  0.499600  0.744600  0.122800  1.0
  C  C1500  1  0.000400  0.623200  0.745000  1.0
  C  C1501  1  0.755400  0.755000  0.878200  1.0
  C  C1502  1  0.876800  0.377200  0.621800  1.0
  C  C1503  1  0.744600  0.122800  0.499600  1.0
  C  C1504  1  0.623200  0.745000  0.000400  1.0
  C  C1505  1  0.755000  0.878200  0.755400  1.0
  C  C1506  1  0.377200  0.621800  0.876800  1.0
  C  C1507  1  0.122800  0.499600  0.744600  1.0
  C  C1508  1  0.745000  0.000400  0.623200  1.0
  C  C1509  1  0.378200  0.255000  0.255400  1.0
  C  C1510  1  0.121800  0.877200  0.376800  1.0
  C  C1511  1  0.999600  0.622800  0.244600  1.0
  C  C1512  1  0.500400  0.245000  0.123200  1.0
  C  C1513  1  0.255400  0.378200  0.255000  1.0
  C  C1514  1  0.376800  0.121800  0.877200  1.0
  C  C1515  1  0.244600  0.999600  0.622800  1.0
  C  C1516  1  0.123200  0.500400  0.245000  1.0
  C  C1517  1  0.255000  0.255400  0.378200  1.0
  C  C1518  1  0.877200  0.376800  0.121800  1.0
  C  C1519  1  0.622800  0.244600  0.999600  1.0
  C  C1520  1  0.245000  0.123200  0.500400  1.0
  C  C1521  1  0.839700  0.737000  0.716300  1.0
  C  C1522  1  0.660300  0.876600  0.397300  1.0
  C  C1523  1  0.479300  0.763000  0.102700  1.0
  C  C1524  1  0.020700  0.623400  0.783700  1.0
  C  C1525  1  0.737000  0.716300  0.839700  1.0
  C  C1526  1  0.876600  0.397300  0.660300  1.0
  C  C1527  1  0.763000  0.102700  0.479300  1.0
  C  C1528  1  0.623400  0.783700  0.020700  1.0
  C  C1529  1  0.716300  0.839700  0.737000  1.0
  C  C1530  1  0.397300  0.660300  0.876600  1.0
  C  C1531  1  0.102700  0.479300  0.763000  1.0
  C  C1532  1  0.783700  0.020700  0.623400  1.0
  C  C1533  1  0.339700  0.216300  0.237000  1.0
  C  C1534  1  0.160300  0.897300  0.376600  1.0
  C  C1535  1  0.979300  0.602700  0.263000  1.0
  C  C1536  1  0.520700  0.283700  0.123400  1.0
  C  C1537  1  0.237000  0.339700  0.216300  1.0
  C  C1538  1  0.376600  0.160300  0.897300  1.0
  C  C1539  1  0.263000  0.979300  0.602700  1.0
  C  C1540  1  0.123400  0.520700  0.283700  1.0
  C  C1541  1  0.216300  0.237000  0.339700  1.0
  C  C1542  1  0.897300  0.376600  0.160300  1.0
  C  C1543  1  0.602700  0.263000  0.979300  1.0
  C  C1544  1  0.283700  0.123400  0.520700  1.0
  C  C1545  1  0.838000  0.718600  0.676000  1.0
  C  C1546  1  0.662000  0.838000  0.380600  1.0
  C  C1547  1  0.457400  0.781400  0.119400  1.0
  C  C1548  1  0.042600  0.662000  0.824000  1.0
  C  C1549  1  0.718600  0.676000  0.838000  1.0
  C  C1550  1  0.838000  0.380600  0.662000  1.0
  C  C1551  1  0.781400  0.119400  0.457400  1.0
  C  C1552  1  0.662000  0.824000  0.042600  1.0
  C  C1553  1  0.676000  0.838000  0.718600  1.0
  C  C1554  1  0.380600  0.662000  0.838000  1.0
  C  C1555  1  0.119400  0.457400  0.781400  1.0
  C  C1556  1  0.824000  0.042600  0.662000  1.0
  C  C1557  1  0.338000  0.176000  0.218600  1.0
  C  C1558  1  0.162000  0.880600  0.338000  1.0
  C  C1559  1  0.957400  0.619400  0.281400  1.0
  C  C1560  1  0.542600  0.324000  0.162000  1.0
  C  C1561  1  0.218600  0.338000  0.176000  1.0
  C  C1562  1  0.338000  0.162000  0.880600  1.0
  C  C1563  1  0.281400  0.957400  0.619400  1.0
  C  C1564  1  0.162000  0.542600  0.324000  1.0
  C  C1565  1  0.176000  0.218600  0.338000  1.0
  C  C1566  1  0.880600  0.338000  0.162000  1.0
  C  C1567  1  0.619400  0.281400  0.957400  1.0
  C  C1568  1  0.324000  0.162000  0.542600  1.0
  C  C1569  1  0.800900  0.699700  0.638200  1.0
  C  C1570  1  0.699100  0.837300  0.398800  1.0
  C  C1571  1  0.438500  0.800300  0.101200  1.0
  C  C1572  1  0.061500  0.662700  0.861800  1.0
  C  C1573  1  0.699700  0.638200  0.800900  1.0
  C  C1574  1  0.837300  0.398800  0.699100  1.0
  C  C1575  1  0.800300  0.101200  0.438500  1.0
  C  C1576  1  0.662700  0.861800  0.061500  1.0
  C  C1577  1  0.638200  0.800900  0.699700  1.0
  C  C1578  1  0.398800  0.699100  0.837300  1.0
  C  C1579  1  0.101200  0.438500  0.800300  1.0
  C  C1580  1  0.861800  0.061500  0.662700  1.0
  C  C1581  1  0.300900  0.138200  0.199700  1.0
  C  C1582  1  0.199100  0.898800  0.337300  1.0
  C  C1583  1  0.938500  0.601200  0.300300  1.0
  C  C1584  1  0.561500  0.361800  0.162700  1.0
  C  C1585  1  0.199700  0.300900  0.138200  1.0
  C  C1586  1  0.337300  0.199100  0.898800  1.0
  C  C1587  1  0.300300  0.938500  0.601200  1.0
  C  C1588  1  0.162700  0.561500  0.361800  1.0
  C  C1589  1  0.138200  0.199700  0.300900  1.0
  C  C1590  1  0.898800  0.337300  0.199100  1.0
  C  C1591  1  0.601200  0.300300  0.938500  1.0
  C  C1592  1  0.361800  0.162700  0.561500  1.0
  C  C1593  1  0.763100  0.698100  0.637600  1.0
  C  C1594  1  0.736900  0.874500  0.435000  1.0
  C  C1595  1  0.439500  0.801900  0.065000  1.0
  C  C1596  1  0.060500  0.625500  0.862400  1.0
  C  C1597  1  0.698100  0.637600  0.763100  1.0
  C  C1598  1  0.874500  0.435000  0.736900  1.0
  C  C1599  1  0.801900  0.065000  0.439500  1.0
  C  C1600  1  0.625500  0.862400  0.060500  1.0
  C  C1601  1  0.637600  0.763100  0.698100  1.0
  C  C1602  1  0.435000  0.736900  0.874500  1.0
  C  C1603  1  0.065000  0.439500  0.801900  1.0
  C  C1604  1  0.862400  0.060500  0.625500  1.0
  C  C1605  1  0.263100  0.137600  0.198100  1.0
  C  C1606  1  0.236900  0.935000  0.374500  1.0
  C  C1607  1  0.939500  0.565000  0.301900  1.0
  C  C1608  1  0.560500  0.362400  0.125500  1.0
  C  C1609  1  0.198100  0.263100  0.137600  1.0
  C  C1610  1  0.374500  0.236900  0.935000  1.0
  C  C1611  1  0.301900  0.939500  0.565000  1.0
  C  C1612  1  0.125500  0.560500  0.362400  1.0
  C  C1613  1  0.137600  0.198100  0.263100  1.0
  C  C1614  1  0.935000  0.374500  0.236900  1.0
  C  C1615  1  0.565000  0.301900  0.939500  1.0
  C  C1616  1  0.362400  0.125500  0.560500  1.0
  C  C1617  1  0.762700  0.715200  0.674900  1.0
  C  C1618  1  0.737300  0.912200  0.452500  1.0
  C  C1619  1  0.459700  0.784800  0.047500  1.0
  C  C1620  1  0.040300  0.587800  0.825100  1.0
  C  C1621  1  0.715200  0.674900  0.762700  1.0
  C  C1622  1  0.912200  0.452500  0.737300  1.0
  C  C1623  1  0.784800  0.047500  0.459700  1.0
  C  C1624  1  0.587800  0.825100  0.040300  1.0
  C  C1625  1  0.674900  0.762700  0.715200  1.0
  C  C1626  1  0.452500  0.737300  0.912200  1.0
  C  C1627  1  0.047500  0.459700  0.784800  1.0
  C  C1628  1  0.825100  0.040300  0.587800  1.0
  C  C1629  1  0.262700  0.174900  0.215200  1.0
  C  C1630  1  0.237300  0.952500  0.412200  1.0
  C  C1631  1  0.959700  0.547500  0.284800  1.0
  C  C1632  1  0.540300  0.325100  0.087800  1.0
  C  C1633  1  0.215200  0.262700  0.174900  1.0
  C  C1634  1  0.412200  0.237300  0.952500  1.0
  C  C1635  1  0.284800  0.959700  0.547500  1.0
  C  C1636  1  0.087800  0.540300  0.325100  1.0
  C  C1637  1  0.174900  0.215200  0.262700  1.0
  C  C1638  1  0.952500  0.412200  0.237300  1.0
  C  C1639  1  0.547500  0.284800  0.959700  1.0
  C  C1640  1  0.325100  0.087800  0.540300  1.0
  C  C1641  1  0.801500  0.735100  0.715000  1.0
  C  C1642  1  0.698500  0.913500  0.433600  1.0
  C  C1643  1  0.479900  0.764900  0.066400  1.0
  C  C1644  1  0.020100  0.586500  0.785000  1.0
  C  C1645  1  0.735100  0.715000  0.801500  1.0
  C  C1646  1  0.913500  0.433600  0.698500  1.0
  C  C1647  1  0.764900  0.066400  0.479900  1.0
  C  C1648  1  0.586500  0.785000  0.020100  1.0
  C  C1649  1  0.715000  0.801500  0.735100  1.0
  C  C1650  1  0.433600  0.698500  0.913500  1.0
  C  C1651  1  0.066400  0.479900  0.764900  1.0
  C  C1652  1  0.785000  0.020100  0.586500  1.0
  C  C1653  1  0.301500  0.215000  0.235100  1.0
  C  C1654  1  0.198500  0.933600  0.413500  1.0
  C  C1655  1  0.979900  0.566400  0.264900  1.0
  C  C1656  1  0.520100  0.285000  0.086500  1.0
  C  C1657  1  0.235100  0.301500  0.215000  1.0
  C  C1658  1  0.413500  0.198500  0.933600  1.0
  C  C1659  1  0.264900  0.979900  0.566400  1.0
  C  C1660  1  0.086500  0.520100  0.285000  1.0
  C  C1661  1  0.215000  0.235100  0.301500  1.0
  C  C1662  1  0.933600  0.413500  0.198500  1.0
  C  C1663  1  0.566400  0.264900  0.979900  1.0
  C  C1664  1  0.285000  0.086500  0.520100  1.0
  Fe  Fe1665  1  0.736760  0.736760  0.736760  1
  Fe  Fe1666  1  0.763240  0.000000  0.500000  1
  Fe  Fe1667  1  0.500000  0.763240  0.000000  1
  Fe  Fe1668  1  0.000000  0.500000  0.763240  1
  Fe  Fe1669  1  0.236760  0.236760  0.236760  1
  Fe  Fe1670  1  0.263240  0.000000  0.500000  1
  Fe  Fe1671  1  0.000000  0.500000  0.263240  1
  Fe  Fe1672  1  0.500000  0.263240  1.000000  1
  Fe  Fe1673  1  0.104540  0.872440  0.044500  1.0
  Fe  Fe1674  1  0.395460  0.939960  0.267900  1.0
  Fe  Fe1675  1  0.672060  0.627560  0.232100  1.0
  Fe  Fe1676  1  0.827940  0.560040  0.455500  1.0
  Fe  Fe1677  1  0.872440  0.044500  0.104540  1.0
  Fe  Fe1678  1  0.939960  0.267900  0.395460  1.0
  Fe  Fe1679  1  0.627560  0.232100  0.672060  1.0
  Fe  Fe1680  1  0.560040  0.455500  0.827940  1.0
  Fe  Fe1681  1  0.044500  0.104540  0.872440  1.0
  Fe  Fe1682  1  0.267900  0.395460  0.939960  1.0
  Fe  Fe1683  1  0.232100  0.672060  0.627560  1.0
  Fe  Fe1684  1  0.455500  0.827940  0.560040  1.0
  Fe  Fe1685  1  0.604540  0.544500  0.372440  1.0
  Fe  Fe1686  1  0.895460  0.767900  0.439960  1.0
  Fe  Fe1687  1  0.172060  0.732100  0.127560  1.0
  Fe  Fe1688  1  0.327940  0.955500  0.060040  1.0
  Fe  Fe1689  1  0.372440  0.604540  0.544500  1.0
  Fe  Fe1690  1  0.439960  0.895460  0.767900  1.0
  Fe  Fe1691  1  0.127560  0.172060  0.732100  1.0
  Fe  Fe1692  1  0.060040  0.327940  0.955500  1.0
  Fe  Fe1693  1  0.544500  0.372440  0.604540  1.0
  Fe  Fe1694  1  0.767900  0.439960  0.895460  1.0
  Fe  Fe1695  1  0.732100  0.127560  0.172060  1.0
  Fe  Fe1696  1  0.955500  0.060040  0.327940  1.0
  H  H1697  1  0.971000  0.997600  0.752200  1
  H  H1698  1  0.529000  0.781200  0.526600  1
  H  H1699  1  0.254600  0.502400  0.973400  1
  H  H1700  1  0.245400  0.718800  0.747800  1
  H  H1701  1  0.997600  0.752200  0.971000  1
  H  H1702  1  0.781200  0.526600  0.529000  1
  H  H1703  1  0.502400  0.973400  0.254600  1
  H  H1704  1  0.718800  0.747800  0.245400  1
  H  H1705  1  0.752200  0.971000  0.997600  1
  H  H1706  1  0.526600  0.529000  0.781200  1
  H  H1707  1  0.973400  0.254600  0.502400  1
  H  H1708  1  0.747800  0.245400  0.718800  1
  H  H1709  1  0.471000  0.252200  0.497600  1
  H  H1710  1  0.029000  0.026600  0.281200  1
  H  H1711  1  0.754600  0.473400  0.002400  1
  H  H1712  1  0.745400  0.247800  0.218800  1
  H  H1713  1  0.497600  0.471000  0.252200  1
  H  H1714  1  0.281200  0.029000  0.026600  1
  H  H1715  1  0.002400  0.754600  0.473400  1
  H  H1716  1  0.218800  0.745400  0.247800  1
  H  H1717  1  0.252200  0.497600  0.471000  1
  H  H1718  1  0.026600  0.281200  0.029000  1
  H  H1719  1  0.473400  0.002400  0.754600  1
  H  H1720  1  0.247800  0.218800  0.745400  1
  H  H1721  1  0.976700  0.044000  0.760700  1
  H  H1722  1  0.523300  0.784000  0.567300  1
  H  H1723  1  0.216700  0.456000  0.932700  1
  H  H1724  1  0.283300  0.716000  0.739300  1
  H  H1725  1  0.044000  0.760700  0.976700  1
  H  H1726  1  0.784000  0.567300  0.523300  1
  H  H1727  1  0.456000  0.932700  0.216700  1
  H  H1728  1  0.716000  0.739300  0.283300  1
  H  H1729  1  0.760700  0.976700  0.044000  1
  H  H1730  1  0.567300  0.523300  0.784000  1
  H  H1731  1  0.932700  0.216700  0.456000  1
  H  H1732  1  0.739300  0.283300  0.716000  1
  H  H1733  1  0.476700  0.260700  0.544000  1
  H  H1734  1  0.023300  0.067300  0.284000  1
  H  H1735  1  0.716700  0.432700  0.956000  1
  H  H1736  1  0.783300  0.239300  0.216000  1
  H  H1737  1  0.544000  0.476700  0.260700  1
  H  H1738  1  0.284000  0.023300  0.067300  1
  H  H1739  1  0.956000  0.716700  0.432700  1
  H  H1740  1  0.216000  0.783300  0.239300  1
  H  H1741  1  0.260700  0.544000  0.476700  1
  H  H1742  1  0.067300  0.284000  0.023300  1
  H  H1743  1  0.432700  0.956000  0.716700  1
  H  H1744  1  0.239300  0.216000  0.783300  1
  H  H1745  1  0.021200  0.010600  0.732400  1
  H  H1746  1  0.478800  0.711200  0.489400  1
  H  H1747  1  0.221800  0.489400  0.010600  1
  H  H1748  1  0.278200  0.788800  0.767600  1
  H  H1749  1  0.010600  0.732400  0.021200  1
  H  H1750  1  0.711200  0.489400  0.478800  1
  H  H1751  1  0.489400  0.010600  0.221800  1
  H  H1752  1  0.788800  0.767600  0.278200  1
  H  H1753  1  0.732400  0.021200  0.010600  1
  H  H1754  1  0.489400  0.478800  0.711200  1
  H  H1755  1  0.010600  0.221800  0.489400  1
  H  H1756  1  0.767600  0.278200  0.788800  1
  H  H1757  1  0.521200  0.232400  0.510600  1
  H  H1758  1  0.978800  0.989400  0.211200  1
  H  H1759  1  0.721800  0.510600  0.989400  1
  H  H1760  1  0.778200  0.267600  0.288800  1
  H  H1761  1  0.510600  0.521200  0.232400  1
  H  H1762  1  0.211200  0.978800  0.989400  1
  H  H1763  1  0.989400  0.721800  0.510600  1
  H  H1764  1  0.288800  0.778200  0.267600  1
  H  H1765  1  0.232400  0.510600  0.521200  1
  H  H1766  1  0.989400  0.211200  0.978800  1
  H  H1767  1  0.510600  0.989400  0.721800  1
  H  H1768  1  0.267600  0.288800  0.778200  1
  H  H1769  1  0.014100  0.011800  0.689100  1
  H  H1770  1  0.485900  0.675000  0.497700  1
  H  H1771  1  0.177300  0.488200  0.002300  1
  H  H1772  1  0.322700  0.825000  0.810900  1
  H  H1773  1  0.011800  0.689100  0.014100  1
  H  H1774  1  0.675000  0.497700  0.485900  1
  H  H1775  1  0.488200  0.002300  0.177300  1
  H  H1776  1  0.825000  0.810900  0.322700  1
  H  H1777  1  0.689100  0.014100  0.011800  1
  H  H1778  1  0.497700  0.485900  0.675000  1
  H  H1779  1  0.002300  0.177300  0.488200  1
  H  H1780  1  0.810900  0.322700  0.825000  1
  H  H1781  1  0.514100  0.189100  0.511800  1
  H  H1782  1  0.985900  0.997700  0.175000  1
  H  H1783  1  0.677300  0.502300  0.988200  1
  H  H1784  1  0.822700  0.310900  0.325000  1
  H  H1785  1  0.511800  0.514100  0.189100  1
  H  H1786  1  0.175000  0.985900  0.997700  1
  H  H1787  1  0.988200  0.677300  0.502300  1
  H  H1788  1  0.325000  0.822700  0.310900  1
  H  H1789  1  0.189100  0.511800  0.514100  1
  H  H1790  1  0.997700  0.175000  0.985900  1
  H  H1791  1  0.502300  0.988200  0.677300  1
  H  H1792  1  0.310900  0.325000  0.822700  1
  H  H1793  1  0.963500  0.060900  0.703200  1
  H  H1794  1  0.536500  0.739700  0.597400  1
  H  H1795  1  0.142300  0.439100  0.902600  1
  H  H1796  1  0.357700  0.760300  0.796800  1
  H  H1797  1  0.060900  0.703200  0.963500  1
  H  H1798  1  0.739700  0.597400  0.536500  1
  H  H1799  1  0.439100  0.902600  0.142300  1
  H  H1800  1  0.760300  0.796800  0.357700  1
  H  H1801  1  0.703200  0.963500  0.060900  1
  H  H1802  1  0.597400  0.536500  0.739700  1
  H  H1803  1  0.902600  0.142300  0.439100  1
  H  H1804  1  0.796800  0.357700  0.760300  1
  H  H1805  1  0.463500  0.203200  0.560900  1
  H  H1806  1  0.036500  0.097400  0.239700  1
  H  H1807  1  0.642300  0.402600  0.939100  1
  H  H1808  1  0.857700  0.296800  0.260300  1
  H  H1809  1  0.560900  0.463500  0.203200  1
  H  H1810  1  0.239700  0.036500  0.097400  1
  H  H1811  1  0.939100  0.642300  0.402600  1
  H  H1812  1  0.260300  0.857700  0.296800  1
  H  H1813  1  0.203200  0.560900  0.463500  1
  H  H1814  1  0.097400  0.239700  0.036500  1
  H  H1815  1  0.402600  0.939100  0.642300  1
  H  H1816  1  0.296800  0.260300  0.857700  1
  H  H1817  1  0.916600  0.019200  0.671200  1
  H  H1818  1  0.583400  0.754600  0.602600  1
  H  H1819  1  0.152000  0.480800  0.897400  1
  H  H1820  1  0.348000  0.745400  0.828800  1
  H  H1821  1  0.019200  0.671200  0.916600  1
  H  H1822  1  0.754600  0.602600  0.583400  1
  H  H1823  1  0.480800  0.897400  0.152000  1
  H  H1824  1  0.745400  0.828800  0.348000  1
  H  H1825  1  0.671200  0.916600  0.019200  1
  H  H1826  1  0.602600  0.583400  0.754600  1
  H  H1827  1  0.897400  0.152000  0.480800  1
  H  H1828  1  0.828800  0.348000  0.745400  1
  H  H1829  1  0.416600  0.171200  0.519200  1
  H  H1830  1  0.083400  0.102600  0.254600  1
  H  H1831  1  0.652000  0.397400  0.980800  1
  H  H1832  1  0.848000  0.328800  0.245400  1
  H  H1833  1  0.519200  0.416600  0.171200  1
  H  H1834  1  0.254600  0.083400  0.102600  1
  H  H1835  1  0.980800  0.652000  0.397400  1
  H  H1836  1  0.245400  0.848000  0.328800  1
  H  H1837  1  0.171200  0.519200  0.416600  1
  H  H1838  1  0.102600  0.254600  0.083400  1
  H  H1839  1  0.397400  0.980800  0.652000  1
  H  H1840  1  0.328800  0.245400  0.848000  1
  H  H1841  1  0.935900  0.952900  0.638600  1
  H  H1842  1  0.564100  0.702700  0.517000  1
  H  H1843  1  0.185700  0.547100  0.983000  1
  H  H1844  1  0.314300  0.797300  0.861400  1
  H  H1845  1  0.952900  0.638600  0.935900  1
  H  H1846  1  0.702700  0.517000  0.564100  1
  H  H1847  1  0.547100  0.983000  0.185700  1
  H  H1848  1  0.797300  0.861400  0.314300  1
  H  H1849  1  0.638600  0.935900  0.952900  1
  H  H1850  1  0.517000  0.564100  0.702700  1
  H  H1851  1  0.983000  0.185700  0.547100  1
  H  H1852  1  0.861400  0.314300  0.797300  1
  H  H1853  1  0.435900  0.138600  0.452900  1
  H  H1854  1  0.064100  0.017000  0.202700  1
  H  H1855  1  0.685700  0.483000  0.047100  1
  H  H1856  1  0.814300  0.361400  0.297300  1
  H  H1857  1  0.452900  0.435900  0.138600  1
  H  H1858  1  0.202700  0.064100  0.017000  1
  H  H1859  1  0.047100  0.685700  0.483000  1
  H  H1860  1  0.297300  0.814300  0.361400  1
  H  H1861  1  0.138600  0.452900  0.435900  1
  H  H1862  1  0.017000  0.202700  0.064100  1
  H  H1863  1  0.483000  0.047100  0.685700  1
  H  H1864  1  0.361400  0.297300  0.814300  1
  H  H1865  1  0.903600  0.948600  0.657600  1
  H  H1866  1  0.596400  0.754000  0.545000  1
  H  H1867  1  0.209000  0.551400  0.955000  1
  H  H1868  1  0.291000  0.746000  0.842400  1
  H  H1869  1  0.948600  0.657600  0.903600  1
  H  H1870  1  0.754000  0.545000  0.596400  1
  H  H1871  1  0.551400  0.955000  0.209000  1
  H  H1872  1  0.746000  0.842400  0.291000  1
  H  H1873  1  0.657600  0.903600  0.948600  1
  H  H1874  1  0.545000  0.596400  0.754000  1
  H  H1875  1  0.955000  0.209000  0.551400  1
  H  H1876  1  0.842400  0.291000  0.746000  1
  H  H1877  1  0.403600  0.157600  0.448600  1
  H  H1878  1  0.096400  0.045000  0.254000  1
  H  H1879  1  0.709000  0.455000  0.051400  1
  H  H1880  1  0.791000  0.342400  0.246000  1
  H  H1881  1  0.448600  0.403600  0.157600  1
  H  H1882  1  0.254000  0.096400  0.045000  1
  H  H1883  1  0.051400  0.709000  0.455000  1
  H  H1884  1  0.246000  0.791000  0.342400  1
  H  H1885  1  0.157600  0.448600  0.403600  1
  H  H1886  1  0.045000  0.254000  0.096400  1
  H  H1887  1  0.455000  0.051400  0.709000  1
  H  H1888  1  0.342400  0.246000  0.791000  1
  H  H1889  1  0.914300  0.003400  0.759300  1
  H  H1890  1  0.585700  0.845000  0.589100  1
  H  H1891  1  0.255900  0.496600  0.910900  1
  H  H1892  1  0.244100  0.655000  0.740700  1
  H  H1893  1  0.003400  0.759300  0.914300  1
  H  H1894  1  0.845000  0.589100  0.585700  1
  H  H1895  1  0.496600  0.910900  0.255900  1
  H  H1896  1  0.655000  0.740700  0.244100  1
  H  H1897  1  0.759300  0.914300  0.003400  1
  H  H1898  1  0.589100  0.585700  0.845000  1
  H  H1899  1  0.910900  0.255900  0.496600  1
  H  H1900  1  0.740700  0.244100  0.655000  1
  H  H1901  1  0.414300  0.259300  0.503400  1
  H  H1902  1  0.085700  0.089100  0.345000  1
  H  H1903  1  0.755900  0.410900  0.996600  1
  H  H1904  1  0.744100  0.240700  0.155000  1
  H  H1905  1  0.503400  0.414300  0.259300  1
  H  H1906  1  0.345000  0.085700  0.089100  1
  H  H1907  1  0.996600  0.755900  0.410900  1
  H  H1908  1  0.155000  0.744100  0.240700  1
  H  H1909  1  0.259300  0.503400  0.414300  1
  H  H1910  1  0.089100  0.345000  0.085700  1
  H  H1911  1  0.410900  0.996600  0.755900  1
  H  H1912  1  0.240700  0.155000  0.744100  1
  H  H1913  1  0.896000  0.966200  0.711400  1
  H  H1914  1  0.604000  0.815400  0.570200  1
  H  H1915  1  0.245200  0.533800  0.929800  1
  H  H1916  1  0.254800  0.684600  0.788600  1
  H  H1917  1  0.966200  0.711400  0.896000  1
  H  H1918  1  0.815400  0.570200  0.604000  1
  H  H1919  1  0.533800  0.929800  0.245200  1
  H  H1920  1  0.684600  0.788600  0.254800  1
  H  H1921  1  0.711400  0.896000  0.966200  1
  H  H1922  1  0.570200  0.604000  0.815400  1
  H  H1923  1  0.929800  0.245200  0.533800  1
  H  H1924  1  0.788600  0.254800  0.684600  1
  H  H1925  1  0.396000  0.211400  0.466200  1
  H  H1926  1  0.104000  0.070200  0.315400  1
  H  H1927  1  0.745200  0.429800  0.033800  1
  H  H1928  1  0.754800  0.288600  0.184600  1
  H  H1929  1  0.466200  0.396000  0.211400  1
  H  H1930  1  0.315400  0.104000  0.070200  1
  H  H1931  1  0.033800  0.745200  0.429800  1
  H  H1932  1  0.184600  0.754800  0.288600  1
  H  H1933  1  0.211400  0.466200  0.396000  1
  H  H1934  1  0.070200  0.315400  0.104000  1
  H  H1935  1  0.429800  0.033800  0.745200  1
  H  H1936  1  0.288600  0.184600  0.754800  1
  H  H1937  1  0.901600  0.012600  0.719800  1
  H  H1938  1  0.598400  0.818200  0.611000  1
  H  H1939  1  0.207200  0.487400  0.889000  1
  H  H1940  1  0.292800  0.681800  0.780200  1
  H  H1941  1  0.012600  0.719800  0.901600  1
  H  H1942  1  0.818200  0.611000  0.598400  1
  H  H1943  1  0.487400  0.889000  0.207200  1
  H  H1944  1  0.681800  0.780200  0.292800  1
  H  H1945  1  0.719800  0.901600  0.012600  1
  H  H1946  1  0.611000  0.598400  0.818200  1
  H  H1947  1  0.889000  0.207200  0.487400  1
  H  H1948  1  0.780200  0.292800  0.681800  1
  H  H1949  1  0.401600  0.219800  0.512600  1
  H  H1950  1  0.098400  0.111000  0.318200  1
  H  H1951  1  0.707200  0.389000  0.987400  1
  H  H1952  1  0.792800  0.280200  0.181800  1
  H  H1953  1  0.512600  0.401600  0.219800  1
  H  H1954  1  0.318200  0.098400  0.111000  1
  H  H1955  1  0.987400  0.707200  0.389000  1
  H  H1956  1  0.181800  0.792800  0.280200  1
  H  H1957  1  0.219800  0.512600  0.401600  1
  H  H1958  1  0.111000  0.318200  0.098400  1
  H  H1959  1  0.389000  0.987400  0.707200  1
  H  H1960  1  0.280200  0.181800  0.792800  1
  H  H1961  1  0.070500  0.075600  0.747300  1
  H  H1962  1  0.429500  0.676800  0.505100  1
  H  H1963  1  0.171700  0.424400  0.994900  1
  H  H1964  1  0.328300  0.823200  0.752700  1
  H  H1965  1  0.075600  0.747300  0.070500  1
  H  H1966  1  0.676800  0.505100  0.429500  1
  H  H1967  1  0.424400  0.994900  0.171700  1
  H  H1968  1  0.823200  0.752700  0.328300  1
  H  H1969  1  0.747300  0.070500  0.075600  1
  H  H1970  1  0.505100  0.429500  0.676800  1
  H  H1971  1  0.994900  0.171700  0.424400  1
  H  H1972  1  0.752700  0.328300  0.823200  1
  H  H1973  1  0.570500  0.247300  0.575600  1
  H  H1974  1  0.929500  0.005100  0.176800  1
  H  H1975  1  0.671700  0.494900  0.924400  1
  H  H1976  1  0.828300  0.252700  0.323200  1
  H  H1977  1  0.575600  0.570500  0.247300  1
  H  H1978  1  0.176800  0.929500  0.005100  1
  H  H1979  1  0.924400  0.671700  0.494900  1
  H  H1980  1  0.323200  0.828300  0.252700  1
  H  H1981  1  0.247300  0.575600  0.570500  1
  H  H1982  1  0.005100  0.176800  0.929500  1
  H  H1983  1  0.494900  0.924400  0.671700  1
  H  H1984  1  0.252700  0.323200  0.828300  1
  H  H1985  1  0.040300  0.082200  0.767100  1
  H  H1986  1  0.459700  0.726800  0.541900  1
  H  H1987  1  0.184900  0.417800  0.958100  1
  H  H1988  1  0.315100  0.773200  0.732900  1
  H  H1989  1  0.082200  0.767100  0.040300  1
  H  H1990  1  0.726800  0.541900  0.459700  1
  H  H1991  1  0.417800  0.958100  0.184900  1
  H  H1992  1  0.773200  0.732900  0.315100  1
  H  H1993  1  0.767100  0.040300  0.082200  1
  H  H1994  1  0.541900  0.459700  0.726800  1
  H  H1995  1  0.958100  0.184900  0.417800  1
  H  H1996  1  0.732900  0.315100  0.773200  1
  H  H1997  1  0.540300  0.267100  0.582200  1
  H  H1998  1  0.959700  0.041900  0.226800  1
  H  H1999  1  0.684900  0.458100  0.917800  1
  H  H2000  1  0.815100  0.232900  0.273200  1
  H  H2001  1  0.582200  0.540300  0.267100  1
  H  H2002  1  0.226800  0.959700  0.041900  1
  H  H2003  1  0.917800  0.684900  0.458100  1
  H  H2004  1  0.273200  0.815100  0.232900  1
  H  H2005  1  0.267100  0.582200  0.540300  1
  H  H2006  1  0.041900  0.226800  0.959700  1
  H  H2007  1  0.458100  0.917800  0.684900  1
  H  H2008  1  0.232900  0.273200  0.815100  1
  H  H2009  1  0.032700  0.083500  0.723400  1
  H  H2010  1  0.467300  0.690700  0.550800  1
  H  H2011  1  0.139900  0.416500  0.949200  1
  H  H2012  1  0.360100  0.809300  0.776600  1
  H  H2013  1  0.083500  0.723400  0.032700  1
  H  H2014  1  0.690700  0.550800  0.467300  1
  H  H2015  1  0.416500  0.949200  0.139900  1
  H  H2016  1  0.809300  0.776600  0.360100  1
  H  H2017  1  0.723400  0.032700  0.083500  1
  H  H2018  1  0.550800  0.467300  0.690700  1
  H  H2019  1  0.949200  0.139900  0.416500  1
  H  H2020  1  0.776600  0.360100  0.809300  1
  H  H2021  1  0.532700  0.223400  0.583500  1
  H  H2022  1  0.967300  0.050800  0.190700  1
  H  H2023  1  0.639900  0.449200  0.916500  1
  H  H2024  1  0.860100  0.276600  0.309300  1
  H  H2025  1  0.583500  0.532700  0.223400  1
  H  H2026  1  0.190700  0.967300  0.050800  1
  H  H2027  1  0.916500  0.639900  0.449200  1
  H  H2028  1  0.309300  0.860100  0.276600  1
  H  H2029  1  0.223400  0.583500  0.532700  1
  H  H2030  1  0.050800  0.190700  0.967300  1
  H  H2031  1  0.449200  0.916500  0.639900  1
  H  H2032  1  0.276600  0.309300  0.860100  1
  H  H2033  1  0.941400  0.046100  0.631900  1
  H  H2034  1  0.558600  0.690500  0.604700  1
  H  H2035  1  0.085800  0.453900  0.895300  1
  H  H2036  1  0.414200  0.809500  0.868100  1
  H  H2037  1  0.046100  0.631900  0.941400  1
  H  H2038  1  0.690500  0.604700  0.558600  1
  H  H2039  1  0.453900  0.895300  0.085800  1
  H  H2040  1  0.809500  0.868100  0.414200  1
  H  H2041  1  0.631900  0.941400  0.046100  1
  H  H2042  1  0.604700  0.558600  0.690500  1
  H  H2043  1  0.895300  0.085800  0.453900  1
  H  H2044  1  0.868100  0.414200  0.809500  1
  H  H2045  1  0.441400  0.131900  0.546100  1
  H  H2046  1  0.058600  0.104700  0.190500  1
  H  H2047  1  0.585800  0.395300  0.953900  1
  H  H2048  1  0.914200  0.368100  0.309500  1
  H  H2049  1  0.546100  0.441400  0.131900  1
  H  H2050  1  0.190500  0.058600  0.104700  1
  H  H2051  1  0.953900  0.585800  0.395300  1
  H  H2052  1  0.309500  0.914200  0.368100  1
  H  H2053  1  0.131900  0.546100  0.441400  1
  H  H2054  1  0.104700  0.190500  0.058600  1
  H  H2055  1  0.395300  0.953900  0.585800  1
  H  H2056  1  0.368100  0.309500  0.914200  1
  H  H2057  1  0.936400  0.999100  0.617700  1
  H  H2058  1  0.563600  0.681300  0.562700  1
  H  H2059  1  0.118600  0.500900  0.937300  1
  H  H2060  1  0.381400  0.818700  0.882300  1
  H  H2061  1  0.999100  0.617700  0.936400  1
  H  H2062  1  0.681300  0.562700  0.563600  1
  H  H2063  1  0.500900  0.937300  0.118600  1
  H  H2064  1  0.818700  0.882300  0.381400  1
  H  H2065  1  0.617700  0.936400  0.999100  1
  H  H2066  1  0.562700  0.563600  0.681300  1
  H  H2067  1  0.937300  0.118600  0.500900  1
  H  H2068  1  0.882300  0.381400  0.818700  1
  H  H2069  1  0.436400  0.117700  0.499100  1
  H  H2070  1  0.063600  0.062700  0.181300  1
  H  H2071  1  0.618600  0.437300  0.000900  1
  H  H2072  1  0.881400  0.382300  0.318700  1
  H  H2073  1  0.499100  0.436400  0.117700  1
  H  H2074  1  0.181300  0.063600  0.062700  1
  H  H2075  1  0.000900  0.618600  0.437300  1
  H  H2076  1  0.318700  0.881400  0.382300  1
  H  H2077  1  0.117700  0.499100  0.436400  1
  H  H2078  1  0.062700  0.181300  0.063600  1
  H  H2079  1  0.437300  0.000900  0.618600  1
  H  H2080  1  0.382300  0.318700  0.881400  1
  H  H2081  1  0.983300  0.041400  0.649900  1
  H  H2082  1  0.516700  0.666600  0.558100  1
  H  H2083  1  0.108500  0.458600  0.941900  1
  H  H2084  1  0.391500  0.833400  0.850100  1
  H  H2085  1  0.041400  0.649900  0.983300  1
  H  H2086  1  0.666600  0.558100  0.516700  1
  H  H2087  1  0.458600  0.941900  0.108500  1
  H  H2088  1  0.833400  0.850100  0.391500  1
  H  H2089  1  0.649900  0.983300  0.041400  1
  H  H2090  1  0.558100  0.516700  0.666600  1
  H  H2091  1  0.941900  0.108500  0.458600  1
  H  H2092  1  0.850100  0.391500  0.833400  1
  H  H2093  1  0.483300  0.149900  0.541400  1
  H  H2094  1  0.016700  0.058100  0.166600  1
  H  H2095  1  0.608500  0.441900  0.958600  1
  H  H2096  1  0.891500  0.350100  0.333400  1
  H  H2097  1  0.541400  0.483300  0.149900  1
  H  H2098  1  0.166600  0.016700  0.058100  1
  H  H2099  1  0.958600  0.608500  0.441900  1
  H  H2100  1  0.333400  0.891500  0.350100  1
  H  H2101  1  0.149900  0.541400  0.483300  1
  H  H2102  1  0.058100  0.166600  0.016700  1
  H  H2103  1  0.441900  0.958600  0.608500  1
  H  H2104  1  0.350100  0.333400  0.891500  1
  H  H2105  1  0.928600  0.897800  0.658600  1
  H  H2106  1  0.571400  0.730000  0.469200  1
  H  H2107  1  0.260800  0.602200  0.030800  1
  H  H2108  1  0.239200  0.770000  0.841400  1
  H  H2109  1  0.897800  0.658600  0.928600  1
  H  H2110  1  0.730000  0.469200  0.571400  1
  H  H2111  1  0.602200  0.030800  0.260800  1
  H  H2112  1  0.770000  0.841400  0.239200  1
  H  H2113  1  0.658600  0.928600  0.897800  1
  H  H2114  1  0.469200  0.571400  0.730000  1
  H  H2115  1  0.030800  0.260800  0.602200  1
  H  H2116  1  0.841400  0.239200  0.770000  1
  H  H2117  1  0.428600  0.158600  0.397800  1
  H  H2118  1  0.071400  0.969200  0.230000  1
  H  H2119  1  0.760800  0.530800  0.102200  1
  H  H2120  1  0.739200  0.341400  0.270000  1
  H  H2121  1  0.397800  0.428600  0.158600  1
  H  H2122  1  0.230000  0.071400  0.969200  1
  H  H2123  1  0.102200  0.760800  0.530800  1
  H  H2124  1  0.270000  0.739200  0.341400  1
  H  H2125  1  0.158600  0.397800  0.428600  1
  H  H2126  1  0.969200  0.230000  0.071400  1
  H  H2127  1  0.530800  0.102200  0.760800  1
  H  H2128  1  0.341400  0.270000  0.739200  1
  H  H2129  1  0.945200  0.932100  0.707300  1
  H  H2130  1  0.554800  0.762100  0.486900  1
  H  H2131  1  0.275200  0.567900  0.013100  1
  H  H2132  1  0.224800  0.737900  0.792700  1
  H  H2133  1  0.932100  0.707300  0.945200  1
  H  H2134  1  0.762100  0.486900  0.554800  1
  H  H2135  1  0.567900  0.013100  0.275200  1
  H  H2136  1  0.737900  0.792700  0.224800  1
  H  H2137  1  0.707300  0.945200  0.932100  1
  H  H2138  1  0.486900  0.554800  0.762100  1
  H  H2139  1  0.013100  0.275200  0.567900  1
  H  H2140  1  0.792700  0.224800  0.737900  1
  H  H2141  1  0.445200  0.207300  0.432100  1
  H  H2142  1  0.054800  0.986900  0.262100  1
  H  H2143  1  0.775200  0.513100  0.067900  1
  H  H2144  1  0.724800  0.292700  0.237900  1
  H  H2145  1  0.432100  0.445200  0.207300  1
  H  H2146  1  0.262100  0.054800  0.986900  1
  H  H2147  1  0.067900  0.775200  0.513100  1
  H  H2148  1  0.237900  0.724800  0.292700  1
  H  H2149  1  0.207300  0.432100  0.445200  1
  H  H2150  1  0.986900  0.262100  0.054800  1
  H  H2151  1  0.513100  0.067900  0.775200  1
  H  H2152  1  0.292700  0.237900  0.724800  1
  H  H2153  1  0.977600  0.936600  0.688600  1
  H  H2154  1  0.522400  0.711000  0.459000  1
  H  H2155  1  0.252000  0.563400  0.041000  1
  H  H2156  1  0.248000  0.789000  0.811400  1
  H  H2157  1  0.936600  0.688600  0.977600  1
  H  H2158  1  0.711000  0.459000  0.522400  1
  H  H2159  1  0.563400  0.041000  0.252000  1
  H  H2160  1  0.789000  0.811400  0.248000  1
  H  H2161  1  0.688600  0.977600  0.936600  1
  H  H2162  1  0.459000  0.522400  0.711000  1
  H  H2163  1  0.041000  0.252000  0.563400  1
  H  H2164  1  0.811400  0.248000  0.789000  1
  H  H2165  1  0.477600  0.188600  0.436600  1
  H  H2166  1  0.022400  0.959000  0.211000  1
  H  H2167  1  0.752000  0.541000  0.063400  1
  H  H2168  1  0.748000  0.311400  0.289000  1
  H  H2169  1  0.436600  0.477600  0.188600  1
  H  H2170  1  0.211000  0.022400  0.959000  1
  H  H2171  1  0.063400  0.752000  0.541000  1
  H  H2172  1  0.289000  0.748000  0.311400  1
  H  H2173  1  0.188600  0.436600  0.477600  1
  H  H2174  1  0.959000  0.211000  0.022400  1
  H  H2175  1  0.541000  0.063400  0.752000  1
  H  H2176  1  0.311400  0.289000  0.748000  1
  H  H2177  1  0.101700  0.902300  0.958000  1.0
  H  H2178  1  0.398300  0.856300  0.300600  1.0
  H  H2179  1  0.555700  0.597700  0.199400  1.0
  H  H2180  1  0.944300  0.643700  0.542000  1.0
  H  H2181  1  0.902300  0.958000  0.101700  1.0
  H  H2182  1  0.856300  0.300600  0.398300  1.0
  H  H2183  1  0.597700  0.199400  0.555700  1.0
  H  H2184  1  0.643700  0.542000  0.944300  1.0
  H  H2185  1  0.958000  0.101700  0.902300  1.0
  H  H2186  1  0.300600  0.398300  0.856300  1.0
  H  H2187  1  0.199400  0.555700  0.597700  1.0
  H  H2188  1  0.542000  0.944300  0.643700  1.0
  H  H2189  1  0.601700  0.458000  0.402300  1.0
  H  H2190  1  0.898300  0.800600  0.356300  1.0
  H  H2191  1  0.055700  0.699400  0.097700  1.0
  H  H2192  1  0.444300  0.042000  0.143700  1.0
  H  H2193  1  0.402300  0.601700  0.458000  1.0
  H  H2194  1  0.356300  0.898300  0.800600  1.0
  H  H2195  1  0.097700  0.055700  0.699400  1.0
  H  H2196  1  0.143700  0.444300  0.042000  1.0
  H  H2197  1  0.458000  0.402300  0.601700  1.0
  H  H2198  1  0.800600  0.356300  0.898300  1.0
  H  H2199  1  0.699400  0.097700  0.055700  1.0
  H  H2200  1  0.042000  0.143700  0.444300  1.0
  H  H2201  1  0.077400  0.066600  0.950600  1.0
  H  H2202  1  0.422600  0.873200  0.489200  1.0
  H  H2203  1  0.384000  0.433400  0.010800  1.0
  H  H2204  1  0.116000  0.626800  0.549400  1.0
  H  H2205  1  0.066600  0.950600  0.077400  1.0
  H  H2206  1  0.873200  0.489200  0.422600  1.0
  H  H2207  1  0.433400  0.010800  0.384000  1.0
  H  H2208  1  0.626800  0.549400  0.116000  1.0
  H  H2209  1  0.950600  0.077400  0.066600  1.0
  H  H2210  1  0.489200  0.422600  0.873200  1.0
  H  H2211  1  0.010800  0.384000  0.433400  1.0
  H  H2212  1  0.549400  0.116000  0.626800  1.0
  H  H2213  1  0.577400  0.450600  0.566600  1.0
  H  H2214  1  0.922600  0.989200  0.373200  1.0
  H  H2215  1  0.884000  0.510800  0.933400  1.0
  H  H2216  1  0.616000  0.049400  0.126800  1.0
  H  H2217  1  0.566600  0.577400  0.450600  1.0
  H  H2218  1  0.373200  0.922600  0.989200  1.0
  H  H2219  1  0.933400  0.884000  0.510800  1.0
  H  H2220  1  0.126800  0.616000  0.049400  1.0
  H  H2221  1  0.450600  0.566600  0.577400  1.0
  H  H2222  1  0.989200  0.373200  0.922600  1.0
  H  H2223  1  0.510800  0.933400  0.884000  1.0
  H  H2224  1  0.049400  0.126800  0.616000  1.0
  H  H2225  1  0.981700  0.816500  0.983800  1.0
  H  H2226  1  0.518300  0.002100  0.334800  1.0
  H  H2227  1  0.667300  0.683500  0.165200  1.0
  H  H2228  1  0.832700  0.497900  0.516200  1.0
  H  H2229  1  0.816500  0.983800  0.981700  1.0
  H  H2230  1  0.002100  0.334800  0.518300  1.0
  H  H2231  1  0.683500  0.165200  0.667300  1.0
  H  H2232  1  0.497900  0.516200  0.832700  1.0
  H  H2233  1  0.983800  0.981700  0.816500  1.0
  H  H2234  1  0.334800  0.518300  0.002100  1.0
  H  H2235  1  0.165200  0.667300  0.683500  1.0
  H  H2236  1  0.516200  0.832700  0.497900  1.0
  H  H2237  1  0.481700  0.483800  0.316500  1.0
  H  H2238  1  0.018300  0.834800  0.502100  1.0
  H  H2239  1  0.167300  0.665200  0.183500  1.0
  H  H2240  1  0.332700  0.016200  0.997900  1.0
  H  H2241  1  0.316500  0.481700  0.483800  1.0
  H  H2242  1  0.502100  0.018300  0.834800  1.0
  H  H2243  1  0.183500  0.167300  0.665200  1.0
  H  H2244  1  0.997900  0.332700  0.016200  1.0
  H  H2245  1  0.483800  0.316500  0.481700  1.0
  H  H2246  1  0.834800  0.502100  0.018300  1.0
  H  H2247  1  0.665200  0.183500  0.167300  1.0
  H  H2248  1  0.016200  0.997900  0.332700  1.0
  H  H2249  1  0.853800  0.769900  0.790500  1.0
  H  H2250  1  0.646200  0.936700  0.416100  1.0
  H  H2251  1  0.520600  0.730100  0.083900  1.0
  H  H2252  1  0.979400  0.563300  0.709500  1.0
  H  H2253  1  0.769900  0.790500  0.853800  1.0
  H  H2254  1  0.936700  0.416100  0.646200  1.0
  H  H2255  1  0.730100  0.083900  0.520600  1.0
  H  H2256  1  0.563300  0.709500  0.979400  1.0
  H  H2257  1  0.790500  0.853800  0.769900  1.0
  H  H2258  1  0.416100  0.646200  0.936700  1.0
  H  H2259  1  0.083900  0.520600  0.730100  1.0
  H  H2260  1  0.709500  0.979400  0.563300  1.0
  H  H2261  1  0.353800  0.290500  0.269900  1.0
  H  H2262  1  0.146200  0.916100  0.436700  1.0
  H  H2263  1  0.020600  0.583900  0.230100  1.0
  H  H2264  1  0.479400  0.209500  0.063300  1.0
  H  H2265  1  0.269900  0.353800  0.290500  1.0
  H  H2266  1  0.436700  0.146200  0.916100  1.0
  H  H2267  1  0.230100  0.020600  0.583900  1.0
  H  H2268  1  0.063300  0.479400  0.209500  1.0
  H  H2269  1  0.290500  0.269900  0.353800  1.0
  H  H2270  1  0.916100  0.436700  0.146200  1.0
  H  H2271  1  0.583900  0.230100  0.020600  1.0
  H  H2272  1  0.209500  0.063300  0.479400  1.0
  H  H2273  1  0.128200  0.769200  0.969400  1.0
  H  H2274  1  0.371800  0.841200  0.141000  1.0
  H  H2275  1  0.700200  0.730800  0.359000  1.0
  H  H2276  1  0.799800  0.658800  0.530600  1.0
  H  H2277  1  0.769200  0.969400  0.128200  1.0
  H  H2278  1  0.841200  0.141000  0.371800  1.0
  H  H2279  1  0.730800  0.359000  0.700200  1.0
  H  H2280  1  0.658800  0.530600  0.799800  1.0
  H  H2281  1  0.969400  0.128200  0.769200  1.0
  H  H2282  1  0.141000  0.371800  0.841200  1.0
  H  H2283  1  0.359000  0.700200  0.730800  1.0
  H  H2284  1  0.530600  0.799800  0.658800  1.0
  H  H2285  1  0.628200  0.469400  0.269200  1.0
  H  H2286  1  0.871800  0.641000  0.341200  1.0
  H  H2287  1  0.200200  0.859000  0.230800  1.0
  H  H2288  1  0.299800  0.030600  0.158800  1.0
  H  H2289  1  0.269200  0.628200  0.469400  1.0
  H  H2290  1  0.341200  0.871800  0.641000  1.0
  H  H2291  1  0.230800  0.200200  0.859000  1.0
  H  H2292  1  0.158800  0.299800  0.030600  1.0
  H  H2293  1  0.469400  0.269200  0.628200  1.0
  H  H2294  1  0.641000  0.341200  0.871800  1.0
  H  H2295  1  0.859000  0.230800  0.200200  1.0
  H  H2296  1  0.030600  0.158800  0.299800  1.0
  H  H2297  1  0.119800  0.756700  0.902500  1.0
  H  H2298  1  0.380200  0.782700  0.136900  1.0
  H  H2299  1  0.645800  0.743300  0.363100  1.0
  H  H2300  1  0.854200  0.717300  0.597500  1.0
  H  H2301  1  0.756700  0.902500  0.119800  1.0
  H  H2302  1  0.782700  0.136900  0.380200  1.0
  H  H2303  1  0.743300  0.363100  0.645800  1.0
  H  H2304  1  0.717300  0.597500  0.854200  1.0
  H  H2305  1  0.902500  0.119800  0.756700  1.0
  H  H2306  1  0.136900  0.380200  0.782700  1.0
  H  H2307  1  0.363100  0.645800  0.743300  1.0
  H  H2308  1  0.597500  0.854200  0.717300  1.0
  H  H2309  1  0.619800  0.402500  0.256700  1.0
  H  H2310  1  0.880200  0.636900  0.282700  1.0
  H  H2311  1  0.145800  0.863100  0.243300  1.0
  H  H2312  1  0.354200  0.097500  0.217300  1.0
  H  H2313  1  0.256700  0.619800  0.402500  1.0
  H  H2314  1  0.282700  0.880200  0.636900  1.0
  H  H2315  1  0.243300  0.145800  0.863100  1.0
  H  H2316  1  0.217300  0.354200  0.097500  1.0
  H  H2317  1  0.402500  0.256700  0.619800  1.0
  H  H2318  1  0.636900  0.282700  0.880200  1.0
  H  H2319  1  0.863100  0.243300  0.145800  1.0
  H  H2320  1  0.097500  0.217300  0.354200  1.0
  H  H2321  1  0.100200  0.794100  0.872900  1.0
  H  H2322  1  0.399800  0.772700  0.193900  1.0
  H  H2323  1  0.578800  0.705900  0.306100  1.0
  H  H2324  1  0.921200  0.727300  0.627100  1.0
  H  H2325  1  0.794100  0.872900  0.100200  1.0
  H  H2326  1  0.772700  0.193900  0.399800  1.0
  H  H2327  1  0.705900  0.306100  0.578800  1.0
  H  H2328  1  0.727300  0.627100  0.921200  1.0
  H  H2329  1  0.872900  0.100200  0.794100  1.0
  H  H2330  1  0.193900  0.399800  0.772700  1.0
  H  H2331  1  0.306100  0.578800  0.705900  1.0
  H  H2332  1  0.627100  0.921200  0.727300  1.0
  H  H2333  1  0.600200  0.372900  0.294100  1.0
  H  H2334  1  0.899800  0.693900  0.272700  1.0
  H  H2335  1  0.078800  0.806100  0.205900  1.0
  H  H2336  1  0.421200  0.127100  0.227300  1.0
  H  H2337  1  0.294100  0.600200  0.372900  1.0
  H  H2338  1  0.272700  0.899800  0.693900  1.0
  H  H2339  1  0.205900  0.078800  0.806100  1.0
  H  H2340  1  0.227300  0.421200  0.127100  1.0
  H  H2341  1  0.372900  0.294100  0.600200  1.0
  H  H2342  1  0.693900  0.272700  0.899800  1.0
  H  H2343  1  0.806100  0.205900  0.078800  1.0
  H  H2344  1  0.127100  0.227300  0.421200  1.0
  H  H2345  1  0.108300  0.918200  0.876100  1.0
  H  H2346  1  0.391700  0.767800  0.309900  1.0
  H  H2347  1  0.457900  0.581800  0.190100  1.0
  H  H2348  1  0.042100  0.732200  0.623900  1.0
  H  H2349  1  0.918200  0.876100  0.108300  1.0
  H  H2350  1  0.767800  0.309900  0.391700  1.0
  H  H2351  1  0.581800  0.190100  0.457900  1.0
  H  H2352  1  0.732200  0.623900  0.042100  1.0
  H  H2353  1  0.876100  0.108300  0.918200  1.0
  H  H2354  1  0.309900  0.391700  0.767800  1.0
  H  H2355  1  0.190100  0.457900  0.581800  1.0
  H  H2356  1  0.623900  0.042100  0.732200  1.0
  H  H2357  1  0.608300  0.376100  0.418200  1.0
  H  H2358  1  0.891700  0.809900  0.267800  1.0
  H  H2359  1  0.957900  0.690100  0.081800  1.0
  H  H2360  1  0.542100  0.123900  0.232200  1.0
  H  H2361  1  0.418200  0.608300  0.376100  1.0
  H  H2362  1  0.267800  0.891700  0.809900  1.0
  H  H2363  1  0.081800  0.957900  0.690100  1.0
  H  H2364  1  0.232200  0.542100  0.123900  1.0
  H  H2365  1  0.376100  0.418200  0.608300  1.0
  H  H2366  1  0.809900  0.267800  0.891700  1.0
  H  H2367  1  0.690100  0.081800  0.957900  1.0
  H  H2368  1  0.123900  0.232200  0.542100  1.0
  H  H2369  1  0.113000  0.978100  0.868100  1.0
  H  H2370  1  0.387000  0.755100  0.365100  1.0
  H  H2371  1  0.390000  0.521900  0.134900  1.0
  H  H2372  1  0.110000  0.744900  0.631900  1.0
  H  H2373  1  0.978100  0.868100  0.113000  1.0
  H  H2374  1  0.755100  0.365100  0.387000  1.0
  H  H2375  1  0.521900  0.134900  0.390000  1.0
  H  H2376  1  0.744900  0.631900  0.110000  1.0
  H  H2377  1  0.868100  0.113000  0.978100  1.0
  H  H2378  1  0.365100  0.387000  0.755100  1.0
  H  H2379  1  0.134900  0.390000  0.521900  1.0
  H  H2380  1  0.631900  0.110000  0.744900  1.0
  H  H2381  1  0.613000  0.368100  0.478100  1.0
  H  H2382  1  0.887000  0.865100  0.255100  1.0
  H  H2383  1  0.890000  0.634900  0.021900  1.0
  H  H2384  1  0.610000  0.131900  0.244900  1.0
  H  H2385  1  0.478100  0.613000  0.368100  1.0
  H  H2386  1  0.255100  0.887000  0.865100  1.0
  H  H2387  1  0.021900  0.890000  0.634900  1.0
  H  H2388  1  0.244900  0.610000  0.131900  1.0
  H  H2389  1  0.368100  0.478100  0.613000  1.0
  H  H2390  1  0.865100  0.255100  0.887000  1.0
  H  H2391  1  0.634900  0.021900  0.890000  1.0
  H  H2392  1  0.131900  0.244900  0.610000  1.0
  H  H2393  1  0.100100  0.027200  0.911300  1.0
  H  H2394  1  0.399900  0.811200  0.427100  1.0
  H  H2395  1  0.384100  0.472800  0.072900  1.0
  H  H2396  1  0.115900  0.688800  0.588700  1.0
  H  H2397  1  0.027200  0.911300  0.100100  1.0
  H  H2398  1  0.811200  0.427100  0.399900  1.0
  H  H2399  1  0.472800  0.072900  0.384100  1.0
  H  H2400  1  0.688800  0.588700  0.115900  1.0
  H  H2401  1  0.911300  0.100100  0.027200  1.0
  H  H2402  1  0.427100  0.399900  0.811200  1.0
  H  H2403  1  0.072900  0.384100  0.472800  1.0
  H  H2404  1  0.588700  0.115900  0.688800  1.0
  H  H2405  1  0.600100  0.411300  0.527200  1.0
  H  H2406  1  0.899900  0.927100  0.311200  1.0
  H  H2407  1  0.884100  0.572900  0.972800  1.0
  H  H2408  1  0.615900  0.088700  0.188800  1.0
  H  H2409  1  0.527200  0.600100  0.411300  1.0
  H  H2410  1  0.311200  0.899900  0.927100  1.0
  H  H2411  1  0.972800  0.884100  0.572900  1.0
  H  H2412  1  0.188800  0.615900  0.088700  1.0
  H  H2413  1  0.411300  0.527200  0.600100  1.0
  H  H2414  1  0.927100  0.311200  0.899900  1.0
  H  H2415  1  0.572900  0.972800  0.884100  1.0
  H  H2416  1  0.088700  0.188800  0.615900  1.0
  H  H2417  1  0.074600  0.931700  0.985100  1.0
  H  H2418  1  0.425400  0.910500  0.357100  1.0
  H  H2419  1  0.553400  0.568300  0.142900  1.0
  H  H2420  1  0.946600  0.589500  0.514900  1.0
  H  H2421  1  0.931700  0.985100  0.074600  1.0
  H  H2422  1  0.910500  0.357100  0.425400  1.0
  H  H2423  1  0.568300  0.142900  0.553400  1.0
  H  H2424  1  0.589500  0.514900  0.946600  1.0
  H  H2425  1  0.985100  0.074600  0.931700  1.0
  H  H2426  1  0.357100  0.425400  0.910500  1.0
  H  H2427  1  0.142900  0.553400  0.568300  1.0
  H  H2428  1  0.514900  0.946600  0.589500  1.0
  H  H2429  1  0.574600  0.485100  0.431700  1.0
  H  H2430  1  0.925400  0.857100  0.410500  1.0
  H  H2431  1  0.053400  0.642900  0.068300  1.0
  H  H2432  1  0.446600  0.014900  0.089500  1.0
  H  H2433  1  0.431700  0.574600  0.485100  1.0
  H  H2434  1  0.410500  0.925400  0.857100  1.0
  H  H2435  1  0.068300  0.053400  0.642900  1.0
  H  H2436  1  0.089500  0.446600  0.014900  1.0
  H  H2437  1  0.485100  0.431700  0.574600  1.0
  H  H2438  1  0.857100  0.410500  0.925400  1.0
  H  H2439  1  0.642900  0.068300  0.053400  1.0
  H  H2440  1  0.014900  0.089500  0.446600  1.0
  H  H2441  1  0.070900  0.985100  0.032000  1.0
  H  H2442  1  0.429100  0.961100  0.414200  1.0
  H  H2443  1  0.546900  0.514900  0.085800  1.0
  H  H2444  1  0.953100  0.538900  0.468000  1.0
  H  H2445  1  0.985100  0.032000  0.070900  1.0
  H  H2446  1  0.961100  0.414200  0.429100  1.0
  H  H2447  1  0.514900  0.085800  0.546900  1.0
  H  H2448  1  0.538900  0.468000  0.953100  1.0
  H  H2449  1  0.032000  0.070900  0.985100  1.0
  H  H2450  1  0.414200  0.429100  0.961100  1.0
  H  H2451  1  0.085800  0.546900  0.514900  1.0
  H  H2452  1  0.468000  0.953100  0.538900  1.0
  H  H2453  1  0.570900  0.532000  0.485100  1.0
  H  H2454  1  0.929100  0.914200  0.461100  1.0
  H  H2455  1  0.046900  0.585800  0.014900  1.0
  H  H2456  1  0.453100  0.968000  0.038900  1.0
  H  H2457  1  0.485100  0.570900  0.532000  1.0
  H  H2458  1  0.461100  0.929100  0.914200  1.0
  H  H2459  1  0.014900  0.046900  0.585800  1.0
  H  H2460  1  0.038900  0.453100  0.968000  1.0
  H  H2461  1  0.532000  0.485100  0.570900  1.0
  H  H2462  1  0.914200  0.461100  0.929100  1.0
  H  H2463  1  0.585800  0.014900  0.046900  1.0
  H  H2464  1  0.968000  0.038900  0.453100  1.0
  H  H2465  1  0.081800  0.050000  0.030200  1.0
  H  H2466  1  0.418200  0.948400  0.468200  1.0
  H  H2467  1  0.480200  0.450000  0.031800  1.0
  H  H2468  1  0.019800  0.551600  0.469800  1.0
  H  H2469  1  0.050000  0.030200  0.081800  1.0
  H  H2470  1  0.948400  0.468200  0.418200  1.0
  H  H2471  1  0.450000  0.031800  0.480200  1.0
  H  H2472  1  0.551600  0.469800  0.019800  1.0
  H  H2473  1  0.030200  0.081800  0.050000  1.0
  H  H2474  1  0.468200  0.418200  0.948400  1.0
  H  H2475  1  0.031800  0.480200  0.450000  1.0
  H  H2476  1  0.469800  0.019800  0.551600  1.0
  H  H2477  1  0.581800  0.530200  0.550000  1.0
  H  H2478  1  0.918200  0.968200  0.448400  1.0
  H  H2479  1  0.980200  0.531800  0.950000  1.0
  H  H2480  1  0.519800  0.969800  0.051600  1.0
  H  H2481  1  0.550000  0.581800  0.530200  1.0
  H  H2482  1  0.448400  0.918200  0.968200  1.0
  H  H2483  1  0.950000  0.980200  0.531800  1.0
  H  H2484  1  0.051600  0.519800  0.969800  1.0
  H  H2485  1  0.530200  0.550000  0.581800  1.0
  H  H2486  1  0.968200  0.448400  0.918200  1.0
  H  H2487  1  0.531800  0.950000  0.980200  1.0
  H  H2488  1  0.969800  0.051600  0.519800  1.0
  H  H2489  1  0.187000  0.189100  0.056100  1.0
  H  H2490  1  0.313000  0.869100  0.502100  1.0
  H  H2491  1  0.367000  0.310900  0.997900  1.0
  H  H2492  1  0.133000  0.630900  0.443900  1.0
  H  H2493  1  0.189100  0.056100  0.187000  1.0
  H  H2494  1  0.869100  0.502100  0.313000  1.0
  H  H2495  1  0.310900  0.997900  0.367000  1.0
  H  H2496  1  0.630900  0.443900  0.133000  1.0
  H  H2497  1  0.056100  0.187000  0.189100  1.0
  H  H2498  1  0.502100  0.313000  0.869100  1.0
  H  H2499  1  0.997900  0.367000  0.310900  1.0
  H  H2500  1  0.443900  0.133000  0.630900  1.0
  H  H2501  1  0.687000  0.556100  0.689100  1.0
  H  H2502  1  0.813000  0.002100  0.369100  1.0
  H  H2503  1  0.867000  0.497900  0.810900  1.0
  H  H2504  1  0.633000  0.943900  0.130900  1.0
  H  H2505  1  0.689100  0.687000  0.556100  1.0
  H  H2506  1  0.369100  0.813000  0.002100  1.0
  H  H2507  1  0.810900  0.867000  0.497900  1.0
  H  H2508  1  0.130900  0.633000  0.943900  1.0
  H  H2509  1  0.556100  0.689100  0.687000  1.0
  H  H2510  1  0.002100  0.369100  0.813000  1.0
  H  H2511  1  0.497900  0.810900  0.867000  1.0
  H  H2512  1  0.943900  0.130900  0.633000  1.0
  H  H2513  1  0.200000  0.246600  0.046000  1.0
  H  H2514  1  0.300000  0.846000  0.546600  1.0
  H  H2515  1  0.299400  0.253400  0.953400  1.0
  H  H2516  1  0.200600  0.654000  0.454000  1.0
  H  H2517  1  0.246600  0.046000  0.200000  1.0
  H  H2518  1  0.846000  0.546600  0.300000  1.0
  H  H2519  1  0.253400  0.953400  0.299400  1.0
  H  H2520  1  0.654000  0.454000  0.200600  1.0
  H  H2521  1  0.046000  0.200000  0.246600  1.0
  H  H2522  1  0.546600  0.300000  0.846000  1.0
  H  H2523  1  0.953400  0.299400  0.253400  1.0
  H  H2524  1  0.454000  0.200600  0.654000  1.0
  H  H2525  1  0.700000  0.546000  0.746600  1.0
  H  H2526  1  0.800000  0.046600  0.346000  1.0
  H  H2527  1  0.799400  0.453400  0.753400  1.0
  H  H2528  1  0.700600  0.954000  0.154000  1.0
  H  H2529  1  0.746600  0.700000  0.546000  1.0
  H  H2530  1  0.346000  0.800000  0.046600  1.0
  H  H2531  1  0.753400  0.799400  0.453400  1.0
  H  H2532  1  0.154000  0.700600  0.954000  1.0
  H  H2533  1  0.546000  0.746600  0.700000  1.0
  H  H2534  1  0.046600  0.346000  0.800000  1.0
  H  H2535  1  0.453400  0.753400  0.799400  1.0
  H  H2536  1  0.954000  0.154000  0.700600  1.0
  H  H2537  1  0.152800  0.239000  0.978800  1.0
  H  H2538  1  0.347200  0.826000  0.586200  1.0
  H  H2539  1  0.239800  0.261000  0.913800  1.0
  H  H2540  1  0.260200  0.674000  0.521200  1.0
  H  H2541  1  0.239000  0.978800  0.152800  1.0
  H  H2542  1  0.826000  0.586200  0.347200  1.0
  H  H2543  1  0.261000  0.913800  0.239800  1.0
  H  H2544  1  0.674000  0.521200  0.260200  1.0
  H  H2545  1  0.978800  0.152800  0.239000  1.0
  H  H2546  1  0.586200  0.347200  0.826000  1.0
  H  H2547  1  0.913800  0.239800  0.261000  1.0
  H  H2548  1  0.521200  0.260200  0.674000  1.0
  H  H2549  1  0.652800  0.478800  0.739000  1.0
  H  H2550  1  0.847200  0.086200  0.326000  1.0
  H  H2551  1  0.739800  0.413800  0.761000  1.0
  H  H2552  1  0.760200  0.021200  0.174000  1.0
  H  H2553  1  0.739000  0.652800  0.478800  1.0
  H  H2554  1  0.326000  0.847200  0.086200  1.0
  H  H2555  1  0.761000  0.739800  0.413800  1.0
  H  H2556  1  0.174000  0.760200  0.021200  1.0
  H  H2557  1  0.478800  0.739000  0.652800  1.0
  H  H2558  1  0.086200  0.326000  0.847200  1.0
  H  H2559  1  0.413800  0.761000  0.739800  1.0
  H  H2560  1  0.021200  0.174000  0.760200  1.0
  H  H2561  1  0.088800  0.830500  0.140500  1.0
  H  H2562  1  0.411200  0.051700  0.241700  1.0
  H  H2563  1  0.810000  0.669500  0.258300  1.0
  H  H2564  1  0.690000  0.448300  0.359500  1.0
  H  H2565  1  0.830500  0.140500  0.088800  1.0
  H  H2566  1  0.051700  0.241700  0.411200  1.0
  H  H2567  1  0.669500  0.258300  0.810000  1.0
  H  H2568  1  0.448300  0.359500  0.690000  1.0
  H  H2569  1  0.140500  0.088800  0.830500  1.0
  H  H2570  1  0.241700  0.411200  0.051700  1.0
  H  H2571  1  0.258300  0.810000  0.669500  1.0
  H  H2572  1  0.359500  0.690000  0.448300  1.0
  H  H2573  1  0.588800  0.640500  0.330500  1.0
  H  H2574  1  0.911200  0.741700  0.551700  1.0
  H  H2575  1  0.310000  0.758300  0.169500  1.0
  H  H2576  1  0.190000  0.859500  0.948300  1.0
  H  H2577  1  0.330500  0.588800  0.640500  1.0
  H  H2578  1  0.551700  0.911200  0.741700  1.0
  H  H2579  1  0.169500  0.310000  0.758300  1.0
  H  H2580  1  0.948300  0.190000  0.859500  1.0
  H  H2581  1  0.640500  0.330500  0.588800  1.0
  H  H2582  1  0.741700  0.551700  0.911200  1.0
  H  H2583  1  0.758300  0.169500  0.310000  1.0
  H  H2584  1  0.859500  0.948300  0.190000  1.0
  H  H2585  1  0.017800  0.793600  0.129800  1.0
  H  H2586  1  0.482200  0.112000  0.275800  1.0
  H  H2587  1  0.836200  0.706400  0.224200  1.0
  H  H2588  1  0.663800  0.388000  0.370200  1.0
  H  H2589  1  0.793600  0.129800  0.017800  1.0
  H  H2590  1  0.112000  0.275800  0.482200  1.0
  H  H2591  1  0.706400  0.224200  0.836200  1.0
  H  H2592  1  0.388000  0.370200  0.663800  1.0
  H  H2593  1  0.129800  0.017800  0.793600  1.0
  H  H2594  1  0.275800  0.482200  0.112000  1.0
  H  H2595  1  0.224200  0.836200  0.706400  1.0
  H  H2596  1  0.370200  0.663800  0.388000  1.0
  H  H2597  1  0.517800  0.629800  0.293600  1.0
  H  H2598  1  0.982200  0.775800  0.612000  1.0
  H  H2599  1  0.336200  0.724200  0.206400  1.0
  H  H2600  1  0.163800  0.870200  0.888000  1.0
  H  H2601  1  0.293600  0.517800  0.629800  1.0
  H  H2602  1  0.612000  0.982200  0.775800  1.0
  H  H2603  1  0.206400  0.336200  0.724200  1.0
  H  H2604  1  0.888000  0.163800  0.870200  1.0
  H  H2605  1  0.629800  0.293600  0.517800  1.0
  H  H2606  1  0.775800  0.612000  0.982200  1.0
  H  H2607  1  0.724200  0.206400  0.336200  1.0
  H  H2608  1  0.870200  0.888000  0.163800  1.0
  H  H2609  1  0.957900  0.776900  0.069400  1.0
  H  H2610  1  0.542100  0.111500  0.319000  1.0
  H  H2611  1  0.792500  0.723100  0.181000  1.0
  H  H2612  1  0.707500  0.388500  0.430600  1.0
  H  H2613  1  0.776900  0.069400  0.957900  1.0
  H  H2614  1  0.111500  0.319000  0.542100  1.0
  H  H2615  1  0.723100  0.181000  0.792500  1.0
  H  H2616  1  0.388500  0.430600  0.707500  1.0
  H  H2617  1  0.069400  0.957900  0.776900  1.0
  H  H2618  1  0.319000  0.542100  0.111500  1.0
  H  H2619  1  0.181000  0.792500  0.723100  1.0
  H  H2620  1  0.430600  0.707500  0.388500  1.0
  H  H2621  1  0.457900  0.569400  0.276900  1.0
  H  H2622  1  0.042100  0.819000  0.611500  1.0
  H  H2623  1  0.292500  0.681000  0.223100  1.0
  H  H2624  1  0.207500  0.930600  0.888500  1.0
  H  H2625  1  0.276900  0.457900  0.569400  1.0
  H  H2626  1  0.611500  0.042100  0.819000  1.0
  H  H2627  1  0.223100  0.292500  0.681000  1.0
  H  H2628  1  0.888500  0.207500  0.930600  1.0
  H  H2629  1  0.569400  0.276900  0.457900  1.0
  H  H2630  1  0.819000  0.611500  0.042100  1.0
  H  H2631  1  0.681000  0.223100  0.292500  1.0
  H  H2632  1  0.930600  0.888500  0.207500  1.0
  H  H2633  1  0.869900  0.753700  0.943400  1.0
  H  H2634  1  0.630100  0.073500  0.383800  1.0
  H  H2635  1  0.689700  0.746300  0.116200  1.0
  H  H2636  1  0.810300  0.426500  0.556600  1.0
  H  H2637  1  0.753700  0.943400  0.869900  1.0
  H  H2638  1  0.073500  0.383800  0.630100  1.0
  H  H2639  1  0.746300  0.116200  0.689700  1.0
  H  H2640  1  0.426500  0.556600  0.810300  1.0
  H  H2641  1  0.943400  0.869900  0.753700  1.0
  H  H2642  1  0.383800  0.630100  0.073500  1.0
  H  H2643  1  0.116200  0.689700  0.746300  1.0
  H  H2644  1  0.556600  0.810300  0.426500  1.0
  H  H2645  1  0.369900  0.443400  0.253700  1.0
  H  H2646  1  0.130100  0.883800  0.573500  1.0
  H  H2647  1  0.189700  0.616200  0.246300  1.0
  H  H2648  1  0.310300  0.056600  0.926500  1.0
  H  H2649  1  0.253700  0.369900  0.443400  1.0
  H  H2650  1  0.573500  0.130100  0.883800  1.0
  H  H2651  1  0.246300  0.189700  0.616200  1.0
  H  H2652  1  0.926500  0.310300  0.056600  1.0
  H  H2653  1  0.443400  0.253700  0.369900  1.0
  H  H2654  1  0.883800  0.573500  0.130100  1.0
  H  H2655  1  0.616200  0.246300  0.189700  1.0
  H  H2656  1  0.056600  0.926500  0.310300  1.0
  H  H2657  1  0.814700  0.725100  0.869600  1.0
  H  H2658  1  0.685300  0.054900  0.410400  1.0
  H  H2659  1  0.644500  0.774900  0.089600  1.0
  H  H2660  1  0.855500  0.445100  0.630400  1.0
  H  H2661  1  0.725100  0.869600  0.814700  1.0
  H  H2662  1  0.054900  0.410400  0.685300  1.0
  H  H2663  1  0.774900  0.089600  0.644500  1.0
  H  H2664  1  0.445100  0.630400  0.855500  1.0
  H  H2665  1  0.869600  0.814700  0.725100  1.0
  H  H2666  1  0.410400  0.685300  0.054900  1.0
  H  H2667  1  0.089600  0.644500  0.774900  1.0
  H  H2668  1  0.630400  0.855500  0.445100  1.0
  H  H2669  1  0.314700  0.369600  0.225100  1.0
  H  H2670  1  0.185300  0.910400  0.554900  1.0
  H  H2671  1  0.144500  0.589600  0.274900  1.0
  H  H2672  1  0.355500  0.130400  0.945100  1.0
  H  H2673  1  0.225100  0.314700  0.369600  1.0
  H  H2674  1  0.554900  0.185300  0.910400  1.0
  H  H2675  1  0.274900  0.144500  0.589600  1.0
  H  H2676  1  0.945100  0.355500  0.130400  1.0
  H  H2677  1  0.369600  0.225100  0.314700  1.0
  H  H2678  1  0.910400  0.554900  0.185300  1.0
  H  H2679  1  0.589600  0.274900  0.144500  1.0
  H  H2680  1  0.130400  0.945100  0.355500  1.0
  H  H2681  1  0.832200  0.740200  0.820600  1.0
  H  H2682  1  0.667800  0.988400  0.408000  1.0
  H  H2683  1  0.580400  0.759800  0.092000  1.0
  H  H2684  1  0.919600  0.511600  0.679400  1.0
  H  H2685  1  0.740200  0.820600  0.832200  1.0
  H  H2686  1  0.988400  0.408000  0.667800  1.0
  H  H2687  1  0.759800  0.092000  0.580400  1.0
  H  H2688  1  0.511600  0.679400  0.919600  1.0
  H  H2689  1  0.820600  0.832200  0.740200  1.0
  H  H2690  1  0.408000  0.667800  0.988400  1.0
  H  H2691  1  0.092000  0.580400  0.759800  1.0
  H  H2692  1  0.679400  0.919600  0.511600  1.0
  H  H2693  1  0.332200  0.320600  0.240200  1.0
  H  H2694  1  0.167800  0.908000  0.488400  1.0
  H  H2695  1  0.080400  0.592000  0.259800  1.0
  H  H2696  1  0.419600  0.179400  0.011600  1.0
  H  H2697  1  0.240200  0.332200  0.320600  1.0
  H  H2698  1  0.488400  0.167800  0.908000  1.0
  H  H2699  1  0.259800  0.080400  0.592000  1.0
  H  H2700  1  0.011600  0.419600  0.179400  1.0
  H  H2701  1  0.320600  0.240200  0.332200  1.0
  H  H2702  1  0.908000  0.488400  0.167800  1.0
  H  H2703  1  0.592000  0.259800  0.080400  1.0
  H  H2704  1  0.179400  0.011600  0.419600  1.0
  H  H2705  1  0.997900  0.833700  0.947800  1.0
  H  H2706  1  0.502100  0.949900  0.335800  1.0
  H  H2707  1  0.614100  0.666300  0.164200  1.0
  H  H2708  1  0.885900  0.550100  0.552200  1.0
  H  H2709  1  0.833700  0.947800  0.997900  1.0
  H  H2710  1  0.949900  0.335800  0.502100  1.0
  H  H2711  1  0.666300  0.164200  0.614100  1.0
  H  H2712  1  0.550100  0.552200  0.885900  1.0
  H  H2713  1  0.947800  0.997900  0.833700  1.0
  H  H2714  1  0.335800  0.502100  0.949900  1.0
  H  H2715  1  0.164200  0.614100  0.666300  1.0
  H  H2716  1  0.552200  0.885900  0.550100  1.0
  H  H2717  1  0.497900  0.447800  0.333700  1.0
  H  H2718  1  0.002100  0.835800  0.449900  1.0
  H  H2719  1  0.114100  0.664200  0.166300  1.0
  H  H2720  1  0.385900  0.052200  0.050100  1.0
  H  H2721  1  0.333700  0.497900  0.447800  1.0
  H  H2722  1  0.449900  0.002100  0.835800  1.0
  H  H2723  1  0.166300  0.114100  0.664200  1.0
  H  H2724  1  0.050100  0.385900  0.052200  1.0
  H  H2725  1  0.447800  0.333700  0.497900  1.0
  H  H2726  1  0.835800  0.449900  0.002100  1.0
  H  H2727  1  0.664200  0.166300  0.114100  1.0
  H  H2728  1  0.052200  0.050100  0.385900  1.0
  H  H2729  1  0.015800  0.852100  0.901900  1.0
  H  H2730  1  0.484200  0.886100  0.336300  1.0
  H  H2731  1  0.549800  0.647900  0.163700  1.0
  H  H2732  1  0.950200  0.613900  0.598100  1.0
  H  H2733  1  0.852100  0.901900  0.015800  1.0
  H  H2734  1  0.886100  0.336300  0.484200  1.0
  H  H2735  1  0.647900  0.163700  0.549800  1.0
  H  H2736  1  0.613900  0.598100  0.950200  1.0
  H  H2737  1  0.901900  0.015800  0.852100  1.0
  H  H2738  1  0.336300  0.484200  0.886100  1.0
  H  H2739  1  0.163700  0.549800  0.647900  1.0
  H  H2740  1  0.598100  0.950200  0.613900  1.0
  H  H2741  1  0.515800  0.401900  0.352100  1.0
  H  H2742  1  0.984200  0.836300  0.386100  1.0
  H  H2743  1  0.049800  0.663700  0.147900  1.0
  H  H2744  1  0.450200  0.098100  0.113900  1.0
  H  H2745  1  0.352100  0.515800  0.401900  1.0
  H  H2746  1  0.386100  0.984200  0.836300  1.0
  H  H2747  1  0.147900  0.049800  0.663700  1.0
  H  H2748  1  0.113900  0.450200  0.098100  1.0
  H  H2749  1  0.401900  0.352100  0.515800  1.0
  H  H2750  1  0.836300  0.386100  0.984200  1.0
  H  H2751  1  0.663700  0.147900  0.049800  1.0
  H  H2752  1  0.098100  0.113900  0.450200  1.0
  H  H2753  1  0.961900  0.826500  0.831600  1.0
  H  H2754  1  0.538100  0.869700  0.364600  1.0
  H  H2755  1  0.505100  0.673500  0.135400  1.0
  H  H2756  1  0.994900  0.630300  0.668400  1.0
  H  H2757  1  0.826500  0.831600  0.961900  1.0
  H  H2758  1  0.869700  0.364600  0.538100  1.0
  H  H2759  1  0.673500  0.135400  0.505100  1.0
  H  H2760  1  0.630300  0.668400  0.994900  1.0
  H  H2761  1  0.831600  0.961900  0.826500  1.0
  H  H2762  1  0.364600  0.538100  0.869700  1.0
  H  H2763  1  0.135400  0.505100  0.673500  1.0
  H  H2764  1  0.668400  0.994900  0.630300  1.0
  H  H2765  1  0.461900  0.331600  0.326500  1.0
  H  H2766  1  0.038100  0.864600  0.369700  1.0
  H  H2767  1  0.005100  0.635400  0.173500  1.0
  H  H2768  1  0.494900  0.168400  0.130300  1.0
  H  H2769  1  0.326500  0.461900  0.331600  1.0
  H  H2770  1  0.369700  0.038100  0.864600  1.0
  H  H2771  1  0.173500  0.005100  0.635400  1.0
  H  H2772  1  0.130300  0.494900  0.168400  1.0
  H  H2773  1  0.331600  0.326500  0.461900  1.0
  H  H2774  1  0.864600  0.369700  0.038100  1.0
  H  H2775  1  0.635400  0.173500  0.005100  1.0
  H  H2776  1  0.168400  0.130300  0.494900  1.0
  H  H2777  1  0.863300  0.719600  0.675500  1.0
  H  H2778  1  0.636700  0.812200  0.356300  1.0
  H  H2779  1  0.455900  0.780400  0.143700  1.0
  H  H2780  1  0.044100  0.687800  0.824500  1.0
  H  H2781  1  0.719600  0.675500  0.863300  1.0
  H  H2782  1  0.812200  0.356300  0.636700  1.0
  H  H2783  1  0.780400  0.143700  0.455900  1.0
  H  H2784  1  0.687800  0.824500  0.044100  1.0
  H  H2785  1  0.675500  0.863300  0.719600  1.0
  H  H2786  1  0.356300  0.636700  0.812200  1.0
  H  H2787  1  0.143700  0.455900  0.780400  1.0
  H  H2788  1  0.824500  0.044100  0.687800  1.0
  H  H2789  1  0.363300  0.175500  0.219600  1.0
  H  H2790  1  0.136700  0.856300  0.312200  1.0
  H  H2791  1  0.955900  0.643700  0.280400  1.0
  H  H2792  1  0.544100  0.324500  0.187800  1.0
  H  H2793  1  0.219600  0.363300  0.175500  1.0
  H  H2794  1  0.312200  0.136700  0.856300  1.0
  H  H2795  1  0.280400  0.955900  0.643700  1.0
  H  H2796  1  0.187800  0.544100  0.324500  1.0
  H  H2797  1  0.175500  0.219600  0.363300  1.0
  H  H2798  1  0.856300  0.312200  0.136700  1.0
  H  H2799  1  0.643700  0.280400  0.955900  1.0
  H  H2800  1  0.324500  0.187800  0.544100  1.0
  H  H2801  1  0.800500  0.687300  0.611600  1.0
  H  H2802  1  0.699500  0.811100  0.386800  1.0
  H  H2803  1  0.424300  0.812700  0.113200  1.0
  H  H2804  1  0.075700  0.688900  0.888400  1.0
  H  H2805  1  0.687300  0.611600  0.800500  1.0
  H  H2806  1  0.811100  0.386800  0.699500  1.0
  H  H2807  1  0.812700  0.113200  0.424300  1.0
  H  H2808  1  0.688900  0.888400  0.075700  1.0
  H  H2809  1  0.611600  0.800500  0.687300  1.0
  H  H2810  1  0.386800  0.699500  0.811100  1.0
  H  H2811  1  0.113200  0.424300  0.812700  1.0
  H  H2812  1  0.888400  0.075700  0.688900  1.0
  H  H2813  1  0.300500  0.111600  0.187300  1.0
  H  H2814  1  0.199500  0.886800  0.311100  1.0
  H  H2815  1  0.924300  0.613200  0.312700  1.0
  H  H2816  1  0.575700  0.388400  0.188900  1.0
  H  H2817  1  0.187300  0.300500  0.111600  1.0
  H  H2818  1  0.311100  0.199500  0.886800  1.0
  H  H2819  1  0.312700  0.924300  0.613200  1.0
  H  H2820  1  0.188900  0.575700  0.388400  1.0
  H  H2821  1  0.111600  0.187300  0.300500  1.0
  H  H2822  1  0.886800  0.311100  0.199500  1.0
  H  H2823  1  0.613200  0.312700  0.924300  1.0
  H  H2824  1  0.388400  0.188900  0.575700  1.0
  H  H2825  1  0.737500  0.684800  0.610700  1.0
  H  H2826  1  0.762500  0.873200  0.447300  1.0
  H  H2827  1  0.425900  0.815200  0.052700  1.0
  H  H2828  1  0.074100  0.626800  0.889300  1.0
  H  H2829  1  0.684800  0.610700  0.737500  1.0
  H  H2830  1  0.873200  0.447300  0.762500  1.0
  H  H2831  1  0.815200  0.052700  0.425900  1.0
  H  H2832  1  0.626800  0.889300  0.074100  1.0
  H  H2833  1  0.610700  0.737500  0.684800  1.0
  H  H2834  1  0.447300  0.762500  0.873200  1.0
  H  H2835  1  0.052700  0.425900  0.815200  1.0
  H  H2836  1  0.889300  0.074100  0.626800  1.0
  H  H2837  1  0.237500  0.110700  0.184800  1.0
  H  H2838  1  0.262500  0.947300  0.373200  1.0
  H  H2839  1  0.925900  0.552700  0.315200  1.0
  H  H2840  1  0.574100  0.389300  0.126800  1.0
  H  H2841  1  0.184800  0.237500  0.110700  1.0
  H  H2842  1  0.373200  0.262500  0.947300  1.0
  H  H2843  1  0.315200  0.925900  0.552700  1.0
  H  H2844  1  0.126800  0.574100  0.389300  1.0
  H  H2845  1  0.110700  0.184800  0.237500  1.0
  H  H2846  1  0.947300  0.373200  0.262500  1.0
  H  H2847  1  0.552700  0.315200  0.925900  1.0
  H  H2848  1  0.389300  0.126800  0.574100  1.0
  K  K2849  1  0.972900  0.780020  0.748520  1
  K  K2850  1  0.527100  0.775620  0.307120  1
  K  K2851  1  0.468500  0.719980  0.192880  1
  K  K2852  1  0.031500  0.724380  0.751480  1
  K  K2853  1  0.780020  0.748520  0.972900  1
  K  K2854  1  0.775620  0.307120  0.527100  1
  K  K2855  1  0.719980  0.192880  0.468500  1
  K  K2856  1  0.724380  0.751480  0.031500  1
  K  K2857  1  0.748520  0.972900  0.780020  1
  K  K2858  1  0.307120  0.527100  0.775620  1
  K  K2859  1  0.192880  0.468500  0.719980  1
  K  K2860  1  0.751480  0.031500  0.724380  1
  K  K2861  1  0.472900  0.248520  0.280020  1
  K  K2862  1  0.027100  0.807120  0.275620  1
  K  K2863  1  0.968500  0.692880  0.219980  1
  K  K2864  1  0.531500  0.251480  0.224380  1
  K  K2865  1  0.280020  0.472900  0.248520  1
  K  K2866  1  0.275620  0.027100  0.807120  1
  K  K2867  1  0.219980  0.968500  0.692880  1
  K  K2868  1  0.224380  0.531500  0.251480  1
  K  K2869  1  0.248520  0.280020  0.472900  1
  K  K2870  1  0.807120  0.275620  0.027100  1
  K  K2871  1  0.692880  0.219980  0.968500  1
  K  K2872  1  0.251480  0.224380  0.531500  1
  K  K2873  1  0.091800  0.169500  0.827500  1
  K  K2874  1  0.408200  0.735700  0.577700  1
  K  K2875  1  0.158000  0.330500  0.922300  1
  K  K2876  1  0.342000  0.764300  0.672500  1
  K  K2877  1  0.169500  0.827500  0.091800  1
  K  K2878  1  0.735700  0.577700  0.408200  1
  K  K2879  1  0.330500  0.922300  0.158000  1
  K  K2880  1  0.764300  0.672500  0.342000  1
  K  K2881  1  0.827500  0.091800  0.169500  1
  K  K2882  1  0.577700  0.408200  0.735700  1
  K  K2883  1  0.922300  0.158000  0.330500  1
  K  K2884  1  0.672500  0.342000  0.764300  1
  K  K2885  1  0.591800  0.327500  0.669500  1
  K  K2886  1  0.908200  0.077700  0.235700  1
  K  K2887  1  0.658000  0.422300  0.830500  1
  K  K2888  1  0.842000  0.172500  0.264300  1
  K  K2889  1  0.669500  0.591800  0.327500  1
  K  K2890  1  0.235700  0.908200  0.077700  1
  K  K2891  1  0.830500  0.658000  0.422300  1
  K  K2892  1  0.264300  0.842000  0.172500  1
  K  K2893  1  0.327500  0.669500  0.591800  1
  K  K2894  1  0.077700  0.235700  0.908200  1
  K  K2895  1  0.422300  0.830500  0.658000  1
  K  K2896  1  0.172500  0.264300  0.842000  1
  K  K2897  1  0.695800  0.623900  0.651300  1
  K  K2898  1  0.804200  0.955500  0.428100  1
  K  K2899  1  0.527400  0.876100  0.071900  1
  K  K2900  1  0.972600  0.544500  0.848700  1
  K  K2901  1  0.623900  0.651300  0.695800  1
  K  K2902  1  0.955500  0.428100  0.804200  1
  K  K2903  1  0.876100  0.071900  0.527400  1
  K  K2904  1  0.544500  0.848700  0.972600  1
  K  K2905  1  0.651300  0.695800  0.623900  1
  K  K2906  1  0.428100  0.804200  0.955500  1
  K  K2907  1  0.071900  0.527400  0.876100  1
  K  K2908  1  0.848700  0.972600  0.544500  1
  K  K2909  1  0.195800  0.151300  0.123900  1
  K  K2910  1  0.304200  0.928100  0.455500  1
  K  K2911  1  0.027400  0.571900  0.376100  1
  K  K2912  1  0.472600  0.348700  0.044500  1
  K  K2913  1  0.123900  0.195800  0.151300  1
  K  K2914  1  0.455500  0.304200  0.928100  1
  K  K2915  1  0.376100  0.027400  0.571900  1
  K  K2916  1  0.044500  0.472600  0.348700  1
  K  K2917  1  0.151300  0.123900  0.195800  1
  K  K2918  1  0.928100  0.455500  0.304200  1
  K  K2919  1  0.571900  0.376100  0.027400  1
  K  K2920  1  0.348700  0.044500  0.472600  1
  K  K2921  1  0.145100  0.186000  0.887700  1
  K  K2922  1  0.354900  0.742600  0.540900  1
  K  K2923  1  0.201700  0.314000  0.959100  1
  K  K2924  1  0.298300  0.757400  0.612300  1
  K  K2925  1  0.186000  0.887700  0.145100  1
  K  K2926  1  0.742600  0.540900  0.354900  1
  K  K2927  1  0.314000  0.959100  0.201700  1
  K  K2928  1  0.757400  0.612300  0.298300  1
  K  K2929  1  0.887700  0.145100  0.186000  1
  K  K2930  1  0.540900  0.354900  0.742600  1
  K  K2931  1  0.959100  0.201700  0.314000  1
  K  K2932  1  0.612300  0.298300  0.757400  1
  K  K2933  1  0.645100  0.387700  0.686000  1
  K  K2934  1  0.854900  0.040900  0.242600  1
  K  K2935  1  0.701700  0.459100  0.814000  1
  K  K2936  1  0.798300  0.112300  0.257400  1
  K  K2937  1  0.686000  0.645100  0.387700  1
  K  K2938  1  0.242600  0.854900  0.040900  1
  K  K2939  1  0.814000  0.701700  0.459100  1
  K  K2940  1  0.257400  0.798300  0.112300  1
  K  K2941  1  0.387700  0.686000  0.645100  1
  K  K2942  1  0.040900  0.242600  0.854900  1
  K  K2943  1  0.459100  0.814000  0.701700  1
  K  K2944  1  0.112300  0.257400  0.798300  1
  K  K2945  1  0.669800  0.622100  0.647300  1
  K  K2946  1  0.830200  0.977500  0.452300  1
  K  K2947  1  0.525200  0.877900  0.047700  1
  K  K2948  1  0.974800  0.522500  0.852700  1
  K  K2949  1  0.622100  0.647300  0.669800  1
  K  K2950  1  0.977500  0.452300  0.830200  1
  K  K2951  1  0.877900  0.047700  0.525200  1
  K  K2952  1  0.522500  0.852700  0.974800  1
  K  K2953  1  0.647300  0.669800  0.622100  1
  K  K2954  1  0.452300  0.830200  0.977500  1
  K  K2955  1  0.047700  0.525200  0.877900  1
  K  K2956  1  0.852700  0.974800  0.522500  1
  K  K2957  1  0.169800  0.147300  0.122100  1
  K  K2958  1  0.330200  0.952300  0.477500  1
  K  K2959  1  0.025200  0.547700  0.377900  1
  K  K2960  1  0.474800  0.352700  0.022500  1
  K  K2961  1  0.122100  0.169800  0.147300  1
  K  K2962  1  0.477500  0.330200  0.952300  1
  K  K2963  1  0.377900  0.025200  0.547700  1
  K  K2964  1  0.022500  0.474800  0.352700  1
  K  K2965  1  0.147300  0.122100  0.169800  1
  K  K2966  1  0.952300  0.477500  0.330200  1
  K  K2967  1  0.547700  0.377900  0.025200  1
  K  K2968  1  0.352700  0.022500  0.474800  1
  N  N2969  1  0.962500  0.005200  0.698900  1
  N  N2970  1  0.537500  0.736400  0.542700  1
  N  N2971  1  0.193700  0.494800  0.957300  1
  N  N2972  1  0.306300  0.763600  0.801100  1
  N  N2973  1  0.005200  0.698900  0.962500  1
  N  N2974  1  0.736400  0.542700  0.537500  1
  N  N2975  1  0.494800  0.957300  0.193700  1
  N  N2976  1  0.763600  0.801100  0.306300  1
  N  N2977  1  0.698900  0.962500  0.005200  1
  N  N2978  1  0.542700  0.537500  0.736400  1
  N  N2979  1  0.957300  0.193700  0.494800  1
  N  N2980  1  0.801100  0.306300  0.763600  1
  N  N2981  1  0.462500  0.198900  0.505200  1
  N  N2982  1  0.037500  0.042700  0.236400  1
  N  N2983  1  0.693700  0.457300  0.994800  1
  N  N2984  1  0.806300  0.301100  0.263600  1
  N  N2985  1  0.505200  0.462500  0.198900  1
  N  N2986  1  0.236400  0.037500  0.042700  1
  N  N2987  1  0.994800  0.693700  0.457300  1
  N  N2988  1  0.263600  0.806300  0.301100  1
  N  N2989  1  0.198900  0.505200  0.462500  1
  N  N2990  1  0.042700  0.236400  0.037500  1
  N  N2991  1  0.457300  0.994800  0.693700  1
  N  N2992  1  0.301100  0.263600  0.806300  1
  N  N2993  1  0.915400  0.915400  0.915400  1
  N  N2994  1  0.584600  0.000000  0.500000  1
  N  N2995  1  0.500000  0.584600  0.000000  1
  N  N2996  1  0.000000  0.500000  0.584600  1
  N  N2997  1  0.415400  0.415400  0.415400  1
  N  N2998  1  0.084600  0.000000  0.500000  1
  N  N2999  1  0.000000  0.500000  0.084600  1
  N  N3000  1  0.500000  0.084600  0.000000  1
  N  N3001  1  0.960300  0.803200  0.702100  1
  N  N3002  1  0.539700  0.741800  0.342900  1
  N  N3003  1  0.398900  0.696800  0.157100  1
  N  N3004  1  0.101100  0.758200  0.797900  1
  N  N3005  1  0.803200  0.702100  0.960300  1
  N  N3006  1  0.741800  0.342900  0.539700  1
  N  N3007  1  0.696800  0.157100  0.398900  1
  N  N3008  1  0.758200  0.797900  0.101100  1
  N  N3009  1  0.702100  0.960300  0.803200  1
  N  N3010  1  0.342900  0.539700  0.741800  1
  N  N3011  1  0.157100  0.398900  0.696800  1
  N  N3012  1  0.797900  0.101100  0.758200  1
  N  N3013  1  0.460300  0.202100  0.303200  1
  N  N3014  1  0.039700  0.842900  0.241800  1
  N  N3015  1  0.898900  0.657100  0.196800  1
  N  N3016  1  0.601100  0.297900  0.258200  1
  N  N3017  1  0.303200  0.460300  0.202100  1
  N  N3018  1  0.241800  0.039700  0.842900  1
  N  N3019  1  0.196800  0.898900  0.657100  1
  N  N3020  1  0.258200  0.601100  0.297900  1
  N  N3021  1  0.202100  0.303200  0.460300  1
  N  N3022  1  0.842900  0.241800  0.039700  1
  N  N3023  1  0.657100  0.196800  0.898900  1
  N  N3024  1  0.297900  0.258200  0.601100  1
  N  N3025  1  0.789800  0.624600  0.701000  1
  N  N3026  1  0.710200  0.911200  0.334800  1
  N  N3027  1  0.576400  0.875400  0.165200  1
  N  N3028  1  0.923600  0.588800  0.799000  1
  N  N3029  1  0.624600  0.701000  0.789800  1
  N  N3030  1  0.911200  0.334800  0.710200  1
  N  N3031  1  0.875400  0.165200  0.576400  1
  N  N3032  1  0.588800  0.799000  0.923600  1
  N  N3033  1  0.701000  0.789800  0.624600  1
  N  N3034  1  0.334800  0.710200  0.911200  1
  N  N3035  1  0.165200  0.576400  0.875400  1
  N  N3036  1  0.799000  0.923600  0.588800  1
  N  N3037  1  0.289800  0.201000  0.124600  1
  N  N3038  1  0.210200  0.834800  0.411200  1
  N  N3039  1  0.076400  0.665200  0.375400  1
  N  N3040  1  0.423600  0.299000  0.088800  1
  N  N3041  1  0.124600  0.289800  0.201000  1
  N  N3042  1  0.411200  0.210200  0.834800  1
  N  N3043  1  0.375400  0.076400  0.665200  1
  N  N3044  1  0.088800  0.423600  0.299000  1
  N  N3045  1  0.201000  0.124600  0.289800  1
  N  N3046  1  0.834800  0.411200  0.210200  1
  N  N3047  1  0.665200  0.375400  0.076400  1
  N  N3048  1  0.299000  0.088800  0.423600  1
  N  N3049  1  0.205100  0.184700  0.931000  1
  N  N3050  1  0.294900  0.725900  0.479600  1
  N  N3051  1  0.246300  0.315300  0.020400  1
  N  N3052  1  0.253700  0.774100  0.569000  1
  N  N3053  1  0.184700  0.931000  0.205100  1
  N  N3054  1  0.725900  0.479600  0.294900  1
  N  N3055  1  0.315300  0.020400  0.246300  1
  N  N3056  1  0.774100  0.569000  0.253700  1
  N  N3057  1  0.931000  0.205100  0.184700  1
  N  N3058  1  0.479600  0.294900  0.725900  1
  N  N3059  1  0.020400  0.246300  0.315300  1
  N  N3060  1  0.569000  0.253700  0.774100  1
  N  N3061  1  0.705100  0.431000  0.684700  1
  N  N3062  1  0.794900  0.979600  0.225900  1
  N  N3063  1  0.746300  0.520400  0.815300  1
  N  N3064  1  0.753700  0.069000  0.274100  1
  N  N3065  1  0.684700  0.705100  0.431000  1
  N  N3066  1  0.225900  0.794900  0.979600  1
  N  N3067  1  0.815300  0.746300  0.520400  1
  N  N3068  1  0.274100  0.753700  0.069000  1
  N  N3069  1  0.431000  0.684700  0.705100  1
  N  N3070  1  0.979600  0.225900  0.794900  1
  N  N3071  1  0.520400  0.815300  0.746300  1
  N  N3072  1  0.069000  0.274100  0.753700  1
  N  N3073  1  0.095400  0.898100  0.931900  1.0
  N  N3074  1  0.404600  0.836500  0.302700  1.0
  N  N3075  1  0.533800  0.601900  0.197300  1.0
  N  N3076  1  0.966200  0.663500  0.568100  1.0
  N  N3077  1  0.898100  0.931900  0.095400  1.0
  N  N3078  1  0.836500  0.302700  0.404600  1.0
  N  N3079  1  0.601900  0.197300  0.533800  1.0
  N  N3080  1  0.663500  0.568100  0.966200  1.0
  N  N3081  1  0.931900  0.095400  0.898100  1.0
  N  N3082  1  0.302700  0.404600  0.836500  1.0
  N  N3083  1  0.197300  0.533800  0.601900  1.0
  N  N3084  1  0.568100  0.966200  0.663500  1.0
  N  N3085  1  0.595400  0.431900  0.398100  1.0
  N  N3086  1  0.904600  0.802700  0.336500  1.0
  N  N3087  1  0.033800  0.697300  0.101900  1.0
  N  N3088  1  0.466200  0.068100  0.163500  1.0
  N  N3089  1  0.398100  0.595400  0.431900  1.0
  N  N3090  1  0.336500  0.904600  0.802700  1.0
  N  N3091  1  0.101900  0.033800  0.697300  1.0
  N  N3092  1  0.163500  0.466200  0.068100  1.0
  N  N3093  1  0.431900  0.398100  0.595400  1.0
  N  N3094  1  0.802700  0.336500  0.904600  1.0
  N  N3095  1  0.697300  0.101900  0.033800  1.0
  N  N3096  1  0.068100  0.163500  0.466200  1.0
  N  N3097  1  0.095600  0.069000  0.974200  1.0
  N  N3098  1  0.404400  0.878600  0.473400  1.0
  N  N3099  1  0.405200  0.431000  0.026600  1.0
  N  N3100  1  0.094800  0.621400  0.525800  1.0
  N  N3101  1  0.069000  0.974200  0.095600  1.0
  N  N3102  1  0.878600  0.473400  0.404400  1.0
  N  N3103  1  0.431000  0.026600  0.405200  1.0
  N  N3104  1  0.621400  0.525800  0.094800  1.0
  N  N3105  1  0.974200  0.095600  0.069000  1.0
  N  N3106  1  0.473400  0.404400  0.878600  1.0
  N  N3107  1  0.026600  0.405200  0.431000  1.0
  N  N3108  1  0.525800  0.094800  0.621400  1.0
  N  N3109  1  0.595600  0.474200  0.569000  1.0
  N  N3110  1  0.904400  0.973400  0.378600  1.0
  N  N3111  1  0.905200  0.526600  0.931000  1.0
  N  N3112  1  0.594800  0.025800  0.121400  1.0
  N  N3113  1  0.569000  0.595600  0.474200  1.0
  N  N3114  1  0.378600  0.904400  0.973400  1.0
  N  N3115  1  0.931000  0.905200  0.526600  1.0
  N  N3116  1  0.121400  0.594800  0.025800  1.0
  N  N3117  1  0.474200  0.569000  0.595600  1.0
  N  N3118  1  0.973400  0.378600  0.904400  1.0
  N  N3119  1  0.526600  0.931000  0.905200  1.0
  N  N3120  1  0.025800  0.121400  0.594800  1.0
  N  N3121  1  0.955000  0.800400  0.977200  1.0
  N  N3122  1  0.545000  0.022200  0.345400  1.0
  N  N3123  1  0.676800  0.699600  0.154600  1.0
  N  N3124  1  0.823200  0.477800  0.522800  1.0
  N  N3125  1  0.800400  0.977200  0.955000  1.0
  N  N3126  1  0.022200  0.345400  0.545000  1.0
  N  N3127  1  0.699600  0.154600  0.676800  1.0
  N  N3128  1  0.477800  0.522800  0.823200  1.0
  N  N3129  1  0.977200  0.955000  0.800400  1.0
  N  N3130  1  0.345400  0.545000  0.022200  1.0
  N  N3131  1  0.154600  0.676800  0.699600  1.0
  N  N3132  1  0.522800  0.823200  0.477800  1.0
  N  N3133  1  0.455000  0.477200  0.300400  1.0
  N  N3134  1  0.045000  0.845400  0.522200  1.0
  N  N3135  1  0.176800  0.654600  0.199600  1.0
  N  N3136  1  0.323200  0.022800  0.977800  1.0
  N  N3137  1  0.300400  0.455000  0.477200  1.0
  N  N3138  1  0.522200  0.045000  0.845400  1.0
  N  N3139  1  0.199600  0.176800  0.654600  1.0
  N  N3140  1  0.977800  0.323200  0.022800  1.0
  N  N3141  1  0.477200  0.300400  0.455000  1.0
  N  N3142  1  0.845400  0.522200  0.045000  1.0
  N  N3143  1  0.654600  0.199600  0.176800  1.0
  N  N3144  1  0.022800  0.977800  0.323200  1.0
  N  N3145  1  0.878000  0.770800  0.792600  1.0
  N  N3146  1  0.622000  0.914600  0.392800  1.0
  N  N3147  1  0.521800  0.729200  0.107200  1.0
  N  N3148  1  0.978200  0.585400  0.707400  1.0
  N  N3149  1  0.770800  0.792600  0.878000  1.0
  N  N3150  1  0.914600  0.392800  0.622000  1.0
  N  N3151  1  0.729200  0.107200  0.521800  1.0
  N  N3152  1  0.585400  0.707400  0.978200  1.0
  N  N3153  1  0.792600  0.878000  0.770800  1.0
  N  N3154  1  0.392800  0.622000  0.914600  1.0
  N  N3155  1  0.107200  0.521800  0.729200  1.0
  N  N3156  1  0.707400  0.978200  0.585400  1.0
  N  N3157  1  0.378000  0.292600  0.270800  1.0
  N  N3158  1  0.122000  0.892800  0.414600  1.0
  N  N3159  1  0.021800  0.607200  0.229200  1.0
  N  N3160  1  0.478200  0.207400  0.085400  1.0
  N  N3161  1  0.270800  0.378000  0.292600  1.0
  N  N3162  1  0.414600  0.122000  0.892800  1.0
  N  N3163  1  0.229200  0.021800  0.607200  1.0
  N  N3164  1  0.085400  0.478200  0.207400  1.0
  N  N3165  1  0.292600  0.270800  0.378000  1.0
  N  N3166  1  0.892800  0.414600  0.122000  1.0
  N  N3167  1  0.607200  0.229200  0.021800  1.0
  N  N3168  1  0.207400  0.085400  0.478200  1.0
  O  O3169  1  0.012400  0.853700  0.802500  1
  O  O3170  1  0.487600  0.790100  0.341300  1
  O  O3171  1  0.448800  0.646300  0.158700  1
  O  O3172  1  0.051200  0.709900  0.697500  1
  O  O3173  1  0.853700  0.802500  0.012400  1
  O  O3174  1  0.790100  0.341300  0.487600  1
  O  O3175  1  0.646300  0.158700  0.448800  1
  O  O3176  1  0.709900  0.697500  0.051200  1
  O  O3177  1  0.802500  0.012400  0.853700  1
  O  O3178  1  0.341300  0.487600  0.790100  1
  O  O3179  1  0.158700  0.448800  0.646300  1
  O  O3180  1  0.697500  0.051200  0.709900  1
  O  O3181  1  0.512400  0.302500  0.353700  1
  O  O3182  1  0.987600  0.841300  0.290100  1
  O  O3183  1  0.948800  0.658700  0.146300  1
  O  O3184  1  0.551200  0.197500  0.209900  1
  O  O3185  1  0.353700  0.512400  0.302500  1
  O  O3186  1  0.290100  0.987600  0.841300  1
  O  O3187  1  0.146300  0.948800  0.658700  1
  O  O3188  1  0.209900  0.551200  0.197500  1
  O  O3189  1  0.302500  0.353700  0.512400  1
  O  O3190  1  0.841300  0.290100  0.987600  1
  O  O3191  1  0.658700  0.146300  0.948800  1
  O  O3192  1  0.197500  0.209900  0.551200  1
  O  O3193  1  0.962900  0.712700  0.699200  1
  O  O3194  1  0.537100  0.736300  0.249800  1
  O  O3195  1  0.486500  0.787300  0.250200  1
  O  O3196  1  0.013500  0.763700  0.800800  1
  O  O3197  1  0.712700  0.699200  0.962900  1
  O  O3198  1  0.736300  0.249800  0.537100  1
  O  O3199  1  0.787300  0.250200  0.486500  1
  O  O3200  1  0.763700  0.800800  0.013500  1
  O  O3201  1  0.699200  0.962900  0.712700  1
  O  O3202  1  0.249800  0.537100  0.736300  1
  O  O3203  1  0.250200  0.486500  0.787300  1
  O  O3204  1  0.800800  0.013500  0.763700  1
  O  O3205  1  0.462900  0.199200  0.212700  1
  O  O3206  1  0.037100  0.749800  0.236300  1
  O  O3207  1  0.986500  0.750200  0.287300  1
  O  O3208  1  0.513500  0.300800  0.263700  1
  O  O3209  1  0.212700  0.462900  0.199200  1
  O  O3210  1  0.236300  0.037100  0.749800  1
  O  O3211  1  0.287300  0.986500  0.750200  1
  O  O3212  1  0.263700  0.513500  0.300800  1
  O  O3213  1  0.199200  0.212700  0.462900  1
  O  O3214  1  0.749800  0.236300  0.037100  1
  O  O3215  1  0.750200  0.287300  0.986500  1
  O  O3216  1  0.300800  0.263700  0.513500  1
  O  O3217  1  0.055400  0.805400  0.750000  1
  O  O3218  1  0.444600  0.694600  0.250000  1
  O  O3219  1  0.805400  0.750000  0.055400  1
  O  O3220  1  0.694600  0.250000  0.444600  1
  O  O3221  1  0.750000  0.055400  0.805400  1
  O  O3222  1  0.250000  0.444600  0.694600  1
  O  O3223  1  0.555400  0.250000  0.305400  1
  O  O3224  1  0.944600  0.750000  0.194600  1
  O  O3225  1  0.305400  0.555400  0.250000  1
  O  O3226  1  0.194600  0.944600  0.750000  1
  O  O3227  1  0.250000  0.305400  0.555400  1
  O  O3228  1  0.750000  0.194600  0.944600  1
  O  O3229  1  0.161000  0.250000  0.911000  1
  O  O3230  1  0.339000  0.750000  0.589000  1
  O  O3231  1  0.250000  0.911000  0.161000  1
  O  O3232  1  0.750000  0.589000  0.339000  1
  O  O3233  1  0.911000  0.161000  0.250000  1
  O  O3234  1  0.589000  0.339000  0.750000  1
  O  O3235  1  0.661000  0.411000  0.750000  1
  O  O3236  1  0.839000  0.089000  0.250000  1
  O  O3237  1  0.750000  0.661000  0.411000  1
  O  O3238  1  0.250000  0.839000  0.089000  1
  O  O3239  1  0.411000  0.750000  0.661000  1
  O  O3240  1  0.089000  0.250000  0.839000  1
  O  O3241  1  0.762900  0.617900  0.670200  1
  O  O3242  1  0.737100  0.907300  0.355000  1
  O  O3243  1  0.552300  0.882100  0.145000  1
  O  O3244  1  0.947700  0.592700  0.829800  1
  O  O3245  1  0.617900  0.670200  0.762900  1
  O  O3246  1  0.907300  0.355000  0.737100  1
  O  O3247  1  0.882100  0.145000  0.552300  1
  O  O3248  1  0.592700  0.829800  0.947700  1
  O  O3249  1  0.670200  0.762900  0.617900  1
  O  O3250  1  0.355000  0.737100  0.907300  1
  O  O3251  1  0.145000  0.552300  0.882100  1
  O  O3252  1  0.829800  0.947700  0.592700  1
  O  O3253  1  0.262900  0.170200  0.117900  1
  O  O3254  1  0.237100  0.855000  0.407300  1
  O  O3255  1  0.052300  0.645000  0.382100  1
  O  O3256  1  0.447700  0.329800  0.092700  1
  O  O3257  1  0.117900  0.262900  0.170200  1
  O  O3258  1  0.407300  0.237100  0.855000  1
  O  O3259  1  0.382100  0.052300  0.645000  1
  O  O3260  1  0.092700  0.447700  0.329800  1
  O  O3261  1  0.170200  0.117900  0.262900  1
  O  O3262  1  0.855000  0.407300  0.237100  1
  O  O3263  1  0.645000  0.382100  0.052300  1
  O  O3264  1  0.329800  0.092700  0.447700  1
  O  O3265  1  0.078600  0.813900  0.710100  1
  O  O3266  1  0.421400  0.631500  0.235300  1
  O  O3267  1  0.396200  0.686100  0.264700  1
  O  O3268  1  0.103800  0.868500  0.789900  1
  O  O3269  1  0.813900  0.710100  0.078600  1
  O  O3270  1  0.631500  0.235300  0.421400  1
  O  O3271  1  0.686100  0.264700  0.396200  1
  O  O3272  1  0.868500  0.789900  0.103800  1
  O  O3273  1  0.710100  0.078600  0.813900  1
  O  O3274  1  0.235300  0.421400  0.631500  1
  O  O3275  1  0.264700  0.396200  0.686100  1
  O  O3276  1  0.789900  0.103800  0.868500  1
  O  O3277  1  0.578600  0.210100  0.313900  1
  O  O3278  1  0.921400  0.735300  0.131500  1
  O  O3279  1  0.896200  0.764700  0.186100  1
  O  O3280  1  0.603800  0.289900  0.368500  1
  O  O3281  1  0.313900  0.578600  0.210100  1
  O  O3282  1  0.131500  0.921400  0.735300  1
  O  O3283  1  0.186100  0.896200  0.764700  1
  O  O3284  1  0.368500  0.603800  0.289900  1
  O  O3285  1  0.210100  0.313900  0.578600  1
  O  O3286  1  0.735300  0.131500  0.921400  1
  O  O3287  1  0.764700  0.186100  0.896200  1
  O  O3288  1  0.289900  0.368500  0.603800  1
  O  O3289  1  0.076100  0.182400  0.824700  1
  O  O3290  1  0.423900  0.748600  0.606300  1
  O  O3291  1  0.142300  0.317600  0.893700  1
  O  O3292  1  0.357700  0.751400  0.675300  1
  O  O3293  1  0.182400  0.824700  0.076100  1
  O  O3294  1  0.748600  0.606300  0.423900  1
  O  O3295  1  0.317600  0.893700  0.142300  1
  O  O3296  1  0.751400  0.675300  0.357700  1
  O  O3297  1  0.824700  0.076100  0.182400  1
  O  O3298  1  0.606300  0.423900  0.748600  1
  O  O3299  1  0.893700  0.142300  0.317600  1
  O  O3300  1  0.675300  0.357700  0.751400  1
  O  O3301  1  0.576100  0.324700  0.682400  1
  O  O3302  1  0.923900  0.106300  0.248600  1
  O  O3303  1  0.642300  0.393700  0.817600  1
  O  O3304  1  0.857700  0.175300  0.251400  1
  O  O3305  1  0.682400  0.576100  0.324700  1
  O  O3306  1  0.248600  0.923900  0.106300  1
  O  O3307  1  0.817600  0.642300  0.393700  1
  O  O3308  1  0.251400  0.857700  0.175300  1
  O  O3309  1  0.324700  0.682400  0.576100  1
  O  O3310  1  0.106300  0.248600  0.923900  1
  O  O3311  1  0.393700  0.817600  0.642300  1
  O  O3312  1  0.175300  0.251400  0.857700  1
  O  O3313  1  0.095900  0.871500  0.988400  1.0
  O  O3314  1  0.404100  0.892500  0.275600  1.0
  O  O3315  1  0.616900  0.628500  0.224400  1.0
  O  O3316  1  0.883100  0.607500  0.511600  1.0
  O  O3317  1  0.871500  0.988400  0.095900  1.0
  O  O3318  1  0.892500  0.275600  0.404100  1.0
  O  O3319  1  0.628500  0.224400  0.616900  1.0
  O  O3320  1  0.607500  0.511600  0.883100  1.0
  O  O3321  1  0.988400  0.095900  0.871500  1.0
  O  O3322  1  0.275600  0.404100  0.892500  1.0
  O  O3323  1  0.224400  0.616900  0.628500  1.0
  O  O3324  1  0.511600  0.883100  0.607500  1.0
  O  O3325  1  0.595900  0.488400  0.371500  1.0
  O  O3326  1  0.904100  0.775600  0.392500  1.0
  O  O3327  1  0.116900  0.724400  0.128500  1.0
  O  O3328  1  0.383100  0.011600  0.107500  1.0
  O  O3329  1  0.371500  0.595900  0.488400  1.0
  O  O3330  1  0.392500  0.904100  0.775600  1.0
  O  O3331  1  0.128500  0.116900  0.724400  1.0
  O  O3332  1  0.107500  0.383100  0.011600  1.0
  O  O3333  1  0.488400  0.371500  0.595900  1.0
  O  O3334  1  0.775600  0.392500  0.904100  1.0
  O  O3335  1  0.724400  0.128500  0.116900  1.0
  O  O3336  1  0.011600  0.107500  0.383100  1.0
  O  O3337  1  0.117400  0.825600  0.019600  1.0
  O  O3338  1  0.382600  0.902200  0.208200  1.0
  O  O3339  1  0.694000  0.674400  0.291800  1.0
  O  O3340  1  0.806000  0.597800  0.480400  1.0
  O  O3341  1  0.825600  0.019600  0.117400  1.0
  O  O3342  1  0.902200  0.208200  0.382600  1.0
  O  O3343  1  0.674400  0.291800  0.694000  1.0
  O  O3344  1  0.597800  0.480400  0.806000  1.0
  O  O3345  1  0.019600  0.117400  0.825600  1.0
  O  O3346  1  0.208200  0.382600  0.902200  1.0
  O  O3347  1  0.291800  0.694000  0.674400  1.0
  O  O3348  1  0.480400  0.806000  0.597800  1.0
  O  O3349  1  0.617400  0.519600  0.325600  1.0
  O  O3350  1  0.882600  0.708200  0.402200  1.0
  O  O3351  1  0.194000  0.791800  0.174400  1.0
  O  O3352  1  0.306000  0.980400  0.097800  1.0
  O  O3353  1  0.325600  0.617400  0.519600  1.0
  O  O3354  1  0.402200  0.882600  0.708200  1.0
  O  O3355  1  0.174400  0.194000  0.791800  1.0
  O  O3356  1  0.097800  0.306000  0.980400  1.0
  O  O3357  1  0.519600  0.325600  0.617400  1.0
  O  O3358  1  0.708200  0.402200  0.882600  1.0
  O  O3359  1  0.791800  0.174400  0.194000  1.0
  O  O3360  1  0.980400  0.097800  0.306000  1.0
  O  O3361  1  0.075200  0.848000  0.865000  1.0
  O  O3362  1  0.424800  0.789800  0.272800  1.0
  O  O3363  1  0.517000  0.652000  0.227200  1.0
  O  O3364  1  0.983000  0.710200  0.635000  1.0
  O  O3365  1  0.848000  0.865000  0.075200  1.0
  O  O3366  1  0.789800  0.272800  0.424800  1.0
  O  O3367  1  0.652000  0.227200  0.517000  1.0
  O  O3368  1  0.710200  0.635000  0.983000  1.0
  O  O3369  1  0.865000  0.075200  0.848000  1.0
  O  O3370  1  0.272800  0.424800  0.789800  1.0
  O  O3371  1  0.227200  0.517000  0.652000  1.0
  O  O3372  1  0.635000  0.983000  0.710200  1.0
  O  O3373  1  0.575200  0.365000  0.348000  1.0
  O  O3374  1  0.924800  0.772800  0.289800  1.0
  O  O3375  1  0.017000  0.727200  0.152000  1.0
  O  O3376  1  0.483000  0.135000  0.210200  1.0
  O  O3377  1  0.348000  0.575200  0.365000  1.0
  O  O3378  1  0.289800  0.924800  0.772800  1.0
  O  O3379  1  0.152000  0.017000  0.727200  1.0
  O  O3380  1  0.210200  0.483000  0.135000  1.0
  O  O3381  1  0.365000  0.348000  0.575200  1.0
  O  O3382  1  0.772800  0.289800  0.924800  1.0
  O  O3383  1  0.727200  0.152000  0.017000  1.0
  O  O3384  1  0.135000  0.210200  0.483000  1.0
  O  O3385  1  0.153600  0.113600  0.041400  1.0
  O  O3386  1  0.346400  0.887800  0.460000  1.0
  O  O3387  1  0.427800  0.386400  0.040000  1.0
  O  O3388  1  0.072200  0.612200  0.458600  1.0
  O  O3389  1  0.113600  0.041400  0.153600  1.0
  O  O3390  1  0.887800  0.460000  0.346400  1.0
  O  O3391  1  0.386400  0.040000  0.427800  1.0
  O  O3392  1  0.612200  0.458600  0.072200  1.0
  O  O3393  1  0.041400  0.153600  0.113600  1.0
  O  O3394  1  0.460000  0.346400  0.887800  1.0
  O  O3395  1  0.040000  0.427800  0.386400  1.0
  O  O3396  1  0.458600  0.072200  0.612200  1.0
  O  O3397  1  0.653600  0.541400  0.613600  1.0
  O  O3398  1  0.846400  0.960000  0.387800  1.0
  O  O3399  1  0.927800  0.540000  0.886400  1.0
  O  O3400  1  0.572200  0.958600  0.112200  1.0
  O  O3401  1  0.613600  0.653600  0.541400  1.0
  O  O3402  1  0.387800  0.846400  0.960000  1.0
  O  O3403  1  0.886400  0.927800  0.540000  1.0
  O  O3404  1  0.112200  0.572200  0.958600  1.0
  O  O3405  1  0.541400  0.613600  0.653600  1.0
  O  O3406  1  0.960000  0.387800  0.846400  1.0
  O  O3407  1  0.540000  0.886400  0.927800  1.0
  O  O3408  1  0.958600  0.112200  0.572200  1.0
  O  O3409  1  0.168600  0.916200  0.084800  1.0
  O  O3410  1  0.331400  0.916200  0.247600  1.0
  O  O3411  1  0.668600  0.583800  0.252400  1.0
  O  O3412  1  0.831400  0.583800  0.415200  1.0
  O  O3413  1  0.916200  0.084800  0.168600  1.0
  O  O3414  1  0.916200  0.247600  0.331400  1.0
  O  O3415  1  0.583800  0.252400  0.668600  1.0
  O  O3416  1  0.583800  0.415200  0.831400  1.0
  O  O3417  1  0.084800  0.168600  0.916200  1.0
  O  O3418  1  0.247600  0.331400  0.916200  1.0
  O  O3419  1  0.252400  0.668600  0.583800  1.0
  O  O3420  1  0.415200  0.831400  0.583800  1.0
  O  O3421  1  0.668600  0.584800  0.416200  1.0
  O  O3422  1  0.831400  0.747600  0.416200  1.0
  O  O3423  1  0.168600  0.752400  0.083800  1.0
  O  O3424  1  0.331400  0.915200  0.083800  1.0
  O  O3425  1  0.416200  0.668600  0.584800  1.0
  O  O3426  1  0.416200  0.831400  0.747600  1.0
  O  O3427  1  0.083800  0.168600  0.752400  1.0
  O  O3428  1  0.083800  0.331400  0.915200  1.0
  O  O3429  1  0.584800  0.416200  0.668600  1.0
  O  O3430  1  0.747600  0.416200  0.831400  1.0
  O  O3431  1  0.752400  0.083800  0.168600  1.0
  O  O3432  1  0.915200  0.083800  0.331400  1.0
  O  O3433  1  0.102000  0.927700  0.069100  1.0
  O  O3434  1  0.398000  0.967100  0.325700  1.0
  O  O3435  1  0.641400  0.572300  0.174300  1.0
  O  O3436  1  0.858600  0.532900  0.430900  1.0
  O  O3437  1  0.927700  0.069100  0.102000  1.0
  O  O3438  1  0.967100  0.325700  0.398000  1.0
  O  O3439  1  0.572300  0.174300  0.641400  1.0
  O  O3440  1  0.532900  0.430900  0.858600  1.0
  O  O3441  1  0.069100  0.102000  0.927700  1.0
  O  O3442  1  0.325700  0.398000  0.967100  1.0
  O  O3443  1  0.174300  0.641400  0.572300  1.0
  O  O3444  1  0.430900  0.858600  0.532900  1.0
  O  O3445  1  0.602000  0.569100  0.427700  1.0
  O  O3446  1  0.898000  0.825700  0.467100  1.0
  O  O3447  1  0.141400  0.674300  0.072300  1.0
  O  O3448  1  0.358600  0.930900  0.032900  1.0
  O  O3449  1  0.427700  0.602000  0.569100  1.0
  O  O3450  1  0.467100  0.898000  0.825700  1.0
  O  O3451  1  0.072300  0.141400  0.674300  1.0
  O  O3452  1  0.032900  0.358600  0.930900  1.0
  O  O3453  1  0.569100  0.427700  0.602000  1.0
  O  O3454  1  0.825700  0.467100  0.898000  1.0
  O  O3455  1  0.674300  0.072300  0.141400  1.0
  O  O3456  1  0.930900  0.032900  0.358600  1.0
  O  O3457  1  0.040300  0.838000  0.022900  1.0
  O  O3458  1  0.459700  0.982600  0.297700  1.0
  O  O3459  1  0.684900  0.662000  0.202300  1.0
  O  O3460  1  0.815100  0.517400  0.477100  1.0
  O  O3461  1  0.838000  0.022900  0.040300  1.0
  O  O3462  1  0.982600  0.297700  0.459700  1.0
  O  O3463  1  0.662000  0.202300  0.684900  1.0
  O  O3464  1  0.517400  0.477100  0.815100  1.0
  O  O3465  1  0.022900  0.040300  0.838000  1.0
  O  O3466  1  0.297700  0.459700  0.982600  1.0
  O  O3467  1  0.202300  0.684900  0.662000  1.0
  O  O3468  1  0.477100  0.815100  0.517400  1.0
  O  O3469  1  0.540300  0.522900  0.338000  1.0
  O  O3470  1  0.959700  0.797700  0.482600  1.0
  O  O3471  1  0.184900  0.702300  0.162000  1.0
  O  O3472  1  0.315100  0.977100  0.017400  1.0
  O  O3473  1  0.338000  0.540300  0.522900  1.0
  O  O3474  1  0.482600  0.959700  0.797700  1.0
  O  O3475  1  0.162000  0.184900  0.702300  1.0
  O  O3476  1  0.017400  0.315100  0.977100  1.0
  O  O3477  1  0.522900  0.338000  0.540300  1.0
  O  O3478  1  0.797700  0.482600  0.959700  1.0
  O  O3479  1  0.702300  0.162000  0.184900  1.0
  O  O3480  1  0.977100  0.017400  0.315100  1.0
  O  O3481  1  0.108500  0.859800  0.092300  1.0
  O  O3482  1  0.391500  0.983800  0.251300  1.0
  O  O3483  1  0.732500  0.640200  0.248700  1.0
  O  O3484  1  0.767500  0.516200  0.407700  1.0
  O  O3485  1  0.859800  0.092300  0.108500  1.0
  O  O3486  1  0.983800  0.251300  0.391500  1.0
  O  O3487  1  0.640200  0.248700  0.732500  1.0
  O  O3488  1  0.516200  0.407700  0.767500  1.0
  O  O3489  1  0.092300  0.108500  0.859800  1.0
  O  O3490  1  0.251300  0.391500  0.983800  1.0
  O  O3491  1  0.248700  0.732500  0.640200  1.0
  O  O3492  1  0.407700  0.767500  0.516200  1.0
  O  O3493  1  0.608500  0.592300  0.359800  1.0
  O  O3494  1  0.891500  0.751300  0.483800  1.0
  O  O3495  1  0.232500  0.748700  0.140200  1.0
  O  O3496  1  0.267500  0.907700  0.016200  1.0
  O  O3497  1  0.359800  0.608500  0.592300  1.0
  O  O3498  1  0.483800  0.891500  0.751300  1.0
  O  O3499  1  0.140200  0.232500  0.748700  1.0
  O  O3500  1  0.016200  0.267500  0.907700  1.0
  O  O3501  1  0.592300  0.359800  0.608500  1.0
  O  O3502  1  0.751300  0.483800  0.891500  1.0
  O  O3503  1  0.748700  0.140200  0.232500  1.0
  O  O3504  1  0.907700  0.016200  0.267500  1.0
  O  O3505  1  0.914800  0.777200  0.007200  1.0
  O  O3506  1  0.585200  0.092400  0.362400  1.0
  O  O3507  1  0.730000  0.722800  0.137600  1.0
  O  O3508  1  0.770000  0.407600  0.492800  1.0
  O  O3509  1  0.777200  0.007200  0.914800  1.0
  O  O3510  1  0.092400  0.362400  0.585200  1.0
  O  O3511  1  0.722800  0.137600  0.730000  1.0
  O  O3512  1  0.407600  0.492800  0.770000  1.0
  O  O3513  1  0.007200  0.914800  0.777200  1.0
  O  O3514  1  0.362400  0.585200  0.092400  1.0
  O  O3515  1  0.137600  0.730000  0.722800  1.0
  O  O3516  1  0.492800  0.770000  0.407600  1.0
  O  O3517  1  0.414800  0.507200  0.277200  1.0
  O  O3518  1  0.085200  0.862400  0.592400  1.0
  O  O3519  1  0.230000  0.637600  0.222800  1.0
  O  O3520  1  0.270000  0.992800  0.907600  1.0
  O  O3521  1  0.277200  0.414800  0.507200  1.0
  O  O3522  1  0.592400  0.085200  0.862400  1.0
  O  O3523  1  0.222800  0.230000  0.637600  1.0
  O  O3524  1  0.907600  0.270000  0.992800  1.0
  O  O3525  1  0.507200  0.277200  0.414800  1.0
  O  O3526  1  0.862400  0.592400  0.085200  1.0
  O  O3527  1  0.637600  0.222800  0.230000  1.0
  O  O3528  1  0.992800  0.907600  0.270000  1.0
  O  O3529  1  0.912600  0.757500  0.755700  1.0
  O  O3530  1  0.587400  0.843100  0.344900  1.0
  O  O3531  1  0.498200  0.742500  0.155100  1.0
  O  O3532  1  0.001800  0.656900  0.744300  1.0
  O  O3533  1  0.757500  0.755700  0.912600  1.0
  O  O3534  1  0.843100  0.344900  0.587400  1.0
  O  O3535  1  0.742500  0.155100  0.498200  1.0
  O  O3536  1  0.656900  0.744300  0.001800  1.0
  O  O3537  1  0.755700  0.912600  0.757500  1.0
  O  O3538  1  0.344900  0.587400  0.843100  1.0
  O  O3539  1  0.155100  0.498200  0.742500  1.0
  O  O3540  1  0.744300  0.001800  0.656900  1.0
  O  O3541  1  0.412600  0.255700  0.257500  1.0
  O  O3542  1  0.087400  0.844900  0.343100  1.0
  O  O3543  1  0.998200  0.655100  0.242500  1.0
  O  O3544  1  0.501800  0.244300  0.156900  1.0
  O  O3545  1  0.257500  0.412600  0.255700  1.0
  O  O3546  1  0.343100  0.087400  0.844900  1.0
  O  O3547  1  0.242500  0.998200  0.655100  1.0
  O  O3548  1  0.156900  0.501800  0.244300  1.0
  O  O3549  1  0.255700  0.257500  0.412600  1.0
  O  O3550  1  0.844900  0.343100  0.087400  1.0
  O  O3551  1  0.655100  0.242500  0.998200  1.0
  O  O3552  1  0.244300  0.156900  0.501800  1.0
  O  O3553  1  0.727200  0.713500  0.677100  1.0
  O  O3554  1  0.772800  0.949900  0.486300  1.0
  O  O3555  1  0.463600  0.786500  0.013700  1.0
  O  O3556  1  0.036400  0.550100  0.822900  1.0
  O  O3557  1  0.713500  0.677100  0.727200  1.0
  O  O3558  1  0.949900  0.486300  0.772800  1.0
  O  O3559  1  0.786500  0.013700  0.463600  1.0
  O  O3560  1  0.550100  0.822900  0.036400  1.0
  O  O3561  1  0.677100  0.727200  0.713500  1.0
  O  O3562  1  0.486300  0.772800  0.949900  1.0
  O  O3563  1  0.013700  0.463600  0.786500  1.0
  O  O3564  1  0.822900  0.036400  0.550100  1.0
  O  O3565  1  0.227200  0.177100  0.213500  1.0
  O  O3566  1  0.272800  0.986300  0.449900  1.0
  O  O3567  1  0.963600  0.513700  0.286500  1.0
  O  O3568  1  0.536400  0.322900  0.050100  1.0
  O  O3569  1  0.213500  0.227200  0.177100  1.0
  O  O3570  1  0.449900  0.272800  0.986300  1.0
  O  O3571  1  0.286500  0.963600  0.513700  1.0
  O  O3572  1  0.050100  0.536400  0.322900  1.0
  O  O3573  1  0.177100  0.213500  0.227200  1.0
  O  O3574  1  0.986300  0.449900  0.272800  1.0
  O  O3575  1  0.513700  0.286500  0.963600  1.0
  O  O3576  1  0.322900  0.050100  0.536400  1.0
  O  O3577  1  0.796700  0.749600  0.750900  1.0
  O  O3578  1  0.703300  0.954200  0.452900  1.0
  O  O3579  1  0.501300  0.750400  0.047100  1.0
  O  O3580  1  0.998700  0.545800  0.749100  1.0
  O  O3581  1  0.749600  0.750900  0.796700  1.0
  O  O3582  1  0.954200  0.452900  0.703300  1.0
  O  O3583  1  0.750400  0.047100  0.501300  1.0
  O  O3584  1  0.545800  0.749100  0.998700  1.0
  O  O3585  1  0.750900  0.796700  0.749600  1.0
  O  O3586  1  0.452900  0.703300  0.954200  1.0
  O  O3587  1  0.047100  0.501300  0.750400  1.0
  O  O3588  1  0.749100  0.998700  0.545800  1.0
  O  O3589  1  0.296700  0.250900  0.249600  1.0
  O  O3590  1  0.203300  0.952900  0.454200  1.0
  O  O3591  1  0.001300  0.547100  0.250400  1.0
  O  O3592  1  0.498700  0.249100  0.045800  1.0
  O  O3593  1  0.249600  0.296700  0.250900  1.0
  O  O3594  1  0.454200  0.203300  0.952900  1.0
  O  O3595  1  0.250400  0.001300  0.547100  1.0
  O  O3596  1  0.045800  0.498700  0.249100  1.0
  O  O3597  1  0.250900  0.249600  0.296700  1.0
  O  O3598  1  0.952900  0.454200  0.203300  1.0
  O  O3599  1  0.547100  0.250400  0.001300  1.0
  O  O3600  1  0.249100  0.045800  0.498700  1.0
