
#######################################################################
#
#                 Cambridge Crystallographic Data Centre
#                                CCDC 
#
#######################################################################
#
# If this CIF has been generated from an entry in the Cambridge 
# Structural Database, then it will include bibliographic, chemical, 
# crystal, experimental, refinement or atomic coordinate data resulting 
# from the CCDC's data processing and validation procedures.
#
#######################################################################

data_GARWUR
_chemical_name_common            
'Penta-potassium heptakis(tetraethylammonium) hexakis(mu!2$-naphthalene-1,5-bis(2,3-dihydroxybenzoylamino))-tetra-iron(iii) clathrate methanol solvate octahydrate'
_chemical_formula_moiety         
'C144 H84 Fe4 N12 O36 12-,7(C8 H20 N1 1+),5(K1 1+),3(C1 H4 O1),8(H2 O1)'
_chemical_name_systematic        
"Penta-potassium hexakis(tetraethylammonium) hexakis(\m~2~-N,N'-bis(2,3-dioxybenzoyl)naphthalene-1,5-diamine)-tetra-iron(iii) tetraethylammonium clathrate methanol solvate octahydrate"
_symmetry_cell_setting           cubic
_symmetry_space_group_name_H-M   'I -4 3 d'
_symmetry_Int_Tables_number      220
_space_group_name_Hall           'I -4bd 2c 3'
loop_
_symmetry_equiv_pos_site_id
_symmetry_equiv_pos_as_xyz
1 x,y,z
2 1/2-x,-y,1/2+z
3 -x,1/2+y,1/2-z
4 1/2+x,1/2-y,-z
5 z,x,y
6 1/2+z,1/2-x,-y
7 1/2-z,-x,1/2+y
8 -z,1/2+x,1/2-y
9 y,z,x
10 -y,1/2+z,1/2-x
11 1/2+y,1/2-z,-x
12 1/2-y,-z,1/2+x
13 1/4+y,1/4+x,1/4+z
14 1/4-y,3/4-x,3/4+z
15 3/4+y,1/4-x,3/4-z
16 3/4-y,3/4+x,1/4-z
17 1/4+x,1/4+z,1/4+y
18 3/4-x,3/4+z,1/4-y
19 1/4-x,3/4-z,3/4+y
20 3/4+x,1/4-z,3/4-y
21 1/4+z,1/4+y,1/4+x
22 3/4+z,1/4-y,3/4-x
23 3/4-z,3/4+y,1/4-x
24 1/4-z,3/4-y,3/4+x
25 1/2+x,1/2+y,1/2+z
26 -x,1/2-y,z
27 1/2-x,y,-z
28 x,-y,1/2-z
29 1/2+z,1/2+x,1/2+y
30 z,-x,1/2-y
31 -z,1/2-x,y
32 1/2-z,x,-y
33 1/2+y,1/2+z,1/2+x
34 1/2-y,z,-x
35 y,-z,1/2-x
36 -y,1/2-z,x
37 3/4+y,3/4+x,3/4+z
38 3/4-y,1/4-x,1/4+z
39 1/4+y,3/4-x,1/4-z
40 1/4-y,1/4+x,3/4-z
41 3/4+x,3/4+z,3/4+y
42 1/4-x,1/4+z,3/4-y
43 3/4-x,1/4-z,1/4+y
44 1/4+x,3/4-z,1/4-y
45 3/4+z,3/4+y,3/4+x
46 1/4+z,3/4-y,1/4-x
47 1/4-z,1/4+y,3/4-x
48 3/4-z,1/4-y,1/4+x
_cell_length_a                   43.707(8)
_cell_length_b                   43.707(8)
_cell_length_c                   43.707(8)
_cell_angle_alpha                90
_cell_angle_beta                 90
_cell_angle_gamma                90
_cell_volume                     83493.6
_exptl_crystal_colour            'dark red'
_exptl_crystal_description       block
_cell_formula_units_Z            16
loop_
_atom_site_label
_atom_site_type_symbol
_atom_site_fract_x
_atom_site_fract_y
_atom_site_fract_z
Fe1 Fe -0.46624(5) -0.63830(5) -0.40620(5)
Fe2 Fe -0.36838(5) -0.36838(5) -0.36838(5)
O1 O -0.4895(2) -0.6064(2) -0.3820(2)
O2 O -0.4617(2) -0.6557(2) -0.3639(2)
O3 O -0.5291(3) -0.5461(2) -0.3189(2)
O4 O -0.6129(4) -0.5407(3) -0.5007(4)
O5 O -0.5000(2) -0.6686(2) -0.4162(2)
O6 O -0.4803(2) -0.6217(2) -0.4474(2)
O7 O -0.4277(2) -0.6126(2) -0.4103(2)
O8 O -0.4380(2) -0.6705(2) -0.4218(2)
O9 O -0.3424(2) -0.5724(3) -0.4348(3)
O10 O -0.4572(3) -0.4554(3) -0.3003(3)
O11 O -0.3818(3) -0.3454(2) -0.3317(2)
O12 O -0.3977(2) -0.3990(2) -0.3519(2)
N1 N -0.5308(3) -0.5646(2) -0.3673(2)
H1 H -0.5230(3) -0.5787(2) -0.3793(2)
N2 N -0.5952(3) -0.5004(3) -0.4738(3)
H2 H -0.5967(3) -0.4807(3) -0.4699(3)
N3 N -0.3891(3) -0.5659(3) -0.4113(3)
H3 H -0.4072(3) -0.5745(3) -0.4093(3)
N4 N -0.4281(3) -0.4499(3) -0.3427(3)
H4 H -0.4166(3) -0.4372(3) -0.3533(3)
C1 C -0.4894(3) -0.6116(3) -0.3521(3)
C2 C -0.4739(3) -0.6384(3) -0.3421(3)
C3 C -0.4738(3) -0.6459(4) -0.3118(3)
H5 H -0.4640(3) -0.6642(4) -0.3052(3)
C4 C -0.4876(3) -0.6272(3) -0.2908(4)
H6 H -0.4870(3) -0.6328(3) -0.2697(4)
C5 C -0.5016(4) -0.6019(4) -0.2988(4)
H7 H -0.5107(4) -0.5895(4) -0.2834(4)
C6 C -0.5035(3) -0.5925(3) -0.3301(3)
C7 C -0.5218(4) -0.5654(4) -0.3386(4)
C8 C -0.5514(4) -0.5441(3) -0.3813(3)
C9 C -0.5742(4) -0.5299(4) -0.3645(4)
H8 H -0.5752(4) -0.5331(4) -0.3430(4)
C10 C -0.5958(4) -0.5109(4) -0.3783(4)
H9 H -0.6115(4) -0.5015(4) -0.3666(4)
C11 C -0.5940(4) -0.5058(3) -0.4098(4)
H10 H -0.6080(4) -0.4921(3) -0.4192(4)
C12 C -0.5723(3) -0.5203(3) -0.4272(3)
C13 C -0.5501(3) -0.5387(3) -0.4127(3)
C14 C -0.5266(4) -0.5526(3) -0.4306(3)
H11 H -0.5106(4) -0.5640(3) -0.4211(3)
C15 C -0.5276(4) -0.5493(4) -0.4614(4)
H12 H -0.5120(4) -0.5589(4) -0.4731(4)
C16 C -0.5505(4) -0.5322(4) -0.4775(4)
H13 H -0.5508(4) -0.5310(4) -0.4992(4)
C17 C -0.5723(3) -0.5176(3) -0.4593(3)
C18 C -0.6143(4) -0.5131(4) -0.4932(4)
C19 C -0.6395(4) -0.4933(4) -0.5054(4)
C20 C -0.6617(4) -0.5060(4) -0.5236(4)
H14 H -0.6600(4) -0.5270(4) -0.5291(4)
C21 C -0.6854(4) -0.4901(4) -0.5337(4)
H15 H -0.7003(4) -0.4997(4) -0.5463(4)
C22 C -0.6891(4) -0.4575(4) -0.5257(4)
H16 H -0.7065(4) -0.4463(4) -0.5325(4)
C23 C -0.5088(3) -0.6675(4) -0.4437(3)
C24 C -0.4982(4) -0.6413(4) -0.4620(3)
C25 C -0.4042(3) -0.6276(3) -0.4227(3)
C26 C -0.4103(4) -0.6603(4) -0.4281(4)
C27 C -0.3865(4) -0.6781(4) -0.4383(4)
H17 H -0.3894(4) -0.6994(4) -0.4411(4)
C28 C -0.3569(4) -0.6646(4) -0.4450(4)
H18 H -0.3408(4) -0.6770(4) -0.4528(4)
C29 C -0.3521(4) -0.6341(3) -0.4401(3)
H19 H -0.3327(4) -0.6252(3) -0.4442(3)
C30 C -0.3756(3) -0.6165(3) -0.4294(3)
C31 C -0.3671(4) -0.5826(4) -0.4253(4)
C32 C -0.3856(4) -0.5366(4) -0.3999(4)
C33 C -0.3568(5) -0.5209(5) -0.4029(5)
H20 H -0.3401(5) -0.5298(5) -0.4136(5)
C34 C -0.3541(6) -0.4901(5) -0.3886(6)
H21 H -0.3351(6) -0.4796(5) -0.3900(6)
C35 C -0.3782(4) -0.4760(5) -0.3732(5)
H22 H -0.3759(4) -0.4563(5) -0.3643(5)
C36 C -0.4074(4) -0.4927(4) -0.3713(4)
C37 C -0.4113(4) -0.5220(3) -0.3849(3)
C38 C -0.4395(3) -0.5362(4) -0.3832(3)
H23 H -0.4419(3) -0.5560(4) -0.3918(3)
C39 C -0.4638(4) -0.5225(4) -0.3697(4)
H24 H -0.4830(4) -0.5328(4) -0.3691(4)
C40 C -0.4608(4) -0.4933(4) -0.3564(4)
H25 H -0.4784(4) -0.4835(4) -0.3481(4)
C41 C -0.4323(4) -0.4783(4) -0.3552(4)
C42 C -0.4393(4) -0.4389(4) -0.3161(4)
C43 C -0.4302(3) -0.4095(3) -0.3068(3)
C44 C -0.4403(4) -0.3977(4) -0.2783(4)
H26 H -0.4537(4) -0.4096(4) -0.2659(4)
C45 C -0.4312(4) -0.3697(4) -0.2685(4)
H27 H -0.4381(4) -0.3624(4) -0.2492(4)
C46 C -0.4118(4) -0.3513(4) -0.2863(4)
H28 H -0.4058(4) -0.3317(4) -0.2790(4)
C47 C -0.4015(3) -0.3612(3) -0.3137(3)
C48 C -0.4108(4) -0.3907(4) -0.3243(4)
C22D C -0.5257(4) -0.6891(4) -0.4575(4)
C21D C -0.5337(4) -0.6854(4) -0.4901(4)
C20D C -0.5236(4) -0.6617(4) -0.5060(4)
C19D C -0.5054(4) -0.6395(4) -0.4933(4)
C18D C -0.4932(4) -0.6143(4) -0.5131(4)
O4D O -0.5007(4) -0.6129(4) -0.5407(3)
N2D N -0.4738(3) -0.5952(3) -0.5004(3)
H2D H -0.4699(3) -0.5967(3) -0.4807(3)
C17D C -0.4593(3) -0.5723(3) -0.5176(3)
C12D C -0.4272(3) -0.5723(3) -0.5203(3)
C11D C -0.4098(4) -0.5940(4) -0.5058(3)
C10D C -0.3783(4) -0.5958(4) -0.5109(4)
C9D C -0.3645(4) -0.5742(4) -0.5299(4)
C8D C -0.3813(3) -0.5514(4) -0.5441(3)
N1D N -0.3673(2) -0.5308(3) -0.5646(2)
H1D H -0.3793(2) -0.5230(3) -0.5787(2)
C7D C -0.3386(4) -0.5218(4) -0.5654(4)
O3D O -0.3189(2) -0.5291(3) -0.5461(2)
C6D C -0.3301(3) -0.5035(3) -0.5925(3)
C1D C -0.3521(3) -0.4894(3) -0.6116(3)
O1D O -0.3820(2) -0.4895(2) -0.6064(2)
Fe1D Fe -0.40620(5) -0.46624(5) -0.63830(5)
O2D O -0.3639(2) -0.4617(2) -0.6557(2)
C2D C -0.3421(3) -0.4739(3) -0.6384(3)
C3D C -0.3118(3) -0.4738(3) -0.6459(4)
H5D H -0.3052(3) -0.4640(3) -0.6642(4)
C4D C -0.2908(4) -0.4876(3) -0.6272(3)
H6D H -0.2697(4) -0.4870(3) -0.6328(3)
C5D C -0.2988(4) -0.5016(4) -0.6019(4)
H7D H -0.2834(4) -0.5107(4) -0.5895(4)
O5D O -0.4162(2) -0.5000(2) -0.6686(2)
C23D C -0.4437(3) -0.5088(3) -0.6675(4)
C22H C -0.4575(4) -0.5257(4) -0.6891(4)
C21H C -0.4901(4) -0.5337(4) -0.6854(4)
C20H C -0.5060(4) -0.5236(4) -0.6617(4)
C19H C -0.4933(4) -0.5054(4) -0.6395(4)
C18H C -0.5131(4) -0.4932(4) -0.6143(4)
O4H O -0.5407(3) -0.5007(4) -0.6129(4)
N2H N -0.5004(3) -0.4738(3) -0.5952(3)
H2H H -0.4807(3) -0.4699(3) -0.5967(3)
C17H C -0.5176(3) -0.4593(3) -0.5723(3)
C12H C -0.5203(3) -0.4272(3) -0.5723(3)
C11H C -0.5058(3) -0.4098(4) -0.5940(4)
C10H C -0.5109(4) -0.3783(4) -0.5958(4)
C9H C -0.5299(4) -0.3645(4) -0.5742(4)
C8H C -0.5441(3) -0.3813(3) -0.5514(4)
N1H N -0.5646(2) -0.3673(2) -0.5308(3)
H1H H -0.5787(2) -0.3793(2) -0.5230(3)
C7H C -0.5654(4) -0.3386(4) -0.5218(4)
O3H O -0.5461(2) -0.3189(2) -0.5291(3)
C6H C -0.5925(3) -0.3301(3) -0.5035(3)
C1H C -0.6116(3) -0.3521(3) -0.4894(3)
O1H O -0.6064(2) -0.3820(2) -0.4895(2)
Fe1H Fe -0.63830(5) -0.40620(5) -0.46624(5)
O2H O -0.6557(2) -0.3639(2) -0.4617(2)
C2H C -0.6384(3) -0.3421(3) -0.4739(3)
C3H C -0.6459(4) -0.3118(3) -0.4738(3)
H5H H -0.6642(4) -0.3052(3) -0.4640(3)
C4H C -0.6272(3) -0.2908(4) -0.4876(3)
H6H H -0.6328(3) -0.2697(4) -0.4870(3)
C5H C -0.6019(4) -0.2988(4) -0.5016(4)
H7H H -0.5895(4) -0.2834(4) -0.5107(4)
O5H O -0.6686(2) -0.4162(2) -0.5000(2)
C23H C -0.6675(4) -0.4437(3) -0.5088(3)
C24H C -0.6413(4) -0.4620(3) -0.4982(4)
O6H O -0.6217(2) -0.4474(2) -0.4803(2)
O7H O -0.6126(2) -0.4103(2) -0.4277(2)
C25H C -0.6276(3) -0.4227(3) -0.4042(3)
C26H C -0.6603(4) -0.4281(4) -0.4103(4)
O8H O -0.6705(2) -0.4218(2) -0.4380(2)
C27H C -0.6781(4) -0.4383(4) -0.3865(4)
H17H H -0.6994(4) -0.4411(4) -0.3894(4)
C28H C -0.6646(4) -0.4450(4) -0.3569(4)
H18H H -0.6770(4) -0.4528(4) -0.3408(4)
C29H C -0.6341(3) -0.4401(3) -0.3521(4)
H19H H -0.6252(3) -0.4442(3) -0.3327(4)
C30H C -0.6165(3) -0.4294(3) -0.3756(3)
C31H C -0.5826(4) -0.4253(4) -0.3671(4)
O9H O -0.5724(3) -0.4348(3) -0.3424(2)
N3H N -0.5659(3) -0.4113(3) -0.3891(3)
H3H H -0.5745(3) -0.4093(3) -0.4072(3)
C32H C -0.5366(4) -0.3999(4) -0.3856(4)
C33H C -0.5209(5) -0.4029(5) -0.3568(5)
H20H H -0.5298(5) -0.4136(5) -0.3401(5)
C34H C -0.4901(5) -0.3886(6) -0.3541(6)
H21H H -0.4796(5) -0.3900(6) -0.3351(6)
C35H C -0.4760(5) -0.3732(5) -0.3782(4)
H22H H -0.4563(5) -0.3643(5) -0.3759(4)
C36H C -0.4927(4) -0.3713(4) -0.4074(4)
C37H C -0.5220(3) -0.3849(3) -0.4113(4)
C38H C -0.5362(4) -0.3832(3) -0.4395(3)
H23H H -0.5560(4) -0.3918(3) -0.4419(3)
C39H C -0.5225(4) -0.3697(4) -0.4638(4)
H24H H -0.5328(4) -0.3691(4) -0.4830(4)
C40H C -0.4933(4) -0.3564(4) -0.4608(4)
H25H H -0.4835(4) -0.3481(4) -0.4784(4)
C41H C -0.4783(4) -0.3552(4) -0.4323(4)
N4H N -0.4499(3) -0.3427(3) -0.4281(3)
H4H H -0.4372(3) -0.3533(3) -0.4166(3)
C42H C -0.4389(4) -0.3161(4) -0.4393(4)
O10H O -0.4554(3) -0.3003(3) -0.4572(3)
C43H C -0.4095(3) -0.3068(3) -0.4302(3)
C44H C -0.3977(4) -0.2783(4) -0.4403(4)
H26H H -0.4096(4) -0.2659(4) -0.4537(4)
C45H C -0.3697(4) -0.2685(4) -0.4312(4)
H27H H -0.3624(4) -0.2492(4) -0.4381(4)
C46H C -0.3513(4) -0.2863(4) -0.4118(4)
H28H H -0.3317(4) -0.2790(4) -0.4058(4)
C47H C -0.3612(3) -0.3137(3) -0.4015(3)
O11H O -0.3454(2) -0.3317(2) -0.3818(3)
O11D O -0.3317(2) -0.3818(3) -0.3454(2)
C47D C -0.3137(3) -0.4015(3) -0.3612(3)
C46D C -0.2863(4) -0.4118(4) -0.3513(4)
C45D C -0.2685(4) -0.4312(4) -0.3697(4)
C44D C -0.2783(4) -0.4403(4) -0.3977(4)
C43D C -0.3068(3) -0.4302(3) -0.4095(3)
C42D C -0.3161(4) -0.4393(4) -0.4389(4)
O10D O -0.3003(3) -0.4572(3) -0.4554(3)
N4D N -0.3427(3) -0.4281(3) -0.4499(3)
H4D H -0.3533(3) -0.4166(3) -0.4372(3)
C41D C -0.3552(4) -0.4323(4) -0.4783(4)
C36D C -0.3713(4) -0.4074(4) -0.4927(4)
C35D C -0.3732(5) -0.3782(4) -0.4760(5)
C34D C -0.3886(6) -0.3541(6) -0.4901(5)
C33D C -0.4029(5) -0.3568(5) -0.5209(5)
C32D C -0.3999(4) -0.3856(4) -0.5366(4)
N3D N -0.4113(3) -0.3891(3) -0.5659(3)
H3D H -0.4093(3) -0.4072(3) -0.5745(3)
C31D C -0.4253(4) -0.3671(4) -0.5826(4)
O9D O -0.4348(3) -0.3424(2) -0.5724(3)
C30D C -0.4294(3) -0.3756(3) -0.6165(3)
C25D C -0.4227(3) -0.4042(3) -0.6276(3)
O7D O -0.4103(2) -0.4277(2) -0.6126(2)
O6D O -0.4474(2) -0.4803(2) -0.6217(2)
C24D C -0.4620(3) -0.4982(4) -0.6413(4)
O8D O -0.4218(2) -0.4380(2) -0.6705(2)
C26D C -0.4281(4) -0.4103(4) -0.6603(4)
C27D C -0.4383(4) -0.3865(4) -0.6781(4)
H17D H -0.4411(4) -0.3894(4) -0.6994(4)
C28D C -0.4450(4) -0.3569(4) -0.6646(4)
H18D H -0.4528(4) -0.3408(4) -0.6770(4)
C29D C -0.4401(3) -0.3521(4) -0.6341(3)
H19D H -0.4442(3) -0.3327(4) -0.6252(3)
C37D C -0.3849(3) -0.4113(4) -0.5220(3)
C38D C -0.3832(3) -0.4395(3) -0.5362(4)
H23D H -0.3918(3) -0.4419(3) -0.5560(4)
C39D C -0.3697(4) -0.4638(4) -0.5225(4)
H24D H -0.3691(4) -0.4830(4) -0.5328(4)
C40D C -0.3564(4) -0.4608(4) -0.4933(4)
H25D H -0.3481(4) -0.4784(4) -0.4835(4)
H20D H -0.4136(5) -0.3401(5) -0.5298(5)
H21D H -0.3900(6) -0.3351(6) -0.4796(5)
H22D H -0.3643(5) -0.3759(4) -0.4563(5)
C48D C -0.3243(4) -0.4108(4) -0.3907(4)
O12D O -0.3519(2) -0.3977(2) -0.3990(2)
O12H O -0.3990(2) -0.3519(2) -0.3977(2)
C48H C -0.3907(4) -0.3243(4) -0.4108(4)
H26D H -0.2659(4) -0.4537(4) -0.4096(4)
H27D H -0.2492(4) -0.4381(4) -0.3624(4)
H28D H -0.2790(4) -0.4058(4) -0.3317(4)
C13H C -0.5387(3) -0.4127(3) -0.5501(3)
C14H C -0.5526(3) -0.4306(3) -0.5266(4)
H11H H -0.5640(3) -0.4211(3) -0.5106(4)
C15H C -0.5493(4) -0.4614(4) -0.5276(4)
H12H H -0.5589(4) -0.4731(4) -0.5120(4)
C16H C -0.5322(4) -0.4775(4) -0.5505(4)
H13H H -0.5310(4) -0.4992(4) -0.5508(4)
H8H H -0.5331(4) -0.3430(4) -0.5752(4)
H9H H -0.5015(4) -0.3666(4) -0.6115(4)
H10H H -0.4921(3) -0.4192(4) -0.6080(4)
H14H H -0.5270(4) -0.5291(4) -0.6600(4)
H15H H -0.4997(4) -0.5463(4) -0.7003(4)
H16H H -0.4463(4) -0.5325(4) -0.7065(4)
C13D C -0.4127(3) -0.5501(3) -0.5387(3)
C14D C -0.4306(3) -0.5266(4) -0.5526(3)
H11D H -0.4211(3) -0.5106(4) -0.5640(3)
C15D C -0.4614(4) -0.5276(4) -0.5493(4)
H12D H -0.4731(4) -0.5120(4) -0.5589(4)
C16D C -0.4775(4) -0.5505(4) -0.5322(4)
H13D H -0.4992(4) -0.5508(4) -0.5310(4)
H8D H -0.3430(4) -0.5752(4) -0.5331(4)
H9D H -0.3666(4) -0.6115(4) -0.5015(4)
H10D H -0.4192(4) -0.6080(4) -0.4921(3)
H14D H -0.5291(4) -0.6600(4) -0.5270(4)
H15D H -0.5463(4) -0.7003(4) -0.4997(4)
H16D H -0.5325(4) -0.7065(4) -0.4463(4)
K1 K -0.5022(2) -0.4707(2) -0.27782(14)
K2 K -0.7169(3) -0.3749(3) -0.4526(3)
K3 K -0.3342(3) -0.3616(3) -0.2897(3)
O13 O -0.5318(3) -0.4806(3) -0.3219(3)
O14 O -0.4882(3) -0.4747(3) -0.2245(3)
C49 C -0.4558(4) -0.4666(4) -0.2190(4)
O15 O -0.5554(14) -0.5000 -0.2500
O16 O -0.7500 -0.4110(8) -0.5000
O17 O -0.3553(8) -0.4076(7) -0.2626(9)
O18 O -0.5912(15) -0.4874(15) -0.2227(15)
N5 N -0.6344(3) -0.3281(3) -0.3708(3)
C50 C -0.6161(5) -0.3428(5) -0.3966(4)
H29 H -0.6082(5) -0.3628(5) -0.3894(4)
H30 H -0.6300(5) -0.3467(5) -0.4140(4)
C51 C -0.6597(6) -0.3514(5) -0.3635(6)
H31 H -0.6497(6) -0.3715(5) -0.3609(6)
H32 H -0.6684(6) -0.3457(5) -0.3434(6)
C52 C -0.6489(4) -0.2986(5) -0.3814(5)
H33 H -0.6606(4) -0.3029(5) -0.4003(5)
H34 H -0.6323(4) -0.2843(5) -0.3869(5)
C53 C -0.6132(6) -0.3209(6) -0.3443(5)
H35 H -0.6251(6) -0.3108(6) -0.3278(5)
H36 H -0.5973(6) -0.3063(6) -0.3513(5)
C54 C -0.5897(5) -0.3241(5) -0.4077(5)
H37 H -0.5792(5) -0.3351(5) -0.4242(5)
H38 H -0.5754(5) -0.3206(5) -0.3908(5)
H39 H -0.5972(5) -0.3044(5) -0.4154(5)
C55 C -0.6854(4) -0.3557(5) -0.3846(4)
H40 H -0.6994(4) -0.3711(5) -0.3762(4)
H41 H -0.6777(4) -0.3626(5) -0.4045(4)
H42 H -0.6964(4) -0.3363(5) -0.3871(4)
C56 C -0.6702(5) -0.2824(5) -0.3590(5)
H43 H -0.6778(5) -0.2636(5) -0.3683(5)
H44 H -0.6589(5) -0.2775(5) -0.3402(5)
H45 H -0.6874(5) -0.2959(5) -0.3540(5)
C57 C -0.5972(5) -0.3505(5) -0.3310(6)
H46 H -0.5839(5) -0.3447(5) -0.3139(6)
H47 H -0.5850(5) -0.3602(5) -0.3471(6)
H48 H -0.6128(5) -0.3648(5) -0.3238(6)
loop_
_geom_bond_atom_site_label_1
_geom_bond_atom_site_label_2
_geom_bond_site_symmetry_1
_geom_bond_site_symmetry_2
Fe1 O1 1_555 1_555
Fe2 O11 1_555 1_555
O1 C1 1_555 1_555
O2 Fe1 1_555 1_555
O3 C7 1_555 1_555
O4 C18 1_555 1_555
O5 Fe1 1_555 1_555
O6 Fe1 1_555 1_555
O7 Fe1 1_555 1_555
O8 Fe1 1_555 1_555
O9 C31 1_555 1_555
O10 C42 1_555 1_555
O11 C47 1_555 1_555
O12 Fe2 1_555 1_555
N1 H1 1_555 1_555
N2 H2 1_555 1_555
N3 H3 1_555 1_555
N4 H4 1_555 1_555
C1 C2 1_555 1_555
C2 O2 1_555 1_555
C3 C2 1_555 1_555
H5 C3 1_555 1_555
C4 C3 1_555 1_555
H6 C4 1_555 1_555
C5 C4 1_555 1_555
H7 C5 1_555 1_555
C6 C1 1_555 1_555
C7 N1 1_555 1_555
C8 N1 1_555 1_555
C9 C8 1_555 1_555
H8 C9 1_555 1_555
C10 C9 1_555 1_555
H9 C10 1_555 1_555
C11 C10 1_555 1_555
H10 C11 1_555 1_555
C12 C11 1_555 1_555
C13 C8 1_555 1_555
C14 C13 1_555 1_555
H11 C14 1_555 1_555
C15 C14 1_555 1_555
H12 C15 1_555 1_555
C16 C15 1_555 1_555
H13 C16 1_555 1_555
C17 N2 1_555 1_555
C18 N2 1_555 1_555
C19 C18 1_555 1_555
C20 C19 1_555 1_555
H14 C20 1_555 1_555
C21 C20 1_555 1_555
H15 C21 1_555 1_555
C22 C21 1_555 1_555
H16 C22 1_555 1_555
C23 O5 1_555 1_555
C24 O6 1_555 1_555
C25 O7 1_555 1_555
C26 O8 1_555 1_555
C27 C26 1_555 1_555
H17 C27 1_555 1_555
C28 C27 1_555 1_555
H18 C28 1_555 1_555
C29 C28 1_555 1_555
H19 C29 1_555 1_555
C30 C25 1_555 1_555
C31 N3 1_555 1_555
C32 N3 1_555 1_555
C33 C32 1_555 1_555
H20 C33 1_555 1_555
C34 C33 1_555 1_555
H21 C34 1_555 1_555
C35 C34 1_555 1_555
H22 C35 1_555 1_555
C36 C35 1_555 1_555
C37 C32 1_555 1_555
C38 C37 1_555 1_555
H23 C38 1_555 1_555
C39 C38 1_555 1_555
H24 C39 1_555 1_555
C40 C39 1_555 1_555
H25 C40 1_555 1_555
C41 N4 1_555 1_555
C42 N4 1_555 1_555
C43 C42 1_555 1_555
C44 C43 1_555 1_555
H26 C44 1_555 1_555
C45 C44 1_555 1_555
H27 C45 1_555 1_555
C46 C45 1_555 1_555
H28 C46 1_555 1_555
C47 C46 1_555 1_555
C48 O12 1_555 1_555
O14 C49 1_555 1_555
N5 C50 1_555 1_555
C50 H29 1_555 1_555
H30 C50 1_555 1_555
C51 N5 1_555 1_555
H31 C51 1_555 1_555
H32 C51 1_555 1_555
C52 N5 1_555 1_555
H33 C52 1_555 1_555
H34 C52 1_555 1_555
C53 N5 1_555 1_555
H35 C53 1_555 1_555
H36 C53 1_555 1_555
C54 C50 1_555 1_555
H37 C54 1_555 1_555
H38 C54 1_555 1_555
H39 C54 1_555 1_555
C55 C51 1_555 1_555
H40 C55 1_555 1_555
H41 C55 1_555 1_555
H42 C55 1_555 1_555
C56 C52 1_555 1_555
H43 C56 1_555 1_555
H44 C56 1_555 1_555
H45 C56 1_555 1_555
C57 C53 1_555 1_555
H46 C57 1_555 1_555
H47 C57 1_555 1_555
H48 C57 1_555 1_555
C22D C23 1_555 1_555
C21D C22D 1_555 1_555
C20D C21D 1_555 1_555
C19D C24 1_555 1_555
C18D C19D 1_555 1_555
O4D C18D 1_555 1_555
N2D C18D 1_555 1_555
H2D N2D 1_555 1_555
C17D N2D 1_555 1_555
C12D C17D 1_555 1_555
C11D C12D 1_555 1_555
C10D C11D 1_555 1_555
C9D C10D 1_555 1_555
C8D C9D 1_555 1_555
N1D C8D 1_555 1_555
H1D N1D 1_555 1_555
C7D N1D 1_555 1_555
O3D C7D 1_555 1_555
C6D C7D 1_555 1_555
C1D C6D 1_555 1_555
O1D C1D 1_555 1_555
Fe1D O1D 1_555 1_555
O2D Fe1D 1_555 1_555
C2D C1D 1_555 1_555
C3D C2D 1_555 1_555
H5D C3D 1_555 1_555
C4D C3D 1_555 1_555
H6D C4D 1_555 1_555
C5D C6D 1_555 1_555
H7D C5D 1_555 1_555
O5D Fe1D 1_555 1_555
C23D O5D 1_555 1_555
C22H C23D 1_555 1_555
C21H C22H 1_555 1_555
C20H C21H 1_555 1_555
C19H C20H 1_555 1_555
C18H C19H 1_555 1_555
O4H C18H 1_555 1_555
N2H C18H 1_555 1_555
H2H N2H 1_555 1_555
C17H N2H 1_555 1_555
C12H C17H 1_555 1_555
C11H C12H 1_555 1_555
C10H C11H 1_555 1_555
C9H C10H 1_555 1_555
C8H C9H 1_555 1_555
N1H C8H 1_555 1_555
H1H N1H 1_555 1_555
C7H N1H 1_555 1_555
O3H C7H 1_555 1_555
C6H C7H 1_555 1_555
C1H C6H 1_555 1_555
O1H C1H 1_555 1_555
Fe1H O1H 1_555 1_555
O2H Fe1H 1_555 1_555
C2H C1H 1_555 1_555
C3H C2H 1_555 1_555
H5H C3H 1_555 1_555
C4H C3H 1_555 1_555
H6H C4H 1_555 1_555
C5H C6H 1_555 1_555
H7H C5H 1_555 1_555
O5H Fe1H 1_555 1_555
C23H C22 1_555 1_555
C24H C19 1_555 1_555
O6H Fe1H 1_555 1_555
O7H Fe1H 1_555 1_555
C25H O7H 1_555 1_555
C26H C25H 1_555 1_555
O8H Fe1H 1_555 1_555
C27H C26H 1_555 1_555
H17H C27H 1_555 1_555
C28H C27H 1_555 1_555
H18H C28H 1_555 1_555
C29H C28H 1_555 1_555
H19H C29H 1_555 1_555
C30H C25H 1_555 1_555
C31H C30H 1_555 1_555
O9H C31H 1_555 1_555
N3H C31H 1_555 1_555
H3H N3H 1_555 1_555
C32H N3H 1_555 1_555
C33H C32H 1_555 1_555
H20H C33H 1_555 1_555
C34H C33H 1_555 1_555
H21H C34H 1_555 1_555
C35H C34H 1_555 1_555
H22H C35H 1_555 1_555
C36H C35H 1_555 1_555
C37H C32H 1_555 1_555
C38H C37H 1_555 1_555
H23H C38H 1_555 1_555
C39H C38H 1_555 1_555
H24H C39H 1_555 1_555
C40H C39H 1_555 1_555
H25H C40H 1_555 1_555
C41H C36H 1_555 1_555
N4H C41H 1_555 1_555
H4H N4H 1_555 1_555
C42H N4H 1_555 1_555
O10H C42H 1_555 1_555
C43H C42H 1_555 1_555
C44H C43H 1_555 1_555
H26H C44H 1_555 1_555
C45H C44H 1_555 1_555
H27H C45H 1_555 1_555
C46H C45H 1_555 1_555
H28H C46H 1_555 1_555
C47H C46H 1_555 1_555
O11H Fe2 1_555 1_555
O11D Fe2 1_555 1_555
C47D O11D 1_555 1_555
C46D C47D 1_555 1_555
C45D C46D 1_555 1_555
C44D C45D 1_555 1_555
C43D C44D 1_555 1_555
C42D C43D 1_555 1_555
O10D C42D 1_555 1_555
N4D C42D 1_555 1_555
H4D N4D 1_555 1_555
C41D N4D 1_555 1_555
C36D C41D 1_555 1_555
C35D C36D 1_555 1_555
C34D C35D 1_555 1_555
C33D C34D 1_555 1_555
C32D C33D 1_555 1_555
N3D C32D 1_555 1_555
H3D N3D 1_555 1_555
C31D N3D 1_555 1_555
O9D C31D 1_555 1_555
C30D C31D 1_555 1_555
C25D C30D 1_555 1_555
O7D Fe1D 1_555 1_555
O6D Fe1D 1_555 1_555
C24D C23D 1_555 1_555
O8D Fe1D 1_555 1_555
C26D C25D 1_555 1_555
C27D C26D 1_555 1_555
H17D C27D 1_555 1_555
C28D C27D 1_555 1_555
H18D C28D 1_555 1_555
C29D C30D 1_555 1_555
H19D C29D 1_555 1_555
C37D C36D 1_555 1_555
C38D C37D 1_555 1_555
H23D C38D 1_555 1_555
C39D C38D 1_555 1_555
H24D C39D 1_555 1_555
C40D C41D 1_555 1_555
H25D C40D 1_555 1_555
H20D C33D 1_555 1_555
H21D C34D 1_555 1_555
H22D C35D 1_555 1_555
C48D C47D 1_555 1_555
O12D Fe2 1_555 1_555
O12H Fe2 1_555 1_555
C48H C43H 1_555 1_555
H26D C44D 1_555 1_555
H27D C45D 1_555 1_555
H28D C46D 1_555 1_555
C13H C12H 1_555 1_555
C14H C13H 1_555 1_555
H11H C14H 1_555 1_555
C15H C14H 1_555 1_555
H12H C15H 1_555 1_555
C16H C17H 1_555 1_555
H13H C16H 1_555 1_555
H8H C9H 1_555 1_555
H9H C10H 1_555 1_555
H10H C11H 1_555 1_555
H14H C20H 1_555 1_555
H15H C21H 1_555 1_555
H16H C22H 1_555 1_555
C13D C12D 1_555 1_555
C14D C13D 1_555 1_555
H11D C14D 1_555 1_555
C15D C14D 1_555 1_555
H12D C15D 1_555 1_555
C16D C17D 1_555 1_555
H13D C16D 1_555 1_555
H8D C9D 1_555 1_555
H9D C10D 1_555 1_555
H10D C11D 1_555 1_555
H14D C20D 1_555 1_555
H15D C21D 1_555 1_555
H16D C22D 1_555 1_555
C5 C6 1_555 1_555
C6 C7 1_555 1_555
C12 C13 1_555 1_555
C12 C17 1_555 1_555
C16 C17 1_555 1_555
C23 C24 1_555 1_555
C25 C26 1_555 1_555
C29 C30 1_555 1_555
C30 C31 1_555 1_555
C36 C37 1_555 1_555
C36 C41 1_555 1_555
C40 C41 1_555 1_555
C43 C48 1_555 1_555
C47 C48 1_555 1_555
C20D C19D 1_555 1_555
C8D C13D 1_555 1_555
O2D C2D 1_555 1_555
C4D C5D 1_555 1_555
C19H C24D 1_555 1_555
C8H C13H 1_555 1_555
O2H C2H 1_555 1_555
C4H C5H 1_555 1_555
O5H C23H 1_555 1_555
C23H C24H 1_555 1_555
C24H O6H 1_555 1_555
C26H O8H 1_555 1_555
C29H C30H 1_555 1_555
C36H C37H 1_555 1_555
C40H C41H 1_555 1_555
C47H O11H 1_555 1_555
C47H C48H 1_555 1_555
C43D C48D 1_555 1_555
C32D C37D 1_555 1_555
C25D O7D 1_555 1_555
O6D C24D 1_555 1_555
O8D C26D 1_555 1_555
C28D C29D 1_555 1_555
C39D C40D 1_555 1_555
C48D O12D 1_555 1_555
O12H C48H 1_555 1_555
C15H C16H 1_555 1_555
C15D C16D 1_555 1_555

#END
