# generated using pymatgen
data_Ti4H57C173(NO2)18
_symmetry_space_group_name_H-M   'P 1'
_cell_length_a   22.61430000
_cell_length_b   22.61430000
_cell_length_c   37.68034728
_cell_angle_alpha   72.53754179
_cell_angle_beta   72.53754179
_cell_angle_gamma   60.00000000
_symmetry_Int_Tables_number   1
_chemical_formula_structural   Ti4H57C173(NO2)18
_chemical_formula_sum   'Ti16 H228 C692 N72 O144'
_cell_volume   15654.42799034
_cell_formula_units_Z   4
loop_
 _symmetry_equiv_pos_site_id
 _symmetry_equiv_pos_as_xyz
  1  'x, y, z'
loop_
 _atom_site_type_symbol
 _atom_site_label
 _atom_site_symmetry_multiplicity
 _atom_site_fract_x
 _atom_site_fract_y
 _atom_site_fract_z
 _atom_site_occupancy
  C  C1  1  0.671700  0.903700  0.156900  1
  C  C2  1  0.267700  0.671700  0.156900  1
  C  C3  1  0.903700  0.267700  0.156900  1
  C  C4  1  0.767700  0.403700  0.656900  1
  C  C5  1  0.171700  0.767700  0.656900  1
  C  C6  1  0.403700  0.171700  0.656900  1
  C  C7  1  0.732300  0.328300  0.843100  1
  C  C8  1  0.096300  0.732300  0.843100  1
  C  C9  1  0.232300  0.596300  0.343100  1
  C  C10  1  0.328300  0.096300  0.843100  1
  C  C11  1  0.828300  0.232300  0.343100  1
  C  C12  1  0.596300  0.828300  0.343100  1
  C  C13  1  0.650400  0.969400  0.154800  1
  C  C14  1  0.225400  0.650400  0.154800  1
  C  C15  1  0.969400  0.225400  0.154800  1
  C  C16  1  0.725400  0.469400  0.654800  1
  C  C17  1  0.150400  0.725400  0.654800  1
  C  C18  1  0.469400  0.150400  0.654800  1
  C  C19  1  0.774600  0.349600  0.845200  1
  C  C20  1  0.030600  0.774600  0.845200  1
  C  C21  1  0.274600  0.530600  0.345200  1
  C  C22  1  0.349600  0.030600  0.845200  1
  C  C23  1  0.849600  0.274600  0.345200  1
  C  C24  1  0.530600  0.849600  0.345200  1
  C  C25  1  0.788400  0.890400  0.151800  1
  C  C26  1  0.169400  0.788400  0.151800  1
  C  C27  1  0.890400  0.169400  0.151800  1
  C  C28  1  0.669400  0.390400  0.651800  1
  C  C29  1  0.288400  0.669400  0.651800  1
  C  C30  1  0.390400  0.288400  0.651800  1
  C  C31  1  0.830600  0.211600  0.848200  1
  C  C32  1  0.109600  0.830600  0.848200  1
  C  C33  1  0.330600  0.609600  0.348200  1
  C  C34  1  0.211600  0.109600  0.848200  1
  C  C35  1  0.711600  0.330600  0.348200  1
  C  C36  1  0.609600  0.711600  0.348200  1
  C  C37  1  0.816500  0.872500  0.118500  1
  C  C38  1  0.192500  0.816500  0.118500  1
  C  C39  1  0.872500  0.192500  0.118500  1
  C  C40  1  0.692500  0.372500  0.618500  1
  C  C41  1  0.316500  0.692500  0.618500  1
  C  C42  1  0.372500  0.316500  0.618500  1
  C  C43  1  0.807500  0.183500  0.881500  1
  C  C44  1  0.127500  0.807500  0.881500  1
  C  C45  1  0.307500  0.627500  0.381500  1
  C  C46  1  0.183500  0.127500  0.881500  1
  C  C47  1  0.683500  0.307500  0.381500  1
  C  C48  1  0.627500  0.683500  0.381500  1
  C  C49  1  0.089500  0.407500  0.508500  1
  C  C50  1  0.994500  0.089500  0.508500  1
  C  C51  1  0.407500  0.994500  0.508500  1
  C  C52  1  0.494500  0.907500  0.008500  1
  C  C53  1  0.589500  0.494500  0.008500  1
  C  C54  1  0.907500  0.589500  0.008500  1
  C  C55  1  0.005500  0.910500  0.491500  1
  C  C56  1  0.592500  0.005500  0.491500  1
  C  C57  1  0.505500  0.092500  0.991500  1
  C  C58  1  0.910500  0.592500  0.491500  1
  C  C59  1  0.410500  0.505500  0.991500  1
  C  C60  1  0.092500  0.410500  0.991500  1
  C  C61  1  0.098200  0.304200  0.482400  1
  C  C62  1  0.115200  0.098200  0.482400  1
  C  C63  1  0.304200  0.115200  0.482400  1
  C  C64  1  0.615200  0.804200  0.982400  1
  C  C65  1  0.598200  0.615200  0.982400  1
  C  C66  1  0.804200  0.598200  0.982400  1
  C  C67  1  0.884800  0.901800  0.517600  1
  C  C68  1  0.695800  0.884800  0.517600  1
  C  C69  1  0.384800  0.195800  0.017600  1
  C  C70  1  0.901800  0.695800  0.517600  1
  C  C71  1  0.401800  0.384800  0.017600  1
  C  C72  1  0.195800  0.401800  0.017600  1
  C  C73  1  0.807400  0.676400  0.268800  1
  C  C74  1  0.247400  0.807400  0.268800  1
  C  C75  1  0.676400  0.247400  0.268800  1
  C  C76  1  0.747400  0.176400  0.768800  1
  C  C77  1  0.307400  0.747400  0.768800  1
  C  C78  1  0.176400  0.307400  0.768800  1
  C  C79  1  0.752600  0.192600  0.731200  1
  C  C80  1  0.323600  0.752600  0.731200  1
  C  C81  1  0.252600  0.823600  0.231200  1
  C  C82  1  0.192600  0.323600  0.731200  1
  C  C83  1  0.692600  0.252600  0.231200  1
  C  C84  1  0.823600  0.692600  0.231200  1
  C  C85  1  0.888700  0.611367  0.249900  1
  C  C86  1  0.250011  0.888678  0.249967  1
  C  C87  1  0.611344  0.250011  0.249967  1
  C  C88  1  0.749989  0.111322  0.750033  1
  C  C89  1  0.388700  0.750033  0.749900  1
  C  C90  1  0.111367  0.388700  0.749900  1
  C  C91  1  0.957000  0.530000  0.270000  1
  C  C92  1  0.243000  0.957000  0.270000  1
  C  C93  1  0.530000  0.243000  0.270000  1
  C  C94  1  0.743000  0.030000  0.770000  1
  C  C95  1  0.457000  0.743000  0.770000  1
  C  C96  1  0.030000  0.457000  0.770000  1
  C  C97  1  0.757000  0.043000  0.730000  1
  C  C98  1  0.470000  0.757000  0.730000  1
  C  C99  1  0.257000  0.970000  0.230000  1
  C  C100  1  0.043000  0.470000  0.730000  1
  C  C101  1  0.543000  0.257000  0.230000  1
  C  C102  1  0.970000  0.543000  0.230000  1
  C  C103  1  0.937000  0.564000  0.291000  1
  C  C104  1  0.208000  0.937000  0.291000  1
  C  C105  1  0.564000  0.208000  0.291000  1
  C  C106  1  0.708000  0.064000  0.791000  1
  C  C107  1  0.437000  0.708000  0.791000  1
  C  C108  1  0.064000  0.437000  0.791000  1
  C  C109  1  0.792000  0.063000  0.709000  1
  C  C110  1  0.436000  0.792000  0.709000  1
  C  C111  1  0.292000  0.936000  0.209000  1
  C  C112  1  0.063000  0.436000  0.709000  1
  C  C113  1  0.563000  0.292000  0.209000  1
  C  C114  1  0.936000  0.563000  0.209000  1
  C  C115  1  0.272200  0.366200  0.362400  1
  C  C116  1  0.999200  0.272200  0.362400  1
  C  C117  1  0.366200  0.999200  0.362400  1
  C  C118  1  0.499200  0.866200  0.862400  1
  C  C119  1  0.772200  0.499200  0.862400  1
  C  C120  1  0.866200  0.772200  0.862400  1
  C  C121  1  0.000800  0.727800  0.637600  1
  C  C122  1  0.633800  0.000800  0.637600  1
  C  C123  1  0.500800  0.133800  0.137600  1
  C  C124  1  0.727800  0.633800  0.637600  1
  C  C125  1  0.227800  0.500800  0.137600  1
  C  C126  1  0.133800  0.227800  0.137600  1
  C  C127  1  0.295200  0.279200  0.386400  1
  C  C128  1  0.039200  0.295200  0.386400  1
  C  C129  1  0.279200  0.039200  0.386400  1
  C  C130  1  0.539200  0.779200  0.886400  1
  C  C131  1  0.795200  0.539200  0.886400  1
  C  C132  1  0.779200  0.795200  0.886400  1
  C  C133  1  0.960800  0.704800  0.613600  1
  C  C134  1  0.720800  0.960800  0.613600  1
  C  C135  1  0.460800  0.220800  0.113600  1
  C  C136  1  0.704800  0.720800  0.613600  1
  C  C137  1  0.204800  0.460800  0.113600  1
  C  C138  1  0.220800  0.204800  0.113600  1
  C  C139  1  0.366800  0.254800  0.366600  1
  C  C140  1  0.011800  0.366800  0.366600  1
  C  C141  1  0.254800  0.011800  0.366600  1
  C  C142  1  0.511800  0.754800  0.866600  1
  C  C143  1  0.866800  0.511800  0.866600  1
  C  C144  1  0.754800  0.866800  0.866600  1
  C  C145  1  0.988200  0.633200  0.633400  1
  C  C146  1  0.745200  0.988200  0.633400  1
  C  C147  1  0.488200  0.245200  0.133400  1
  C  C148  1  0.633200  0.745200  0.633400  1
  C  C149  1  0.133200  0.488200  0.133400  1
  C  C150  1  0.245200  0.133200  0.133400  1
  C  C151  1  0.074200  0.987200  0.993400  1
  C  C152  1  0.945200  0.074200  0.993400  1
  C  C153  1  0.987200  0.945200  0.993400  1
  C  C154  1  0.445200  0.487200  0.493400  1
  C  C155  1  0.574200  0.445200  0.493400  1
  C  C156  1  0.487200  0.574200  0.493400  1
  C  C157  1  0.054800  0.925800  0.006600  1
  C  C158  1  0.012800  0.054800  0.006600  1
  C  C159  1  0.554800  0.512800  0.506600  1
  C  C160  1  0.925800  0.012800  0.006600  1
  C  C161  1  0.425800  0.554800  0.506600  1
  C  C162  1  0.512800  0.425800  0.506600  1
  C  C163  1  0.138500  0.921500  0.019500  1
  C  C164  1  0.920500  0.138500  0.019500  1
  C  C165  1  0.921500  0.920500  0.019500  1
  C  C166  1  0.420500  0.421500  0.519500  1
  C  C167  1  0.638500  0.420500  0.519500  1
  C  C168  1  0.421500  0.638500  0.519500  1
  C  C169  1  0.079500  0.861500  0.980500  1
  C  C170  1  0.078500  0.079500  0.980500  1
  C  C171  1  0.579500  0.578500  0.480500  1
  C  C172  1  0.861500  0.078500  0.980500  1
  C  C173  1  0.361500  0.579500  0.480500  1
  C  C174  1  0.578500  0.361500  0.480500  1
  C  C175  1  0.164000  0.947000  0.021000  1
  C  C176  1  0.868000  0.164000  0.021000  1
  C  C177  1  0.947000  0.868000  0.021000  1
  C  C178  1  0.368000  0.447000  0.521000  1
  C  C179  1  0.664000  0.368000  0.521000  1
  C  C180  1  0.447000  0.664000  0.521000  1
  C  C181  1  0.132000  0.836000  0.979000  1
  C  C182  1  0.053000  0.132000  0.979000  1
  C  C183  1  0.632000  0.553000  0.479000  1
  C  C184  1  0.836000  0.053000  0.979000  1
  C  C185  1  0.336000  0.632000  0.479000  1
  C  C186  1  0.553000  0.336000  0.479000  1
  C  C187  1  0.207000  0.324000  0.474000  1
  C  C188  1  0.995000  0.207000  0.474000  1
  C  C189  1  0.324000  0.995000  0.474000  1
  C  C190  1  0.495000  0.824000  0.974000  1
  C  C191  1  0.707000  0.495000  0.974000  1
  C  C192  1  0.824000  0.707000  0.974000  1
  C  C193  1  0.005000  0.793000  0.526000  1
  C  C194  1  0.676000  0.005000  0.526000  1
  C  C195  1  0.505000  0.176000  0.026000  1
  C  C196  1  0.793000  0.676000  0.526000  1
  C  C197  1  0.293000  0.505000  0.026000  1
  C  C198  1  0.176000  0.293000  0.026000  1
  C  C199  1  0.264000  0.320000  0.465000  1
  C  C200  1  0.951000  0.264000  0.465000  1
  C  C201  1  0.320000  0.951000  0.465000  1
  C  C202  1  0.451000  0.820000  0.965000  1
  C  C203  1  0.764000  0.451000  0.965000  1
  C  C204  1  0.820000  0.764000  0.965000  1
  C  C205  1  0.049000  0.736000  0.535000  1
  C  C206  1  0.680000  0.049000  0.535000  1
  C  C207  1  0.549000  0.180000  0.035000  1
  C  C208  1  0.736000  0.680000  0.535000  1
  C  C209  1  0.236000  0.549000  0.035000  1
  C  C210  1  0.180000  0.236000  0.035000  1
  C  C211  1  0.006800  0.544800  0.189600  1
  C  C212  1  0.258800  0.006800  0.189600  1
  C  C213  1  0.544800  0.258800  0.189600  1
  C  C214  1  0.758800  0.044800  0.689600  1
  C  C215  1  0.506800  0.758800  0.689600  1
  C  C216  1  0.044800  0.506800  0.689600  1
  C  C217  1  0.741200  0.993200  0.810400  1
  C  C218  1  0.455200  0.741200  0.810400  1
  C  C219  1  0.241200  0.955200  0.310400  1
  C  C220  1  0.993200  0.455200  0.810400  1
  C  C221  1  0.493200  0.241200  0.310400  1
  C  C222  1  0.955200  0.493200  0.310400  1
  C  C223  1  0.930000  0.545000  0.222000  1
  C  C224  1  0.303000  0.930000  0.222000  1
  C  C225  1  0.545000  0.303000  0.222000  1
  C  C226  1  0.803000  0.045000  0.722000  1
  C  C227  1  0.430000  0.803000  0.722000  1
  C  C228  1  0.045000  0.430000  0.722000  1
  C  C229  1  0.697000  0.070000  0.778000  1
  C  C230  1  0.455000  0.697000  0.778000  1
  C  C231  1  0.197000  0.955000  0.278000  1
  C  C232  1  0.070000  0.455000  0.778000  1
  C  C233  1  0.570000  0.197000  0.278000  1
  C  C234  1  0.955000  0.570000  0.278000  1
  C  C235  1  0.332200  0.146200  0.386400  1
  C  C236  1  0.135200  0.332200  0.386400  1
  C  C237  1  0.146200  0.135200  0.386400  1
  C  C238  1  0.635200  0.646200  0.886400  1
  C  C239  1  0.832200  0.635200  0.886400  1
  C  C240  1  0.646200  0.832200  0.886400  1
  C  C241  1  0.864800  0.667800  0.613600  1
  C  C242  1  0.853800  0.864800  0.613600  1
  C  C243  1  0.364800  0.353800  0.113600  1
  C  C244  1  0.667800  0.853800  0.613600  1
  C  C245  1  0.167800  0.364800  0.113600  1
  C  C246  1  0.353800  0.167800  0.113600  1
  C  C247  1  0.735100  0.801100  0.221700  1
  C  C248  1  0.242100  0.735100  0.221700  1
  C  C249  1  0.801100  0.242100  0.221700  1
  C  C250  1  0.742100  0.301100  0.721700  1
  C  C251  1  0.235100  0.742100  0.721700  1
  C  C252  1  0.301100  0.235100  0.721700  1
  C  C253  1  0.757900  0.264900  0.778300  1
  C  C254  1  0.198900  0.757900  0.778300  1
  C  C255  1  0.257900  0.698900  0.278300  1
  C  C256  1  0.264900  0.198900  0.778300  1
  C  C257  1  0.764900  0.257900  0.278300  1
  C  C258  1  0.698900  0.764900  0.278300  1
  C  C259  1  0.750000  0.750000  0.750000  1
  C  C260  1  0.250000  0.250000  0.250000  1
  C  C261  1  0.866800  0.792800  0.417600  1.0
  C  C262  1  0.922800  0.866800  0.417600  1.0
  C  C263  1  0.792800  0.922800  0.417600  1.0
  C  C264  1  0.422800  0.292800  0.917600  1.0
  C  C265  1  0.366800  0.422800  0.917600  1.0
  C  C266  1  0.292800  0.366800  0.917600  1.0
  C  C267  1  0.077200  0.133200  0.582400  1.0
  C  C268  1  0.207200  0.077200  0.582400  1.0
  C  C269  1  0.577200  0.707200  0.082400  1.0
  C  C270  1  0.133200  0.207200  0.582400  1.0
  C  C271  1  0.633200  0.577200  0.082400  1.0
  C  C272  1  0.707200  0.633200  0.082400  1.0
  C  C273  1  0.921900  0.805900  0.417300  1.0
  C  C274  1  0.854900  0.921900  0.417300  1.0
  C  C275  1  0.805900  0.854900  0.417300  1.0
  C  C276  1  0.354900  0.305900  0.917300  1.0
  C  C277  1  0.421900  0.354900  0.917300  1.0
  C  C278  1  0.305900  0.421900  0.917300  1.0
  C  C279  1  0.145100  0.078100  0.582700  1.0
  C  C280  1  0.194100  0.145100  0.582700  1.0
  C  C281  1  0.645100  0.694100  0.082700  1.0
  C  C282  1  0.078100  0.194100  0.582700  1.0
  C  C283  1  0.578100  0.645100  0.082700  1.0
  C  C284  1  0.694100  0.578100  0.082700  1.0
  C  C285  1  0.036900  0.723900  0.435300  1.0
  C  C286  1  0.803900  0.036900  0.435300  1.0
  C  C287  1  0.723900  0.803900  0.435300  1.0
  C  C288  1  0.303900  0.223900  0.935300  1.0
  C  C289  1  0.536900  0.303900  0.935300  1.0
  C  C290  1  0.223900  0.536900  0.935300  1.0
  C  C291  1  0.196100  0.963100  0.564700  1.0
  C  C292  1  0.276100  0.196100  0.564700  1.0
  C  C293  1  0.696100  0.776100  0.064700  1.0
  C  C294  1  0.963100  0.276100  0.564700  1.0
  C  C295  1  0.463100  0.696100  0.064700  1.0
  C  C296  1  0.776100  0.463100  0.064700  1.0
  C  C297  1  0.095700  0.646700  0.438900  1.0
  C  C298  1  0.818700  0.095700  0.438900  1.0
  C  C299  1  0.646700  0.818700  0.438900  1.0
  C  C300  1  0.318700  0.146700  0.938900  1.0
  C  C301  1  0.595700  0.318700  0.938900  1.0
  C  C302  1  0.146700  0.595700  0.938900  1.0
  C  C303  1  0.181300  0.904300  0.561100  1.0
  C  C304  1  0.353300  0.181300  0.561100  1.0
  C  C305  1  0.681300  0.853300  0.061100  1.0
  C  C306  1  0.904300  0.353300  0.561100  1.0
  C  C307  1  0.404300  0.681300  0.061100  1.0
  C  C308  1  0.853300  0.404300  0.061100  1.0
  C  C309  1  0.152500  0.628500  0.454500  1.0
  C  C310  1  0.764500  0.152500  0.454500  1.0
  C  C311  1  0.628500  0.764500  0.454500  1.0
  C  C312  1  0.264500  0.128500  0.954500  1.0
  C  C313  1  0.652500  0.264500  0.954500  1.0
  C  C314  1  0.128500  0.652500  0.954500  1.0
  C  C315  1  0.235500  0.847500  0.545500  1.0
  C  C316  1  0.371500  0.235500  0.545500  1.0
  C  C317  1  0.735500  0.871500  0.045500  1.0
  C  C318  1  0.847500  0.371500  0.545500  1.0
  C  C319  1  0.347500  0.735500  0.045500  1.0
  C  C320  1  0.871500  0.347500  0.045500  1.0
  C  C321  1  0.205700  0.560900  0.456600  1.0
  C  C322  1  0.776800  0.205700  0.456600  1.0
  C  C323  1  0.560900  0.776800  0.456600  1.0
  C  C324  1  0.276800  0.060900  0.956600  1.0
  C  C325  1  0.705700  0.276800  0.956600  1.0
  C  C326  1  0.060900  0.705700  0.956600  1.0
  C  C327  1  0.223200  0.794300  0.543400  1.0
  C  C328  1  0.439100  0.223200  0.543400  1.0
  C  C329  1  0.723200  0.939100  0.043400  1.0
  C  C330  1  0.794300  0.439100  0.543400  1.0
  C  C331  1  0.294300  0.723200  0.043400  1.0
  C  C332  1  0.939100  0.294300  0.043400  1.0
  C  C333  1  0.202300  0.512300  0.443100  1.0
  C  C334  1  0.842300  0.202300  0.443100  1.0
  C  C335  1  0.512300  0.842300  0.443100  1.0
  C  C336  1  0.342300  0.012300  0.943100  1.0
  C  C337  1  0.702300  0.342300  0.943100  1.0
  C  C338  1  0.012300  0.702300  0.943100  1.0
  C  C339  1  0.157700  0.797700  0.556900  1.0
  C  C340  1  0.487700  0.157700  0.556900  1.0
  C  C341  1  0.657700  0.987700  0.056900  1.0
  C  C342  1  0.797700  0.487700  0.556900  1.0
  C  C343  1  0.297700  0.657700  0.056900  1.0
  C  C344  1  0.987700  0.297700  0.056900  1.0
  C  C345  1  0.145500  0.530400  0.427500  1.0
  C  C346  1  0.896600  0.145500  0.427500  1.0
  C  C347  1  0.530400  0.896600  0.427500  1.0
  C  C348  1  0.396600  0.030400  0.927500  1.0
  C  C349  1  0.645500  0.396600  0.927500  1.0
  C  C350  1  0.030400  0.645500  0.927500  1.0
  C  C351  1  0.103400  0.854500  0.572500  1.0
  C  C352  1  0.469600  0.103400  0.572500  1.0
  C  C353  1  0.603400  0.969600  0.072500  1.0
  C  C354  1  0.854500  0.469600  0.572500  1.0
  C  C355  1  0.354500  0.603400  0.072500  1.0
  C  C356  1  0.969600  0.354500  0.072500  1.0
  C  C357  1  0.091800  0.598600  0.425400  1.0
  C  C358  1  0.884200  0.091800  0.425400  1.0
  C  C359  1  0.598600  0.884200  0.425400  1.0
  C  C360  1  0.384200  0.098600  0.925400  1.0
  C  C361  1  0.591800  0.384200  0.925400  1.0
  C  C362  1  0.098600  0.591800  0.925400  1.0
  C  C363  1  0.115800  0.908200  0.574600  1.0
  C  C364  1  0.401400  0.115800  0.574600  1.0
  C  C365  1  0.615800  0.901400  0.074600  1.0
  C  C366  1  0.908200  0.401400  0.574600  1.0
  C  C367  1  0.408200  0.615800  0.074600  1.0
  C  C368  1  0.901400  0.408200  0.074600  1.0
  C  C369  1  0.780800  0.820000  0.318600  1.0
  C  C370  1  0.080600  0.780800  0.318600  1.0
  C  C371  1  0.820000  0.080600  0.318600  1.0
  C  C372  1  0.580600  0.320000  0.818600  1.0
  C  C373  1  0.280800  0.580600  0.818600  1.0
  C  C374  1  0.320000  0.280800  0.818600  1.0
  C  C375  1  0.919400  0.219200  0.681400  1.0
  C  C376  1  0.180000  0.919400  0.681400  1.0
  C  C377  1  0.419400  0.680000  0.181400  1.0
  C  C378  1  0.219200  0.180000  0.681400  1.0
  C  C379  1  0.719200  0.419400  0.181400  1.0
  C  C380  1  0.680000  0.719200  0.181400  1.0
  C  C381  1  0.768700  0.873000  0.286800  1.0
  C  C382  1  0.071500  0.768700  0.286800  1.0
  C  C383  1  0.873000  0.071500  0.286800  1.0
  C  C384  1  0.571500  0.373000  0.786800  1.0
  C  C385  1  0.268700  0.571500  0.786800  1.0
  C  C386  1  0.373000  0.268700  0.786800  1.0
  C  C387  1  0.928500  0.231300  0.713200  1.0
  C  C388  1  0.127000  0.928500  0.713200  1.0
  C  C389  1  0.428500  0.627000  0.213200  1.0
  C  C390  1  0.231300  0.127000  0.713200  1.0
  C  C391  1  0.731300  0.428500  0.213200  1.0
  C  C392  1  0.627000  0.731300  0.213200  1.0
  C  C393  1  0.820200  0.865400  0.254400  1.0
  C  C394  1  0.060000  0.820200  0.254400  1.0
  C  C395  1  0.865400  0.060000  0.254400  1.0
  C  C396  1  0.560000  0.365400  0.754400  1.0
  C  C397  1  0.320200  0.560000  0.754400  1.0
  C  C398  1  0.365400  0.320200  0.754400  1.0
  C  C399  1  0.940000  0.179800  0.745600  1.0
  C  C400  1  0.134600  0.940000  0.745600  1.0
  C  C401  1  0.440000  0.634600  0.245600  1.0
  C  C402  1  0.179800  0.134600  0.745600  1.0
  C  C403  1  0.679800  0.440000  0.245600  1.0
  C  C404  1  0.634600  0.679800  0.245600  1.0
  C  C405  1  0.883400  0.805100  0.253800  1.0
  C  C406  1  0.057700  0.883400  0.253800  1.0
  C  C407  1  0.805100  0.057700  0.253800  1.0
  C  C408  1  0.557700  0.305100  0.753800  1.0
  C  C409  1  0.383400  0.557700  0.753800  1.0
  C  C410  1  0.305100  0.383400  0.753800  1.0
  C  C411  1  0.942300  0.116600  0.746200  1.0
  C  C412  1  0.194900  0.942300  0.746200  1.0
  C  C413  1  0.442300  0.694900  0.246200  1.0
  C  C414  1  0.116600  0.194900  0.746200  1.0
  C  C415  1  0.616600  0.442300  0.246200  1.0
  C  C416  1  0.694900  0.616600  0.246200  1.0
  C  C417  1  0.894900  0.752700  0.285600  1.0
  C  C418  1  0.066800  0.894900  0.285600  1.0
  C  C419  1  0.752700  0.066800  0.285600  1.0
  C  C420  1  0.566800  0.252700  0.785600  1.0
  C  C421  1  0.394900  0.566800  0.785600  1.0
  C  C422  1  0.252700  0.394900  0.785600  1.0
  C  C423  1  0.933200  0.105100  0.714400  1.0
  C  C424  1  0.247300  0.933200  0.714400  1.0
  C  C425  1  0.433200  0.747300  0.214400  1.0
  C  C426  1  0.105100  0.247300  0.714400  1.0
  C  C427  1  0.605100  0.433200  0.214400  1.0
  C  C428  1  0.747300  0.605100  0.214400  1.0
  C  C429  1  0.844000  0.759700  0.318000  1.0
  C  C430  1  0.078300  0.844000  0.318000  1.0
  C  C431  1  0.759700  0.078300  0.318000  1.0
  C  C432  1  0.578300  0.259700  0.818000  1.0
  C  C433  1  0.344000  0.578300  0.818000  1.0
  C  C434  1  0.259700  0.344000  0.818000  1.0
  C  C435  1  0.921700  0.156000  0.682000  1.0
  C  C436  1  0.240300  0.921700  0.682000  1.0
  C  C437  1  0.421700  0.740300  0.182000  1.0
  C  C438  1  0.156000  0.240300  0.682000  1.0
  C  C439  1  0.656000  0.421700  0.182000  1.0
  C  C440  1  0.740300  0.656000  0.182000  1.0
  C  C441  1  0.812700  0.678700  0.369900  1.0
  C  C442  1  0.138700  0.812700  0.369900  1.0
  C  C443  1  0.678700  0.138700  0.369900  1.0
  C  C444  1  0.638700  0.178700  0.869900  1.0
  C  C445  1  0.312700  0.638700  0.869900  1.0
  C  C446  1  0.178700  0.312700  0.869900  1.0
  C  C447  1  0.861300  0.187300  0.630100  1.0
  C  C448  1  0.321300  0.861300  0.630100  1.0
  C  C449  1  0.361300  0.821300  0.130100  1.0
  C  C450  1  0.187300  0.321300  0.630100  1.0
  C  C451  1  0.687300  0.361300  0.130100  1.0
  C  C452  1  0.821300  0.687300  0.130100  1.0
  C  C453  1  0.847900  0.610900  0.396300  1.0
  C  C454  1  0.144900  0.847900  0.396300  1.0
  C  C455  1  0.610900  0.144900  0.396300  1.0
  C  C456  1  0.644900  0.110900  0.896300  1.0
  C  C457  1  0.347900  0.644900  0.896300  1.0
  C  C458  1  0.110900  0.347900  0.896300  1.0
  C  C459  1  0.855100  0.152100  0.603700  1.0
  C  C460  1  0.389100  0.855100  0.603700  1.0
  C  C461  1  0.355100  0.889100  0.103700  1.0
  C  C462  1  0.152100  0.389100  0.603700  1.0
  C  C463  1  0.652100  0.355100  0.103700  1.0
  C  C464  1  0.889100  0.652100  0.103700  1.0
  C  C465  1  0.802200  0.585400  0.420600  1.0
  C  C466  1  0.191800  0.802200  0.420600  1.0
  C  C467  1  0.585400  0.191800  0.420600  1.0
  C  C468  1  0.691800  0.085400  0.920600  1.0
  C  C469  1  0.302200  0.691800  0.920600  1.0
  C  C470  1  0.085400  0.302200  0.920600  1.0
  C  C471  1  0.808200  0.197800  0.579400  1.0
  C  C472  1  0.414600  0.808200  0.579400  1.0
  C  C473  1  0.308200  0.914600  0.079400  1.0
  C  C474  1  0.197800  0.414600  0.579400  1.0
  C  C475  1  0.697800  0.308200  0.079400  1.0
  C  C476  1  0.914600  0.697800  0.079400  1.0
  C  C477  1  0.827400  0.522600  0.445800  1.0
  C  C478  1  0.204200  0.827400  0.445800  1.0
  C  C479  1  0.522600  0.204200  0.445800  1.0
  C  C480  1  0.704200  0.022600  0.945800  1.0
  C  C481  1  0.327400  0.704200  0.945800  1.0
  C  C482  1  0.022600  0.327400  0.945800  1.0
  C  C483  1  0.795800  0.172600  0.554200  1.0
  C  C484  1  0.477400  0.795800  0.554200  1.0
  C  C485  1  0.295800  0.977400  0.054200  1.0
  C  C486  1  0.172600  0.477400  0.554200  1.0
  C  C487  1  0.672600  0.295800  0.054200  1.0
  C  C488  1  0.977400  0.672600  0.054200  1.0
  C  C489  1  0.898100  0.485100  0.446700  1.0
  C  C490  1  0.170100  0.898100  0.446700  1.0
  C  C491  1  0.485100  0.170100  0.446700  1.0
  C  C492  1  0.670100  0.985100  0.946700  1.0
  C  C493  1  0.398100  0.670100  0.946700  1.0
  C  C494  1  0.985100  0.398100  0.946700  1.0
  C  C495  1  0.829900  0.101900  0.553300  1.0
  C  C496  1  0.514900  0.829900  0.553300  1.0
  C  C497  1  0.329900  0.014900  0.053300  1.0
  C  C498  1  0.101900  0.514900  0.553300  1.0
  C  C499  1  0.601900  0.329900  0.053300  1.0
  C  C500  1  0.014900  0.601900  0.053300  1.0
  C  C501  1  0.944000  0.510400  0.422400  1.0
  C  C502  1  0.123200  0.944000  0.422400  1.0
  C  C503  1  0.510400  0.123200  0.422400  1.0
  C  C504  1  0.623200  0.010400  0.922400  1.0
  C  C505  1  0.444000  0.623200  0.922400  1.0
  C  C506  1  0.010400  0.444000  0.922400  1.0
  C  C507  1  0.876800  0.056000  0.577600  1.0
  C  C508  1  0.489600  0.876800  0.577600  1.0
  C  C509  1  0.376800  0.989600  0.077600  1.0
  C  C510  1  0.056000  0.489600  0.577600  1.0
  C  C511  1  0.556000  0.376800  0.077600  1.0
  C  C512  1  0.989600  0.556000  0.077600  1.0
  C  C513  1  0.918600  0.573400  0.397200  1.0
  C  C514  1  0.110800  0.918600  0.397200  1.0
  C  C515  1  0.573400  0.110800  0.397200  1.0
  C  C516  1  0.610800  0.073400  0.897200  1.0
  C  C517  1  0.418600  0.610800  0.897200  1.0
  C  C518  1  0.073400  0.418600  0.897200  1.0
  C  C519  1  0.889200  0.081400  0.602800  1.0
  C  C520  1  0.426600  0.889200  0.602800  1.0
  C  C521  1  0.389200  0.926600  0.102800  1.0
  C  C522  1  0.081400  0.426600  0.602800  1.0
  C  C523  1  0.581400  0.389200  0.102800  1.0
  C  C524  1  0.926600  0.581400  0.102800  1.0
  C  C525  1  0.973900  0.737900  0.207300  1.0
  C  C526  1  0.080900  0.973900  0.207300  1.0
  C  C527  1  0.737900  0.080900  0.207300  1.0
  C  C528  1  0.580900  0.237900  0.707300  1.0
  C  C529  1  0.473900  0.580900  0.707300  1.0
  C  C530  1  0.237900  0.473900  0.707300  1.0
  C  C531  1  0.919100  0.026100  0.792700  1.0
  C  C532  1  0.262100  0.919100  0.792700  1.0
  C  C533  1  0.419100  0.762100  0.292700  1.0
  C  C534  1  0.026100  0.262100  0.792700  1.0
  C  C535  1  0.526100  0.419100  0.292700  1.0
  C  C536  1  0.762100  0.526100  0.292700  1.0
  C  C537  1  0.012100  0.753100  0.164700  1.0
  C  C538  1  0.070100  0.012100  0.164700  1.0
  C  C539  1  0.753100  0.070100  0.164700  1.0
  C  C540  1  0.570100  0.253100  0.664700  1.0
  C  C541  1  0.512100  0.570100  0.664700  1.0
  C  C542  1  0.253100  0.512100  0.664700  1.0
  C  C543  1  0.929900  0.987900  0.835300  1.0
  C  C544  1  0.246900  0.929900  0.835300  1.0
  C  C545  1  0.429900  0.746900  0.335300  1.0
  C  C546  1  0.987900  0.246900  0.835300  1.0
  C  C547  1  0.487900  0.429900  0.335300  1.0
  C  C548  1  0.746900  0.487900  0.335300  1.0
  C  C549  1  0.060400  0.694500  0.148800  1.0
  C  C550  1  0.096300  0.060400  0.148800  1.0
  C  C551  1  0.694500  0.096300  0.148800  1.0
  C  C552  1  0.596300  0.194500  0.648800  1.0
  C  C553  1  0.560400  0.596300  0.648800  1.0
  C  C554  1  0.194500  0.560400  0.648800  1.0
  C  C555  1  0.903700  0.939600  0.851200  1.0
  C  C556  1  0.305500  0.903700  0.851200  1.0
  C  C557  1  0.403700  0.805500  0.351200  1.0
  C  C558  1  0.939600  0.305500  0.851200  1.0
  C  C559  1  0.439600  0.403700  0.351200  1.0
  C  C560  1  0.805500  0.439600  0.351200  1.0
  C  C561  1  0.095800  0.701800  0.111600  1.0
  C  C562  1  0.090800  0.095800  0.111600  1.0
  C  C563  1  0.701800  0.090800  0.111600  1.0
  C  C564  1  0.590800  0.201800  0.611600  1.0
  C  C565  1  0.595800  0.590800  0.611600  1.0
  C  C566  1  0.201800  0.595800  0.611600  1.0
  C  C567  1  0.909200  0.904200  0.888400  1.0
  C  C568  1  0.298200  0.909200  0.888400  1.0
  C  C569  1  0.409200  0.798200  0.388400  1.0
  C  C570  1  0.904200  0.298200  0.888400  1.0
  C  C571  1  0.404200  0.409200  0.388400  1.0
  C  C572  1  0.798200  0.404200  0.388400  1.0
  C  C573  1  0.081900  0.767900  0.090300  1.0
  C  C574  1  0.059900  0.081900  0.090300  1.0
  C  C575  1  0.767900  0.059900  0.090300  1.0
  C  C576  1  0.559900  0.267900  0.590300  1.0
  C  C577  1  0.581900  0.559900  0.590300  1.0
  C  C578  1  0.267900  0.581900  0.590300  1.0
  C  C579  1  0.940100  0.918100  0.909700  1.0
  C  C580  1  0.232100  0.940100  0.909700  1.0
  C  C581  1  0.440100  0.732100  0.409700  1.0
  C  C582  1  0.918100  0.232100  0.909700  1.0
  C  C583  1  0.418100  0.440100  0.409700  1.0
  C  C584  1  0.732100  0.418100  0.409700  1.0
  C  C585  1  0.033700  0.826800  0.105900  1.0
  C  C586  1  0.033600  0.033700  0.105900  1.0
  C  C587  1  0.826800  0.033600  0.105900  1.0
  C  C588  1  0.533600  0.326800  0.605900  1.0
  C  C589  1  0.533700  0.533600  0.605900  1.0
  C  C590  1  0.326800  0.533700  0.605900  1.0
  C  C591  1  0.966400  0.966300  0.894100  1.0
  C  C592  1  0.173200  0.966400  0.894100  1.0
  C  C593  1  0.466400  0.673200  0.394100  1.0
  C  C594  1  0.966300  0.173200  0.894100  1.0
  C  C595  1  0.466300  0.466400  0.394100  1.0
  C  C596  1  0.673200  0.466300  0.394100  1.0
  C  C597  1  0.999100  0.819500  0.143100  1.0
  C  C598  1  0.038300  0.999100  0.143100  1.0
  C  C599  1  0.819500  0.038300  0.143100  1.0
  C  C600  1  0.538300  0.319500  0.643100  1.0
  C  C601  1  0.499100  0.538300  0.643100  1.0
  C  C602  1  0.319500  0.499100  0.643100  1.0
  C  C603  1  0.961700  0.000900  0.856900  1.0
  C  C604  1  0.180500  0.961700  0.856900  1.0
  C  C605  1  0.461700  0.680500  0.356900  1.0
  C  C606  1  0.000900  0.180500  0.856900  1.0
  C  C607  1  0.500900  0.461700  0.356900  1.0
  C  C608  1  0.680500  0.500900  0.356900  1.0
  C  C609  1  0.663400  0.967400  0.259800  1.0
  C  C610  1  0.109400  0.663400  0.259800  1.0
  C  C611  1  0.967400  0.109400  0.259800  1.0
  C  C612  1  0.609400  0.467400  0.759800  1.0
  C  C613  1  0.163400  0.609400  0.759800  1.0
  C  C614  1  0.467400  0.163400  0.759800  1.0
  C  C615  1  0.890600  0.336600  0.740200  1.0
  C  C616  1  0.032600  0.890600  0.740200  1.0
  C  C617  1  0.390600  0.532600  0.240200  1.0
  C  C618  1  0.336600  0.032600  0.740200  1.0
  C  C619  1  0.836600  0.390600  0.240200  1.0
  C  C620  1  0.532600  0.836600  0.240200  1.0
  C  C621  1  0.591400  0.018400  0.271800  1.0
  C  C622  1  0.118400  0.591400  0.271800  1.0
  C  C623  1  0.018400  0.118400  0.271800  1.0
  C  C624  1  0.618400  0.518400  0.771800  1.0
  C  C625  1  0.091400  0.618400  0.771800  1.0
  C  C626  1  0.518400  0.091400  0.771800  1.0
  C  C627  1  0.881600  0.408600  0.728200  1.0
  C  C628  1  0.981600  0.881600  0.728200  1.0
  C  C629  1  0.381600  0.481600  0.228200  1.0
  C  C630  1  0.408600  0.981600  0.728200  1.0
  C  C631  1  0.908600  0.381600  0.228200  1.0
  C  C632  1  0.481600  0.908600  0.228200  1.0
  C  C633  1  0.553100  0.061100  0.242700  1.0
  C  C634  1  0.143100  0.553100  0.242700  1.0
  C  C635  1  0.061100  0.143100  0.242700  1.0
  C  C636  1  0.643100  0.561100  0.742700  1.0
  C  C637  1  0.053100  0.643100  0.742700  1.0
  C  C638  1  0.561100  0.053100  0.742700  1.0
  C  C639  1  0.856900  0.446900  0.757300  1.0
  C  C640  1  0.938900  0.856900  0.757300  1.0
  C  C641  1  0.356900  0.438900  0.257300  1.0
  C  C642  1  0.446900  0.938900  0.757300  1.0
  C  C643  1  0.946900  0.356900  0.257300  1.0
  C  C644  1  0.438900  0.946900  0.257300  1.0
  C  C645  1  0.484200  0.108200  0.251400  1.0
  C  C646  1  0.156200  0.484200  0.251400  1.0
  C  C647  1  0.108200  0.156200  0.251400  1.0
  C  C648  1  0.656200  0.608200  0.751400  1.0
  C  C649  1  0.984200  0.656200  0.751400  1.0
  C  C650  1  0.608200  0.984200  0.751400  1.0
  C  C651  1  0.843800  0.515800  0.748600  1.0
  C  C652  1  0.891800  0.843800  0.748600  1.0
  C  C653  1  0.343800  0.391800  0.248600  1.0
  C  C654  1  0.515800  0.891800  0.748600  1.0
  C  C655  1  0.015800  0.343800  0.248600  1.0
  C  C656  1  0.391800  0.015800  0.248600  1.0
  C  C657  1  0.452700  0.113700  0.288900  1.0
  C  C658  1  0.144700  0.452700  0.288900  1.0
  C  C659  1  0.113700  0.144700  0.288900  1.0
  C  C660  1  0.644700  0.613700  0.788900  1.0
  C  C661  1  0.952700  0.644700  0.788900  1.0
  C  C662  1  0.613700  0.952700  0.788900  1.0
  C  C663  1  0.855300  0.547300  0.711100  1.0
  C  C664  1  0.886300  0.855300  0.711100  1.0
  C  C665  1  0.355300  0.386300  0.211100  1.0
  C  C666  1  0.547300  0.886300  0.711100  1.0
  C  C667  1  0.047300  0.355300  0.211100  1.0
  C  C668  1  0.386300  0.047300  0.211100  1.0
  C  C669  1  0.120000  0.490000  0.318000  1.0
  C  C670  1  0.072000  0.120000  0.318000  1.0
  C  C671  1  0.490000  0.072000  0.318000  1.0
  C  C672  1  0.572000  0.990000  0.818000  1.0
  C  C673  1  0.620000  0.572000  0.818000  1.0
  C  C674  1  0.990000  0.620000  0.818000  1.0
  C  C675  1  0.928000  0.880000  0.682000  1.0
  C  C676  1  0.510000  0.928000  0.682000  1.0
  C  C677  1  0.428000  0.010000  0.182000  1.0
  C  C678  1  0.880000  0.510000  0.682000  1.0
  C  C679  1  0.380000  0.428000  0.182000  1.0
  C  C680  1  0.010000  0.380000  0.182000  1.0
  C  C681  1  0.106900  0.559100  0.309300  1.0
  C  C682  1  0.024700  0.106900  0.309300  1.0
  C  C683  1  0.559100  0.024700  0.309300  1.0
  C  C684  1  0.524700  0.059100  0.809300  1.0
  C  C685  1  0.606900  0.524700  0.809300  1.0
  C  C686  1  0.059100  0.606900  0.809300  1.0
  C  C687  1  0.975300  0.893100  0.690700  1.0
  C  C688  1  0.440900  0.975300  0.690700  1.0
  C  C689  1  0.475300  0.940900  0.190700  1.0
  C  C690  1  0.893100  0.440900  0.690700  1.0
  C  C691  1  0.393100  0.475300  0.190700  1.0
  C  C692  1  0.940900  0.393100  0.190700  1.0
  H  H693  1  0.990800  0.710100  0.405000  1.0
  H  H694  1  0.894100  0.990800  0.405000  1.0
  H  H695  1  0.710100  0.894100  0.405000  1.0
  H  H696  1  0.394100  0.210100  0.905000  1.0
  H  H697  1  0.490800  0.394100  0.905000  1.0
  H  H698  1  0.210100  0.490800  0.905000  1.0
  H  H699  1  0.105900  0.009200  0.595000  1.0
  H  H700  1  0.289900  0.105900  0.595000  1.0
  H  H701  1  0.605900  0.789900  0.095000  1.0
  H  H702  1  0.009200  0.289900  0.595000  1.0
  H  H703  1  0.509200  0.605900  0.095000  1.0
  H  H704  1  0.789900  0.509200  0.095000  1.0
  H  H705  1  0.907500  0.679200  0.354000  1.0
  H  H706  1  0.059300  0.907500  0.354000  1.0
  H  H707  1  0.679200  0.059300  0.354000  1.0
  H  H708  1  0.559300  0.179200  0.854000  1.0
  H  H709  1  0.407500  0.559300  0.854000  1.0
  H  H710  1  0.179200  0.407500  0.854000  1.0
  H  H711  1  0.940700  0.092500  0.646000  1.0
  H  H712  1  0.320800  0.940700  0.646000  1.0
  H  H713  1  0.440700  0.820800  0.146000  1.0
  H  H714  1  0.092500  0.320800  0.646000  1.0
  H  H715  1  0.592500  0.440700  0.146000  1.0
  H  H716  1  0.820800  0.592500  0.146000  1.0
  H  H717  1  0.932600  0.839700  0.203100  1.0
  H  H718  1  0.024600  0.932600  0.203100  1.0
  H  H719  1  0.839700  0.024600  0.203100  1.0
  H  H720  1  0.524600  0.339700  0.703100  1.0
  H  H721  1  0.432600  0.524600  0.703100  1.0
  H  H722  1  0.339700  0.432600  0.703100  1.0
  H  H723  1  0.975400  0.067400  0.796900  1.0
  H  H724  1  0.160300  0.975400  0.796900  1.0
  H  H725  1  0.475400  0.660300  0.296900  1.0
  H  H726  1  0.067400  0.160300  0.796900  1.0
  H  H727  1  0.567400  0.475400  0.296900  1.0
  H  H728  1  0.660300  0.567400  0.296900  1.0
  H  H729  1  0.680300  0.941400  0.312000  1.0
  H  H730  1  0.066300  0.680300  0.312000  1.0
  H  H731  1  0.941400  0.066300  0.312000  1.0
  H  H732  1  0.566300  0.441400  0.812000  1.0
  H  H733  1  0.180300  0.566300  0.812000  1.0
  H  H734  1  0.441400  0.180300  0.812000  1.0
  H  H735  1  0.933700  0.319700  0.688000  1.0
  H  H736  1  0.058600  0.933700  0.688000  1.0
  H  H737  1  0.433700  0.558600  0.188000  1.0
  H  H738  1  0.319700  0.058600  0.688000  1.0
  H  H739  1  0.819700  0.433700  0.188000  1.0
  H  H740  1  0.558600  0.819700  0.188000  1.0
  H  H741  1  0.154500  0.662400  0.463500  1.0
  H  H742  1  0.719600  0.154500  0.463500  1.0
  H  H743  1  0.662400  0.719600  0.463500  1.0
  H  H744  1  0.219600  0.162400  0.963500  1.0
  H  H745  1  0.654500  0.219600  0.963500  1.0
  H  H746  1  0.162400  0.654500  0.963500  1.0
  H  H747  1  0.280400  0.845500  0.536500  1.0
  H  H748  1  0.337600  0.280400  0.536500  1.0
  H  H749  1  0.780400  0.837600  0.036500  1.0
  H  H750  1  0.845500  0.337600  0.536500  1.0
  H  H751  1  0.345500  0.780400  0.036500  1.0
  H  H752  1  0.837600  0.345500  0.036500  1.0
  H  H753  1  0.244500  0.548600  0.467100  1.0
  H  H754  1  0.739800  0.244500  0.467100  1.0
  H  H755  1  0.548600  0.739800  0.467100  1.0
  H  H756  1  0.239800  0.048600  0.967100  1.0
  H  H757  1  0.744500  0.239800  0.967100  1.0
  H  H758  1  0.048600  0.744500  0.967100  1.0
  H  H759  1  0.260200  0.755500  0.532900  1.0
  H  H760  1  0.451400  0.260200  0.532900  1.0
  H  H761  1  0.760200  0.951400  0.032900  1.0
  H  H762  1  0.755500  0.451400  0.532900  1.0
  H  H763  1  0.255500  0.760200  0.032900  1.0
  H  H764  1  0.951400  0.255500  0.032900  1.0
  H  H765  1  0.238700  0.466000  0.444600  1.0
  H  H766  1  0.850700  0.238700  0.444600  1.0
  H  H767  1  0.466000  0.850700  0.444600  1.0
  H  H768  1  0.350700  0.966000  0.944600  1.0
  H  H769  1  0.738700  0.350700  0.944600  1.0
  H  H770  1  0.966000  0.738700  0.944600  1.0
  H  H771  1  0.149300  0.761300  0.555400  1.0
  H  H772  1  0.534000  0.149300  0.555400  1.0
  H  H773  1  0.649300  0.034000  0.055400  1.0
  H  H774  1  0.761300  0.534000  0.555400  1.0
  H  H775  1  0.261300  0.649300  0.055400  1.0
  H  H776  1  0.034000  0.261300  0.055400  1.0
  H  H777  1  0.745500  0.825600  0.340500  1.0
  H  H778  1  0.088400  0.745500  0.340500  1.0
  H  H779  1  0.825600  0.088400  0.340500  1.0
  H  H780  1  0.588400  0.325600  0.840500  1.0
  H  H781  1  0.245500  0.588400  0.840500  1.0
  H  H782  1  0.325600  0.245500  0.840500  1.0
  H  H783  1  0.911600  0.254500  0.659500  1.0
  H  H784  1  0.174400  0.911600  0.659500  1.0
  H  H785  1  0.411600  0.674400  0.159500  1.0
  H  H786  1  0.254500  0.174400  0.659500  1.0
  H  H787  1  0.754500  0.411600  0.159500  1.0
  H  H788  1  0.674400  0.754500  0.159500  1.0
  H  H789  1  0.812300  0.901300  0.232500  1.0
  H  H790  1  0.053900  0.812300  0.232500  1.0
  H  H791  1  0.901300  0.053900  0.232500  1.0
  H  H792  1  0.553900  0.401300  0.732500  1.0
  H  H793  1  0.312300  0.553900  0.732500  1.0
  H  H794  1  0.401300  0.312300  0.732500  1.0
  H  H795  1  0.946100  0.187700  0.767500  1.0
  H  H796  1  0.098700  0.946100  0.767500  1.0
  H  H797  1  0.446100  0.598700  0.267500  1.0
  H  H798  1  0.187700  0.098700  0.767500  1.0
  H  H799  1  0.687700  0.446100  0.267500  1.0
  H  H800  1  0.598700  0.687700  0.267500  1.0
  H  H801  1  0.937900  0.711600  0.285300  1.0
  H  H802  1  0.065200  0.937900  0.285300  1.0
  H  H803  1  0.711600  0.065200  0.285300  1.0
  H  H804  1  0.565200  0.211600  0.785300  1.0
  H  H805  1  0.437900  0.565200  0.785300  1.0
  H  H806  1  0.211600  0.437900  0.785300  1.0
  H  H807  1  0.934800  0.062100  0.714700  1.0
  H  H808  1  0.288400  0.934800  0.714700  1.0
  H  H809  1  0.434800  0.788400  0.214700  1.0
  H  H810  1  0.062100  0.288400  0.714700  1.0
  H  H811  1  0.562100  0.434800  0.214700  1.0
  H  H812  1  0.788400  0.562100  0.214700  1.0
  H  H813  1  0.754000  0.611100  0.420000  1.0
  H  H814  1  0.214900  0.754000  0.420000  1.0
  H  H815  1  0.611100  0.214900  0.420000  1.0
  H  H816  1  0.714900  0.111100  0.920000  1.0
  H  H817  1  0.254000  0.714900  0.920000  1.0
  H  H818  1  0.111100  0.254000  0.920000  1.0
  H  H819  1  0.785100  0.246000  0.580000  1.0
  H  H820  1  0.388900  0.785100  0.580000  1.0
  H  H821  1  0.285100  0.888900  0.080000  1.0
  H  H822  1  0.246000  0.388900  0.580000  1.0
  H  H823  1  0.746000  0.285100  0.080000  1.0
  H  H824  1  0.888900  0.746000  0.080000  1.0
  H  H825  1  0.795800  0.505800  0.462300  1.0
  H  H826  1  0.236100  0.795800  0.462300  1.0
  H  H827  1  0.505800  0.236100  0.462300  1.0
  H  H828  1  0.736100  0.005800  0.962300  1.0
  H  H829  1  0.295800  0.736100  0.962300  1.0
  H  H830  1  0.005800  0.295800  0.962300  1.0
  H  H831  1  0.763900  0.204200  0.537700  1.0
  H  H832  1  0.494200  0.763900  0.537700  1.0
  H  H833  1  0.263900  0.994200  0.037700  1.0
  H  H834  1  0.204200  0.494200  0.537700  1.0
  H  H835  1  0.704200  0.263900  0.037700  1.0
  H  H836  1  0.994200  0.704200  0.037700  1.0
  H  H837  1  0.914900  0.442367  0.464100  1.0
  H  H838  1  0.178633  0.914900  0.464100  1.0
  H  H839  1  0.442367  0.178633  0.464100  1.0
  H  H840  1  0.678633  0.942367  0.964100  1.0
  H  H841  1  0.414900  0.678633  0.964100  1.0
  H  H842  1  0.942367  0.414900  0.964100  1.0
  H  H843  1  0.821367  0.085100  0.535900  1.0
  H  H844  1  0.557633  0.821367  0.535900  1.0
  H  H845  1  0.321367  0.057633  0.035900  1.0
  H  H846  1  0.085100  0.557633  0.535900  1.0
  H  H847  1  0.585100  0.321367  0.035900  1.0
  H  H848  1  0.057633  0.585100  0.035900  1.0
  H  H849  1  0.069700  0.649200  0.163500  1.0
  H  H850  1  0.117600  0.069700  0.163500  1.0
  H  H851  1  0.649200  0.117600  0.163500  1.0
  H  H852  1  0.617600  0.149200  0.663500  1.0
  H  H853  1  0.569700  0.617600  0.663500  1.0
  H  H854  1  0.149200  0.569700  0.663500  1.0
  H  H855  1  0.882400  0.930300  0.836500  1.0
  H  H856  1  0.350800  0.882400  0.836500  1.0
  H  H857  1  0.382400  0.850800  0.336500  1.0
  H  H858  1  0.930300  0.350800  0.836500  1.0
  H  H859  1  0.430300  0.382400  0.336500  1.0
  H  H860  1  0.850800  0.430300  0.336500  1.0
  H  H861  1  0.128600  0.661500  0.100800  1.0
  H  H862  1  0.109100  0.128600  0.100800  1.0
  H  H863  1  0.661500  0.109100  0.100800  1.0
  H  H864  1  0.609100  0.161500  0.600800  1.0
  H  H865  1  0.628600  0.609100  0.600800  1.0
  H  H866  1  0.161500  0.628600  0.600800  1.0
  H  H867  1  0.890900  0.871400  0.899200  1.0
  H  H868  1  0.338500  0.890900  0.899200  1.0
  H  H869  1  0.390900  0.838500  0.399200  1.0
  H  H870  1  0.871400  0.338500  0.899200  1.0
  H  H871  1  0.371400  0.390900  0.399200  1.0
  H  H872  1  0.838500  0.371400  0.399200  1.0
  H  H873  1  0.106200  0.772500  0.064800  1.0
  H  H874  1  0.056500  0.106200  0.064800  1.0
  H  H875  1  0.772500  0.056500  0.064800  1.0
  H  H876  1  0.556500  0.272500  0.564800  1.0
  H  H877  1  0.606200  0.556500  0.564800  1.0
  H  H878  1  0.272500  0.606200  0.564800  1.0
  H  H879  1  0.943500  0.893800  0.935200  1.0
  H  H880  1  0.227500  0.943500  0.935200  1.0
  H  H881  1  0.443500  0.727500  0.435200  1.0
  H  H882  1  0.893800  0.227500  0.935200  1.0
  H  H883  1  0.393800  0.443500  0.435200  1.0
  H  H884  1  0.727500  0.393800  0.435200  1.0
  H  H885  1  0.575100  0.056800  0.217200  1.0
  H  H886  1  0.150900  0.575100  0.217200  1.0
  H  H887  1  0.056800  0.150900  0.217200  1.0
  H  H888  1  0.650900  0.556800  0.717200  1.0
  H  H889  1  0.075100  0.650900  0.717200  1.0
  H  H890  1  0.556800  0.075100  0.717200  1.0
  H  H891  1  0.849100  0.424900  0.782800  1.0
  H  H892  1  0.943200  0.849100  0.782800  1.0
  H  H893  1  0.349100  0.443200  0.282800  1.0
  H  H894  1  0.424900  0.943200  0.782800  1.0
  H  H895  1  0.924900  0.349100  0.282800  1.0
  H  H896  1  0.443200  0.924900  0.282800  1.0
  H  H897  1  0.458400  0.137100  0.231600  1.0
  H  H898  1  0.172900  0.458400  0.231600  1.0
  H  H899  1  0.137100  0.172900  0.231600  1.0
  H  H900  1  0.672900  0.637100  0.731600  1.0
  H  H901  1  0.958400  0.672900  0.731600  1.0
  H  H902  1  0.637100  0.958400  0.731600  1.0
  H  H903  1  0.827100  0.541600  0.768400  1.0
  H  H904  1  0.862900  0.827100  0.768400  1.0
  H  H905  1  0.327100  0.362900  0.268400  1.0
  H  H906  1  0.541600  0.862900  0.768400  1.0
  H  H907  1  0.041600  0.327100  0.268400  1.0
  H  H908  1  0.362900  0.041600  0.268400  1.0
  H  H909  1  0.405000  0.146600  0.294900  1.0
  H  H910  1  0.153500  0.405000  0.294900  1.0
  H  H911  1  0.146600  0.153500  0.294900  1.0
  H  H912  1  0.653500  0.646600  0.794900  1.0
  H  H913  1  0.905000  0.653500  0.794900  1.0
  H  H914  1  0.646600  0.905000  0.794900  1.0
  H  H915  1  0.846500  0.595000  0.705100  1.0
  H  H916  1  0.853400  0.846500  0.705100  1.0
  H  H917  1  0.346500  0.353400  0.205100  1.0
  H  H918  1  0.595000  0.853400  0.705100  1.0
  H  H919  1  0.095000  0.346500  0.205100  1.0
  H  H920  1  0.353400  0.095000  0.205100  1.0
  N  N921  1  0.738200  0.862200  0.170400  1
  N  N922  1  0.229200  0.738200  0.170400  1
  N  N923  1  0.862200  0.229200  0.170400  1
  N  N924  1  0.729200  0.362200  0.670400  1
  N  N925  1  0.238200  0.729200  0.670400  1
  N  N926  1  0.362200  0.238200  0.670400  1
  N  N927  1  0.770800  0.261800  0.829600  1
  N  N928  1  0.137800  0.770800  0.829600  1
  N  N929  1  0.270800  0.637800  0.329600  1
  N  N930  1  0.261800  0.137800  0.829600  1
  N  N931  1  0.761800  0.270800  0.329600  1
  N  N932  1  0.637800  0.761800  0.329600  1
  N  N933  1  0.103800  0.368800  0.477600  1
  N  N934  1  0.049800  0.103800  0.477600  1
  N  N935  1  0.368800  0.049800  0.477600  1
  N  N936  1  0.549800  0.868800  0.977600  1
  N  N937  1  0.603800  0.549800  0.977600  1
  N  N938  1  0.868800  0.603800  0.977600  1
  N  N939  1  0.950200  0.896200  0.522400  1
  N  N940  1  0.631200  0.950200  0.522400  1
  N  N941  1  0.450200  0.131200  0.022400  1
  N  N942  1  0.896200  0.631200  0.522400  1
  N  N943  1  0.396200  0.450200  0.022400  1
  N  N944  1  0.131200  0.396200  0.022400  1
  N  N945  1  0.985600  0.742600  0.418200  1.0
  N  N946  1  0.853600  0.985600  0.418200  1.0
  N  N947  1  0.742600  0.853600  0.418200  1.0
  N  N948  1  0.353600  0.242600  0.918200  1.0
  N  N949  1  0.485600  0.353600  0.918200  1.0
  N  N950  1  0.242600  0.485600  0.918200  1.0
  N  N951  1  0.146400  0.014400  0.581800  1.0
  N  N952  1  0.257400  0.146400  0.581800  1.0
  N  N953  1  0.646400  0.757400  0.081800  1.0
  N  N954  1  0.014400  0.257400  0.581800  1.0
  N  N955  1  0.514400  0.646400  0.081800  1.0
  N  N956  1  0.757400  0.514400  0.081800  1.0
  N  N957  1  0.861900  0.701900  0.348300  1.0
  N  N958  1  0.087900  0.861900  0.348300  1.0
  N  N959  1  0.701900  0.087900  0.348300  1.0
  N  N960  1  0.587900  0.201900  0.848300  1.0
  N  N961  1  0.361900  0.587900  0.848300  1.0
  N  N962  1  0.201900  0.361900  0.848300  1.0
  N  N963  1  0.912100  0.138100  0.651700  1.0
  N  N964  1  0.298100  0.912100  0.651700  1.0
  N  N965  1  0.412100  0.798100  0.151700  1.0
  N  N966  1  0.138100  0.298100  0.651700  1.0
  N  N967  1  0.638100  0.412100  0.151700  1.0
  N  N968  1  0.798100  0.638100  0.151700  1.0
  N  N969  1  0.931000  0.799000  0.219000  1.0
  N  N970  1  0.051000  0.931000  0.219000  1.0
  N  N971  1  0.799000  0.051000  0.219000  1.0
  N  N972  1  0.551000  0.299000  0.719000  1.0
  N  N973  1  0.431000  0.551000  0.719000  1.0
  N  N974  1  0.299000  0.431000  0.719000  1.0
  N  N975  1  0.949000  0.069000  0.781000  1.0
  N  N976  1  0.201000  0.949000  0.781000  1.0
  N  N977  1  0.449000  0.701000  0.281000  1.0
  N  N978  1  0.069000  0.201000  0.781000  1.0
  N  N979  1  0.569000  0.449000  0.281000  1.0
  N  N980  1  0.701000  0.569000  0.281000  1.0
  N  N981  1  0.702000  0.929000  0.288000  1.0
  N  N982  1  0.081000  0.702000  0.288000  1.0
  N  N983  1  0.929000  0.081000  0.288000  1.0
  N  N984  1  0.581000  0.429000  0.788000  1.0
  N  N985  1  0.202000  0.581000  0.788000  1.0
  N  N986  1  0.429000  0.202000  0.788000  1.0
  N  N987  1  0.919000  0.298000  0.712000  1.0
  N  N988  1  0.071000  0.919000  0.712000  1.0
  N  N989  1  0.419000  0.571000  0.212000  1.0
  N  N990  1  0.298000  0.071000  0.712000  1.0
  N  N991  1  0.798000  0.419000  0.212000  1.0
  N  N992  1  0.571000  0.798000  0.212000  1.0
  O  O993  1  0.035800  0.763800  0.453600  1.0
  O  O994  1  0.746800  0.035800  0.453600  1.0
  O  O995  1  0.763800  0.746800  0.453600  1.0
  O  O996  1  0.246800  0.263800  0.953600  1.0
  O  O997  1  0.535800  0.246800  0.953600  1.0
  O  O998  1  0.263800  0.535800  0.953600  1.0
  O  O999  1  0.253200  0.964200  0.546400  1.0
  O  O1000  1  0.236200  0.253200  0.546400  1.0
  O  O1001  1  0.753200  0.736200  0.046400  1.0
  O  O1002  1  0.964200  0.236200  0.546400  1.0
  O  O1003  1  0.464200  0.753200  0.046400  1.0
  O  O1004  1  0.736200  0.464200  0.046400  1.0
  O  O1005  1  0.038700  0.611900  0.410100  1.0
  O  O1006  1  0.939300  0.038700  0.410100  1.0
  O  O1007  1  0.611900  0.939300  0.410100  1.0
  O  O1008  1  0.439300  0.111900  0.910100  1.0
  O  O1009  1  0.538700  0.439300  0.910100  1.0
  O  O1010  1  0.111900  0.538700  0.910100  1.0
  O  O1011  1  0.060700  0.961300  0.589900  1.0
  O  O1012  1  0.388100  0.060700  0.589900  1.0
  O  O1013  1  0.560700  0.888100  0.089900  1.0
  O  O1014  1  0.961300  0.388100  0.589900  1.0
  O  O1015  1  0.461300  0.560700  0.089900  1.0
  O  O1016  1  0.888100  0.461300  0.089900  1.0
  O  O1017  1  0.137800  0.489500  0.411900  1.0
  O  O1018  1  0.960800  0.137800  0.411900  1.0
  O  O1019  1  0.489500  0.960800  0.411900  1.0
  O  O1020  1  0.460800  0.989500  0.911900  1.0
  O  O1021  1  0.637800  0.460800  0.911900  1.0
  O  O1022  1  0.989500  0.637800  0.911900  1.0
  O  O1023  1  0.039200  0.862200  0.588100  1.0
  O  O1024  1  0.510500  0.039200  0.588100  1.0
  O  O1025  1  0.539200  0.010500  0.088100  1.0
  O  O1026  1  0.862200  0.510500  0.588100  1.0
  O  O1027  1  0.362200  0.539200  0.088100  1.0
  O  O1028  1  0.010500  0.362200  0.088100  1.0
  O  O1029  1  0.750800  0.711800  0.369600  1.0
  O  O1030  1  0.167800  0.750800  0.369600  1.0
  O  O1031  1  0.711800  0.167800  0.369600  1.0
  O  O1032  1  0.667800  0.211800  0.869600  1.0
  O  O1033  1  0.250800  0.667800  0.869600  1.0
  O  O1034  1  0.211800  0.250800  0.869600  1.0
  O  O1035  1  0.832200  0.249200  0.630400  1.0
  O  O1036  1  0.288200  0.832200  0.630400  1.0
  O  O1037  1  0.332200  0.788200  0.130400  1.0
  O  O1038  1  0.249200  0.288200  0.630400  1.0
  O  O1039  1  0.749200  0.332200  0.130400  1.0
  O  O1040  1  0.788200  0.749200  0.130400  1.0
  O  O1041  1  0.011100  0.484700  0.422700  1.0
  O  O1042  1  0.081500  0.011100  0.422700  1.0
  O  O1043  1  0.484700  0.081500  0.422700  1.0
  O  O1044  1  0.581500  0.984700  0.922700  1.0
  O  O1045  1  0.511100  0.581500  0.922700  1.0
  O  O1046  1  0.984700  0.511100  0.922700  1.0
  O  O1047  1  0.918500  0.988900  0.577300  1.0
  O  O1048  1  0.515300  0.918500  0.577300  1.0
  O  O1049  1  0.418500  0.015300  0.077300  1.0
  O  O1050  1  0.988900  0.515300  0.577300  1.0
  O  O1051  1  0.488900  0.418500  0.077300  1.0
  O  O1052  1  0.015300  0.488900  0.077300  1.0
  O  O1053  1  0.965400  0.593400  0.375000  1.0
  O  O1054  1  0.066200  0.965400  0.375000  1.0
  O  O1055  1  0.593400  0.066200  0.375000  1.0
  O  O1056  1  0.566200  0.093400  0.875000  1.0
  O  O1057  1  0.465400  0.566200  0.875000  1.0
  O  O1058  1  0.093400  0.465400  0.875000  1.0
  O  O1059  1  0.933800  0.034600  0.625000  1.0
  O  O1060  1  0.406600  0.933800  0.625000  1.0
  O  O1061  1  0.433800  0.906600  0.125000  1.0
  O  O1062  1  0.034600  0.406600  0.625000  1.0
  O  O1063  1  0.534600  0.433800  0.125000  1.0
  O  O1064  1  0.906600  0.534600  0.125000  1.0
  O  O1065  1  0.981400  0.681400  0.223800  1.0
  O  O1066  1  0.113400  0.981400  0.223800  1.0
  O  O1067  1  0.681400  0.113400  0.223800  1.0
  O  O1068  1  0.613400  0.181400  0.723800  1.0
  O  O1069  1  0.481400  0.613400  0.723800  1.0
  O  O1070  1  0.181400  0.481400  0.723800  1.0
  O  O1071  1  0.886600  0.018600  0.776200  1.0
  O  O1072  1  0.318600  0.886600  0.776200  1.0
  O  O1073  1  0.386600  0.818600  0.276200  1.0
  O  O1074  1  0.018600  0.318600  0.776200  1.0
  O  O1075  1  0.518600  0.386600  0.276200  1.0
  O  O1076  1  0.818600  0.518600  0.276200  1.0
  O  O1077  1  0.022000  0.890700  0.087600  1.0
  O  O1078  1  0.999700  0.022000  0.087600  1.0
  O  O1079  1  0.890700  0.999700  0.087600  1.0
  O  O1080  1  0.499700  0.390700  0.587600  1.0
  O  O1081  1  0.522000  0.499700  0.587600  1.0
  O  O1082  1  0.390700  0.522000  0.587600  1.0
  O  O1083  1  0.000300  0.978000  0.912400  1.0
  O  O1084  1  0.109300  0.000300  0.912400  1.0
  O  O1085  1  0.500300  0.609300  0.412400  1.0
  O  O1086  1  0.978000  0.109300  0.912400  1.0
  O  O1087  1  0.478000  0.500300  0.412400  1.0
  O  O1088  1  0.609300  0.478000  0.412400  1.0
  O  O1089  1  0.955100  0.879400  0.153300  1.0
  O  O1090  1  0.012200  0.955100  0.153300  1.0
  O  O1091  1  0.879400  0.012200  0.153300  1.0
  O  O1092  1  0.512200  0.379400  0.653300  1.0
  O  O1093  1  0.455100  0.512200  0.653300  1.0
  O  O1094  1  0.379400  0.455100  0.653300  1.0
  O  O1095  1  0.987800  0.044900  0.846700  1.0
  O  O1096  1  0.120600  0.987800  0.846700  1.0
  O  O1097  1  0.487800  0.620600  0.346700  1.0
  O  O1098  1  0.044900  0.120600  0.846700  1.0
  O  O1099  1  0.544900  0.487800  0.346700  1.0
  O  O1100  1  0.620600  0.544900  0.346700  1.0
  O  O1101  1  0.691100  0.956100  0.227700  1.0
  O  O1102  1  0.125100  0.691100  0.227700  1.0
  O  O1103  1  0.956100  0.125100  0.227700  1.0
  O  O1104  1  0.625100  0.456100  0.727700  1.0
  O  O1105  1  0.191100  0.625100  0.727700  1.0
  O  O1106  1  0.456100  0.191100  0.727700  1.0
  O  O1107  1  0.874900  0.308900  0.772300  1.0
  O  O1108  1  0.043900  0.874900  0.772300  1.0
  O  O1109  1  0.374900  0.543900  0.272300  1.0
  O  O1110  1  0.308900  0.043900  0.772300  1.0
  O  O1111  1  0.808900  0.374900  0.272300  1.0
  O  O1112  1  0.543900  0.808900  0.272300  1.0
  O  O1113  1  0.103300  0.463600  0.353100  1.0
  O  O1114  1  0.080000  0.103300  0.353100  1.0
  O  O1115  1  0.463600  0.080000  0.353100  1.0
  O  O1116  1  0.580000  0.963600  0.853100  1.0
  O  O1117  1  0.603300  0.580000  0.853100  1.0
  O  O1118  1  0.963600  0.603300  0.853100  1.0
  O  O1119  1  0.920000  0.896700  0.646900  1.0
  O  O1120  1  0.536400  0.920000  0.646900  1.0
  O  O1121  1  0.420000  0.036400  0.146900  1.0
  O  O1122  1  0.896700  0.536400  0.646900  1.0
  O  O1123  1  0.396700  0.420000  0.146900  1.0
  O  O1124  1  0.036400  0.396700  0.146900  1.0
  O  O1125  1  0.086900  0.588600  0.339000  1.0
  O  O1126  1  0.985500  0.086900  0.339000  1.0
  O  O1127  1  0.588600  0.985500  0.339000  1.0
  O  O1128  1  0.485500  0.088600  0.839000  1.0
  O  O1129  1  0.586900  0.485500  0.839000  1.0
  O  O1130  1  0.088600  0.586900  0.839000  1.0
  O  O1131  1  0.014500  0.913100  0.661000  1.0
  O  O1132  1  0.411400  0.014500  0.661000  1.0
  O  O1133  1  0.514500  0.911400  0.161000  1.0
  O  O1134  1  0.913100  0.411400  0.661000  1.0
  O  O1135  1  0.413100  0.514500  0.161000  1.0
  O  O1136  1  0.911400  0.413100  0.161000  1.0
  Ti  Ti1137  1  0.960480  0.960480  0.118560  1
  Ti  Ti1138  1  0.460480  0.460480  0.618560  1
  Ti  Ti1139  1  0.039520  0.039520  0.881440  1
  Ti  Ti1140  1  0.539520  0.539520  0.381440  1
  Ti  Ti1141  1  0.058370  0.535570  0.386490  1.0
  Ti  Ti1142  1  0.019570  0.058370  0.386490  1.0
  Ti  Ti1143  1  0.535570  0.019570  0.386490  1.0
  Ti  Ti1144  1  0.519570  0.035570  0.886490  1.0
  Ti  Ti1145  1  0.558370  0.519570  0.886490  1.0
  Ti  Ti1146  1  0.035570  0.558370  0.886490  1.0
  Ti  Ti1147  1  0.980430  0.941630  0.613510  1.0
  Ti  Ti1148  1  0.464430  0.980430  0.613510  1.0
  Ti  Ti1149  1  0.480430  0.964430  0.113510  1.0
  Ti  Ti1150  1  0.941630  0.464430  0.613510  1.0
  Ti  Ti1151  1  0.441630  0.480430  0.113510  1.0
  Ti  Ti1152  1  0.964430  0.441630  0.113510  1.0
