# generated using pymatgen
data_Fe8Ni12H622C1036.1S4.6N96O15.4F13.2
_symmetry_space_group_name_H-M   'P 1'
_cell_length_a   31.37060000
_cell_length_b   31.56160000
_cell_length_c   33.57350000
_cell_angle_alpha   65.91000000
_cell_angle_beta   67.46600000
_cell_angle_gamma   62.46400000
_symmetry_Int_Tables_number   1
_chemical_formula_structural   Fe8Ni12H622C1036.1S4.6N96O15.4F13.2
_chemical_formula_sum   'Fe8 Ni12 H622 C1036.1 S4.6 N96 O15.4 F13.2'
_cell_volume   26120.04800516
_cell_formula_units_Z   1
loop_
 _symmetry_equiv_pos_site_id
 _symmetry_equiv_pos_as_xyz
  1  'x, y, z'
loop_
 _atom_site_type_symbol
 _atom_site_label
 _atom_site_symmetry_multiplicity
 _atom_site_fract_x
 _atom_site_fract_y
 _atom_site_fract_z
 _atom_site_occupancy
  Fe  Fe1  1  0.302300  0.474300  0.380890  0.651
  Fe  Fe2  1  0.697700  0.525700  0.619110  0.651
  Fe  Fe3  1  0.015380  0.363320  0.371440  1.0
  Fe  Fe4  1  0.984620  0.636680  0.628560  1.0
  Fe  Fe5  1  0.878190  0.382360  0.820050  1.0
  Fe  Fe6  1  0.121810  0.617640  0.179950  1.0
  Fe  Fe7  1  0.868740  0.793320  0.379740  1.0
  Fe  Fe8  1  0.131260  0.206680  0.620260  1.0
  Fe  Fe9  1  0.328100  0.493800  0.372900  0.349
  Fe  Fe10  1  0.671900  0.506200  0.627100  0.349
  Ni  Ni11  1  0.639800  0.438400  0.413800  0.45
  Ni  Ni12  1  0.360200  0.561600  0.586200  0.45
  Ni  Ni13  1  0.009820  0.028330  0.400510  1.0
  Ni  Ni14  1  0.990180  0.971670  0.599490  1.0
  Ni  Ni15  1  0.010100  0.391810  0.052830  1.0
  Ni  Ni16  1  0.989900  0.608190  0.947170  1.0
  Ni  Ni17  1  0.893850  0.046480  0.062690  1.0
  Ni  Ni18  1  0.106150  0.953520  0.937310  1.0
  Ni  Ni19  1  0.543730  0.101860  0.411810  1.0
  Ni  Ni20  1  0.456270  0.898140  0.588190  1.0
  Ni  Ni21  1  0.556110  0.500180  0.059180  1.0
  Ni  Ni22  1  0.443890  0.499820  0.940820  1.0
  Ni  Ni23  1  0.642400  0.419100  0.404000  0.25
  Ni  Ni24  1  0.357600  0.580900  0.596000  0.25
  Ni  Ni25  1  0.643500  0.472700  0.408100  0.3
  Ni  Ni26  1  0.356500  0.527300  0.591900  0.3
  H  H27  1  0.999100  0.391100  0.455900  1.0
  H  H28  1  0.000900  0.608900  0.544100  1.0
  H  H29  1  0.944100  0.457300  0.485700  1.0
  H  H30  1  0.055900  0.542700  0.514300  1.0
  H  H31  1  0.886300  0.524200  0.446600  1.0
  H  H32  1  0.113700  0.475800  0.553400  1.0
  H  H33  1  0.884700  0.522700  0.377900  1.0
  H  H34  1  0.115300  0.477300  0.622100  1.0
  H  H35  1  0.923000  0.476600  0.317200  1.0
  H  H36  1  0.077000  0.523400  0.682800  1.0
  H  H37  1  0.052000  0.409300  0.258100  1.0
  H  H38  1  0.948000  0.590700  0.741900  1.0
  H  H39  1  0.064600  0.400900  0.187900  1.0
  H  H40  1  0.935400  0.599100  0.812100  1.0
  H  H41  1  0.928400  0.393700  0.225700  1.0
  H  H42  1  0.071600  0.606300  0.774300  1.0
  H  H43  1  0.915800  0.402100  0.295800  1.0
  H  H44  1  0.084200  0.597900  0.704200  1.0
  H  H45  1  0.149000  0.270500  0.048700  1.0
  H  H46  1  0.851000  0.729500  0.951300  1.0
  H  H47  1  0.920600  0.545100  0.015800  1.0
  H  H48  1  0.079400  0.454900  0.984200  1.0
  H  H49  1  0.170800  0.225300  0.112900  1.0
  H  H50  1  0.829200  0.774700  0.887100  1.0
  H  H51  1  0.151100  0.216400  0.166200  1.0
  H  H52  1  0.848900  0.783600  0.833800  1.0
  H  H53  1  0.188300  0.269500  0.161700  1.0
  H  H54  1  0.811700  0.730500  0.838300  1.0
  H  H55  1  0.208700  0.277300  0.108600  1.0
  H  H56  1  0.791300  0.722700  0.891400  1.0
  H  H57  1  0.229100  0.223600  0.142700  1.0
  H  H58  1  0.770900  0.776400  0.857300  1.0
  H  H59  1  0.147600  0.207200  0.980600  1.0
  H  H60  1  0.852400  0.792800  0.019400  1.0
  H  H61  1  0.168700  0.219500  0.009500  1.0
  H  H62  1  0.831300  0.780500  0.990500  1.0
  H  H63  1  0.170300  0.277400  0.918600  1.0
  H  H64  1  0.829700  0.722600  0.081400  1.0
  H  H65  1  0.213500  0.224200  0.929000  1.0
  H  H66  1  0.786500  0.775800  0.071000  1.0
  H  H67  1  0.206000  0.266700  0.948000  1.0
  H  H68  1  0.794000  0.733300  0.052000  1.0
  H  H69  1  0.909600  0.574100  0.942000  1.0
  H  H70  1  0.090400  0.425900  0.058000  1.0
  H  H71  1  0.894900  0.555800  0.912400  1.0
  H  H72  1  0.105100  0.444200  0.087600  1.0
  H  H73  1  0.830300  0.538000  0.983700  1.0
  H  H74  1  0.169700  0.462000  0.016300  1.0
  H  H75  1  0.818600  0.594100  0.952100  1.0
  H  H76  1  0.181400  0.405900  0.047900  1.0
  H  H77  1  0.838000  0.577700  0.995800  1.0
  H  H78  1  0.162000  0.422300  0.004200  1.0
  H  H79  1  0.936200  0.589700  0.045800  1.0
  H  H80  1  0.063800  0.410300  0.954200  1.0
  H  H81  1  0.939800  0.587700  0.093000  1.0
  H  H82  1  0.060200  0.412300  0.907000  1.0
  H  H83  1  0.855000  0.601600  0.070400  1.0
  H  H84  1  0.145000  0.398400  0.929600  1.0
  H  H85  1  0.858100  0.630200  0.098600  1.0
  H  H86  1  0.141900  0.369800  0.901400  1.0
  H  H87  1  0.858000  0.574700  0.121800  1.0
  H  H88  1  0.142000  0.425300  0.878200  1.0
  H  H89  1  0.085600  0.253700  0.220200  1.0
  H  H90  1  0.914400  0.746300  0.779800  1.0
  H  H91  1  0.040600  0.303800  0.228400  1.0
  H  H92  1  0.959400  0.696200  0.771600  1.0
  H  H93  1  0.096500  0.299500  0.218000  1.0
  H  H94  1  0.903500  0.700500  0.782000  1.0
  H  H95  1  0.060800  0.288500  0.917700  1.0
  H  H96  1  0.939200  0.711500  0.082300  1.0
  H  H97  1  0.028400  0.261300  0.961500  1.0
  H  H98  1  0.971600  0.738700  0.038500  1.0
  H  H99  1  0.087400  0.234800  0.948500  1.0
  H  H100  1  0.912600  0.765200  0.051500  1.0
  H  H101  1  0.880400  0.437300  0.942100  1.0
  H  H102  1  0.119600  0.562700  0.057900  1.0
  H  H103  1  0.928300  0.444100  0.903600  1.0
  H  H104  1  0.071700  0.555900  0.096400  1.0
  H  H105  1  0.880800  0.491900  0.913300  1.0
  H  H106  1  0.119200  0.508100  0.086700  1.0
  H  H107  1  0.924500  0.538300  0.168600  1.0
  H  H108  1  0.075500  0.461700  0.831400  1.0
  H  H109  1  0.980500  0.503500  0.171600  1.0
  H  H110  1  0.019500  0.496500  0.828400  1.0
  H  H111  1  0.937200  0.481500  0.198600  1.0
  H  H112  1  0.062800  0.518500  0.801400  1.0
  H  H113  1  0.019400  0.384500  0.886600  1.0
  H  H114  1  0.980600  0.615500  0.113400  1.0
  H  H115  1  0.996100  0.369300  0.836800  1.0
  H  H116  1  0.003900  0.630700  0.163200  1.0
  H  H117  1  0.898400  0.313800  0.940900  1.0
  H  H118  1  0.101600  0.686200  0.059100  1.0
  H  H119  1  0.921700  0.329000  0.990700  1.0
  H  H120  1  0.078300  0.671000  0.009300  1.0
  H  H121  1  0.986500  0.274200  0.847900  1.0
  H  H122  1  0.013500  0.725800  0.152100  1.0
  H  H123  1  0.998800  0.225400  0.795500  1.0
  H  H124  1  0.001200  0.774600  0.204500  1.0
  H  H125  1  0.970700  0.223900  0.741000  1.0
  H  H126  1  0.029300  0.776100  0.259000  1.0
  H  H127  1  0.902500  0.291800  0.716200  1.0
  H  H128  1  0.097500  0.708200  0.283800  1.0
  H  H129  1  0.867400  0.359900  0.743900  1.0
  H  H130  1  0.132600  0.640100  0.256100  1.0
  H  H131  1  0.044900  0.449900  0.359700  1.0
  H  H132  1  0.955100  0.550100  0.640300  1.0
  H  H133  1  0.114400  0.471200  0.319200  1.0
  H  H134  1  0.885600  0.528800  0.680800  1.0
  H  H135  1  0.180900  0.421400  0.275500  1.0
  H  H136  1  0.819100  0.578600  0.724500  1.0
  H  H137  1  0.175700  0.350600  0.273000  1.0
  H  H138  1  0.824300  0.649400  0.727000  1.0
  H  H139  1  0.128800  0.293800  0.301100  1.0
  H  H140  1  0.871200  0.706200  0.698900  1.0
  H  H141  1  0.104600  0.223800  0.384400  1.0
  H  H142  1  0.895400  0.776200  0.615600  1.0
  H  H143  1  0.094500  0.149500  0.398800  1.0
  H  H144  1  0.905500  0.850500  0.601200  1.0
  H  H145  1  0.993500  0.223500  0.323100  1.0
  H  H146  1  0.006500  0.776500  0.676900  1.0
  H  H147  1  0.003600  0.297800  0.308700  1.0
  H  H148  1  0.996400  0.702200  0.691300  1.0
  H  H149  1  0.928100  0.035400  0.531300  1.0
  H  H150  1  0.071900  0.964600  0.468700  1.0
  H  H151  1  0.143400  0.965400  0.312600  1.0
  H  H152  1  0.856600  0.034600  0.687400  1.0
  H  H153  1  0.939800  0.145500  0.540000  1.0
  H  H154  1  0.060200  0.854500  0.460000  1.0
  H  H155  1  0.938400  0.090400  0.558700  1.0
  H  H156  1  0.061600  0.909600  0.441300  1.0
  H  H157  1  0.865500  0.125800  0.528400  1.0
  H  H158  1  0.134500  0.874200  0.471600  1.0
  H  H159  1  0.864800  0.179600  0.520800  1.0
  H  H160  1  0.135200  0.820400  0.479200  1.0
  H  H161  1  0.856200  0.143200  0.570600  1.0
  H  H162  1  0.143800  0.856800  0.429400  1.0
  H  H163  1  0.893700  0.978400  0.574300  1.0
  H  H164  1  0.106300  0.021600  0.425700  1.0
  H  H165  1  0.871000  0.943700  0.571600  1.0
  H  H166  1  0.129000  0.056300  0.428400  1.0
  H  H167  1  0.828900  0.049400  0.537800  1.0
  H  H168  1  0.171100  0.950600  0.462200  1.0
  H  H169  1  0.810300  0.021800  0.589400  1.0
  H  H170  1  0.189700  0.978200  0.410600  1.0
  H  H171  1  0.803300  0.010400  0.550500  1.0
  H  H172  1  0.196700  0.989600  0.449500  1.0
  H  H173  1  0.134800  0.933800  0.263600  1.0
  H  H174  1  0.865200  0.066200  0.736400  1.0
  H  H175  1  0.106300  0.901300  0.266300  1.0
  H  H176  1  0.893700  0.098700  0.733700  1.0
  H  H177  1  0.137200  0.845700  0.335800  1.0
  H  H178  1  0.862800  0.154300  0.664200  1.0
  H  H179  1  0.177000  0.872200  0.314400  1.0
  H  H180  1  0.823000  0.127800  0.685600  1.0
  H  H181  1  0.174800  0.841200  0.288100  1.0
  H  H182  1  0.825200  0.158800  0.711900  1.0
  H  H183  1  0.188100  0.066500  0.248600  1.0
  H  H184  1  0.811900  0.933500  0.751400  1.0
  H  H185  1  0.185200  0.012300  0.265200  1.0
  H  H186  1  0.814800  0.987700  0.734800  1.0
  H  H187  1  0.218800  0.038300  0.316900  1.0
  H  H188  1  0.781200  0.961700  0.683100  1.0
  H  H189  1  0.257300  0.015800  0.276200  1.0
  H  H190  1  0.742700  0.984200  0.723800  1.0
  H  H191  1  0.228600  0.983300  0.318400  1.0
  H  H192  1  0.771400  0.016700  0.681600  1.0
  H  H193  1  0.945500  0.206800  0.474900  1.0
  H  H194  1  0.054500  0.793200  0.525100  1.0
  H  H195  1  0.960000  0.221700  0.421100  1.0
  H  H196  1  0.040000  0.778300  0.578900  1.0
  H  H197  1  0.002400  0.195100  0.448100  1.0
  H  H198  1  0.997600  0.804900  0.551900  1.0
  H  H199  1  0.866500  0.915100  0.527400  1.0
  H  H200  1  0.133500  0.084900  0.472600  1.0
  H  H201  1  0.903100  0.891900  0.486700  1.0
  H  H202  1  0.096900  0.108100  0.513300  1.0
  H  H203  1  0.853400  0.939200  0.479400  1.0
  H  H204  1  0.146600  0.060800  0.520600  1.0
  H  H205  1  0.031200  0.905400  0.285100  1.0
  H  H206  1  0.968800  0.094600  0.714900  1.0
  H  H207  1  0.976300  0.936600  0.308000  1.0
  H  H208  1  0.023700  0.063400  0.692000  1.0
  H  H209  1  0.003900  0.880500  0.334400  1.0
  H  H210  1  0.996100  0.119500  0.665600  1.0
  H  H211  1  0.146600  0.144900  0.309400  1.0
  H  H212  1  0.853400  0.855100  0.690600  1.0
  H  H213  1  0.101900  0.173900  0.285000  1.0
  H  H214  1  0.898100  0.826100  0.715000  1.0
  H  H215  1  0.153100  0.136600  0.263100  1.0
  H  H216  1  0.846900  0.863400  0.736900  1.0
  H  H217  1  0.984900  0.857400  0.418700  1.0
  H  H218  1  0.015100  0.142600  0.581300  1.0
  H  H219  1  0.942600  0.810200  0.423500  1.0
  H  H220  1  0.057400  0.189800  0.576500  1.0
  H  H221  1  0.827800  0.937000  0.388600  1.0
  H  H222  1  0.172200  0.063000  0.611400  1.0
  H  H223  1  0.870100  0.984200  0.383800  1.0
  H  H224  1  0.129900  0.015800  0.616200  1.0
  H  H225  1  0.805400  0.858500  0.469800  1.0
  H  H226  1  0.194600  0.141500  0.530200  1.0
  H  H227  1  0.745700  0.812300  0.518600  1.0
  H  H228  1  0.254300  0.187700  0.481400  1.0
  H  H229  1  0.714500  0.752300  0.530900  1.0
  H  H230  1  0.285500  0.247700  0.469100  1.0
  H  H231  1  0.748700  0.705300  0.479600  1.0
  H  H232  1  0.251300  0.294700  0.520400  1.0
  H  H233  1  0.814800  0.717000  0.420000  1.0
  H  H234  1  0.185200  0.283000  0.580000  1.0
  H  H235  1  0.967100  0.385800  0.736200  1.0
  H  H236  1  0.032900  0.614200  0.263800  1.0
  H  H237  1  0.022000  0.427600  0.706200  1.0
  H  H238  1  0.978000  0.572400  0.293800  1.0
  H  H239  1  0.008100  0.490200  0.735000  1.0
  H  H240  1  0.991900  0.509800  0.265000  1.0
  H  H241  1  0.938900  0.509300  0.794600  1.0
  H  H242  1  0.061100  0.490700  0.205400  1.0
  H  H243  1  0.859800  0.492900  0.847200  1.0
  H  H244  1  0.140200  0.507100  0.152800  1.0
  H  H245  1  0.765100  0.493400  0.841500  1.0
  H  H246  1  0.234900  0.506600  0.158500  1.0
  H  H247  1  0.688900  0.512100  0.893900  1.0
  H  H248  1  0.311100  0.487900  0.106100  1.0
  H  H249  1  0.756500  0.414800  0.995000  1.0
  H  H250  1  0.243500  0.585200  0.005000  1.0
  H  H251  1  0.832700  0.396100  0.942500  1.0
  H  H252  1  0.167300  0.603900  0.057500  1.0
  H  H253  1  0.552500  0.635600  0.056700  1.0
  H  H254  1  0.447500  0.364400  0.943300  1.0
  H  H255  1  0.504800  0.430400  0.012500  1.0
  H  H256  1  0.495200  0.569600  0.987500  1.0
  H  H257  1  0.681400  0.630500  0.995200  1.0
  H  H258  1  0.318600  0.369500  0.004800  1.0
  H  H259  1  0.625200  0.651800  0.022600  1.0
  H  H260  1  0.374800  0.348200  0.977400  1.0
  H  H261  1  0.650000  0.665700  0.927700  1.0
  H  H262  1  0.350000  0.334300  0.072300  1.0
  H  H263  1  0.644600  0.706600  0.947500  1.0
  H  H264  1  0.355400  0.293400  0.052500  1.0
  H  H265  1  0.597500  0.693500  0.956700  1.0
  H  H266  1  0.402500  0.306500  0.043300  1.0
  H  H267  1  0.530400  0.650300  0.124600  1.0
  H  H268  1  0.469600  0.349700  0.875400  1.0
  H  H269  1  0.504400  0.632400  0.176700  1.0
  H  H270  1  0.495600  0.367600  0.823300  1.0
  H  H271  1  0.444900  0.684300  0.113200  1.0
  H  H272  1  0.555100  0.315700  0.886800  1.0
  H  H273  1  0.458200  0.715500  0.131200  1.0
  H  H274  1  0.541800  0.284500  0.868800  1.0
  H  H275  1  0.427400  0.680700  0.165600  1.0
  H  H276  1  0.572600  0.319300  0.834400  1.0
  H  H277  1  0.424700  0.437800  0.045400  1.0
  H  H278  1  0.575300  0.562200  0.954600  1.0
  H  H279  1  0.385800  0.435500  0.093300  1.0
  H  H280  1  0.614200  0.564500  0.906700  1.0
  H  H281  1  0.476500  0.354000  0.078400  1.0
  H  H282  1  0.523500  0.646000  0.921600  1.0
  H  H283  1  0.425500  0.357400  0.075000  1.0
  H  H284  1  0.574500  0.642600  0.925000  1.0
  H  H285  1  0.431600  0.352500  0.122100  1.0
  H  H286  1  0.568400  0.647500  0.877900  1.0
  H  H287  1  0.626400  0.339700  0.966200  1.0
  H  H288  1  0.373600  0.660300  0.033800  1.0
  H  H289  1  0.567600  0.363300  0.985700  1.0
  H  H290  1  0.432400  0.636700  0.014300  1.0
  H  H291  1  0.565200  0.431000  0.916300  1.0
  H  H292  1  0.434800  0.569000  0.083700  1.0
  H  H293  1  0.579700  0.378600  0.908800  1.0
  H  H294  1  0.420300  0.621400  0.091200  1.0
  H  H295  1  0.621900  0.399900  0.897100  1.0
  H  H296  1  0.378100  0.600100  0.102900  1.0
  H  H297  1  0.730000  0.550800  0.926000  1.0
  H  H298  1  0.270000  0.449200  0.074000  1.0
  H  H299  1  0.748200  0.518400  0.971500  1.0
  H  H300  1  0.251800  0.481600  0.028500  1.0
  H  H301  1  0.731500  0.577700  0.956500  1.0
  H  H302  1  0.268500  0.422300  0.043500  1.0
  H  H303  1  0.489700  0.564100  0.226600  1.0
  H  H304  1  0.510300  0.435900  0.773400  1.0
  H  H305  1  0.470900  0.520900  0.235700  1.0
  H  H306  1  0.529100  0.479100  0.764300  1.0
  H  H307  1  0.434300  0.577800  0.225100  1.0
  H  H308  1  0.565700  0.422200  0.774900  1.0
  H  H309  1  0.370900  0.479200  0.175600  1.0
  H  H310  1  0.629100  0.520800  0.824400  1.0
  H  H311  1  0.400600  0.421600  0.196600  1.0
  H  H312  1  0.599400  0.578400  0.803400  1.0
  H  H313  1  0.371600  0.437500  0.159500  1.0
  H  H314  1  0.628400  0.562500  0.840500  1.0
  H  H315  1  0.695500  0.350900  0.949000  1.0
  H  H316  1  0.304500  0.649100  0.051000  1.0
  H  H317  1  0.723200  0.374700  0.960500  1.0
  H  H318  1  0.276800  0.625300  0.039500  1.0
  H  H319  1  0.706400  0.399700  0.914200  1.0
  H  H320  1  0.293600  0.600300  0.085800  1.0
  H  H321  1  0.385600  0.551900  0.197600  1.0
  H  H322  1  0.614400  0.448100  0.802400  1.0
  H  H323  1  0.330500  0.534500  0.267100  1.0
  H  H324  1  0.669500  0.465500  0.732900  1.0
  H  H325  1  0.425500  0.391500  0.297100  1.0
  H  H326  1  0.574500  0.608500  0.702900  1.0
  H  H327  1  0.480600  0.408900  0.227600  1.0
  H  H328  1  0.519400  0.591100  0.772400  1.0
  H  H329  1  0.895700  0.701200  0.462800  1.0
  H  H330  1  0.104300  0.298800  0.537200  1.0
  H  H331  1  0.968500  0.647300  0.485900  1.0
  H  H332  1  0.031500  0.352700  0.514100  1.0
  H  H333  1  0.043800  0.656800  0.441200  1.0
  H  H334  1  0.956200  0.343200  0.558800  1.0
  H  H335  1  0.044000  0.721500  0.373700  1.0
  H  H336  1  0.956000  0.278500  0.626300  1.0
  H  H337  1  0.994200  0.798000  0.317700  1.0
  H  H338  1  0.005800  0.202000  0.682300  1.0
  H  H339  1  0.918000  0.807900  0.261200  1.0
  H  H340  1  0.082000  0.192100  0.738800  1.0
  H  H341  1  0.912100  0.867000  0.191200  1.0
  H  H342  1  0.087900  0.133000  0.808800  1.0
  H  H343  1  0.905400  0.969000  0.239600  1.0
  H  H344  1  0.094600  0.031000  0.760400  1.0
  H  H345  1  0.911300  0.909900  0.309600  1.0
  H  H346  1  0.088700  0.090100  0.690400  1.0
  H  H347  1  0.049000  0.012900  0.015200  1.0
  H  H348  1  0.951000  0.987100  0.984800  1.0
  H  H349  1  0.762600  0.033500  0.067800  1.0
  H  H350  1  0.237400  0.966500  0.932200  1.0
  H  H351  1  0.093500  0.928700  0.048100  1.0
  H  H352  1  0.906500  0.071300  0.951900  1.0
  H  H353  1  0.096900  0.891300  0.097300  1.0
  H  H354  1  0.903100  0.108700  0.902700  1.0
  H  H355  1  0.103300  0.987900  0.066200  1.0
  H  H356  1  0.896700  0.012100  0.933800  1.0
  H  H357  1  0.148100  0.936000  0.076700  1.0
  H  H358  1  0.851900  0.064000  0.923300  1.0
  H  H359  1  0.102700  0.953500  0.116800  1.0
  H  H360  1  0.897300  0.046500  0.883200  1.0
  H  H361  1  0.054900  0.135700  0.963300  1.0
  H  H362  1  0.945100  0.864300  0.036700  1.0
  H  H363  1  0.073500  0.076200  0.982000  1.0
  H  H364  1  0.926500  0.923800  0.018000  1.0
  H  H365  1  0.049000  0.119800  0.898100  1.0
  H  H366  1  0.951000  0.880200  0.101900  1.0
  H  H367  1  0.089800  0.066700  0.914900  1.0
  H  H368  1  0.910200  0.933300  0.085100  1.0
  H  H369  1  0.100900  0.116500  0.899400  1.0
  H  H370  1  0.899100  0.883500  0.100600  1.0
  H  H371  1  0.700200  0.151200  0.997900  1.0
  H  H372  1  0.299800  0.848800  0.002100  1.0
  H  H373  1  0.711600  0.094900  0.029100  1.0
  H  H374  1  0.288400  0.905100  0.970900  1.0
  H  H375  1  0.752400  0.121700  0.934100  1.0
  H  H376  1  0.247600  0.878300  0.065900  1.0
  H  H377  1  0.708300  0.100700  0.957600  1.0
  H  H378  1  0.291700  0.899300  0.042400  1.0
  H  H379  1  0.762600  0.065600  0.965400  1.0
  H  H380  1  0.237400  0.934400  0.034600  1.0
  H  H381  1  0.718200  0.007900  0.136100  1.0
  H  H382  1  0.281800  0.992100  0.863900  1.0
  H  H383  1  0.720000  0.978400  0.187800  1.0
  H  H384  1  0.280000  0.021600  0.812200  1.0
  H  H385  1  0.771500  0.931100  0.116600  1.0
  H  H386  1  0.228500  0.068900  0.883400  1.0
  H  H387  1  0.720200  0.927300  0.150400  1.0
  H  H388  1  0.279800  0.072700  0.849600  1.0
  H  H389  1  0.769000  0.902500  0.168900  1.0
  H  H390  1  0.231000  0.097500  0.831100  1.0
  H  H391  1  0.003100  0.870900  0.187600  1.0
  H  H392  1  0.996900  0.129100  0.812400  1.0
  H  H393  1  0.006000  0.911800  0.202100  1.0
  H  H394  1  0.994000  0.088200  0.797900  1.0
  H  H395  1  0.052800  0.882600  0.169200  1.0
  H  H396  1  0.947200  0.117400  0.830800  1.0
  H  H397  1  0.990700  0.202600  0.942700  1.0
  H  H398  1  0.009300  0.797400  0.057300  1.0
  H  H399  1  0.931500  0.225200  0.957700  1.0
  H  H400  1  0.068500  0.774800  0.042300  1.0
  H  H401  1  0.958300  0.208300  0.912500  1.0
  H  H402  1  0.041700  0.791700  0.087500  1.0
  H  H403  1  0.729500  0.207500  0.960700  1.0
  H  H404  1  0.270500  0.792500  0.039300  1.0
  H  H405  1  0.781900  0.206000  0.926100  1.0
  H  H406  1  0.218100  0.794000  0.073900  1.0
  H  H407  1  0.762000  0.231200  0.965700  1.0
  H  H408  1  0.238000  0.768800  0.034300  1.0
  H  H409  1  0.764700  0.961700  0.238100  1.0
  H  H410  1  0.235300  0.038300  0.761900  1.0
  H  H411  1  0.819400  0.945200  0.242900  1.0
  H  H412  1  0.180600  0.054800  0.757100  1.0
  H  H413  1  0.805600  0.909100  0.231600  1.0
  H  H414  1  0.194400  0.090900  0.768400  1.0
  H  H415  1  0.886500  0.182900  0.897900  1.0
  H  H416  1  0.113500  0.817100  0.102100  1.0
  H  H417  1  0.870700  0.260800  0.844300  1.0
  H  H418  1  0.129300  0.739200  0.155700  1.0
  H  H419  1  0.808200  0.328400  0.943500  1.0
  H  H420  1  0.191800  0.671600  0.056500  1.0
  H  H421  1  0.823900  0.250500  0.997100  1.0
  H  H422  1  0.176100  0.749500  0.002900  1.0
  H  H423  1  0.761800  0.357900  0.856800  1.0
  H  H424  1  0.238200  0.642100  0.143200  1.0
  H  H425  1  0.711600  0.437900  0.806200  1.0
  H  H426  1  0.288400  0.562100  0.193800  1.0
  H  H427  1  0.710400  0.511100  0.747400  1.0
  H  H428  1  0.289600  0.488900  0.252600  1.0
  H  H429  1  0.782400  0.530600  0.714900  1.0
  H  H430  1  0.217600  0.469400  0.285100  1.0
  H  H431  1  0.853700  0.475100  0.739400  1.0
  H  H432  1  0.146300  0.524900  0.260600  1.0
  H  H433  1  0.937600  0.690300  0.364000  1.0
  H  H434  1  0.062400  0.309700  0.636000  1.0
  H  H435  1  0.949300  0.647200  0.316300  1.0
  H  H436  1  0.050700  0.352800  0.683700  1.0
  H  H437  1  0.894200  0.679500  0.270800  1.0
  H  H438  1  0.105800  0.320500  0.729200  1.0
  H  H439  1  0.828100  0.755700  0.273800  1.0
  H  H440  1  0.171900  0.244300  0.726200  1.0
  H  H441  1  0.783100  0.830000  0.312500  1.0
  H  H442  1  0.216900  0.170000  0.687500  1.0
  H  H443  1  0.726700  0.838500  0.391000  1.0
  H  H444  1  0.273300  0.161500  0.609000  1.0
  H  H445  1  0.656100  0.906300  0.408500  1.0
  H  H446  1  0.343900  0.093700  0.591500  1.0
  H  H447  1  0.736600  0.995600  0.345300  1.0
  H  H448  1  0.263400  0.004400  0.654700  1.0
  H  H449  1  0.807200  0.927800  0.327900  1.0
  H  H450  1  0.192800  0.072200  0.672100  1.0
  H  H451  1  0.466700  0.093000  0.337800  1.0
  H  H452  1  0.533300  0.907000  0.662200  1.0
  H  H453  1  0.573200  0.074900  0.535400  1.0
  H  H454  1  0.426800  0.925100  0.464600  1.0
  H  H455  1  0.571200  0.017300  0.262600  1.0
  H  H456  1  0.428800  0.982700  0.737400  1.0
  H  H457  1  0.518700  0.058200  0.277700  1.0
  H  H458  1  0.481300  0.941800  0.722300  1.0
  H  H459  1  0.518800  0.974700  0.344500  1.0
  H  H460  1  0.481200  0.025300  0.655500  1.0
  H  H461  1  0.541800  0.957100  0.299800  1.0
  H  H462  1  0.458200  0.042900  0.700200  1.0
  H  H463  1  0.487800  0.999200  0.307100  1.0
  H  H464  1  0.512200  0.000800  0.692900  1.0
  H  H465  1  0.382100  0.228000  0.299900  1.0
  H  H466  1  0.617900  0.772000  0.700100  1.0
  H  H467  1  0.422700  0.177800  0.287100  1.0
  H  H468  1  0.577300  0.822200  0.712900  1.0
  H  H469  1  0.382700  0.136800  0.366900  1.0
  H  H470  1  0.617300  0.863200  0.633100  1.0
  H  H471  1  0.358700  0.151700  0.326500  1.0
  H  H472  1  0.641300  0.848300  0.673500  1.0
  H  H473  1  0.336000  0.187300  0.358200  1.0
  H  H474  1  0.664000  0.812700  0.641800  1.0
  H  H475  1  0.532600  0.135900  0.570900  1.0
  H  H476  1  0.467400  0.864100  0.429100  1.0
  H  H477  1  0.495100  0.192900  0.563700  1.0
  H  H478  1  0.504900  0.807100  0.436300  1.0
  H  H479  1  0.598000  0.168500  0.515800  1.0
  H  H480  1  0.402000  0.831500  0.484200  1.0
  H  H481  1  0.579800  0.179800  0.563100  1.0
  H  H482  1  0.420200  0.820200  0.436900  1.0
  H  H483  1  0.559800  0.222500  0.520900  1.0
  H  H484  1  0.440200  0.777500  0.479100  1.0
  H  H485  1  0.636500  0.017900  0.553100  1.0
  H  H486  1  0.363500  0.982100  0.446900  1.0
  H  H487  1  0.681400  0.968100  0.543500  1.0
  H  H488  1  0.318600  0.031900  0.456500  1.0
  H  H489  1  0.579200  0.979200  0.582800  1.0
  H  H490  1  0.420800  0.020800  0.417200  1.0
  H  H491  1  0.624800  0.939500  0.604800  1.0
  H  H492  1  0.375200  0.060500  0.395200  1.0
  H  H493  1  0.617500  0.932800  0.563400  1.0
  H  H494  1  0.382500  0.067200  0.436600  1.0
  H  H495  1  0.644900  0.972900  0.277100  1.0
  H  H496  1  0.355100  0.027100  0.722900  1.0
  H  H497  1  0.668400  0.941300  0.319900  1.0
  H  H498  1  0.331600  0.058700  0.680100  1.0
  H  H499  1  0.681300  0.989200  0.285700  1.0
  H  H500  1  0.318700  0.010800  0.714300  1.0
  H  H501  1  0.374800  0.279900  0.324200  1.0
  H  H502  1  0.625200  0.720100  0.675800  1.0
  H  H503  1  0.416900  0.296300  0.322400  1.0
  H  H504  1  0.583100  0.703700  0.677600  1.0
  H  H505  1  0.375000  0.288800  0.367800  1.0
  H  H506  1  0.625000  0.711200  0.632200  1.0
  H  H507  1  0.432500  0.266500  0.502600  1.0
  H  H508  1  0.567500  0.733500  0.497400  1.0
  H  H509  1  0.469300  0.286100  0.457700  1.0
  H  H510  1  0.530700  0.713900  0.542300  1.0
  H  H511  1  0.484100  0.263000  0.504900  1.0
  H  H512  1  0.515900  0.737000  0.495100  1.0
  H  H513  1  0.718300  0.923200  0.491800  1.0
  H  H514  1  0.281700  0.076800  0.508200  1.0
  H  H515  1  0.735700  0.944700  0.438500  1.0
  H  H516  1  0.264300  0.055300  0.561500  1.0
  H  H517  1  0.704000  0.909600  0.458800  1.0
  H  H518  1  0.296000  0.090400  0.541200  1.0
  H  H519  1  0.802400  0.401900  0.463100  1.0
  H  H520  1  0.197600  0.598100  0.536900  1.0
  H  H521  1  0.885200  0.373500  0.464600  1.0
  H  H522  1  0.114800  0.626500  0.535400  1.0
  H  H523  1  0.928600  0.327400  0.354100  1.0
  H  H524  1  0.071400  0.672600  0.645900  1.0
  H  H525  1  0.845800  0.355800  0.352600  1.0
  H  H526  1  0.154200  0.644200  0.647400  1.0
  H  H527  1  0.954800  0.282000  0.466900  1.0
  H  H528  1  0.045200  0.718000  0.533100  1.0
  H  H529  1  0.031600  0.219500  0.501100  1.0
  H  H530  1  0.968400  0.780500  0.498900  1.0
  H  H531  1  0.113000  0.200500  0.501500  1.0
  H  H532  1  0.887000  0.799500  0.498500  1.0
  H  H533  1  0.154900  0.254000  0.449200  1.0
  H  H534  1  0.845100  0.746000  0.550800  1.0
  H  H535  1  0.113300  0.326000  0.401000  1.0
  H  H536  1  0.886700  0.674000  0.599000  1.0
  H  H537  1  0.615300  0.558300  0.416600  0.25
  H  H538  1  0.384700  0.441700  0.583400  0.25
  H  H539  1  0.660600  0.269300  0.432700  0.25
  H  H540  1  0.339400  0.730700  0.567300  0.25
  H  H541  1  0.598300  0.292400  0.339000  0.25
  H  H542  1  0.401700  0.707600  0.661000  0.25
  H  H543  1  0.606600  0.260300  0.388700  0.25
  H  H544  1  0.393400  0.739700  0.611300  0.25
  H  H545  1  0.682600  0.238400  0.333333  0.25
  H  H546  1  0.317400  0.761600  0.666667  0.25
  H  H547  1  0.688000  0.261300  0.365000  0.25
  H  H548  1  0.312000  0.738700  0.635000  0.25
  H  H549  1  0.679700  0.294800  0.315800  0.25
  H  H550  1  0.320300  0.705200  0.684200  0.25
  H  H551  1  0.511200  0.423800  0.324500  0.25
  H  H552  1  0.488800  0.576200  0.675500  0.25
  H  H553  1  0.520700  0.366000  0.336800  0.25
  H  H554  1  0.479300  0.634000  0.663200  0.25
  H  H555  1  0.560100  0.388700  0.297900  0.25
  H  H556  1  0.439900  0.611300  0.702100  0.25
  H  H557  1  0.648900  0.610300  0.330400  0.3
  H  H558  1  0.351100  0.389700  0.669600  0.3
  H  H559  1  0.607100  0.377900  0.542400  0.3
  H  H560  1  0.392900  0.622100  0.457600  0.3
  H  H561  1  0.565300  0.673300  0.325700  0.3
  H  H562  1  0.434700  0.326700  0.674300  0.3
  H  H563  1  0.514400  0.679400  0.319500  0.3
  H  H564  1  0.485600  0.320600  0.680500  0.3
  H  H565  1  0.559500  0.717700  0.250500  0.3
  H  H566  1  0.440500  0.282300  0.749500  0.3
  H  H567  1  0.554600  0.672000  0.245200  0.3
  H  H568  1  0.445400  0.328000  0.754800  0.3
  H  H569  1  0.605400  0.665900  0.251400  0.3
  H  H570  1  0.394600  0.334100  0.748600  0.3
  H  H571  1  0.705600  0.624100  0.351700  0.3
  H  H572  1  0.294400  0.375900  0.648300  0.3
  H  H573  1  0.764700  0.597200  0.342300  0.3
  H  H574  1  0.235300  0.402800  0.657700  0.3
  H  H575  1  0.740100  0.649400  0.274200  0.3
  H  H576  1  0.259900  0.350600  0.725800  0.3
  H  H577  1  0.708400  0.617500  0.282400  0.3
  H  H578  1  0.291600  0.382500  0.717600  0.3
  H  H579  1  0.767500  0.592600  0.272900  0.3
  H  H580  1  0.232500  0.407400  0.727100  0.3
  H  H581  1  0.672800  0.313400  0.574200  0.3
  H  H582  1  0.327200  0.686600  0.425800  0.3
  H  H583  1  0.731900  0.286900  0.561800  0.3
  H  H584  1  0.268100  0.713100  0.438200  0.3
  H  H585  1  0.695400  0.232700  0.568100  0.3
  H  H586  1  0.304600  0.767300  0.431900  0.3
  H  H587  1  0.725400  0.248500  0.517200  0.3
  H  H588  1  0.274600  0.751500  0.482800  0.3
  H  H589  1  0.666400  0.274300  0.530600  0.3
  H  H590  1  0.333600  0.725700  0.469400  0.3
  H  H591  1  0.544700  0.348700  0.556300  0.3
  H  H592  1  0.455300  0.651300  0.443700  0.3
  H  H593  1  0.500600  0.356300  0.537900  0.3
  H  H594  1  0.499400  0.643700  0.462100  0.3
  H  H595  1  0.467600  0.382000  0.605000  0.3
  H  H596  1  0.532400  0.618000  0.395000  0.3
  H  H597  1  0.449900  0.428300  0.563600  0.3
  H  H598  1  0.550100  0.571700  0.436400  0.3
  H  H599  1  0.494000  0.422100  0.581000  0.3
  H  H600  1  0.506000  0.577900  0.419000  0.3
  H  H601  1  0.489100  0.569900  0.314200  0.3
  H  H602  1  0.510900  0.430100  0.685800  0.3
  H  H603  1  0.519200  0.601900  0.273100  0.3
  H  H604  1  0.480800  0.398100  0.726900  0.3
  H  H605  1  0.475500  0.626700  0.310500  0.3
  H  H606  1  0.524500  0.373300  0.689500  0.3
  H  H607  1  0.838000  0.457100  0.347200  0.3
  H  H608  1  0.162000  0.542900  0.652800  0.3
  H  H609  1  0.831300  0.508000  0.352700  0.3
  H  H610  1  0.168700  0.492000  0.647300  0.3
  H  H611  1  0.825100  0.507700  0.307700  0.3
  H  H612  1  0.174900  0.492300  0.692300  0.3
  H  H613  1  0.822200  0.312900  0.450300  0.3
  H  H614  1  0.177800  0.687100  0.549700  0.3
  H  H615  1  0.798500  0.271000  0.479100  0.3
  H  H616  1  0.201500  0.729000  0.520900  0.3
  H  H617  1  0.805100  0.300600  0.503900  0.3
  H  H618  1  0.194900  0.699400  0.496100  0.3
  H  H619  1  0.453700  0.460700  0.435600  0.3
  H  H620  1  0.546300  0.539300  0.564400  0.3
  H  H621  1  0.436400  0.455300  0.488400  0.3
  H  H622  1  0.563600  0.544700  0.511600  0.3
  H  H623  1  0.460900  0.406800  0.471200  0.3
  H  H624  1  0.539100  0.593200  0.528800  0.3
  H  H625  1  0.247100  0.462100  0.459100  0.349
  H  H626  1  0.752900  0.537900  0.540900  0.349
  H  H627  1  0.211900  0.401400  0.491900  0.349
  H  H628  1  0.788100  0.598600  0.508100  0.349
  H  H629  1  0.224400  0.350500  0.450500  0.349
  H  H630  1  0.775600  0.649500  0.549500  0.349
  H  H631  1  0.273100  0.361500  0.376400  0.349
  H  H632  1  0.726900  0.638500  0.623600  0.349
  H  H633  1  0.329500  0.402400  0.313300  0.349
  H  H634  1  0.670500  0.597600  0.686700  0.349
  H  H635  1  0.241100  0.577700  0.417000  0.349
  H  H636  1  0.758900  0.422300  0.583000  0.349
  H  H637  1  0.236400  0.604700  0.474000  0.349
  H  H638  1  0.763600  0.395300  0.526000  0.349
  H  H639  1  0.290000  0.554000  0.522100  0.349
  H  H640  1  0.710000  0.446000  0.477900  0.349
  H  H641  1  0.348300  0.476600  0.511500  0.349
  H  H642  1  0.651700  0.523400  0.488500  0.349
  H  H643  1  0.390100  0.416000  0.465600  0.349
  H  H644  1  0.609900  0.584000  0.534400  0.349
  H  H645  1  0.216300  0.536200  0.364800  0.349
  H  H646  1  0.783700  0.463800  0.635200  0.349
  H  H647  1  0.167600  0.606900  0.320600  0.349
  H  H648  1  0.832400  0.393100  0.679400  0.349
  H  H649  1  0.197700  0.670700  0.272700  0.349
  H  H650  1  0.802300  0.329300  0.727300  0.349
  H  H651  1  0.277400  0.661600  0.269800  0.349
  H  H652  1  0.722600  0.338400  0.730200  0.349
  H  H653  1  0.358200  0.608600  0.292100  0.349
  H  H654  1  0.641800  0.391400  0.707900  0.349
  H  H655  1  0.456200  0.385400  0.360000  0.349
  H  H656  1  0.543800  0.614600  0.640000  0.349
  H  H657  1  0.494800  0.302500  0.357900  0.349
  H  H658  1  0.505200  0.697500  0.642100  0.349
  H  H659  1  0.378900  0.270700  0.454400  0.349
  H  H660  1  0.621100  0.729300  0.545600  0.349
  H  H661  1  0.340300  0.353600  0.456500  0.349
  H  H662  1  0.659700  0.646400  0.543500  0.349
  H  H663  1  0.529300  0.471100  0.332600  0.349
  H  H664  1  0.470700  0.528900  0.667400  0.349
  H  H665  1  0.440500  0.560000  0.414700  0.349
  H  H666  1  0.559500  0.440000  0.585300  0.349
  H  H667  1  0.372400  0.577200  0.389900  0.349
  H  H668  1  0.627600  0.422800  0.610100  0.349
  H  H669  1  0.461200  0.488300  0.307800  0.349
  H  H670  1  0.538800  0.511700  0.692200  0.349
  H  H671  1  0.622000  0.583900  0.380100  0.45
  H  H672  1  0.378000  0.416100  0.619900  0.45
  H  H673  1  0.632000  0.296400  0.511100  0.45
  H  H674  1  0.368000  0.703600  0.488900  0.45
  H  H675  1  0.541100  0.646500  0.366100  0.45
  H  H676  1  0.458900  0.353500  0.633900  0.45
  H  H677  1  0.501800  0.655200  0.341300  0.45
  H  H678  1  0.498200  0.344800  0.658700  0.45
  H  H679  1  0.566000  0.684000  0.287900  0.45
  H  H680  1  0.434000  0.316000  0.712100  0.45
  H  H681  1  0.566800  0.638800  0.276800  0.45
  H  H682  1  0.433200  0.361200  0.723200  0.45
  H  H683  1  0.606300  0.629400  0.301500  0.45
  H  H684  1  0.393700  0.370600  0.698500  0.45
  H  H685  1  0.746300  0.578100  0.363900  0.45
  H  H686  1  0.253700  0.421900  0.636100  0.45
  H  H687  1  0.687700  0.597400  0.384800  0.45
  H  H688  1  0.312300  0.402600  0.615200  0.45
  H  H689  1  0.705200  0.641300  0.307800  0.45
  H  H690  1  0.294800  0.358700  0.692200  0.45
  H  H691  1  0.674100  0.609100  0.315500  0.45
  H  H692  1  0.325900  0.390900  0.684500  0.45
  H  H693  1  0.732600  0.590000  0.294600  0.45
  H  H694  1  0.267400  0.410000  0.705400  0.45
  H  H695  1  0.697200  0.237100  0.527900  0.45
  H  H696  1  0.302800  0.762900  0.472100  0.45
  H  H697  1  0.755200  0.222400  0.521600  0.45
  H  H698  1  0.244800  0.777600  0.478400  0.45
  H  H699  1  0.744000  0.171500  0.493100  0.45
  H  H700  1  0.256000  0.828500  0.506900  0.45
  H  H701  1  0.772600  0.205500  0.452800  0.45
  H  H702  1  0.227400  0.794500  0.547200  0.45
  H  H703  1  0.714700  0.220000  0.459300  0.45
  H  H704  1  0.285300  0.780000  0.540700  0.45
  H  H705  1  0.574000  0.272200  0.517100  0.45
  H  H706  1  0.426000  0.727800  0.482900  0.45
  H  H707  1  0.521500  0.291200  0.506000  0.45
  H  H708  1  0.478500  0.708800  0.494000  0.45
  H  H709  1  0.540400  0.310200  0.572400  0.45
  H  H710  1  0.459600  0.689800  0.427600  0.45
  H  H711  1  0.495800  0.295100  0.577800  0.45
  H  H712  1  0.504200  0.704900  0.422200  0.45
  H  H713  1  0.494300  0.350800  0.551300  0.45
  H  H714  1  0.505700  0.649200  0.448700  0.45
  H  H715  1  0.474300  0.553900  0.331500  0.45
  H  H716  1  0.525700  0.446100  0.668500  0.45
  H  H717  1  0.497100  0.596100  0.299600  0.45
  H  H718  1  0.502900  0.403900  0.700400  0.45
  H  H719  1  0.456100  0.603700  0.345200  0.45
  H  H720  1  0.543900  0.396300  0.654800  0.45
  H  H721  1  0.830100  0.446700  0.359600  0.45
  H  H722  1  0.169900  0.553300  0.640400  0.45
  H  H723  1  0.813900  0.493300  0.377300  0.45
  H  H724  1  0.186100  0.506700  0.622700  0.45
  H  H725  1  0.814600  0.502000  0.326700  0.45
  H  H726  1  0.185400  0.498000  0.673300  0.45
  H  H727  1  0.834900  0.299200  0.438600  0.45
  H  H728  1  0.165100  0.700800  0.561400  0.45
  H  H729  1  0.828800  0.247700  0.449500  0.45
  H  H730  1  0.171200  0.752300  0.550500  0.45
  H  H731  1  0.815400  0.270300  0.489400  0.45
  H  H732  1  0.184600  0.729700  0.510600  0.45
  H  H733  1  0.459000  0.415300  0.429200  0.45
  H  H734  1  0.541000  0.584700  0.570800  0.45
  H  H735  1  0.453200  0.380600  0.480000  0.45
  H  H736  1  0.546800  0.619400  0.520000  0.45
  H  H737  1  0.482600  0.356000  0.439300  0.45
  H  H738  1  0.517400  0.644000  0.560700  0.45
  H  H739  1  0.839600  0.051800  0.303900  0.5
  H  H740  1  0.160400  0.948200  0.696100  0.5
  H  H741  1  0.798100  0.063000  0.280600  0.5
  H  H742  1  0.201900  0.937000  0.719400  0.5
  H  H743  1  0.815100  0.011500  0.318200  0.5
  H  H744  1  0.184900  0.988500  0.681800  0.5
  H  H745  1  0.741400  0.076000  0.335800  0.5
  H  H746  1  0.258600  0.924000  0.664200  0.5
  H  H747  1  0.776900  0.099400  0.336000  0.5
  H  H748  1  0.223100  0.900600  0.664000  0.5
  H  H749  1  0.712900  0.054400  0.420000  0.5
  H  H750  1  0.287100  0.945600  0.580000  0.5
  H  H751  1  0.741000  0.089700  0.410300  0.5
  H  H752  1  0.259000  0.910300  0.589700  0.5
  H  H753  1  0.763000  0.994400  0.473400  0.5
  H  H754  1  0.237000  0.005600  0.526600  0.5
  H  H755  1  0.721400  0.043500  0.487000  0.5
  H  H756  1  0.278600  0.956500  0.513000  0.5
  H  H757  1  0.778100  0.038800  0.468000  0.5
  H  H758  1  0.221900  0.961200  0.532000  0.5
  H  H759  1  0.205200  0.556300  0.426600  0.651
  H  H760  1  0.794800  0.443700  0.573400  0.651
  H  H761  1  0.182100  0.571500  0.495500  0.651
  H  H762  1  0.817900  0.428500  0.504500  0.651
  H  H763  1  0.225000  0.514000  0.551100  0.651
  H  H764  1  0.775000  0.486000  0.448900  0.651
  H  H765  1  0.291400  0.442000  0.535800  0.651
  H  H766  1  0.708600  0.558000  0.464200  0.651
  H  H767  1  0.349500  0.392500  0.480900  0.651
  H  H768  1  0.650500  0.607500  0.519100  0.651
  H  H769  1  0.206200  0.440100  0.458200  0.651
  H  H770  1  0.793800  0.559900  0.541800  0.651
  H  H771  1  0.175700  0.382200  0.465200  0.651
  H  H772  1  0.824300  0.617800  0.534800  0.651
  H  H773  1  0.207200  0.342200  0.409100  0.651
  H  H774  1  0.792800  0.657800  0.590900  0.651
  H  H775  1  0.269800  0.361100  0.346500  0.651
  H  H776  1  0.730200  0.638900  0.653500  0.651
  H  H777  1  0.330700  0.404700  0.307500  0.651
  H  H778  1  0.669300  0.595300  0.692500  0.651
  H  H779  1  0.200900  0.521100  0.356700  0.651
  H  H780  1  0.799100  0.478900  0.643300  0.651
  H  H781  1  0.151300  0.599800  0.322100  0.651
  H  H782  1  0.848700  0.400200  0.677900  0.651
  H  H783  1  0.177100  0.667300  0.296100  0.651
  H  H784  1  0.822900  0.332700  0.703900  0.651
  H  H785  1  0.253500  0.653800  0.305100  0.651
  H  H786  1  0.746500  0.346200  0.694900  0.651
  H  H787  1  0.333333  0.594600  0.327600  0.651
  H  H788  1  0.666667  0.405400  0.672400  0.651
  H  H789  1  0.376700  0.249000  0.454100  0.651
  H  H790  1  0.623300  0.751000  0.545900  0.651
  H  H791  1  0.322000  0.328800  0.460100  0.651
  H  H792  1  0.678000  0.671200  0.539900  0.651
  H  H793  1  0.426100  0.386000  0.371200  0.651
  H  H794  1  0.573900  0.614000  0.628800  0.651
  H  H795  1  0.480900  0.306200  0.365200  0.651
  H  H796  1  0.519100  0.693800  0.634800  0.651
  H  H797  1  0.362200  0.531200  0.421500  0.651
  H  H798  1  0.637800  0.468800  0.578500  0.651
  H  H799  1  0.437700  0.507000  0.437800  0.651
  H  H800  1  0.562300  0.493000  0.562200  0.651
  H  H801  1  0.510700  0.451500  0.330500  0.651
  H  H802  1  0.489300  0.548500  0.669500  0.651
  H  H803  1  0.435200  0.475700  0.314100  0.651
  H  H804  1  0.564800  0.524300  0.685900  0.651
  C  C805  1  0.009990  0.094060  0.084890  0.43
  C  C806  1  0.990010  0.905940  0.915110  0.43
  C  C807  1  0.961330  0.129180  0.083190  0.43
  C  C808  1  0.038670  0.870820  0.916810  0.43
  C  C809  1  0.919180  0.122140  0.119310  0.43
  C  C810  1  0.080820  0.877860  0.880690  0.43
  C  C811  1  0.927600  0.079560  0.156200  0.43
  C  C812  1  0.072400  0.920440  0.843800  0.43
  C  C813  1  0.978100  0.043950  0.157980  0.43
  C  C814  1  0.021900  0.956050  0.842020  0.43
  C  C815  1  0.017330  0.051550  0.123700  0.43
  C  C816  1  0.982670  0.948450  0.876300  0.43
  C  C817  1  0.032130  0.219070  0.184170  0.43
  C  C818  1  0.967870  0.780930  0.815830  0.43
  C  C819  1  0.984370  0.254040  0.181070  0.43
  C  C820  1  0.015630  0.745960  0.818930  0.43
  C  C821  1  0.944200  0.246870  0.216230  0.43
  C  C822  1  0.055800  0.753130  0.783770  0.43
  C  C823  1  0.952530  0.203250  0.254820  0.43
  C  C824  1  0.047470  0.796750  0.745180  0.43
  C  C825  1  0.999570  0.168900  0.257590  0.43
  C  C826  1  0.000430  0.831100  0.742410  0.43
  C  C827  1  0.040980  0.177500  0.220600  0.43
  C  C828  1  0.959020  0.822500  0.779400  0.43
  C  C829  1  0.866940  0.130570  0.207630  0.43
  C  C830  1  0.133060  0.869430  0.792370  0.43
  C  C831  1  0.008390  0.116400  0.274140  0.43
  C  C832  1  0.991610  0.883600  0.725860  0.43
  C  C833  1  0.066400  0.025500  0.176900  0.43
  C  C834  1  0.933600  0.974500  0.823100  0.43
  C  C835  1  0.905490  0.206350  0.092600  0.43
  C  C836  1  0.094510  0.793650  0.907400  0.43
  C  C837  1  0.952000  0.181930  0.067160  0.43
  C  C838  1  0.048000  0.818070  0.932840  0.43
  C  C839  1  0.894400  0.272180  0.162330  0.43
  C  C840  1  0.105600  0.727820  0.837670  0.43
  C  C841  1  0.065210  0.183000  0.068180  0.43
  C  C842  1  0.934790  0.817000  0.931820  0.43
  C  C843  1  0.938990  0.264280  0.090530  0.43
  C  C844  1  0.061010  0.735720  0.909470  0.43
  C  C845  1  0.082310  0.079230  0.101200  0.43
  C  C846  1  0.917690  0.920770  0.898800  0.43
  C  C847  1  0.896120  0.115620  0.271510  0.43
  C  C848  1  0.103880  0.884380  0.728490  0.43
  C  C849  1  0.056560  0.090520  0.247200  0.43
  C  C850  1  0.943440  0.909480  0.752800  0.43
  C  C851  1  0.022880  0.033220  0.250200  0.43
  C  C852  1  0.977120  0.966780  0.749800  0.43
  C  C853  1  0.991070  0.198170  0.052900  0.43
  C  C854  1  0.008930  0.801830  0.947100  0.43
  C  C855  1  0.871890  0.252350  0.149930  0.43
  C  C856  1  0.128110  0.747650  0.850070  0.43
  C  C857  1  0.984210  0.240780  0.065200  0.43
  C  C858  1  0.015790  0.759220  0.934800  0.43
  C  C859  1  0.878180  0.219050  0.239920  0.43
  C  C860  1  0.121820  0.780950  0.760080  0.43
  C  C861  1  0.859000  0.173580  0.168920  0.43
  C  C862  1  0.141000  0.826420  0.831080  0.43
  C  C863  1  0.109030  0.081630  0.159900  0.43
  C  C864  1  0.890970  0.918370  0.840100  0.43
  C  C865  1  0.076280  0.128690  0.215100  0.43
  C  C866  1  0.923720  0.871310  0.784900  0.43
  C  C867  1  0.049530  0.111550  0.071120  0.43
  C  C868  1  0.950470  0.888450  0.928880  0.43
  C  C869  1  0.911100  0.186240  0.269890  0.43
  C  C870  1  0.088900  0.813760  0.730110  0.43
  C  C871  1  0.102190  0.123680  0.172200  0.43
  C  C872  1  0.897810  0.876320  0.827800  0.43
  C  C873  1  0.029750  0.231500  0.074600  0.43
  C  C874  1  0.970250  0.768500  0.925400  0.43
  C  C875  1  0.851510  0.216460  0.180580  0.43
  C  C876  1  0.148490  0.783540  0.819420  0.43
  C  C877  1  0.976950  0.057340  0.275840  0.43
  C  C878  1  0.023050  0.942660  0.724160  0.43
  C  C879  1  0.090730  0.045770  0.190800  0.43
  C  C880  1  0.909270  0.954230  0.809200  0.43
  C  C881  1  0.969640  0.099680  0.287660  0.43
  C  C882  1  0.030360  0.900320  0.712340  0.43
  C  C883  1  0.884640  0.168970  0.126280  0.43
  C  C884  1  0.115360  0.831030  0.873720  0.43
  C  C885  1  0.931950  0.066620  0.265440  0.43
  C  C886  1  0.068050  0.933380  0.734560  0.43
  C  C887  1  0.980450  0.026920  0.205300  0.43
  C  C888  1  0.019550  0.973080  0.794700  0.43
  C  C889  1  0.024420  0.018100  0.213900  0.43
  C  C890  1  0.975580  0.981900  0.786100  0.43
  C  C891  1  0.979750  0.271570  0.135080  0.43
  C  C892  1  0.020250  0.728430  0.864920  0.43
  C  C893  1  0.937170  0.280470  0.125920  0.43
  C  C894  1  0.062830  0.719530  0.874080  0.43
  C  C895  1  0.041590  0.162220  0.054700  0.43
  C  C896  1  0.958410  0.837780  0.945300  0.43
  C  C897  1  0.062860  0.051100  0.235800  0.43
  C  C898  1  0.937140  0.948900  0.764200  0.43
  C  C899  1  0.898010  0.247770  0.104640  0.43
  C  C900  1  0.101990  0.752230  0.895360  0.43
  C  C901  1  0.063080  0.042110  0.134100  0.43
  C  C902  1  0.936920  0.957890  0.865900  0.43
  C  C903  1  0.920450  0.135820  0.285130  0.43
  C  C904  1  0.079550  0.864180  0.714870  0.43
  C  C905  1  0.900580  0.085250  0.201010  0.43
  C  C906  1  0.099420  0.914750  0.798990  0.43
  C  C907  1  0.898070  0.256510  0.206860  0.43
  C  C908  1  0.101930  0.743490  0.793140  0.43
  C  C909  1  0.060300  0.214080  0.138700  0.43
  C  C910  1  0.939700  0.785920  0.861300  0.43
  C  C911  1  0.094060  0.167270  0.133900  0.43
  C  C912  1  0.905940  0.832730  0.866100  0.43
  C  C913  1  0.855110  0.199180  0.226900  0.43
  C  C914  1  0.144890  0.800820  0.773100  0.43
  C  C915  1  0.027290  0.246690  0.108500  0.43
  C  C916  1  0.972710  0.753310  0.891500  0.43
  C  C917  1  0.096610  0.151440  0.097500  0.43
  C  C918  1  0.903390  0.848560  0.902500  0.43
  C  C919  1  0.105410  0.099430  0.112700  0.43
  C  C920  1  0.894590  0.900570  0.887300  0.43
  C  C921  1  0.864710  0.145770  0.243960  0.43
  C  C922  1  0.135290  0.854230  0.756040  0.43
  C  C923  1  0.933820  0.051880  0.230620  0.43
  C  C924  1  0.066180  0.948120  0.769380  0.43
  C  C925  1  0.975200  0.417600  0.440200  1.0
  C  C926  1  0.024800  0.582400  0.559800  1.0
  C  C927  1  0.942800  0.457300  0.457900  1.0
  C  C928  1  0.057200  0.542700  0.542100  1.0
  C  C929  1  0.908600  0.496800  0.434900  1.0
  C  C930  1  0.091400  0.503200  0.565100  1.0
  C  C931  1  0.907300  0.495700  0.394700  1.0
  C  C932  1  0.092700  0.504300  0.605300  1.0
  C  C933  1  0.939500  0.454600  0.379400  1.0
  C  C934  1  0.060500  0.545400  0.620600  1.0
  C  C935  1  0.943000  0.450700  0.336900  1.0
  C  C936  1  0.057000  0.549300  0.663100  1.0
  C  C937  1  0.982700  0.406500  0.283600  1.0
  C  C938  1  0.017300  0.593500  0.716400  1.0
  C  C939  1  0.026900  0.406100  0.251500  1.0
  C  C940  1  0.973100  0.593900  0.748500  1.0
  C  C941  1  0.034400  0.401100  0.209800  1.0
  C  C942  1  0.965600  0.598900  0.790200  1.0
  C  C943  1  0.997700  0.396500  0.200200  1.0
  C  C944  1  0.002300  0.603500  0.799800  1.0
  C  C945  1  0.953500  0.396900  0.232300  1.0
  C  C946  1  0.046500  0.603100  0.767700  1.0
  C  C947  1  0.946000  0.401900  0.273900  1.0
  C  C948  1  0.054000  0.598100  0.726100  1.0
  C  C949  1  0.005900  0.394300  0.153400  1.0
  C  C950  1  0.994100  0.605700  0.846600  1.0
  C  C951  1  0.040700  0.353500  0.138600  1.0
  C  C952  1  0.959300  0.646500  0.861400  1.0
  C  C953  1  0.076800  0.310500  0.161600  1.0
  C  C954  1  0.923200  0.689500  0.838400  1.0
  C  C955  1  0.112000  0.286400  0.130700  1.0
  C  C956  1  0.888000  0.713600  0.869300  1.0
  C  C957  1  0.095400  0.313100  0.089400  1.0
  C  C958  1  0.904600  0.686900  0.910600  1.0
  C  C959  1  0.116000  0.293900  0.052200  1.0
  C  C960  1  0.884000  0.706100  0.947800  1.0
  C  C961  1  0.091400  0.306900  0.021400  1.0
  C  C962  1  0.908600  0.693100  0.978600  1.0
  C  C963  1  0.105100  0.276600  0.991700  1.0
  C  C964  1  0.894900  0.723400  0.008300  1.0
  C  C965  1  0.064500  0.291400  0.976600  1.0
  C  C966  1  0.935500  0.708600  0.023400  1.0
  C  C967  1  0.029900  0.335800  0.990200  1.0
  C  C968  1  0.970100  0.664200  0.009800  1.0
  C  C969  1  0.985200  0.366800  0.977800  1.0
  C  C970  1  0.014800  0.633200  0.022200  1.0
  C  C971  1  0.958700  0.415000  0.984100  1.0
  C  C972  1  0.041300  0.585000  0.015900  1.0
  C  C973  1  0.921500  0.458000  0.961000  1.0
  C  C974  1  0.078500  0.542000  0.039000  1.0
  C  C975  1  0.917800  0.498800  0.968600  1.0
  C  C976  1  0.082200  0.501200  0.031400  1.0
  C  C977  1  0.945200  0.480700  0.001500  1.0
  C  C978  1  0.054800  0.519300  0.998500  1.0
  C  C979  1  0.938700  0.510400  0.025400  1.0
  C  C980  1  0.061300  0.489600  0.974600  1.0
  C  C981  1  0.957200  0.492100  0.063200  1.0
  C  C982  1  0.042800  0.507900  0.936800  1.0
  C  C983  1  0.943500  0.520800  0.092500  1.0
  C  C984  1  0.056500  0.479200  0.907500  1.0
  C  C985  1  0.957000  0.489000  0.130900  1.0
  C  C986  1  0.043000  0.511000  0.869100  1.0
  C  C987  1  0.981500  0.440000  0.125400  1.0
  C  C988  1  0.018500  0.560000  0.874600  1.0
  C  C989  1  0.158900  0.240900  0.137400  1.0
  C  C990  1  0.841100  0.759100  0.862600  1.0
  C  C991  1  0.199900  0.254000  0.137600  1.0
  C  C992  1  0.800100  0.746000  0.862400  1.0
  C  C993  1  0.153700  0.233700  0.983600  1.0
  C  C994  1  0.846300  0.766300  0.016400  1.0
  C  C995  1  0.189000  0.252100  0.941000  1.0
  C  C996  1  0.811000  0.747900  0.059000  1.0
  C  C997  1  0.893500  0.552800  0.943400  1.0
  C  C998  1  0.106500  0.447200  0.056600  1.0
  C  C999  1  0.840400  0.566900  0.971200  1.0
  C  C1000  1  0.159600  0.433100  0.028800  1.0
  C  C1001  1  0.925500  0.577000  0.078800  1.0
  C  C1002  1  0.074500  0.423000  0.921200  1.0
  C  C1003  1  0.869100  0.597700  0.093700  1.0
  C  C1004  1  0.130900  0.402300  0.906300  1.0
  C  C1005  1  0.074700  0.290100  0.211400  1.0
  C  C1006  1  0.925300  0.709900  0.788600  1.0
  C  C1007  1  0.059900  0.266800  0.948600  1.0
  C  C1008  1  0.940100  0.733200  0.051400  1.0
  C  C1009  1  0.900900  0.457800  0.927000  1.0
  C  C1010  1  0.099100  0.542200  0.073000  1.0
  C  C1011  1  0.949100  0.504400  0.170900  1.0
  C  C1012  1  0.050900  0.495600  0.829100  1.0
  C  C1013  1  0.972800  0.358200  0.943400  1.0
  C  C1014  1  0.027200  0.641800  0.056600  1.0
  C  C1015  1  0.994900  0.370100  0.897600  1.0
  C  C1016  1  0.005100  0.629900  0.102400  1.0
  C  C1017  1  0.981000  0.361100  0.868100  1.0
  C  C1018  1  0.019000  0.638900  0.131900  1.0
  C  C1019  1  0.945100  0.340100  0.884200  1.0
  C  C1020  1  0.054900  0.659900  0.115800  1.0
  C  C1021  1  0.923000  0.328200  0.929900  1.0
  C  C1022  1  0.077000  0.671800  0.070100  1.0
  C  C1023  1  0.936800  0.337200  0.959500  1.0
  C  C1024  1  0.063200  0.662800  0.040500  1.0
  C  C1025  1  0.958700  0.298400  0.836100  1.0
  C  C1026  1  0.041300  0.701600  0.163900  1.0
  C  C1027  1  0.947800  0.293400  0.802000  1.0
  C  C1028  1  0.052200  0.706600  0.198000  1.0
  C  C1029  1  0.971400  0.252600  0.785000  1.0
  C  C1030  1  0.028600  0.747400  0.215000  1.0
  C  C1031  1  0.954900  0.251700  0.752800  1.0
  C  C1032  1  0.045100  0.748300  0.247200  1.0
  C  C1033  1  0.915100  0.291800  0.737900  1.0
  C  C1034  1  0.084900  0.708200  0.262100  1.0
  C  C1035  1  0.893900  0.331900  0.755100  1.0
  C  C1036  1  0.106100  0.668100  0.244900  1.0
  C  C1037  1  0.071300  0.429900  0.341500  1.0
  C  C1038  1  0.928700  0.570100  0.658500  1.0
  C  C1039  1  0.112800  0.442600  0.317700  1.0
  C  C1040  1  0.887200  0.557400  0.682300  1.0
  C  C1041  1  0.152100  0.413200  0.291800  1.0
  C  C1042  1  0.847900  0.586800  0.708200  1.0
  C  C1043  1  0.148900  0.371800  0.290000  1.0
  C  C1044  1  0.851100  0.628200  0.710000  1.0
  C  C1045  1  0.106000  0.361900  0.313300  1.0
  C  C1046  1  0.894000  0.638100  0.686700  1.0
  C  C1047  1  0.102100  0.317600  0.315400  1.0
  C  C1048  1  0.897900  0.682400  0.684600  1.0
  C  C1049  1  0.055100  0.267800  0.345200  1.0
  C  C1050  1  0.944900  0.732200  0.654800  1.0
  C  C1051  1  0.082000  0.223700  0.371900  1.0
  C  C1052  1  0.918000  0.776300  0.628100  1.0
  C  C1053  1  0.076100  0.179600  0.380500  1.0
  C  C1054  1  0.923900  0.820400  0.619500  1.0
  C  C1055  1  0.043100  0.179500  0.362300  1.0
  C  C1056  1  0.956900  0.820500  0.637700  1.0
  C  C1057  1  0.016100  0.223500  0.335600  1.0
  C  C1058  1  0.983900  0.776500  0.664400  1.0
  C  C1059  1  0.022100  0.267700  0.327000  1.0
  C  C1060  1  0.977900  0.732300  0.673000  1.0
  C  C1061  1  0.032600  0.132800  0.375500  1.0
  C  C1062  1  0.967400  0.867200  0.624500  1.0
  C  C1063  1  0.000300  0.120600  0.415800  1.0
  C  C1064  1  0.999700  0.879400  0.584200  1.0
  C  C1065  1  0.974200  0.146300  0.450200  1.0
  C  C1066  1  0.025800  0.853700  0.549800  1.0
  C  C1067  1  0.956100  0.115400  0.488700  1.0
  C  C1068  1  0.043900  0.884600  0.511300  1.0
  C  C1069  1  0.961300  0.075800  0.474100  1.0
  C  C1070  1  0.038700  0.924200  0.525900  1.0
  C  C1071  1  0.940600  0.039000  0.500000  1.0
  C  C1072  1  0.059400  0.961000  0.500000  1.0
  C  C1073  1  0.937200  0.008400  0.483900  1.0
  C  C1074  1  0.062800  0.991600  0.516100  1.0
  C  C1075  1  0.905800  0.978700  0.509300  1.0
  C  C1076  1  0.094200  0.021300  0.490700  1.0
  C  C1077  1  0.907900  0.956700  0.481100  1.0
  C  C1078  1  0.092100  0.043300  0.518900  1.0
  C  C1079  1  0.942000  0.970200  0.439400  1.0
  C  C1080  1  0.058000  0.029800  0.560600  1.0
  C  C1081  1  0.957400  0.955000  0.401100  1.0
  C  C1082  1  0.042600  0.045000  0.598900  1.0
  C  C1083  1  0.002200  0.956800  0.368800  1.0
  C  C1084  1  0.997800  0.043200  0.631200  1.0
  C  C1085  1  0.029500  0.930200  0.334000  1.0
  C  C1086  1  0.970500  0.069800  0.666000  1.0
  C  C1087  1  0.074700  0.933800  0.318000  1.0
  C  C1088  1  0.925300  0.066200  0.682000  1.0
  C  C1089  1  0.074900  0.964600  0.339400  1.0
  C  C1090  1  0.925100  0.035400  0.660600  1.0
  C  C1091  1  0.111000  0.983400  0.327100  1.0
  C  C1092  1  0.889000  0.016600  0.672900  1.0
  C  C1093  1  0.104000  0.026800  0.334300  1.0
  C  C1094  1  0.896000  0.973200  0.665700  1.0
  C  C1095  1  0.135100  0.055500  0.308100  1.0
  C  C1096  1  0.864900  0.944500  0.691900  1.0
  C  C1097  1  0.111000  0.100200  0.317300  1.0
  C  C1098  1  0.889000  0.899800  0.682700  1.0
  C  C1099  1  0.066000  0.099300  0.349900  1.0
  C  C1100  1  0.934000  0.900700  0.650100  1.0
  C  C1101  1  0.929700  0.122700  0.535500  1.0
  C  C1102  1  0.070300  0.877300  0.464500  1.0
  C  C1103  1  0.874100  0.144800  0.539100  1.0
  C  C1104  1  0.125900  0.855200  0.460900  1.0
  C  C1105  1  0.875600  0.976100  0.557200  1.0
  C  C1106  1  0.124400  0.023900  0.442800  1.0
  C  C1107  1  0.825000  0.018200  0.558900  1.0
  C  C1108  1  0.175000  0.981800  0.441100  1.0
  C  C1109  1  0.118200  0.909900  0.284300  1.0
  C  C1110  1  0.881800  0.090100  0.715700  1.0
  C  C1111  1  0.155100  0.863100  0.307700  1.0
  C  C1112  1  0.844900  0.136900  0.692300  1.0
  C  C1113  1  0.184100  0.038200  0.275300  1.0
  C  C1114  1  0.815900  0.961800  0.724700  1.0
  C  C1115  1  0.226000  0.017000  0.298800  1.0
  C  C1116  1  0.774000  0.983000  0.701200  1.0
  C  C1117  1  0.970200  0.197000  0.448400  1.0
  C  C1118  1  0.029800  0.803000  0.551600  1.0
  C  C1119  1  0.880300  0.922800  0.494800  1.0
  C  C1120  1  0.119700  0.077200  0.505200  1.0
  C  C1121  1  0.008300  0.911500  0.313500  1.0
  C  C1122  1  0.991700  0.088500  0.686500  1.0
  C  C1123  1  0.129800  0.142700  0.291400  1.0
  C  C1124  1  0.870200  0.857300  0.708600  1.0
  C  C1125  1  0.931500  0.925300  0.400800  1.0
  C  C1126  1  0.068500  0.074700  0.599200  1.0
  C  C1127  1  0.953000  0.873600  0.412600  1.0
  C  C1128  1  0.047000  0.126400  0.587400  1.0
  C  C1129  1  0.927900  0.845500  0.415400  1.0
  C  C1130  1  0.072100  0.154500  0.584600  1.0
  C  C1131  1  0.881200  0.869200  0.406500  1.0
  C  C1132  1  0.118800  0.130800  0.593500  1.0
  C  C1133  1  0.859700  0.920800  0.394700  1.0
  C  C1134  1  0.140300  0.079200  0.605300  1.0
  C  C1135  1  0.884800  0.948900  0.391900  1.0
  C  C1136  1  0.115200  0.051100  0.608100  1.0
  C  C1137  1  0.817400  0.837100  0.451400  1.0
  C  C1138  1  0.182600  0.162900  0.548600  1.0
  C  C1139  1  0.797400  0.800000  0.461000  1.0
  C  C1140  1  0.202600  0.200000  0.539000  1.0
  C  C1141  1  0.759200  0.792900  0.498300  1.0
  C  C1142  1  0.240800  0.207100  0.501700  1.0
  C  C1143  1  0.740800  0.757400  0.505600  1.0
  C  C1144  1  0.259200  0.242600  0.494400  1.0
  C  C1145  1  0.761200  0.729400  0.475700  1.0
  C  C1146  1  0.238800  0.270600  0.524300  1.0
  C  C1147  1  0.800100  0.737200  0.439900  1.0
  C  C1148  1  0.199900  0.262800  0.560100  1.0
  C  C1149  1  0.961700  0.410500  0.748620  1.0
  C  C1150  1  0.038300  0.589500  0.251380  1.0
  C  C1151  1  0.994200  0.435700  0.730300  1.0
  C  C1152  1  0.005800  0.564300  0.269700  1.0
  C  C1153  1  0.986200  0.472600  0.747400  1.0
  C  C1154  1  0.013800  0.527400  0.252600  1.0
  C  C1155  1  0.945700  0.483500  0.782700  1.0
  C  C1156  1  0.054300  0.516500  0.217300  1.0
  C  C1157  1  0.915400  0.456300  0.800400  1.0
  C  C1158  1  0.084600  0.543700  0.199600  1.0
  C  C1159  1  0.872300  0.464900  0.836300  1.0
  C  C1160  1  0.127700  0.535100  0.163700  1.0
  C  C1161  1  0.806000  0.443000  0.887100  1.0
  C  C1162  1  0.194000  0.557000  0.112900  1.0
  C  C1163  1  0.763300  0.477500  0.872600  1.0
  C  C1164  1  0.236700  0.522500  0.127400  1.0
  C  C1165  1  0.718100  0.488600  0.903800  1.0
  C  C1166  1  0.281900  0.511400  0.096200  1.0
  C  C1167  1  0.715600  0.465200  0.949400  1.0
  C  C1168  1  0.284400  0.534800  0.050600  1.0
  C  C1169  1  0.758200  0.430700  0.963800  1.0
  C  C1170  1  0.241800  0.569300  0.036200  1.0
  C  C1171  1  0.803500  0.419600  0.932700  1.0
  C  C1172  1  0.196500  0.580400  0.067300  1.0
  C  C1173  1  0.667100  0.474900  0.985500  1.0
  C  C1174  1  0.332900  0.525100  0.014500  1.0
  C  C1175  1  0.650600  0.516500  0.999400  1.0
  C  C1176  1  0.349400  0.483500  0.000600  1.0
  C  C1177  1  0.672100  0.554300  0.982800  1.0
  C  C1178  1  0.327900  0.445700  0.017200  1.0
  C  C1179  1  0.639100  0.593100  0.000700  1.0
  C  C1180  1  0.360900  0.406900  0.999300  1.0
  C  C1181  1  0.597500  0.577600  0.030100  1.0
  C  C1182  1  0.402500  0.422400  0.969900  1.0
  C  C1183  1  0.558900  0.601600  0.061100  1.0
  C  C1184  1  0.441100  0.398400  0.938900  1.0
  C  C1185  1  0.530500  0.579200  0.097000  1.0
  C  C1186  1  0.469500  0.420800  0.903000  1.0
  C  C1187  1  0.504800  0.594800  0.138300  1.0
  C  C1188  1  0.495200  0.405200  0.861700  1.0
  C  C1189  1  0.486100  0.559300  0.168400  1.0
  C  C1190  1  0.513900  0.440700  0.831600  1.0
  C  C1191  1  0.497300  0.523900  0.145500  1.0
  C  C1192  1  0.502700  0.476100  0.854500  1.0
  C  C1193  1  0.473300  0.490300  0.159900  1.0
  C  C1194  1  0.526700  0.509700  0.840100  1.0
  C  C1195  1  0.473600  0.469200  0.129700  1.0
  C  C1196  1  0.526400  0.530800  0.870300  1.0
  C  C1197  1  0.437200  0.450500  0.132400  1.0
  C  C1198  1  0.562800  0.549500  0.867600  1.0
  C  C1199  1  0.449400  0.439700  0.093000  1.0
  C  C1200  1  0.550600  0.560300  0.907000  1.0
  C  C1201  1  0.492000  0.451900  0.066300  1.0
  C  C1202  1  0.508000  0.548100  0.933700  1.0
  C  C1203  1  0.519500  0.438700  0.027000  1.0
  C  C1204  1  0.480500  0.561300  0.973000  1.0
  C  C1205  1  0.567800  0.437200  0.007800  1.0
  C  C1206  1  0.432200  0.562800  0.992200  1.0
  C  C1207  1  0.604700  0.407300  0.979000  1.0
  C  C1208  1  0.395300  0.592700  0.021000  1.0
  C  C1209  1  0.648100  0.414500  0.968700  1.0
  C  C1210  1  0.351900  0.585500  0.031300  1.0
  C  C1211  1  0.637300  0.449800  0.990700  1.0
  C  C1212  1  0.362700  0.550200  0.009300  1.0
  C  C1213  1  0.646500  0.639200  0.996100  1.0
  C  C1214  1  0.353500  0.360800  0.003900  1.0
  C  C1215  1  0.633500  0.679900  0.953100  1.0
  C  C1216  1  0.366500  0.320100  0.046900  1.0
  C  C1217  1  0.502000  0.640600  0.145600  1.0
  C  C1218  1  0.498000  0.359400  0.854400  1.0
  C  C1219  1  0.453800  0.684200  0.138300  1.0
  C  C1220  1  0.546200  0.315800  0.861700  1.0
  C  C1221  1  0.421400  0.423200  0.078200  1.0
  C  C1222  1  0.578600  0.576800  0.921800  1.0
  C  C1223  1  0.440400  0.366700  0.089400  1.0
  C  C1224  1  0.559600  0.633300  0.910600  1.0
  C  C1225  1  0.597200  0.371100  0.965300  1.0
  C  C1226  1  0.402800  0.628900  0.034700  1.0
  C  C1227  1  0.590400  0.397500  0.917600  1.0
  C  C1228  1  0.409600  0.602500  0.082400  1.0
  C  C1229  1  0.725200  0.549900  0.956900  1.0
  C  C1230  1  0.274800  0.450100  0.043100  1.0
  C  C1231  1  0.468700  0.555200  0.218400  1.0
  C  C1232  1  0.531300  0.444800  0.781600  1.0
  C  C1233  1  0.391000  0.446900  0.169300  1.0
  C  C1234  1  0.609000  0.553100  0.830700  1.0
  C  C1235  1  0.697700  0.382100  0.946100  1.0
  C  C1236  1  0.302300  0.617900  0.053900  1.0
  C  C1237  1  0.438300  0.482000  0.206000  1.0
  C  C1238  1  0.561700  0.518000  0.794000  1.0
  C  C1239  1  0.393700  0.519300  0.217800  1.0
  C  C1240  1  0.606300  0.480700  0.782200  1.0
  C  C1241  1  0.361000  0.509000  0.259100  1.0
  C  C1242  1  0.639000  0.491000  0.740900  1.0
  C  C1243  1  0.372800  0.461300  0.288600  1.0
  C  C1244  1  0.627200  0.538700  0.711400  1.0
  C  C1245  1  0.417400  0.424000  0.276900  1.0
  C  C1246  1  0.582600  0.576000  0.723100  1.0
  C  C1247  1  0.450200  0.434400  0.235600  1.0
  C  C1248  1  0.549800  0.565600  0.764400  1.0
  C  C1249  1  0.925900  0.705800  0.444900  1.0
  C  C1250  1  0.074100  0.294200  0.555100  1.0
  C  C1251  1  0.969300  0.673300  0.458600  1.0
  C  C1252  1  0.030700  0.326700  0.541400  1.0
  C  C1253  1  0.013700  0.679000  0.432300  1.0
  C  C1254  1  0.986300  0.321000  0.567700  1.0
  C  C1255  1  0.013900  0.717300  0.392700  1.0
  C  C1256  1  0.986100  0.282700  0.607300  1.0
  C  C1257  1  0.969400  0.749300  0.381500  1.0
  C  C1258  1  0.030600  0.250700  0.618500  1.0
  C  C1259  1  0.966200  0.790900  0.338800  1.0
  C  C1260  1  0.033800  0.209100  0.661200  1.0
  C  C1261  1  0.915200  0.853300  0.292000  1.0
  C  C1262  1  0.084800  0.146700  0.708000  1.0
  C  C1263  1  0.915400  0.840600  0.256800  1.0
  C  C1264  1  0.084600  0.159400  0.743200  1.0
  C  C1265  1  0.911900  0.875700  0.215300  1.0
  C  C1266  1  0.088100  0.124300  0.784700  1.0
  C  C1267  1  0.908200  0.923600  0.208800  1.0
  C  C1268  1  0.091800  0.076400  0.791200  1.0
  C  C1269  1  0.907900  0.936300  0.244000  1.0
  C  C1270  1  0.092100  0.063700  0.756000  1.0
  C  C1271  1  0.911500  0.901200  0.285600  1.0
  C  C1272  1  0.088500  0.098800  0.714400  1.0
  C  C1273  1  0.904600  0.960400  0.163400  1.0
  C  C1274  1  0.095400  0.039600  0.836600  1.0
  C  C1275  1  0.947200  0.966600  0.133500  1.0
  C  C1276  1  0.052800  0.033400  0.866500  1.0
  C  C1277  1  0.997700  0.937300  0.137100  1.0
  C  C1278  1  0.002300  0.062700  0.862900  1.0
  C  C1279  1  0.029300  0.949500  0.096500  1.0
  C  C1280  1  0.970700  0.050500  0.903500  1.0
  C  C1281  1  0.997100  0.990400  0.068700  1.0
  C  C1282  1  0.002900  0.009600  0.931300  1.0
  C  C1283  1  0.014400  0.022700  0.028600  1.0
  C  C1284  1  0.985600  0.977300  0.971400  1.0
  C  C1285  1  0.984100  0.066800  0.008500  1.0
  C  C1286  1  0.015900  0.933200  0.991500  1.0
  C  C1287  1  0.000200  0.108500  0.977800  1.0
  C  C1288  1  0.999800  0.891500  0.022200  1.0
  C  C1289  1  0.959400  0.149200  0.969500  1.0
  C  C1290  1  0.040600  0.850800  0.030500  1.0
  C  C1291  1  0.918000  0.131800  0.992500  1.0
  C  C1292  1  0.082000  0.868200  0.007500  1.0
  C  C1293  1  0.870300  0.159000  0.986100  1.0
  C  C1294  1  0.129700  0.841000  0.013900  1.0
  C  C1295  1  0.834600  0.136300  0.001100  1.0
  C  C1296  1  0.165400  0.863700  0.998900  1.0
  C  C1297  1  0.788500  0.154600  0.987800  1.0
  C  C1298  1  0.211500  0.845400  0.012200  1.0
  C  C1299  1  0.770500  0.117400  0.008100  1.0
  C  C1300  1  0.229500  0.882600  0.991900  1.0
  C  C1301  1  0.801800  0.078200  0.036600  1.0
  C  C1302  1  0.198200  0.921800  0.963400  1.0
  C  C1303  1  0.788100  0.040600  0.069500  1.0
  C  C1304  1  0.211900  0.959400  0.930500  1.0
  C  C1305  1  0.810300  0.012200  0.105700  1.0
  C  C1306  1  0.189700  0.987800  0.894300  1.0
  C  C1307  1  0.787500  0.984500  0.147300  1.0
  C  C1308  1  0.212500  0.015500  0.852700  1.0
  C  C1309  1  0.815500  0.968200  0.177000  1.0
  C  C1310  1  0.184500  0.031800  0.823000  1.0
  C  C1311  1  0.858300  0.981800  0.152100  1.0
  C  C1312  1  0.141700  0.018200  0.847900  1.0
  C  C1313  1  0.085200  0.926900  0.080100  1.0
  C  C1314  1  0.914800  0.073100  0.919900  1.0
  C  C1315  1  0.112300  0.953500  0.085400  1.0
  C  C1316  1  0.887700  0.046500  0.914600  1.0
  C  C1317  1  0.053700  0.105600  0.961900  1.0
  C  C1318  1  0.946300  0.894400  0.038100  1.0
  C  C1319  1  0.075200  0.101800  0.914400  1.0
  C  C1320  1  0.924800  0.898200  0.085600  1.0
  C  C1321  1  0.725700  0.117200  0.001900  1.0
  C  C1322  1  0.274300  0.882800  0.998100  1.0
  C  C1323  1  0.738400  0.099800  0.961100  1.0
  C  C1324  1  0.261600  0.900200  0.038900  1.0
  C  C1325  1  0.738600  0.979300  0.156200  1.0
  C  C1326  1  0.261400  0.020700  0.843800  1.0
  C  C1327  1  0.750900  0.930700  0.147200  1.0
  C  C1328  1  0.249100  0.069300  0.852800  1.0
  C  C1329  1  0.016600  0.897100  0.177600  1.0
  C  C1330  1  0.983400  0.102900  0.822400  1.0
  C  C1331  1  0.960000  0.200800  0.943300  1.0
  C  C1332  1  0.040000  0.799200  0.056700  1.0
  C  C1333  1  0.763300  0.204200  0.957400  1.0
  C  C1334  1  0.236700  0.795800  0.042600  1.0
  C  C1335  1  0.799900  0.943900  0.226800  1.0
  C  C1336  1  0.200100  0.056100  0.773200  1.0
  C  C1337  1  0.856700  0.209400  0.952600  1.0
  C  C1338  1  0.143300  0.790600  0.047400  1.0
  C  C1339  1  0.870600  0.212400  0.907200  1.0
  C  C1340  1  0.129400  0.787600  0.092800  1.0
  C  C1341  1  0.861200  0.258700  0.875300  1.0
  C  C1342  1  0.138800  0.741300  0.124700  1.0
  C  C1343  1  0.838000  0.301900  0.888900  1.0
  C  C1344  1  0.162000  0.698100  0.111100  1.0
  C  C1345  1  0.824100  0.298900  0.934300  1.0
  C  C1346  1  0.175900  0.701100  0.065700  1.0
  C  C1347  1  0.833400  0.252600  0.966100  1.0
  C  C1348  1  0.166600  0.747400  0.033900  1.0
  C  C1349  1  0.787500  0.371200  0.842800  1.0
  C  C1350  1  0.212500  0.628800  0.157200  1.0
  C  C1351  1  0.783500  0.415300  0.807300  1.0
  C  C1352  1  0.216500  0.584700  0.192700  1.0
  C  C1353  1  0.740500  0.446300  0.792500  1.0
  C  C1354  1  0.259500  0.553700  0.207500  1.0
  C  C1355  1  0.739700  0.489500  0.757800  1.0
  C  C1356  1  0.260300  0.510500  0.242200  1.0
  C  C1357  1  0.782200  0.500800  0.738300  1.0
  C  C1358  1  0.217800  0.499200  0.261700  1.0
  C  C1359  1  0.824200  0.467800  0.753600  1.0
  C  C1360  1  0.175800  0.532200  0.246400  1.0
  C  C1361  1  0.915600  0.704100  0.345000  1.0
  C  C1362  1  0.084400  0.295900  0.655000  1.0
  C  C1363  1  0.922500  0.678000  0.317000  1.0
  C  C1364  1  0.077500  0.322000  0.683000  1.0
  C  C1365  1  0.890000  0.697100  0.290000  1.0
  C  C1366  1  0.110000  0.302900  0.710000  1.0
  C  C1367  1  0.851400  0.742200  0.291400  1.0
  C  C1368  1  0.148600  0.257800  0.708600  1.0
  C  C1369  1  0.847200  0.767100  0.319000  1.0
  C  C1370  1  0.152800  0.232900  0.681000  1.0
  C  C1371  1  0.810900  0.813900  0.325200  1.0
  C  C1372  1  0.189100  0.186100  0.674800  1.0
  C  C1373  1  0.773500  0.876700  0.357800  1.0
  C  C1374  1  0.226500  0.123300  0.642200  1.0
  C  C1375  1  0.728700  0.870400  0.381700  1.0
  C  C1376  1  0.271300  0.129600  0.618300  1.0
  C  C1377  1  0.686700  0.910600  0.392100  1.0
  C  C1378  1  0.313300  0.089400  0.607900  1.0
  C  C1379  1  0.689700  0.957300  0.378500  1.0
  C  C1380  1  0.310300  0.042700  0.621500  1.0
  C  C1381  1  0.734600  0.963700  0.354600  1.0
  C  C1382  1  0.265400  0.036300  0.645400  1.0
  C  C1383  1  0.776500  0.923400  0.344200  1.0
  C  C1384  1  0.223500  0.076600  0.655800  1.0
  C  C1385  1  0.645100  0.001300  0.388000  1.0
  C  C1386  1  0.354900  0.998700  0.612000  1.0
  C  C1387  1  0.609500  0.022300  0.364100  1.0
  C  C1388  1  0.390500  0.977700  0.635900  1.0
  C  C1389  1  0.611500  0.007400  0.327600  1.0
  C  C1390  1  0.388500  0.992600  0.672400  1.0
  C  C1391  1  0.564100  0.030500  0.320800  1.0
  C  C1392  1  0.435900  0.969500  0.679200  1.0
  C  C1393  1  0.536600  0.064300  0.348200  1.0
  C  C1394  1  0.463400  0.935700  0.651800  1.0
  C  C1395  1  0.487900  0.099400  0.346900  1.0
  C  C1396  1  0.512100  0.900600  0.653100  1.0
  C  C1397  1  0.471200  0.141200  0.358200  1.0
  C  C1398  1  0.528800  0.858800  0.641800  1.0
  C  C1399  1  0.432700  0.187300  0.340700  1.0
  C  C1400  1  0.567300  0.812700  0.659300  1.0
  C  C1401  1  0.428400  0.221900  0.356800  1.0
  C  C1402  1  0.571600  0.778100  0.643200  1.0
  C  C1403  1  0.465600  0.197900  0.382700  1.0
  C  C1404  1  0.534400  0.802100  0.617300  1.0
  C  C1405  1  0.469700  0.219900  0.408200  1.0
  C  C1406  1  0.530300  0.780100  0.591800  1.0
  C  C1407  1  0.495400  0.192600  0.443600  1.0
  C  C1408  1  0.504600  0.807400  0.556400  1.0
  C  C1409  1  0.492000  0.209600  0.479500  1.0
  C  C1410  1  0.508000  0.790400  0.520500  1.0
  C  C1411  1  0.521400  0.169600  0.506000  1.0
  C  C1412  1  0.478600  0.830400  0.494000  1.0
  C  C1413  1  0.535300  0.128100  0.490300  1.0
  C  C1414  1  0.464700  0.871900  0.509700  1.0
  C  C1415  1  0.568300  0.082200  0.506800  1.0
  C  C1416  1  0.431700  0.917800  0.493200  1.0
  C  C1417  1  0.594900  0.045800  0.484400  1.0
  C  C1418  1  0.405100  0.954200  0.515600  1.0
  C  C1419  1  0.638200  0.004100  0.496900  1.0
  C  C1420  1  0.361800  0.995900  0.503100  1.0
  C  C1421  1  0.661700  0.981100  0.463800  1.0
  C  C1422  1  0.338300  0.018900  0.536200  1.0
  C  C1423  1  0.635500  0.010500  0.428800  1.0
  C  C1424  1  0.364500  0.989500  0.571200  1.0
  C  C1425  1  0.544100  0.025800  0.288800  1.0
  C  C1426  1  0.455900  0.974200  0.711200  1.0
  C  C1427  1  0.521100  0.985600  0.312200  1.0
  C  C1428  1  0.478900  0.014400  0.687800  1.0
  C  C1429  1  0.401300  0.192500  0.312400  1.0
  C  C1430  1  0.598700  0.807500  0.687600  1.0
  C  C1431  1  0.366600  0.164600  0.343800  1.0
  C  C1432  1  0.633400  0.835400  0.656200  1.0
  C  C1433  1  0.526000  0.169700  0.549400  1.0
  C  C1434  1  0.474000  0.830300  0.450600  1.0
  C  C1435  1  0.569900  0.186700  0.536100  1.0
  C  C1436  1  0.430100  0.813300  0.463900  1.0
  C  C1437  1  0.646000  0.988200  0.543700  1.0
  C  C1438  1  0.354000  0.011800  0.456300  1.0
  C  C1439  1  0.613900  0.957100  0.576700  1.0
  C  C1440  1  0.386100  0.042900  0.423300  1.0
  C  C1441  1  0.655400  0.974800  0.300200  1.0
  C  C1442  1  0.344600  0.025200  0.699800  1.0
  C  C1443  1  0.395900  0.276600  0.341400  1.0
  C  C1444  1  0.604100  0.723400  0.658600  1.0
  C  C1445  1  0.467300  0.260800  0.486800  1.0
  C  C1446  1  0.532700  0.739200  0.513200  1.0
  C  C1447  1  0.709100  0.935600  0.463200  1.0
  C  C1448  1  0.290900  0.064400  0.536800  1.0
  C  C1449  1  0.816300  0.381500  0.407700  1.0
  C  C1450  1  0.183700  0.618500  0.592300  1.0
  C  C1451  1  0.828000  0.386800  0.440900  1.0
  C  C1452  1  0.172000  0.613200  0.559100  1.0
  C  C1453  1  0.877200  0.369900  0.441800  1.0
  C  C1454  1  0.122800  0.630100  0.558200  1.0
  C  C1455  1  0.914700  0.347800  0.409500  1.0
  C  C1456  1  0.085300  0.652200  0.590500  1.0
  C  C1457  1  0.903000  0.342600  0.376200  1.0
  C  C1458  1  0.097000  0.657400  0.623800  1.0
  C  C1459  1  0.853800  0.359400  0.375300  1.0
  C  C1460  1  0.146200  0.640600  0.624700  1.0
  C  C1461  1  0.977300  0.297400  0.444900  1.0
  C  C1462  1  0.022700  0.702600  0.555100  1.0
  C  C1463  1  0.026500  0.283300  0.449500  1.0
  C  C1464  1  0.973500  0.716700  0.550500  1.0
  C  C1465  1  0.049000  0.240800  0.480300  1.0
  C  C1466  1  0.951000  0.759200  0.519700  1.0
  C  C1467  1  0.097100  0.229600  0.480600  1.0
  C  C1468  1  0.902900  0.770400  0.519400  1.0
  C  C1469  1  0.121600  0.261300  0.450100  1.0
  C  C1470  1  0.878400  0.738700  0.549900  1.0
  C  C1471  1  0.096800  0.303700  0.421100  1.0
  C  C1472  1  0.903200  0.696300  0.578900  1.0
  C  C1473  1  0.238400  0.100800  0.386900  1.0
  C  C1474  1  0.761600  0.899200  0.613100  1.0
  C  C1475  1  0.355900  0.329500  0.209100  0.2
  C  C1476  1  0.644100  0.670500  0.790900  0.2
  C  C1477  1  0.535600  0.460400  0.379000  0.25
  C  C1478  1  0.464400  0.539600  0.621000  0.25
  C  C1479  1  0.548600  0.493200  0.385000  0.25
  C  C1480  1  0.451400  0.506800  0.615000  0.25
  C  C1481  1  0.515000  0.542900  0.388000  0.25
  C  C1482  1  0.485000  0.457100  0.612000  0.25
  C  C1483  1  0.531500  0.557800  0.410000  0.25
  C  C1484  1  0.468500  0.442200  0.590000  0.25
  C  C1485  1  0.579400  0.518700  0.415000  0.25
  C  C1486  1  0.420600  0.481300  0.585000  0.25
  C  C1487  1  0.620700  0.529800  0.409000  0.25
  C  C1488  1  0.379300  0.470200  0.591000  0.25
  C  C1489  1  0.667200  0.501600  0.393000  0.25
  C  C1490  1  0.332800  0.498400  0.607000  0.25
  C  C1491  1  0.709800  0.517200  0.377000  0.25
  C  C1492  1  0.290200  0.482800  0.623000  0.25
  C  C1493  1  0.750000  0.474900  0.383000  0.25
  C  C1494  1  0.250000  0.525100  0.617000  0.25
  C  C1495  1  0.733300  0.433800  0.400000  0.25
  C  C1496  1  0.266700  0.566200  0.600000  0.25
  C  C1497  1  0.761500  0.383500  0.413000  0.25
  C  C1498  1  0.238500  0.616500  0.587000  0.25
  C  C1499  1  0.747500  0.346300  0.414000  0.25
  C  C1500  1  0.252500  0.653700  0.586000  0.25
  C  C1501  1  0.780500  0.302000  0.398000  0.25
  C  C1502  1  0.219500  0.698000  0.602000  0.25
  C  C1503  1  0.751000  0.287000  0.390000  0.25
  C  C1504  1  0.249000  0.713000  0.610000  0.25
  C  C1505  1  0.702500  0.310200  0.415700  0.25
  C  C1506  1  0.297500  0.689800  0.584300  0.25
  C  C1507  1  0.662800  0.301300  0.417300  0.25
  C  C1508  1  0.337200  0.698700  0.582700  0.25
  C  C1509  1  0.626100  0.339300  0.396000  0.25
  C  C1510  1  0.373900  0.660700  0.604000  0.25
  C  C1511  1  0.600500  0.333333  0.373000  0.25
  C  C1512  1  0.399500  0.666667  0.627000  0.25
  C  C1513  1  0.563800  0.378000  0.362000  0.25
  C  C1514  1  0.436200  0.622000  0.638000  0.25
  C  C1515  1  0.565500  0.410500  0.380000  0.25
  C  C1516  1  0.434500  0.589500  0.620000  0.25
  C  C1517  1  0.615400  0.286000  0.361000  0.25
  C  C1518  1  0.384600  0.714000  0.639000  0.25
  C  C1519  1  0.671500  0.269000  0.342000  0.25
  C  C1520  1  0.328500  0.731000  0.658000  0.25
  C  C1521  1  0.537000  0.390000  0.327000  0.25
  C  C1522  1  0.463000  0.610000  0.673000  0.25
  C  C1523  1  0.529800  0.500400  0.391900  0.3
  C  C1524  1  0.470200  0.499600  0.608100  0.3
  C  C1525  1  0.555100  0.532300  0.366400  0.3
  C  C1526  1  0.444900  0.467700  0.633600  0.3
  C  C1527  1  0.540000  0.579000  0.332600  0.3
  C  C1528  1  0.460000  0.421000  0.667400  0.3
  C  C1529  1  0.565200  0.607000  0.327500  0.3
  C  C1530  1  0.434800  0.393000  0.672500  0.3
  C  C1531  1  0.601100  0.573500  0.354400  0.3
  C  C1532  1  0.398900  0.426500  0.645600  0.3
  C  C1533  1  0.645800  0.578900  0.347000  0.3
  C  C1534  1  0.354200  0.421100  0.653000  0.3
  C  C1535  1  0.684300  0.541300  0.363000  0.3
  C  C1536  1  0.315700  0.458700  0.637000  0.3
  C  C1537  1  0.729100  0.549000  0.358300  0.3
  C  C1538  1  0.270900  0.451000  0.641700  0.3
  C  C1539  1  0.765300  0.503200  0.361000  0.3
  C  C1540  1  0.234700  0.496800  0.639000  0.3
  C  C1541  1  0.740100  0.467800  0.386000  0.3
  C  C1542  1  0.259900  0.532200  0.614000  0.3
  C  C1543  1  0.762000  0.417100  0.405500  0.3
  C  C1544  1  0.238000  0.582900  0.594500  0.3
  C  C1545  1  0.732600  0.389400  0.438700  0.3
  C  C1546  1  0.267400  0.610600  0.561300  0.3
  C  C1547  1  0.746500  0.342100  0.473700  0.3
  C  C1548  1  0.253500  0.657900  0.526300  0.3
  C  C1549  1  0.705000  0.343100  0.508000  0.3
  C  C1550  1  0.295000  0.656900  0.492000  0.3
  C  C1551  1  0.664700  0.380900  0.488600  0.3
  C  C1552  1  0.335300  0.619100  0.511400  0.3
  C  C1553  1  0.615600  0.390000  0.510600  0.3
  C  C1554  1  0.384400  0.610000  0.489400  0.3
  C  C1555  1  0.577900  0.418000  0.487600  0.3
  C  C1556  1  0.422100  0.582000  0.512400  0.3
  C  C1557  1  0.532500  0.410000  0.500400  0.3
  C  C1558  1  0.467500  0.590000  0.499600  0.3
  C  C1559  1  0.512100  0.434600  0.464100  0.3
  C  C1560  1  0.487900  0.565400  0.535900  0.3
  C  C1561  1  0.537200  0.468500  0.434900  0.3
  C  C1562  1  0.462800  0.531500  0.565100  0.3
  C  C1563  1  0.551000  0.663300  0.311000  0.3
  C  C1564  1  0.449000  0.336700  0.689000  0.3
  C  C1565  1  0.569000  0.681000  0.259900  0.3
  C  C1566  1  0.431000  0.319000  0.740100  0.3
  C  C1567  1  0.734000  0.599400  0.337300  0.3
  C  C1568  1  0.266000  0.400600  0.662700  0.3
  C  C1569  1  0.738000  0.616000  0.287300  0.3
  C  C1570  1  0.262000  0.384000  0.712700  0.3
  C  C1571  1  0.702000  0.300900  0.550700  0.3
  C  C1572  1  0.298000  0.699100  0.449300  0.3
  C  C1573  1  0.697000  0.260000  0.541000  0.3
  C  C1574  1  0.303000  0.740000  0.459000  0.3
  C  C1575  1  0.516000  0.373800  0.543600  0.3
  C  C1576  1  0.484000  0.626200  0.456400  0.3
  C  C1577  1  0.479000  0.404000  0.576200  0.3
  C  C1578  1  0.521000  0.596000  0.423800  0.3
  C  C1579  1  0.503000  0.596000  0.305000  0.3
  C  C1580  1  0.497000  0.404000  0.695000  0.3
  C  C1581  1  0.819700  0.493000  0.340000  0.3
  C  C1582  1  0.180300  0.507000  0.660000  0.3
  C  C1583  1  0.797600  0.303200  0.477100  0.3
  C  C1584  1  0.202400  0.696800  0.522900  0.3
  C  C1585  1  0.461300  0.440000  0.465000  0.3
  C  C1586  1  0.538700  0.560000  0.535000  0.3
  C  C1587  1  0.178000  0.723100  0.414100  0.3
  C  C1588  1  0.822000  0.276900  0.585900  0.3
  C  C1589  1  0.115100  0.744200  0.431200  0.3
  C  C1590  1  0.884900  0.255800  0.568800  0.3
  C  C1591  1  0.733010  0.419170  0.301650  0.343
  C  C1592  1  0.266990  0.580830  0.698350  0.343
  C  C1593  1  0.767780  0.379740  0.282500  0.343
  C  C1594  1  0.232220  0.620260  0.717500  0.343
  C  C1595  1  0.751760  0.354000  0.267200  0.343
  C  C1596  1  0.248240  0.646000  0.732800  0.343
  C  C1597  1  0.700820  0.368980  0.271830  0.343
  C  C1598  1  0.299180  0.631020  0.728170  0.343
  C  C1599  1  0.665270  0.410300  0.290970  0.343
  C  C1600  1  0.334730  0.589700  0.709030  0.343
  C  C1601  1  0.681210  0.434360  0.304780  0.343
  C  C1602  1  0.318790  0.565640  0.695220  0.343
  C  C1603  1  0.754200  0.575290  0.102300  0.343
  C  C1604  1  0.245800  0.424710  0.897700  0.343
  C  C1605  1  0.789460  0.535820  0.084300  0.343
  C  C1606  1  0.210540  0.464180  0.915700  0.343
  C  C1607  1  0.773480  0.511600  0.069500  0.343
  C  C1608  1  0.226520  0.488400  0.930500  0.343
  C  C1609  1  0.720880  0.527170  0.073640  0.343
  C  C1610  1  0.279120  0.472830  0.926360  0.343
  C  C1611  1  0.686370  0.565890  0.091600  0.343
  C  C1612  1  0.313630  0.434110  0.908400  0.343
  C  C1613  1  0.704100  0.590940  0.106300  0.343
  C  C1614  1  0.295900  0.409060  0.893700  0.343
  C  C1615  1  0.718450  0.361260  0.196220  0.343
  C  C1616  1  0.281550  0.638740  0.803780  0.343
  C  C1617  1  0.640360  0.562120  0.122100  0.343
  C  C1618  1  0.359640  0.437880  0.877900  0.343
  C  C1619  1  0.623060  0.515030  0.272300  0.343
  C  C1620  1  0.376940  0.484970  0.727700  0.343
  C  C1621  1  0.825560  0.360440  0.218290  0.343
  C  C1622  1  0.174440  0.639560  0.781710  0.343
  C  C1623  1  0.813770  0.383410  0.251410  0.343
  C  C1624  1  0.186230  0.616590  0.748590  0.343
  C  C1625  1  0.831750  0.429170  0.103440  0.343
  C  C1626  1  0.168250  0.570830  0.896560  0.343
  C  C1627  1  0.789180  0.513280  0.225300  0.343
  C  C1628  1  0.210820  0.486720  0.774700  0.343
  C  C1629  1  0.857680  0.425160  0.161610  0.343
  C  C1630  1  0.142320  0.574840  0.838390  0.343
  C  C1631  1  0.698120  0.505670  0.285400  0.343
  C  C1632  1  0.301880  0.494330  0.714600  0.343
  C  C1633  1  0.665840  0.432350  0.149130  0.343
  C  C1634  1  0.334160  0.567650  0.850870  0.343
  C  C1635  1  0.628100  0.585210  0.157400  0.343
  C  C1636  1  0.371900  0.414790  0.842600  0.343
  C  C1637  1  0.595890  0.521260  0.212800  0.343
  C  C1638  1  0.404110  0.478740  0.787200  0.343
  C  C1639  1  0.824080  0.425590  0.240730  0.343
  C  C1640  1  0.175920  0.574410  0.759270  0.343
  C  C1641  1  0.830620  0.385190  0.136310  0.343
  C  C1642  1  0.169380  0.614810  0.863690  0.343
  C  C1643  1  0.846710  0.447210  0.194100  0.343
  C  C1644  1  0.153290  0.552790  0.805900  0.343
  C  C1645  1  0.756030  0.439840  0.088240  0.343
  C  C1646  1  0.243970  0.560160  0.911760  0.343
  C  C1647  1  0.770610  0.345720  0.192660  0.343
  C  C1648  1  0.229390  0.654280  0.807340  0.343
  C  C1649  1  0.660400  0.578740  0.227900  0.343
  C  C1650  1  0.339600  0.421260  0.772100  0.343
  C  C1651  1  0.667300  0.603430  0.146600  0.343
  C  C1652  1  0.332700  0.396570  0.853400  0.343
  C  C1653  1  0.743760  0.462840  0.289300  0.343
  C  C1654  1  0.256240  0.537160  0.710700  0.343
  C  C1655  1  0.710120  0.482510  0.084830  0.343
  C  C1656  1  0.289880  0.517490  0.915170  0.343
  C  C1657  1  0.682700  0.600050  0.181800  0.343
  C  C1658  1  0.317300  0.399950  0.818200  0.343
  C  C1659  1  0.825290  0.501080  0.184600  0.343
  C  C1660  1  0.174710  0.498920  0.815400  0.343
  C  C1661  1  0.793910  0.366300  0.146490  0.343
  C  C1662  1  0.206090  0.633700  0.853510  0.343
  C  C1663  1  0.607250  0.498920  0.179600  0.343
  C  C1664  1  0.392750  0.501080  0.820400  0.343
  C  C1665  1  0.623190  0.562380  0.237400  0.343
  C  C1666  1  0.376810  0.437620  0.762600  0.343
  C  C1667  1  0.630070  0.519550  0.133700  0.343
  C  C1668  1  0.369930  0.480450  0.866300  0.343
  C  C1669  1  0.786270  0.342440  0.227310  0.343
  C  C1670  1  0.213730  0.657560  0.772690  0.343
  C  C1671  1  0.629130  0.444940  0.189880  0.343
  C  C1672  1  0.370870  0.555060  0.810120  0.343
  C  C1673  1  0.626550  0.438210  0.265460  0.343
  C  C1674  1  0.373450  0.561790  0.734540  0.343
  C  C1675  1  0.606260  0.489950  0.256600  0.343
  C  C1676  1  0.393740  0.510050  0.743400  0.343
  C  C1677  1  0.828220  0.506550  0.108700  0.343
  C  C1678  1  0.171780  0.493450  0.891300  0.343
  C  C1679  1  0.848630  0.456010  0.117730  0.343
  C  C1680  1  0.151370  0.543990  0.882270  0.343
  C  C1681  1  0.788290  0.466800  0.260100  0.343
  C  C1682  1  0.211710  0.533200  0.739900  0.343
  C  C1683  1  0.607210  0.565130  0.200600  0.343
  C  C1684  1  0.392790  0.434870  0.799400  0.343
  C  C1685  1  0.847690  0.380590  0.173080  0.343
  C  C1686  1  0.152310  0.619410  0.826920  0.343
  C  C1687  1  0.659110  0.489060  0.294600  0.343
  C  C1688  1  0.340890  0.510940  0.705400  0.343
  C  C1689  1  0.666120  0.479430  0.114510  0.343
  C  C1690  1  0.333880  0.520570  0.885490  0.343
  C  C1691  1  0.684960  0.372770  0.234670  0.343
  C  C1692  1  0.315040  0.627230  0.765330  0.343
  C  C1693  1  0.795240  0.457240  0.078820  0.343
  C  C1694  1  0.204760  0.542760  0.921180  0.343
  C  C1695  1  0.770600  0.572680  0.139200  0.343
  C  C1696  1  0.229400  0.427320  0.860800  0.343
  C  C1697  1  0.735100  0.584870  0.177400  0.343
  C  C1698  1  0.264900  0.415130  0.822600  0.343
  C  C1699  1  0.755350  0.394780  0.121800  0.343
  C  C1700  1  0.244650  0.605220  0.878200  0.343
  C  C1701  1  0.816570  0.529660  0.143000  0.343
  C  C1702  1  0.183430  0.470340  0.857000  0.343
  C  C1703  1  0.744800  0.554360  0.221600  0.343
  C  C1704  1  0.255200  0.445640  0.778400  0.343
  C  C1705  1  0.699900  0.549870  0.252800  0.343
  C  C1706  1  0.300100  0.450130  0.747200  0.343
  C  C1707  1  0.708290  0.391810  0.152520  0.343
  C  C1708  1  0.291710  0.608190  0.847480  0.343
  C  C1709  1  0.638810  0.415280  0.231990  0.343
  C  C1710  1  0.361190  0.584720  0.768010  0.343
  C  C1711  1  0.253100  0.441000  0.442400  0.349
  C  C1712  1  0.746900  0.559000  0.557600  0.349
  C  C1713  1  0.231600  0.405200  0.461900  0.349
  C  C1714  1  0.768400  0.594800  0.538100  0.349
  C  C1715  1  0.239000  0.375100  0.437600  0.349
  C  C1716  1  0.761000  0.624900  0.562400  0.349
  C  C1717  1  0.268100  0.381200  0.394100  0.349
  C  C1718  1  0.731900  0.618800  0.605900  0.349
  C  C1719  1  0.289600  0.416500  0.376900  0.349
  C  C1720  1  0.710400  0.583500  0.623100  0.349
  C  C1721  1  0.323600  0.422200  0.331300  0.349
  C  C1722  1  0.676400  0.577800  0.668700  0.349
  C  C1723  1  0.263600  0.557300  0.435900  0.349
  C  C1724  1  0.736400  0.442700  0.564100  0.349
  C  C1725  1  0.260300  0.573300  0.470100  0.349
  C  C1726  1  0.739700  0.426700  0.529900  0.349
  C  C1727  1  0.292000  0.543500  0.498500  0.349
  C  C1728  1  0.708000  0.456500  0.501500  0.349
  C  C1729  1  0.326600  0.498100  0.492000  0.349
  C  C1730  1  0.673400  0.501900  0.508000  0.349
  C  C1731  1  0.329100  0.484800  0.456600  0.349
  C  C1732  1  0.670900  0.515200  0.543400  0.349
  C  C1733  1  0.367700  0.437700  0.446700  0.349
  C  C1734  1  0.632300  0.562300  0.553300  0.349
  C  C1735  1  0.229200  0.561500  0.344800  0.349
  C  C1736  1  0.770800  0.438500  0.655200  0.349
  C  C1737  1  0.199800  0.603700  0.318900  0.349
  C  C1738  1  0.800200  0.396300  0.681100  0.349
  C  C1739  1  0.217600  0.641400  0.290500  0.349
  C  C1740  1  0.782400  0.358600  0.709500  0.349
  C  C1741  1  0.264700  0.635900  0.288500  0.349
  C  C1742  1  0.735300  0.364100  0.711500  0.349
  C  C1743  1  0.292700  0.592400  0.314200  0.349
  C  C1744  1  0.707300  0.407600  0.685800  0.349
  C  C1745  1  0.344600  0.583600  0.310900  0.349
  C  C1746  1  0.655400  0.416400  0.689100  0.349
  C  C1747  1  0.394600  0.377300  0.408500  0.349
  C  C1748  1  0.605400  0.622700  0.591500  0.349
  C  C1749  1  0.440500  0.362100  0.379200  0.349
  C  C1750  1  0.559500  0.637900  0.620800  0.349
  C  C1751  1  0.463500  0.312900  0.377900  0.349
  C  C1752  1  0.536500  0.687100  0.622100  0.349
  C  C1753  1  0.440000  0.278800  0.406000  0.349
  C  C1754  1  0.560000  0.721200  0.594000  0.349
  C  C1755  1  0.394600  0.294000  0.435200  0.349
  C  C1756  1  0.605400  0.706000  0.564800  0.349
  C  C1757  1  0.371600  0.343200  0.436500  0.349
  C  C1758  1  0.628400  0.656800  0.563500  0.349
  C  C1759  1  0.497500  0.492600  0.344300  0.349
  C  C1760  1  0.502500  0.507400  0.655700  0.349
  C  C1761  1  0.491300  0.513900  0.376000  0.349
  C  C1762  1  0.508700  0.486100  0.624000  0.349
  C  C1763  1  0.444700  0.545500  0.393000  0.349
  C  C1764  1  0.555300  0.454500  0.607000  0.349
  C  C1765  1  0.404300  0.555700  0.378300  0.349
  C  C1766  1  0.595700  0.444300  0.621700  0.349
  C  C1767  1  0.410400  0.534300  0.346500  0.349
  C  C1768  1  0.589600  0.465700  0.653500  0.349
  C  C1769  1  0.457000  0.502800  0.329500  0.349
  C  C1770  1  0.543000  0.497200  0.670500  0.349
  C  C1771  1  0.523770  0.318260  0.197600  0.384
  C  C1772  1  0.476230  0.681740  0.802400  0.384
  C  C1773  1  0.509460  0.276300  0.222900  0.384
  C  C1774  1  0.490540  0.723700  0.777100  0.384
  C  C1775  1  0.508360  0.246000  0.200900  0.384
  C  C1776  1  0.491640  0.754000  0.799100  0.384
  C  C1777  1  0.521780  0.259200  0.153700  0.384
  C  C1778  1  0.478220  0.740800  0.846300  0.384
  C  C1779  1  0.537300  0.302000  0.127900  0.384
  C  C1780  1  0.462700  0.698000  0.872100  0.384
  C  C1781  1  0.538510  0.329810  0.149300  0.384
  C  C1782  1  0.461490  0.670190  0.850700  0.384
  C  C1783  1  0.751660  0.174730  0.205100  0.384
  C  C1784  1  0.248340  0.825270  0.794900  0.384
  C  C1785  1  0.736470  0.134030  0.231110  0.384
  C  C1786  1  0.263530  0.865970  0.768890  0.384
  C  C1787  1  0.735860  0.105070  0.209410  0.384
  C  C1788  1  0.264140  0.894930  0.790590  0.384
  C  C1789  1  0.750220  0.117960  0.160590  0.384
  C  C1790  1  0.249780  0.882040  0.839410  0.384
  C  C1791  1  0.764970  0.158120  0.135220  0.384
  C  C1792  1  0.235030  0.841880  0.864780  0.384
  C  C1793  1  0.765770  0.187510  0.158720  0.384
  C  C1794  1  0.234230  0.812490  0.841280  0.384
  C  C1795  1  0.568650  0.170300  0.156600  0.384
  C  C1796  1  0.431350  0.829700  0.843400  0.384
  C  C1797  1  0.748410  0.190660  0.094830  0.384
  C  C1798  1  0.251590  0.809340  0.905170  0.384
  C  C1799  1  0.616950  0.335130  0.097690  0.384
  C  C1800  1  0.383050  0.664870  0.902310  0.384
  C  C1801  1  0.535120  0.194100  0.265700  0.384
  C  C1802  1  0.464880  0.805900  0.734300  0.384
  C  C1803  1  0.526370  0.243100  0.263200  0.384
  C  C1804  1  0.473630  0.756900  0.736800  0.384
  C  C1805  1  0.655350  0.100520  0.261200  0.384
  C  C1806  1  0.344650  0.899480  0.738800  0.384
  C  C1807  1  0.622820  0.280650  0.252520  0.384
  C  C1808  1  0.377180  0.719350  0.747480  0.384
  C  C1809  1  0.607270  0.163610  0.296350  0.384
  C  C1810  1  0.392730  0.836390  0.703650  0.384
  C  C1811  1  0.590170  0.344630  0.172500  0.384
  C  C1812  1  0.409830  0.655370  0.827500  0.384
  C  C1813  1  0.651220  0.154200  0.106500  0.384
  C  C1814  1  0.348780  0.845800  0.893500  0.384
  C  C1815  1  0.738230  0.242220  0.092210  0.384
  C  C1816  1  0.261770  0.757780  0.907790  0.384
  C  C1817  1  0.667480  0.271610  0.061370  0.384
  C  C1818  1  0.332520  0.728390  0.938630  0.384
  C  C1819  1  0.556310  0.252770  0.277300  0.384
  C  C1820  1  0.443690  0.747230  0.722700  0.384
  C  C1821  1  0.607020  0.114810  0.259700  0.384
  C  C1822  1  0.392980  0.885190  0.740300  0.384
  C  C1823  1  0.598310  0.211460  0.294360  0.384
  C  C1824  1  0.401690  0.788540  0.705640  0.384
  C  C1825  1  0.684490  0.089300  0.185500  0.384
  C  C1826  1  0.315510  0.910700  0.814500  0.384
  C  C1827  1  0.553960  0.158000  0.205100  0.384
  C  C1828  1  0.446040  0.842000  0.794900  0.384
  C  C1829  1  0.678940  0.317790  0.135530  0.384
  C  C1830  1  0.321060  0.682210  0.864470  0.384
  C  C1831  1  0.750000  0.239260  0.131370  0.384
  C  C1832  1  0.250000  0.760740  0.868630  0.384
  C  C1833  1  0.555650  0.326840  0.212090  0.384
  C  C1834  1  0.444350  0.673160  0.787910  0.384
  C  C1835  1  0.718580  0.107610  0.145700  0.384
  C  C1836  1  0.281420  0.892390  0.854300  0.384
  C  C1837  1  0.720400  0.276940  0.152310  0.384
  C  C1838  1  0.279600  0.723060  0.847690  0.384
  C  C1839  1  0.639190  0.228550  0.279150  0.384
  C  C1840  1  0.360810  0.771450  0.720850  0.384
  C  C1841  1  0.594930  0.116690  0.222800  0.384
  C  C1842  1  0.405070  0.883310  0.777200  0.384
  C  C1843  1  0.676670  0.222900  0.063580  0.384
  C  C1844  1  0.323330  0.777100  0.936420  0.384
  C  C1845  1  0.668840  0.320230  0.098290  0.384
  C  C1846  1  0.331160  0.679770  0.901710  0.384
  C  C1847  1  0.717530  0.181920  0.080820  0.384
  C  C1848  1  0.282470  0.818080  0.919180  0.384
  C  C1849  1  0.524770  0.195100  0.226100  0.384
  C  C1850  1  0.475230  0.804900  0.773900  0.384
  C  C1851  1  0.635130  0.206600  0.079400  0.384
  C  C1852  1  0.364870  0.793400  0.920600  0.384
  C  C1853  1  0.577650  0.287900  0.089200  0.384
  C  C1854  1  0.422350  0.712100  0.910800  0.384
  C  C1855  1  0.616690  0.304610  0.074890  0.384
  C  C1856  1  0.383310  0.695390  0.925110  0.384
  C  C1857  1  0.696120  0.146200  0.269420  0.384
  C  C1858  1  0.303880  0.853800  0.730580  0.384
  C  C1859  1  0.657650  0.130270  0.284020  0.384
  C  C1860  1  0.342350  0.869730  0.715980  0.384
  C  C1861  1  0.571610  0.295890  0.251290  0.384
  C  C1862  1  0.428390  0.704110  0.748710  0.384
  C  C1863  1  0.699290  0.280460  0.076480  0.384
  C  C1864  1  0.300710  0.719540  0.923520  0.384
  C  C1865  1  0.575350  0.153610  0.282300  0.384
  C  C1866  1  0.424650  0.846390  0.717700  0.384
  C  C1867  1  0.580470  0.346550  0.133430  0.384
  C  C1868  1  0.419530  0.653450  0.866570  0.384
  C  C1869  1  0.702700  0.139540  0.107300  0.384
  C  C1870  1  0.297300  0.860460  0.892700  0.384
  C  C1871  1  0.553070  0.219500  0.132100  0.384
  C  C1872  1  0.446930  0.780500  0.867900  0.384
  C  C1873  1  0.694800  0.087490  0.224800  0.384
  C  C1874  1  0.305200  0.912510  0.775200  0.384
  C  C1875  1  0.721170  0.214650  0.227410  0.384
  C  C1876  1  0.278830  0.785350  0.772590  0.384
  C  C1877  1  0.706460  0.263990  0.200910  0.384
  C  C1878  1  0.293540  0.736010  0.799090  0.384
  C  C1879  1  0.634980  0.103800  0.184500  0.384
  C  C1880  1  0.365020  0.896200  0.815500  0.384
  C  C1881  1  0.686600  0.196600  0.267230  0.384
  C  C1882  1  0.313400  0.803400  0.732770  0.384
  C  C1883  1  0.655940  0.297860  0.213960  0.384
  C  C1884  1  0.344060  0.702140  0.786040  0.384
  C  C1885  1  0.638290  0.330800  0.174650  0.384
  C  C1886  1  0.361710  0.669200  0.825350  0.384
  C  C1887  1  0.618910  0.137000  0.143200  0.384
  C  C1888  1  0.381090  0.863000  0.856800  0.384
  C  C1889  1  0.586580  0.238500  0.092200  0.384
  C  C1890  1  0.413420  0.761500  0.907800  0.384
  C  C1891  1  0.527300  0.466600  0.396100  0.45
  C  C1892  1  0.472700  0.533400  0.603900  0.45
  C  C1893  1  0.548700  0.502000  0.377000  0.45
  C  C1894  1  0.451300  0.498000  0.623000  0.45
  C  C1895  1  0.525200  0.554500  0.356100  0.45
  C  C1896  1  0.474800  0.445500  0.643900  0.45
  C  C1897  1  0.547100  0.580700  0.360200  0.45
  C  C1898  1  0.452900  0.419300  0.639800  0.45
  C  C1899  1  0.587300  0.542800  0.380700  0.45
  C  C1900  1  0.412700  0.457200  0.619300  0.45
  C  C1901  1  0.627200  0.551300  0.381500  0.45
  C  C1902  1  0.372800  0.448700  0.618500  0.45
  C  C1903  1  0.672100  0.515900  0.384100  0.45
  C  C1904  1  0.327900  0.484100  0.615900  0.45
  C  C1905  1  0.715400  0.527100  0.377000  0.45
  C  C1906  1  0.284600  0.472900  0.623000  0.45
  C  C1907  1  0.755100  0.484900  0.373000  0.45
  C  C1908  1  0.244900  0.515100  0.627000  0.45
  C  C1909  1  0.735800  0.445300  0.392000  0.45
  C  C1910  1  0.264200  0.554700  0.608000  0.45
  C  C1911  1  0.762300  0.395200  0.409000  0.45
  C  C1912  1  0.237700  0.604800  0.591000  0.45
  C  C1913  1  0.739200  0.359400  0.429500  0.45
  C  C1914  1  0.260800  0.640600  0.570500  0.45
  C  C1915  1  0.762100  0.306700  0.453100  0.45
  C  C1916  1  0.237900  0.693300  0.546900  0.45
  C  C1917  1  0.724800  0.289300  0.476700  0.45
  C  C1918  1  0.275200  0.710700  0.523300  0.45
  C  C1919  1  0.679600  0.330800  0.471900  0.45
  C  C1920  1  0.320400  0.669200  0.528100  0.45
  C  C1921  1  0.634700  0.325500  0.487600  0.45
  C  C1922  1  0.365300  0.674500  0.512400  0.45
  C  C1923  1  0.592500  0.359700  0.471900  0.45
  C  C1924  1  0.407500  0.640300  0.528100  0.45
  C  C1925  1  0.552600  0.345700  0.477700  0.45
  C  C1926  1  0.447400  0.654300  0.522300  0.45
  C  C1927  1  0.522800  0.384000  0.451100  0.45
  C  C1928  1  0.477200  0.616000  0.548900  0.45
  C  C1929  1  0.543400  0.421800  0.429200  0.45
  C  C1930  1  0.456600  0.578200  0.570800  0.45
  C  C1931  1  0.536500  0.636500  0.344100  0.45
  C  C1932  1  0.463500  0.363500  0.655900  0.45
  C  C1933  1  0.572000  0.648200  0.298500  0.45
  C  C1934  1  0.428000  0.351800  0.701500  0.45
  C  C1935  1  0.714500  0.579400  0.363200  0.45
  C  C1936  1  0.285500  0.420600  0.636800  0.45
  C  C1937  1  0.705800  0.607500  0.316100  0.45
  C  C1938  1  0.294200  0.392500  0.683900  0.45
  C  C1939  1  0.728900  0.236900  0.505400  0.45
  C  C1940  1  0.271100  0.763100  0.494600  0.45
  C  C1941  1  0.741000  0.205700  0.474900  0.45
  C  C1942  1  0.259000  0.794300  0.525100  0.45
  C  C1943  1  0.542500  0.300800  0.513900  0.45
  C  C1944  1  0.457500  0.699200  0.486100  0.45
  C  C1945  1  0.516000  0.316000  0.557800  0.45
  C  C1946  1  0.484000  0.684000  0.442200  0.45
  C  C1947  1  0.484600  0.579200  0.330900  0.45
  C  C1948  1  0.515400  0.420800  0.669100  0.45
  C  C1949  1  0.808000  0.481400  0.357800  0.45
  C  C1950  1  0.192000  0.518600  0.642200  0.45
  C  C1951  1  0.815000  0.278500  0.458100  0.45
  C  C1952  1  0.185000  0.721500  0.541900  0.45
  C  C1953  1  0.475200  0.384000  0.449800  0.45
  C  C1954  1  0.524800  0.616000  0.550200  0.45
  C  C1955  1  0.348300  0.330800  0.198100  0.5
  C  C1956  1  0.651700  0.669200  0.801900  0.5
  C  C1957  1  0.809000  0.047200  0.308700  0.5
  C  C1958  1  0.191000  0.952800  0.691300  0.5
  C  C1959  1  0.774200  0.067800  0.340200  0.5
  C  C1960  1  0.225800  0.932200  0.659800  0.5
  C  C1961  1  0.745200  0.054400  0.418100  0.5
  C  C1962  1  0.254800  0.945600  0.581900  0.5
  C  C1963  1  0.753000  0.031000  0.465900  0.5
  C  C1964  1  0.247000  0.969000  0.534100  0.5
  C  C1965  1  0.909440  0.190030  0.093740  0.57
  C  C1966  1  0.090560  0.809970  0.906260  0.57
  C  C1967  1  0.948750  0.147660  0.081520  0.57
  C  C1968  1  0.051250  0.852340  0.918480  0.57
  C  C1969  1  0.998450  0.147790  0.060190  0.57
  C  C1970  1  0.001550  0.852210  0.939810  0.57
  C  C1971  1  0.006880  0.191000  0.051810  0.57
  C  C1972  1  0.993120  0.809000  0.948190  0.57
  C  C1973  1  0.966190  0.234280  0.065240  0.57
  C  C1974  1  0.033810  0.765720  0.934760  0.57
  C  C1975  1  0.919730  0.233180  0.085680  0.57
  C  C1976  1  0.080270  0.766820  0.914320  0.57
  C  C1977  1  0.959430  0.101940  0.289170  0.57
  C  C1978  1  0.040570  0.898060  0.710830  0.57
  C  C1979  1  0.997300  0.059720  0.276750  0.57
  C  C1980  1  0.002700  0.940280  0.723250  0.57
  C  C1981  1  0.044990  0.060330  0.256500  0.57
  C  C1982  1  0.955010  0.939670  0.743500  0.57
  C  C1983  1  0.054270  0.104650  0.248100  0.57
  C  C1984  1  0.945730  0.895350  0.751900  0.57
  C  C1985  1  0.016830  0.146090  0.260260  0.57
  C  C1986  1  0.983170  0.853910  0.739740  0.57
  C  C1987  1  0.967410  0.144340  0.281820  0.57
  C  C1988  1  0.032590  0.855660  0.718180  0.57
  C  C1989  1  0.084970  0.139000  0.076500  0.57
  C  C1990  1  0.915030  0.861000  0.923500  0.57
  C  C1991  1  0.013100  0.195230  0.230520  0.57
  C  C1992  1  0.986900  0.804770  0.769480  0.57
  C  C1993  1  0.908290  0.274640  0.138540  0.57
  C  C1994  1  0.091710  0.725360  0.861460  0.57
  C  C1995  1  0.004000  0.069070  0.108190  0.57
  C  C1996  1  0.996000  0.930930  0.891810  0.57
  C  C1997  1  0.953170  0.098250  0.111350  0.57
  C  C1998  1  0.046830  0.901750  0.888650  0.57
  C  C1999  1  0.056470  0.019230  0.201800  0.57
  C  C2000  1  0.943530  0.980770  0.798200  0.57
  C  C2001  1  0.869450  0.125880  0.213420  0.57
  C  C2002  1  0.130550  0.874120  0.786580  0.57
  C  C2003  1  0.984450  0.027800  0.189400  0.57
  C  C2004  1  0.015550  0.972200  0.810600  0.57
  C  C2005  1  0.862530  0.222960  0.154550  0.57
  C  C2006  1  0.137470  0.777040  0.845450  0.57
  C  C2007  1  0.095280  0.167390  0.128600  0.57
  C  C2008  1  0.904720  0.832610  0.871400  0.57
  C  C2009  1  0.960080  0.225880  0.232900  0.57
  C  C2010  1  0.039920  0.774120  0.767100  0.57
  C  C2011  1  0.980340  0.266680  0.152650  0.57
  C  C2012  1  0.019660  0.733320  0.847350  0.57
  C  C2013  1  0.918350  0.092350  0.151930  0.57
  C  C2014  1  0.081650  0.907650  0.848070  0.57
  C  C2015  1  0.064470  0.028870  0.156000  0.57
  C  C2016  1  0.935530  0.971130  0.844000  0.57
  C  C2017  1  0.934740  0.055900  0.192360  0.57
  C  C2018  1  0.065260  0.944100  0.807640  0.57
  C  C2019  1  0.103590  0.070570  0.187300  0.57
  C  C2020  1  0.896410  0.929430  0.812700  0.57
  C  C2021  1  0.075270  0.095290  0.084600  0.57
  C  C2022  1  0.924730  0.904710  0.915400  0.57
  C  C2023  1  0.873880  0.235270  0.216990  0.57
  C  C2024  1  0.126120  0.764730  0.783010  0.57
  C  C2025  1  0.932720  0.194110  0.265190  0.57
  C  C2026  1  0.067280  0.805890  0.734810  0.57
  C  C2027  1  0.874670  0.183250  0.136190  0.57
  C  C2028  1  0.125330  0.816750  0.863810  0.57
  C  C2029  1  0.091210  0.110710  0.205200  0.57
  C  C2030  1  0.908790  0.889290  0.794800  0.57
  C  C2031  1  0.890160  0.199280  0.256880  0.57
  C  C2032  1  0.109840  0.800720  0.743120  0.57
  C  C2033  1  0.904710  0.076460  0.230160  0.57
  C  C2034  1  0.095290  0.923540  0.769840  0.57
  C  C2035  1  0.091830  0.058360  0.124300  0.57
  C  C2036  1  0.908170  0.941640  0.875700  0.57
  C  C2037  1  0.030800  0.237930  0.149840  0.57
  C  C2038  1  0.969200  0.762070  0.850160  0.57
  C  C2039  1  0.899800  0.265270  0.187290  0.57
  C  C2040  1  0.100200  0.734730  0.812710  0.57
  C  C2041  1  0.047240  0.201520  0.189300  0.57
  C  C2042  1  0.952760  0.798480  0.810700  0.57
  C  C2043  1  0.033120  0.100080  0.076600  0.57
  C  C2044  1  0.966880  0.899920  0.923400  0.57
  C  C2045  1  0.059870  0.217360  0.111910  0.57
  C  C2046  1  0.940130  0.782640  0.888090  0.57
  C  C2047  1  0.987540  0.255560  0.081300  0.57
  C  C2048  1  0.012460  0.744440  0.918700  0.57
  C  C2049  1  0.958310  0.275230  0.117610  0.57
  C  C2050  1  0.041690  0.724770  0.882390  0.57
  C  C2051  1  0.978430  0.037630  0.259990  0.57
  C  C2052  1  0.021570  0.962370  0.740010  0.57
  C  C2053  1  0.006320  0.018150  0.224600  0.57
  C  C2054  1  0.993680  0.981850  0.775400  0.57
  C  C2055  1  0.877610  0.135910  0.165100  0.57
  C  C2056  1  0.122390  0.864090  0.834900  0.57
  C  C2057  1  0.944910  0.259590  0.195420  0.57
  C  C2058  1  0.055090  0.740410  0.804580  0.57
  C  C2059  1  0.020580  0.033440  0.146800  0.57
  C  C2060  1  0.979420  0.966560  0.853200  0.57
  C  C2061  1  0.890020  0.254060  0.124110  0.57
  C  C2062  1  0.109980  0.745940  0.875890  0.57
  C  C2063  1  0.086620  0.158030  0.177100  0.57
  C  C2064  1  0.913380  0.841970  0.822900  0.57
  C  C2065  1  0.051320  0.185210  0.060940  0.57
  C  C2066  1  0.948680  0.814790  0.939060  0.57
  C  C2067  1  0.075500  0.039310  0.218500  0.57
  C  C2068  1  0.924500  0.960690  0.781500  0.57
  C  C2069  1  0.913850  0.107330  0.281300  0.57
  C  C2070  1  0.086150  0.892670  0.718700  0.57
  C  C2071  1  0.880890  0.155090  0.265550  0.57
  C  C2072  1  0.119110  0.844910  0.734450  0.57
  C  C2073  1  0.111660  0.080030  0.140600  0.57
  C  C2074  1  0.888340  0.919970  0.859400  0.57
  C  C2075  1  0.926150  0.067300  0.262950  0.57
  C  C2076  1  0.073850  0.932700  0.737050  0.57
  C  C2077  1  0.858020  0.164490  0.230750  0.57
  C  C2078  1  0.141980  0.835510  0.769250  0.57
  C  C2079  1  0.853660  0.213030  0.200610  0.57
  C  C2080  1  0.146340  0.786970  0.799390  0.57
  C  C2081  1  0.107520  0.130200  0.111000  0.57
  C  C2082  1  0.892480  0.869800  0.889000  0.57
  C  C2083  1  0.038430  0.225870  0.078440  0.57
  C  C2084  1  0.961570  0.774130  0.921560  0.57
  C  C2085  1  0.580690  0.290500  0.085800  0.616
  C  C2086  1  0.419310  0.709500  0.914200  0.616
  C  C2087  1  0.571660  0.327330  0.105000  0.616
  C  C2088  1  0.428340  0.672670  0.895000  0.616
  C  C2089  1  0.537240  0.330620  0.148100  0.616
  C  C2090  1  0.462760  0.669380  0.851900  0.616
  C  C2091  1  0.512870  0.296500  0.170500  0.616
  C  C2092  1  0.487130  0.703500  0.829500  0.616
  C  C2093  1  0.523080  0.258100  0.150700  0.616
  C  C2094  1  0.476920  0.741900  0.849300  0.616
  C  C2095  1  0.556000  0.255300  0.110200  0.616
  C  C2096  1  0.444000  0.744700  0.889800  0.616
  C  C2097  1  0.759430  0.141470  0.186640  0.616
  C  C2098  1  0.240570  0.858530  0.813360  0.616
  C  C2099  1  0.750640  0.178910  0.204330  0.616
  C  C2100  1  0.249360  0.821090  0.795670  0.616
  C  C2101  1  0.717610  0.181440  0.245950  0.616
  C  C2102  1  0.282390  0.818560  0.754050  0.616
  C  C2103  1  0.692610  0.145900  0.269720  0.616
  C  C2104  1  0.307390  0.854100  0.730280  0.616
  C  C2105  1  0.701280  0.109280  0.252070  0.616
  C  C2106  1  0.298720  0.890720  0.747930  0.616
  C  C2107  1  0.736340  0.107120  0.208720  0.616
  C  C2108  1  0.263660  0.892880  0.791280  0.616
  C  C2109  1  0.525670  0.287080  0.242300  0.616
  C  C2110  1  0.474330  0.712920  0.757700  0.616
  C  C2111  1  0.660830  0.097460  0.255000  0.616
  C  C2112  1  0.339170  0.902540  0.745000  0.616
  C  C2113  1  0.590630  0.164600  0.137300  0.616
  C  C2114  1  0.409370  0.835400  0.862700  0.616
  C  C2115  1  0.602520  0.349370  0.143100  0.616
  C  C2116  1  0.397480  0.650630  0.856900  0.616
  C  C2117  1  0.612070  0.339040  0.102710  0.616
  C  C2118  1  0.387930  0.660960  0.897290  0.616
  C  C2119  1  0.681320  0.273800  0.218340  0.616
  C  C2120  1  0.318680  0.726200  0.781660  0.616
  C  C2121  1  0.716730  0.236450  0.069420  0.616
  C  C2122  1  0.283270  0.763550  0.930580  0.616
  C  C2123  1  0.691600  0.307560  0.140900  0.616
  C  C2124  1  0.308400  0.692440  0.859100  0.616
  C  C2125  1  0.636540  0.213000  0.075600  0.616
  C  C2126  1  0.363460  0.787000  0.924400  0.616
  C  C2127  1  0.556840  0.200720  0.286600  0.616
  C  C2128  1  0.443160  0.799280  0.713400  0.616
  C  C2129  1  0.669940  0.087480  0.212500  0.616
  C  C2130  1  0.330060  0.912520  0.787500  0.616
  C  C2131  1  0.581610  0.128400  0.215700  0.616
  C  C2132  1  0.418390  0.871600  0.784300  0.616
  C  C2133  1  0.659850  0.314430  0.081160  0.616
  C  C2134  1  0.340150  0.685570  0.918840  0.616
  C  C2135  1  0.636680  0.311090  0.211020  0.616
  C  C2136  1  0.363320  0.688910  0.788980  0.616
  C  C2137  1  0.700960  0.298030  0.101140  0.616
  C  C2138  1  0.299040  0.701970  0.898860  0.616
  C  C2139  1  0.636340  0.223520  0.281950  0.616
  C  C2140  1  0.363660  0.776480  0.718050  0.616
  C  C2141  1  0.550340  0.322550  0.218220  0.616
  C  C2142  1  0.449660  0.677450  0.781780  0.616
  C  C2143  1  0.681590  0.129880  0.119000  0.616
  C  C2144  1  0.318410  0.870120  0.881000  0.616
  C  C2145  1  0.716940  0.092760  0.185000  0.616
  C  C2146  1  0.283060  0.907240  0.815000  0.616
  C  C2147  1  0.630330  0.264700  0.064700  0.616
  C  C2148  1  0.369670  0.735300  0.935300  0.616
  C  C2149  1  0.642140  0.172000  0.292560  0.616
  C  C2150  1  0.357860  0.828000  0.707440  0.616
  C  C2151  1  0.722120  0.113680  0.138900  0.616
  C  C2152  1  0.277880  0.886320  0.861100  0.616
  C  C2153  1  0.735930  0.250120  0.093950  0.616
  C  C2154  1  0.264070  0.749880  0.906050  0.616
  C  C2155  1  0.590940  0.307300  0.237880  0.616
  C  C2156  1  0.409060  0.692700  0.762120  0.616
  C  C2157  1  0.572330  0.138100  0.256100  0.616
  C  C2158  1  0.427670  0.861900  0.743900  0.616
  C  C2159  1  0.637850  0.124000  0.145500  0.616
  C  C2160  1  0.362150  0.876000  0.854500  0.616
  C  C2161  1  0.612610  0.122620  0.275700  0.616
  C  C2162  1  0.387390  0.877380  0.724300  0.616
  C  C2163  1  0.555770  0.343330  0.172500  0.616
  C  C2164  1  0.444230  0.656670  0.827500  0.616
  C  C2165  1  0.537550  0.186500  0.262200  0.616
  C  C2166  1  0.462450  0.813500  0.737800  0.616
  C  C2167  1  0.522530  0.212700  0.188400  0.616
  C  C2168  1  0.477470  0.787300  0.811600  0.616
  C  C2169  1  0.556280  0.166900  0.181000  0.616
  C  C2170  1  0.443720  0.833100  0.819000  0.616
  C  C2171  1  0.750050  0.224800  0.168590  0.616
  C  C2172  1  0.249950  0.775200  0.831410  0.616
  C  C2173  1  0.717480  0.269940  0.175030  0.616
  C  C2174  1  0.282520  0.730060  0.824970  0.616
  C  C2175  1  0.669760  0.276060  0.061340  0.616
  C  C2176  1  0.330240  0.723940  0.938660  0.616
  C  C2177  1  0.631860  0.102740  0.194000  0.616
  C  C2178  1  0.368140  0.897260  0.806000  0.616
  C  C2179  1  0.641750  0.334080  0.162850  0.616
  C  C2180  1  0.358250  0.665920  0.837150  0.616
  C  C2181  1  0.591300  0.206300  0.103800  0.616
  C  C2182  1  0.408700  0.793700  0.896200  0.616
  C  C2183  1  0.603900  0.160490  0.294510  0.616
  C  C2184  1  0.396100  0.839510  0.705490  0.616
  C  C2185  1  0.507970  0.274500  0.218700  0.616
  C  C2186  1  0.492030  0.725500  0.781300  0.616
  C  C2187  1  0.682490  0.229770  0.253400  0.616
  C  C2188  1  0.317510  0.770230  0.746600  0.616
  C  C2189  1  0.765890  0.162920  0.137610  0.616
  C  C2190  1  0.234110  0.837080  0.862390  0.616
  C  C2191  1  0.747340  0.148790  0.115270  0.616
  C  C2192  1  0.252660  0.851210  0.884730  0.616
  C  C2193  1  0.590960  0.261940  0.274250  0.616
  C  C2194  1  0.409040  0.738060  0.725750  0.616
  C  C2195  1  0.759750  0.214800  0.126800  0.616
  C  C2196  1  0.240250  0.785200  0.873200  0.616
  C  C2197  1  0.722200  0.186630  0.080160  0.616
  C  C2198  1  0.277800  0.813370  0.919840  0.616
  C  C2199  1  0.681810  0.176030  0.082000  0.616
  C  C2200  1  0.318190  0.823970  0.918000  0.616
  C  C2201  1  0.550440  0.249130  0.277210  0.616
  C  C2202  1  0.449560  0.750870  0.722790  0.616
  C  C2203  1  0.513390  0.223200  0.228800  0.616
  C  C2204  1  0.486610  0.776800  0.771200  0.616
  C  C2205  1  0.223400  0.533300  0.448600  0.651
  C  C2206  1  0.776600  0.466700  0.551400  0.651
  C  C2207  1  0.209100  0.542200  0.489800  0.651
  C  C2208  1  0.790900  0.457800  0.510200  0.651
  C  C2209  1  0.234500  0.508400  0.522700  0.651
  C  C2210  1  0.765500  0.491600  0.477300  0.651
  C  C2211  1  0.273900  0.466200  0.513500  0.651
  C  C2212  1  0.726100  0.533800  0.486500  0.651
  C  C2213  1  0.287200  0.460100  0.471500  0.651
  C  C2214  1  0.712800  0.539900  0.528500  0.651
  C  C2215  1  0.331200  0.416800  0.459300  0.651
  C  C2216  1  0.668800  0.583200  0.540700  0.651
  C  C2217  1  0.219800  0.423500  0.435600  0.651
  C  C2218  1  0.780200  0.576500  0.564400  0.651
  C  C2219  1  0.201200  0.389300  0.439800  0.651
  C  C2220  1  0.798800  0.610700  0.560200  0.651
  C  C2221  1  0.219800  0.365600  0.406700  0.651
  C  C2222  1  0.780200  0.634400  0.593300  0.651
  C  C2223  1  0.256900  0.376300  0.370100  0.651
  C  C2224  1  0.743100  0.623700  0.629900  0.651
  C  C2225  1  0.274900  0.409600  0.368400  0.651
  C  C2226  1  0.725100  0.590400  0.631600  0.651
  C  C2227  1  0.317000  0.419900  0.331100  0.651
  C  C2228  1  0.683000  0.580100  0.668900  0.651
  C  C2229  1  0.212000  0.548100  0.345600  0.651
  C  C2230  1  0.788000  0.451900  0.654400  0.651
  C  C2231  1  0.182100  0.595000  0.325300  0.651
  C  C2232  1  0.817900  0.405000  0.674700  0.651
  C  C2233  1  0.197400  0.634900  0.309900  0.651
  C  C2234  1  0.802600  0.365100  0.690100  0.651
  C  C2235  1  0.242500  0.626900  0.314800  0.651
  C  C2236  1  0.757500  0.373100  0.685200  0.651
  C  C2237  1  0.271300  0.579100  0.334100  0.651
  C  C2238  1  0.728700  0.420900  0.665900  0.651
  C  C2239  1  0.321400  0.568300  0.337500  0.651
  C  C2240  1  0.678600  0.431700  0.662500  0.651
  C  C2241  1  0.433900  0.270100  0.409100  0.651
  C  C2242  1  0.566100  0.729900  0.590900  0.651
  C  C2243  1  0.386700  0.276800  0.437300  0.651
  C  C2244  1  0.613300  0.723200  0.562700  0.651
  C  C2245  1  0.354200  0.324200  0.440800  0.651
  C  C2246  1  0.645800  0.675800  0.559200  0.651
  C  C2247  1  0.368900  0.364900  0.416200  0.651
  C  C2248  1  0.631100  0.635100  0.583800  0.651
  C  C2249  1  0.416100  0.358200  0.388000  0.651
  C  C2250  1  0.583900  0.641800  0.612000  0.651
  C  C2251  1  0.448600  0.310800  0.384500  0.651
  C  C2252  1  0.551400  0.689200  0.615500  0.651
  C  C2253  1  0.391600  0.505700  0.366300  0.651
  C  C2254  1  0.608400  0.494300  0.633700  0.651
  C  C2255  1  0.392400  0.515000  0.403000  0.651
  C  C2256  1  0.607600  0.485000  0.597000  0.651
  C  C2257  1  0.437200  0.500600  0.412700  0.651
  C  C2258  1  0.562800  0.499400  0.587300  0.651
  C  C2259  1  0.481300  0.477000  0.385700  0.651
  C  C2260  1  0.518700  0.523000  0.614300  0.651
  C  C2261  1  0.480600  0.467700  0.348900  0.651
  C  C2262  1  0.519400  0.532300  0.651100  0.651
  C  C2263  1  0.435700  0.482000  0.339200  0.651
  C  C2264  1  0.564300  0.518000  0.660800  0.651
  C  C2265  1  0.770100  0.564260  0.172100  0.657
  C  C2266  1  0.229900  0.435740  0.827900  0.657
  C  C2267  1  0.749000  0.584790  0.134700  0.657
  C  C2268  1  0.251000  0.415210  0.865300  0.657
  C  C2269  1  0.771800  0.562830  0.097800  0.657
  C  C2270  1  0.228200  0.437170  0.902200  0.657
  C  C2271  1  0.815620  0.520600  0.099800  0.657
  C  C2272  1  0.184380  0.479400  0.900200  0.657
  C  C2273  1  0.836710  0.499200  0.138900  0.657
  C  C2274  1  0.163290  0.500800  0.861100  0.657
  C  C2275  1  0.814290  0.520210  0.173600  0.657
  C  C2276  1  0.185710  0.479790  0.826400  0.657
  C  C2277  1  0.638230  0.423830  0.270440  0.657
  C  C2278  1  0.361770  0.576170  0.729560  0.657
  C  C2279  1  0.616850  0.445600  0.233550  0.657
  C  C2280  1  0.383150  0.554400  0.766450  0.657
  C  C2281  1  0.639160  0.423870  0.198390  0.657
  C  C2282  1  0.360840  0.576130  0.801610  0.657
  C  C2283  1  0.684190  0.379810  0.200370  0.657
  C  C2284  1  0.315810  0.620190  0.799630  0.657
  C  C2285  1  0.705100  0.358700  0.236670  0.657
  C  C2286  1  0.294900  0.641300  0.763330  0.657
  C  C2287  1  0.680800  0.381820  0.273190  0.657
  C  C2288  1  0.319200  0.618180  0.726810  0.657
  C  C2289  1  0.784720  0.482750  0.070400  0.657
  C  C2290  1  0.215280  0.517250  0.929600  0.657
  C  C2291  1  0.757980  0.341180  0.229820  0.657
  C  C2292  1  0.242020  0.658820  0.770180  0.657
  C  C2293  1  0.828760  0.438350  0.228700  0.657
  C  C2294  1  0.171240  0.561650  0.771300  0.657
  C  C2295  1  0.686900  0.590910  0.109200  0.657
  C  C2296  1  0.313100  0.409090  0.890800  0.657
  C  C2297  1  0.696000  0.601900  0.141300  0.657
  C  C2298  1  0.304000  0.398100  0.858700  0.657
  C  C2299  1  0.625670  0.507070  0.142000  0.657
  C  C2300  1  0.374330  0.492930  0.858000  0.657
  C  C2301  1  0.658720  0.548250  0.259700  0.657
  C  C2302  1  0.341280  0.451750  0.740300  0.657
  C  C2303  1  0.615600  0.571320  0.166100  0.657
  C  C2304  1  0.384400  0.428680  0.833900  0.657
  C  C2305  1  0.763400  0.513380  0.245900  0.657
  C  C2306  1  0.236600  0.486620  0.754100  0.657
  C  C2307  1  0.794570  0.396250  0.112030  0.657
  C  C2308  1  0.205430  0.603750  0.887970  0.657
  C  C2309  1  0.768040  0.353320  0.262630  0.657
  C  C2310  1  0.231960  0.646680  0.737370  0.657
  C  C2311  1  0.838760  0.371820  0.206060  0.657
  C  C2312  1  0.161240  0.628180  0.793940  0.657
  C  C2313  1  0.665800  0.598690  0.184400  0.657
  C  C2314  1  0.334200  0.401310  0.815600  0.657
  C  C2315  1  0.652860  0.534220  0.107600  0.657
  C  C2316  1  0.347140  0.465780  0.892400  0.657
  C  C2317  1  0.624210  0.582660  0.197200  0.657
  C  C2318  1  0.375790  0.417340  0.802800  0.657
  C  C2319  1  0.690660  0.429830  0.125210  0.657
  C  C2320  1  0.309340  0.570170  0.874790  0.657
  C  C2321  1  0.740230  0.526840  0.068520  0.657
  C  C2322  1  0.259770  0.473160  0.931480  0.657
  C  C2323  1  0.755610  0.432110  0.290370  0.657
  C  C2324  1  0.244390  0.567890  0.709630  0.657
  C  C2325  1  0.720110  0.377450  0.289410  0.657
  C  C2326  1  0.279890  0.622550  0.710590  0.657
  C  C2327  1  0.738400  0.560110  0.216400  0.657
  C  C2328  1  0.261600  0.439890  0.783600  0.657
  C  C2329  1  0.716030  0.383260  0.154690  0.657
  C  C2330  1  0.283970  0.616740  0.845310  0.657
  C  C2331  1  0.714630  0.416230  0.302920  0.657
  C  C2332  1  0.285370  0.583770  0.697080  0.657
  C  C2333  1  0.619840  0.551660  0.243500  0.657
  C  C2334  1  0.380160  0.448340  0.756500  0.657
  C  C2335  1  0.698560  0.511830  0.080560  0.657
  C  C2336  1  0.301440  0.488170  0.919440  0.657
  C  C2337  1  0.829740  0.360380  0.174550  0.657
  C  C2338  1  0.170260  0.639620  0.825450  0.657
  C  C2339  1  0.800600  0.408510  0.265630  0.657
  C  C2340  1  0.199400  0.591490  0.734370  0.657
  C  C2341  1  0.788580  0.345160  0.186610  0.657
  C  C2342  1  0.211420  0.654840  0.813390  0.657
  C  C2343  1  0.734400  0.565380  0.082000  0.657
  C  C2344  1  0.265600  0.434620  0.918000  0.657
  C  C2345  1  0.833890  0.392310  0.128560  0.657
  C  C2346  1  0.166110  0.607690  0.871440  0.657
  C  C2347  1  0.856390  0.444650  0.147440  0.657
  C  C2348  1  0.143610  0.555350  0.852560  0.657
  C  C2349  1  0.852000  0.415300  0.192050  0.657
  C  C2350  1  0.148000  0.584700  0.807950  0.657
  C  C2351  1  0.597460  0.499540  0.223300  0.657
  C  C2352  1  0.402540  0.500460  0.776700  0.657
  C  C2353  1  0.601280  0.528940  0.180000  0.657
  C  C2354  1  0.398720  0.471060  0.820000  0.657
  C  C2355  1  0.687200  0.577270  0.223400  0.657
  C  C2356  1  0.312800  0.422730  0.776600  0.657
  C  C2357  1  0.806500  0.368230  0.250760  0.657
  C  C2358  1  0.193500  0.631770  0.749240  0.657
  C  C2359  1  0.646730  0.575610  0.120800  0.657
  C  C2360  1  0.353270  0.424390  0.879200  0.657
  C  C2361  1  0.810080  0.488050  0.220300  0.657
  C  C2362  1  0.189920  0.511950  0.779700  0.657
  C  C2363  1  0.766480  0.366800  0.148860  0.657
  C  C2364  1  0.233520  0.633200  0.851140  0.657
  C  C2365  1  0.820860  0.480050  0.085950  0.657
  C  C2366  1  0.179140  0.519950  0.914050  0.657
  C  C2367  1  0.643340  0.455070  0.151650  0.657
  C  C2368  1  0.356660  0.544930  0.848350  0.657
  C  C2369  1  0.631840  0.464550  0.285620  0.657
  C  C2370  1  0.368160  0.535450  0.714380  0.657
  C  C2371  1  0.669610  0.459880  0.301180  0.657
  C  C2372  1  0.330390  0.540120  0.698820  0.657
  C  C2373  1  0.718030  0.457960  0.089980  0.657
  C  C2374  1  0.281970  0.542040  0.910020  0.657
  C  C2375  1  0.606690  0.511450  0.255900  0.657
  C  C2376  1  0.393310  0.488550  0.744100  0.657
  C  C2377  1  0.683260  0.502980  0.287900  0.657
  C  C2378  1  0.316740  0.497020  0.712100  0.657
  C  C2379  1  0.735550  0.486980  0.280900  0.657
  C  C2380  1  0.264450  0.513020  0.719100  0.657
  C  C2381  1  0.771620  0.439600  0.083710  0.657
  C  C2382  1  0.228380  0.560400  0.916290  0.657
  C  C2383  1  0.846700  0.433820  0.115450  0.657
  C  C2384  1  0.153300  0.566180  0.884550  0.657
  S  S2385  1  0.223700  0.152300  0.414000  1.0
  S  S2386  1  0.776300  0.847700  0.586000  1.0
  S  S2387  1  0.300300  0.377400  0.244200  0.2
  S  S2388  1  0.699700  0.622600  0.755800  0.2
  S  S2389  1  0.104100  0.732300  0.431400  0.3
  S  S2390  1  0.895900  0.267700  0.568600  0.3
  S  S2391  1  0.143100  0.677100  0.418400  0.3
  S  S2392  1  0.856900  0.322900  0.581600  0.3
  S  S2393  1  0.294200  0.358500  0.247000  0.5
  S  S2394  1  0.705800  0.641500  0.753000  0.5
  N  N2395  1  0.974500  0.410600  0.327300  1.0
  N  N2396  1  0.025500  0.589400  0.672700  1.0
  N  N2397  1  0.931200  0.335200  0.850800  1.0
  N  N2398  1  0.068800  0.664800  0.149200  1.0
  N  N2399  1  0.061400  0.312100  0.337100  1.0
  N  N2400  1  0.938600  0.687900  0.662900  1.0
  N  N2401  1  0.853000  0.838700  0.415800  1.0
  N  N2402  1  0.147000  0.161300  0.584200  1.0
  N  N2403  1  0.850900  0.432300  0.853200  1.0
  N  N2404  1  0.149100  0.567700  0.146800  1.0
  N  N2405  1  0.920600  0.816700  0.333200  1.0
  N  N2406  1  0.079400  0.183300  0.666800  1.0
  N  N2407  1  0.829900  0.349400  0.855200  1.0
  N  N2408  1  0.170100  0.650600  0.144800  1.0
  N  N2409  1  0.816500  0.833700  0.348300  1.0
  N  N2410  1  0.183500  0.166300  0.651700  1.0
  N  N2411  1  0.965900  0.332000  0.409200  1.0
  N  N2412  1  0.034100  0.668000  0.590800  1.0
  N  N2413  1  0.973800  0.415600  0.401200  1.0
  N  N2414  1  0.026200  0.584400  0.598800  1.0
  N  N2415  1  0.051900  0.351800  0.094000  1.0
  N  N2416  1  0.948100  0.648200  0.906000  1.0
  N  N2417  1  0.044000  0.341800  0.021600  1.0
  N  N2418  1  0.956000  0.658200  0.978400  1.0
  N  N2419  1  0.968400  0.430100  0.012200  1.0
  N  N2420  1  0.031600  0.569900  0.987800  1.0
  N  N2421  1  0.980000  0.442000  0.083100  1.0
  N  N2422  1  0.020000  0.558000  0.916900  1.0
  N  N2423  1  0.909300  0.333333  0.787200  1.0
  N  N2424  1  0.090700  0.666667  0.212800  1.0
  N  N2425  1  0.067200  0.390000  0.339410  1.0
  N  N2426  1  0.932800  0.610000  0.660590  1.0
  N  N2427  1  0.988200  0.077600  0.430600  1.0
  N  N2428  1  0.011800  0.922400  0.569400  1.0
  N  N2429  1  0.960900  0.001300  0.441800  1.0
  N  N2430  1  0.039100  0.998700  0.558200  1.0
  N  N2431  1  0.029700  0.981000  0.369000  1.0
  N  N2432  1  0.970300  0.019000  0.631000  1.0
  N  N2433  1  0.060400  0.054000  0.360700  1.0
  N  N2434  1  0.939600  0.946000  0.639300  1.0
  N  N2435  1  0.818400  0.772300  0.431800  1.0
  N  N2436  1  0.181600  0.227700  0.568200  1.0
  N  N2437  1  0.922300  0.420200  0.783700  1.0
  N  N2438  1  0.077700  0.579800  0.216300  1.0
  N  N2439  1  0.603000  0.532200  0.028600  1.0
  N  N2440  1  0.397000  0.467800  0.971400  1.0
  N  N2441  1  0.525600  0.535900  0.101900  1.0
  N  N2442  1  0.474400  0.464100  0.898100  1.0
  N  N2443  1  0.507300  0.470000  0.086800  1.0
  N  N2444  1  0.492700  0.530000  0.913200  1.0
  N  N2445  1  0.588800  0.461500  0.017000  1.0
  N  N2446  1  0.411200  0.538500  0.983000  1.0
  N  N2447  1  0.925300  0.744100  0.406700  1.0
  N  N2448  1  0.074700  0.255900  0.593300  1.0
  N  N2449  1  0.947300  0.002500  0.090500  1.0
  N  N2450  1  0.052700  0.997500  0.909500  1.0
  N  N2451  1  0.933000  0.083500  0.019600  1.0
  N  N2452  1  0.067000  0.916500  0.980400  1.0
  N  N2453  1  0.841200  0.089200  0.032400  1.0
  N  N2454  1  0.158800  0.910800  0.967600  1.0
  N  N2455  1  0.854300  0.010500  0.107900  1.0
  N  N2456  1  0.145700  0.989500  0.892100  1.0
  N  N2457  1  0.825700  0.425400  0.788100  1.0
  N  N2458  1  0.174300  0.574600  0.211900  1.0
  N  N2459  1  0.878400  0.748700  0.346200  1.0
  N  N2460  1  0.121600  0.251300  0.653800  1.0
  N  N2461  1  0.564100  0.060300  0.373800  1.0
  N  N2462  1  0.435900  0.939700  0.626200  1.0
  N  N2463  1  0.491200  0.148300  0.383900  1.0
  N  N2464  1  0.508800  0.851700  0.616100  1.0
  N  N2465  1  0.523500  0.141600  0.449600  1.0
  N  N2466  1  0.476500  0.858400  0.550400  1.0
  N  N2467  1  0.595900  0.051600  0.440700  1.0
  N  N2468  1  0.404100  0.948400  0.559300  1.0
  N  N2469  1  0.049700  0.315200  0.419900  1.0
  N  N2470  1  0.950300  0.684800  0.580100  1.0
  N  N2471  1  0.585800  0.476500  0.407000  0.25
  N  N2472  1  0.414200  0.523500  0.593000  0.25
  N  N2473  1  0.683400  0.450900  0.401000  0.25
  N  N2474  1  0.316600  0.549100  0.599000  0.25
  N  N2475  1  0.698700  0.355700  0.415400  0.25
  N  N2476  1  0.301300  0.644300  0.584600  0.25
  N  N2477  1  0.608700  0.388900  0.395800  0.25
  N  N2478  1  0.391300  0.611100  0.604200  0.25
  N  N2479  1  0.595400  0.528400  0.378600  0.3
  N  N2480  1  0.404600  0.471600  0.621400  0.3
  N  N2481  1  0.691200  0.491800  0.382200  0.3
  N  N2482  1  0.308800  0.508200  0.617800  0.3
  N  N2483  1  0.680900  0.411300  0.447700  0.3
  N  N2484  1  0.319100  0.588700  0.552300  0.3
  N  N2485  1  0.584200  0.448200  0.443400  0.3
  N  N2486  1  0.415800  0.551800  0.556600  0.3
  N  N2487  1  0.282400  0.446900  0.400100  0.349
  N  N2488  1  0.717600  0.553100  0.599900  0.349
  N  N2489  1  0.344600  0.453400  0.316500  0.349
  N  N2490  1  0.655400  0.546600  0.683500  0.349
  N  N2491  1  0.297900  0.513300  0.428600  0.349
  N  N2492  1  0.702100  0.486700  0.571400  0.349
  N  N2493  1  0.370800  0.426700  0.413200  0.349
  N  N2494  1  0.629200  0.573300  0.586800  0.349
  N  N2495  1  0.275700  0.555100  0.342700  0.349
  N  N2496  1  0.724300  0.444900  0.657300  0.349
  N  N2497  1  0.370700  0.542800  0.333400  0.349
  N  N2498  1  0.629300  0.457200  0.666600  0.349
  N  N2499  1  0.590500  0.495200  0.389400  0.45
  N  N2500  1  0.409500  0.504800  0.610600  0.45
  N  N2501  1  0.684500  0.465100  0.397800  0.45
  N  N2502  1  0.315500  0.534900  0.602200  0.45
  N  N2503  1  0.687700  0.373200  0.440400  0.45
  N  N2504  1  0.312300  0.626800  0.559600  0.45
  N  N2505  1  0.590400  0.404400  0.437200  0.45
  N  N2506  1  0.409600  0.595600  0.562800  0.45
  N  N2507  1  0.262400  0.492600  0.438900  0.651
  N  N2508  1  0.737600  0.507400  0.561100  0.651
  N  N2509  1  0.344200  0.412500  0.420100  0.651
  N  N2510  1  0.655800  0.587500  0.579900  0.651
  N  N2511  1  0.256800  0.433800  0.400400  0.651
  N  N2512  1  0.743200  0.566200  0.599600  0.651
  N  N2513  1  0.334400  0.449100  0.330700  0.651
  N  N2514  1  0.665600  0.550900  0.669300  0.651
  N  N2515  1  0.256800  0.539400  0.350000  0.651
  N  N2516  1  0.743200  0.460600  0.650000  0.651
  N  N2517  1  0.348300  0.524000  0.353700  0.651
  N  N2518  1  0.651700  0.476000  0.646300  0.651
  O  O2519  1  0.208700  0.198400  0.380400  1.0
  O  O2520  1  0.791300  0.801600  0.619600  1.0
  O  O2521  1  0.197700  0.142300  0.458100  1.0
  O  O2522  1  0.802300  0.857700  0.541900  1.0
  O  O2523  1  0.273700  0.141300  0.418000  1.0
  O  O2524  1  0.726300  0.858700  0.582000  1.0
  O  O2525  1  0.328000  0.402100  0.245000  0.2
  O  O2526  1  0.672000  0.597900  0.755000  0.2
  O  O2527  1  0.266900  0.406000  0.216500  0.2
  O  O2528  1  0.733100  0.594000  0.783500  0.2
  O  O2529  1  0.285000  0.346000  0.286100  0.2
  O  O2530  1  0.715000  0.654000  0.713900  0.2
  O  O2531  1  0.304500  0.386700  0.258800  0.5
  O  O2532  1  0.695500  0.613300  0.741200  0.5
  O  O2533  1  0.252700  0.378400  0.226800  0.5
  O  O2534  1  0.747300  0.621600  0.773200  0.5
  O  O2535  1  0.289300  0.312700  0.282400  0.5
  O  O2536  1  0.710700  0.687300  0.717600  0.5
  O  O2537  1  0.775900  0.038800  0.383500  0.5
  O  O2538  1  0.224100  0.961200  0.616500  0.5
  O  O2539  1  0.088900  0.747800  0.471300  0.3
  O  O2540  1  0.911100  0.252200  0.528700  0.3
  O  O2541  1  0.089400  0.769300  0.394300  0.3
  O  O2542  1  0.910600  0.230700  0.605700  0.3
  O  O2543  1  0.107900  0.683500  0.441200  0.3
  O  O2544  1  0.892100  0.316500  0.558800  0.3
  O  O2545  1  0.198200  0.694700  0.448800  0.3
  O  O2546  1  0.801800  0.305300  0.551200  0.3
  O  O2547  1  0.126600  0.690300  0.379500  0.3
  O  O2548  1  0.873400  0.309700  0.620500  0.3
  O  O2549  1  0.194200  0.664900  0.413200  0.3
  O  O2550  1  0.805800  0.335100  0.586800  0.3
  O  O2551  1  0.118500  0.650200  0.457500  0.3
  O  O2552  1  0.881500  0.349800  0.542500  0.3
  F  F2553  1  0.270100  0.107600  0.348800  1.0
  F  F2554  1  0.729900  0.892400  0.651200  1.0
  F  F2555  1  0.249100  0.057900  0.416400  1.0
  F  F2556  1  0.750900  0.942100  0.583600  1.0
  F  F2557  1  0.195100  0.111300  0.379900  1.0
  F  F2558  1  0.804900  0.888700  0.620100  1.0
  F  F2559  1  0.398200  0.334000  0.203000  0.2
  F  F2560  1  0.601800  0.666000  0.797000  0.2
  F  F2561  1  0.352000  0.342000  0.167700  0.2
  F  F2562  1  0.648000  0.658000  0.832300  0.2
  F  F2563  1  0.359000  0.283600  0.231700  0.2
  F  F2564  1  0.641000  0.716400  0.768300  0.2
  F  F2565  1  0.205900  0.703500  0.380800  0.3
  F  F2566  1  0.794100  0.296500  0.619200  0.3
  F  F2567  1  0.182000  0.766500  0.401800  0.3
  F  F2568  1  0.818000  0.233500  0.598200  0.3
  F  F2569  1  0.125700  0.736900  0.468300  0.3
  F  F2570  1  0.874300  0.263100  0.531700  0.3
  F  F2571  1  0.138700  0.770300  0.396800  0.3
  F  F2572  1  0.861300  0.229700  0.603200  0.3
  F  F2573  1  0.067900  0.759100  0.436400  0.3
  F  F2574  1  0.932100  0.240900  0.563600  0.3
  F  F2575  1  0.335900  0.296900  0.196000  0.5
  F  F2576  1  0.664100  0.703100  0.804000  0.5
  F  F2577  1  0.344800  0.369200  0.162100  0.5
  F  F2578  1  0.655200  0.630800  0.837900  0.5
  F  F2579  1  0.386400  0.313500  0.214800  0.5
  F  F2580  1  0.613600  0.686500  0.785200  0.5
