# generated using pymatgen
data_Fe48Ni72B36.0H4134.006C5219.9352N654.0012O156.0024F144.0
_symmetry_space_group_name_H-M   'P 1'
_cell_length_a   38.81880000
_cell_length_b   38.81880000
_cell_length_c   111.37200000
_cell_angle_alpha   90.00000000
_cell_angle_beta   90.00000000
_cell_angle_gamma   120.00000000
_symmetry_Int_Tables_number   1
_chemical_formula_structural
Fe48Ni72B36.0H4134.006C5219.9352N654.0012O156.0024F144.0
_chemical_formula_sum
'Fe48 Ni72 B36.0 H4134.006 C5219.9352 N654.0012 O156.0024 F144.0'
_cell_volume   145341.90974072
_cell_formula_units_Z   1
loop_
 _symmetry_equiv_pos_site_id
 _symmetry_equiv_pos_as_xyz
  1  'x, y, z'
loop_
 _atom_site_type_symbol
 _atom_site_label
 _atom_site_symmetry_multiplicity
 _atom_site_fract_x
 _atom_site_fract_y
 _atom_site_fract_z
 _atom_site_occupancy
  Fe  Fe1  1  0.204950  0.316030  0.487190  1.0
  Fe  Fe2  1  0.111080  0.795050  0.487190  1.0
  Fe  Fe3  1  0.683970  0.888920  0.487190  1.0
  Fe  Fe4  1  0.888920  0.683970  0.012810  1.0
  Fe  Fe5  1  0.316030  0.204950  0.012810  1.0
  Fe  Fe6  1  0.795050  0.111080  0.012810  1.0
  Fe  Fe7  1  0.538283  0.982697  0.153857  1.0
  Fe  Fe8  1  0.444413  0.461717  0.153857  1.0
  Fe  Fe9  1  0.017303  0.555587  0.153857  1.0
  Fe  Fe10  1  0.222253  0.350637  0.679477  1.0
  Fe  Fe11  1  0.649363  0.871617  0.679477  1.0
  Fe  Fe12  1  0.128383  0.777747  0.679477  1.0
  Fe  Fe13  1  0.871617  0.649363  0.820523  1.0
  Fe  Fe14  1  0.777747  0.128383  0.820523  1.0
  Fe  Fe15  1  0.350637  0.222253  0.820523  1.0
  Fe  Fe16  1  0.555587  0.017303  0.346143  1.0
  Fe  Fe17  1  0.982697  0.538283  0.346143  1.0
  Fe  Fe18  1  0.461717  0.444413  0.346143  1.0
  Fe  Fe19  1  0.795050  0.683970  0.512810  1.0
  Fe  Fe20  1  0.888920  0.204950  0.512810  1.0
  Fe  Fe21  1  0.316030  0.111080  0.512810  1.0
  Fe  Fe22  1  0.111080  0.316030  0.987190  1.0
  Fe  Fe23  1  0.683970  0.795050  0.987190  1.0
  Fe  Fe24  1  0.204950  0.888920  0.987190  1.0
  Fe  Fe25  1  0.128383  0.350637  0.179477  1.0
  Fe  Fe26  1  0.222253  0.871617  0.179477  1.0
  Fe  Fe27  1  0.649363  0.777747  0.179477  1.0
  Fe  Fe28  1  0.444413  0.982697  0.653857  1.0
  Fe  Fe29  1  0.017303  0.461717  0.653857  1.0
  Fe  Fe30  1  0.538283  0.555587  0.653857  1.0
  Fe  Fe31  1  0.461717  0.017303  0.846143  1.0
  Fe  Fe32  1  0.555587  0.538283  0.846143  1.0
  Fe  Fe33  1  0.982697  0.444413  0.846143  1.0
  Fe  Fe34  1  0.777747  0.649363  0.320523  1.0
  Fe  Fe35  1  0.350637  0.128383  0.320523  1.0
  Fe  Fe36  1  0.871617  0.222253  0.320523  1.0
  Fe  Fe37  1  0.333333  0.666667  0.634940  1.0
  Fe  Fe38  1  0.666667  0.333333  0.865060  1.0
  Fe  Fe39  1  0.666667  0.333333  0.301607  1.0
  Fe  Fe40  1  0.000000  0.000000  0.531727  1.0
  Fe  Fe41  1  0.000000  0.000000  0.968273  1.0
  Fe  Fe42  1  0.333333  0.666667  0.198393  1.0
  Fe  Fe43  1  0.666667  0.333333  0.365060  1.0
  Fe  Fe44  1  0.333333  0.666667  0.134940  1.0
  Fe  Fe45  1  0.000000  0.000000  0.031727  1.0
  Fe  Fe46  1  0.666667  0.333333  0.801607  1.0
  Fe  Fe47  1  0.333333  0.666667  0.698393  1.0
  Fe  Fe48  1  0.000000  0.000000  0.468273  1.0
  Ni  Ni49  1  0.240210  0.433290  0.573590  1.0
  Ni  Ni50  1  0.193080  0.759790  0.573590  1.0
  Ni  Ni51  1  0.566710  0.806920  0.573590  1.0
  Ni  Ni52  1  0.806920  0.566710  0.926410  1.0
  Ni  Ni53  1  0.433290  0.240210  0.926410  1.0
  Ni  Ni54  1  0.759790  0.193080  0.926410  1.0
  Ni  Ni55  1  0.573543  0.099957  0.240257  1.0
  Ni  Ni56  1  0.526413  0.426457  0.240257  1.0
  Ni  Ni57  1  0.900043  0.473587  0.240257  1.0
  Ni  Ni58  1  0.140253  0.233377  0.593077  1.0
  Ni  Ni59  1  0.766623  0.906877  0.593077  1.0
  Ni  Ni60  1  0.093123  0.859747  0.593077  1.0
  Ni  Ni61  1  0.906877  0.766623  0.906923  1.0
  Ni  Ni62  1  0.859747  0.093123  0.906923  1.0
  Ni  Ni63  1  0.233377  0.140253  0.906923  1.0
  Ni  Ni64  1  0.473587  0.900043  0.259743  1.0
  Ni  Ni65  1  0.099957  0.573543  0.259743  1.0
  Ni  Ni66  1  0.426457  0.526413  0.259743  1.0
  Ni  Ni67  1  0.759790  0.566710  0.426410  1.0
  Ni  Ni68  1  0.806920  0.240210  0.426410  1.0
  Ni  Ni69  1  0.433290  0.193080  0.426410  1.0
  Ni  Ni70  1  0.193080  0.433290  0.073590  1.0
  Ni  Ni71  1  0.566710  0.759790  0.073590  1.0
  Ni  Ni72  1  0.240210  0.806920  0.073590  1.0
  Ni  Ni73  1  0.093123  0.233377  0.093077  1.0
  Ni  Ni74  1  0.140253  0.906877  0.093077  1.0
  Ni  Ni75  1  0.766623  0.859747  0.093077  1.0
  Ni  Ni76  1  0.526413  0.099957  0.740257  1.0
  Ni  Ni77  1  0.900043  0.426457  0.740257  1.0
  Ni  Ni78  1  0.573543  0.473587  0.740257  1.0
  Ni  Ni79  1  0.426457  0.900043  0.759743  1.0
  Ni  Ni80  1  0.473587  0.573543  0.759743  1.0
  Ni  Ni81  1  0.099957  0.526413  0.759743  1.0
  Ni  Ni82  1  0.859747  0.766623  0.406923  1.0
  Ni  Ni83  1  0.233377  0.093123  0.406923  1.0
  Ni  Ni84  1  0.906877  0.140253  0.406923  1.0
  Ni  Ni85  1  0.115470  0.529160  0.481020  1.0
  Ni  Ni86  1  0.413690  0.884530  0.481020  1.0
  Ni  Ni87  1  0.470840  0.586310  0.481020  1.0
  Ni  Ni88  1  0.586310  0.470840  0.018980  1.0
  Ni  Ni89  1  0.529160  0.115470  0.018980  1.0
  Ni  Ni90  1  0.884530  0.413690  0.018980  1.0
  Ni  Ni91  1  0.448803  0.195827  0.147687  1.0
  Ni  Ni92  1  0.747023  0.551197  0.147687  1.0
  Ni  Ni93  1  0.804173  0.252977  0.147687  1.0
  Ni  Ni94  1  0.919643  0.137507  0.685647  1.0
  Ni  Ni95  1  0.862493  0.782137  0.685647  1.0
  Ni  Ni96  1  0.217863  0.080357  0.685647  1.0
  Ni  Ni97  1  0.782137  0.862493  0.814353  1.0
  Ni  Ni98  1  0.080357  0.217863  0.814353  1.0
  Ni  Ni99  1  0.137507  0.919643  0.814353  1.0
  Ni  Ni100  1  0.252977  0.804173  0.352313  1.0
  Ni  Ni101  1  0.195827  0.448803  0.352313  1.0
  Ni  Ni102  1  0.551197  0.747023  0.352313  1.0
  Ni  Ni103  1  0.884530  0.470840  0.518980  1.0
  Ni  Ni104  1  0.586310  0.115470  0.518980  1.0
  Ni  Ni105  1  0.529160  0.413690  0.518980  1.0
  Ni  Ni106  1  0.413690  0.529160  0.981020  1.0
  Ni  Ni107  1  0.470840  0.884530  0.981020  1.0
  Ni  Ni108  1  0.115470  0.586310  0.981020  1.0
  Ni  Ni109  1  0.217863  0.137507  0.185647  1.0
  Ni  Ni110  1  0.919643  0.782137  0.185647  1.0
  Ni  Ni111  1  0.862493  0.080357  0.185647  1.0
  Ni  Ni112  1  0.747023  0.195827  0.647687  1.0
  Ni  Ni113  1  0.804173  0.551197  0.647687  1.0
  Ni  Ni114  1  0.448803  0.252977  0.647687  1.0
  Ni  Ni115  1  0.551197  0.804173  0.852313  1.0
  Ni  Ni116  1  0.252977  0.448803  0.852313  1.0
  Ni  Ni117  1  0.195827  0.747023  0.852313  1.0
  Ni  Ni118  1  0.080357  0.862493  0.314353  1.0
  Ni  Ni119  1  0.137507  0.217863  0.314353  1.0
  Ni  Ni120  1  0.782137  0.919643  0.314353  1.0
  B  B121  1  0.056500  0.217400  0.525680  0.229
  B  B122  1  0.160900  0.943500  0.525680  0.229
  B  B123  1  0.782600  0.839100  0.525680  0.229
  B  B124  1  0.839100  0.782600  0.974320  0.229
  B  B125  1  0.217400  0.056500  0.974320  0.229
  B  B126  1  0.943500  0.160900  0.974320  0.229
  B  B127  1  0.389833  0.884067  0.192347  0.229
  B  B128  1  0.494233  0.610167  0.192347  0.229
  B  B129  1  0.115933  0.505767  0.192347  0.229
  B  B130  1  0.172433  0.449267  0.640987  0.229
  B  B131  1  0.550733  0.723167  0.640987  0.229
  B  B132  1  0.276833  0.827567  0.640987  0.229
  B  B133  1  0.723167  0.550733  0.859013  0.229
  B  B134  1  0.827567  0.276833  0.859013  0.229
  B  B135  1  0.449267  0.172433  0.859013  0.229
  B  B136  1  0.505767  0.115933  0.307653  0.229
  B  B137  1  0.884067  0.389833  0.307653  0.229
  B  B138  1  0.610167  0.494233  0.307653  0.229
  B  B139  1  0.943500  0.782600  0.474320  0.229
  B  B140  1  0.839100  0.056500  0.474320  0.229
  B  B141  1  0.217400  0.160900  0.474320  0.229
  B  B142  1  0.160900  0.217400  0.025680  0.229
  B  B143  1  0.782600  0.943500  0.025680  0.229
  B  B144  1  0.056500  0.839100  0.025680  0.229
  B  B145  1  0.276833  0.449267  0.140987  0.229
  B  B146  1  0.172433  0.723167  0.140987  0.229
  B  B147  1  0.550733  0.827567  0.140987  0.229
  B  B148  1  0.494233  0.884067  0.692347  0.229
  B  B149  1  0.115933  0.610167  0.692347  0.229
  B  B150  1  0.389833  0.505767  0.692347  0.229
  B  B151  1  0.610167  0.115933  0.807653  0.229
  B  B152  1  0.505767  0.389833  0.807653  0.229
  B  B153  1  0.884067  0.494233  0.807653  0.229
  B  B154  1  0.827567  0.550733  0.359013  0.229
  B  B155  1  0.449267  0.276833  0.359013  0.229
  B  B156  1  0.723167  0.172433  0.359013  0.229
  B  B157  1  0.046210  0.297710  0.504230  0.313
  B  B158  1  0.251500  0.953790  0.504230  0.313
  B  B159  1  0.702290  0.748500  0.504230  0.313
  B  B160  1  0.748500  0.702290  0.995770  0.313
  B  B161  1  0.297710  0.046210  0.995770  0.313
  B  B162  1  0.953790  0.251500  0.995770  0.313
  B  B163  1  0.379543  0.964377  0.170897  0.313
  B  B164  1  0.584833  0.620457  0.170897  0.313
  B  B165  1  0.035623  0.415167  0.170897  0.313
  B  B166  1  0.081833  0.368957  0.662437  0.313
  B  B167  1  0.631043  0.712877  0.662437  0.313
  B  B168  1  0.287123  0.918167  0.662437  0.313
  B  B169  1  0.712877  0.631043  0.837563  0.313
  B  B170  1  0.918167  0.287123  0.837563  0.313
  B  B171  1  0.368957  0.081833  0.837563  0.313
  B  B172  1  0.415167  0.035623  0.329103  0.313
  B  B173  1  0.964377  0.379543  0.329103  0.313
  B  B174  1  0.620457  0.584833  0.329103  0.313
  B  B175  1  0.953790  0.702290  0.495770  0.313
  B  B176  1  0.748500  0.046210  0.495770  0.313
  B  B177  1  0.297710  0.251500  0.495770  0.313
  B  B178  1  0.251500  0.297710  0.004230  0.313
  B  B179  1  0.702290  0.953790  0.004230  0.313
  B  B180  1  0.046210  0.748500  0.004230  0.313
  B  B181  1  0.287123  0.368957  0.162437  0.313
  B  B182  1  0.081833  0.712877  0.162437  0.313
  B  B183  1  0.631043  0.918167  0.162437  0.313
  B  B184  1  0.584833  0.964377  0.670897  0.313
  B  B185  1  0.035623  0.620457  0.670897  0.313
  B  B186  1  0.379543  0.415167  0.670897  0.313
  B  B187  1  0.620457  0.035623  0.829103  0.313
  B  B188  1  0.415167  0.379543  0.829103  0.313
  B  B189  1  0.964377  0.584833  0.829103  0.313
  B  B190  1  0.918167  0.631043  0.337563  0.313
  B  B191  1  0.368957  0.287123  0.337563  0.313
  B  B192  1  0.712877  0.081833  0.337563  0.313
  B  B193  1  0.055700  0.235100  0.519420  0.458
  B  B194  1  0.179400  0.944300  0.519420  0.458
  B  B195  1  0.764900  0.820600  0.519420  0.458
  B  B196  1  0.820600  0.764900  0.980580  0.458
  B  B197  1  0.235100  0.055700  0.980580  0.458
  B  B198  1  0.944300  0.179400  0.980580  0.458
  B  B199  1  0.389033  0.901767  0.186087  0.458
  B  B200  1  0.512733  0.610967  0.186087  0.458
  B  B201  1  0.098233  0.487267  0.186087  0.458
  B  B202  1  0.153933  0.431567  0.647247  0.458
  B  B203  1  0.568433  0.722367  0.647247  0.458
  B  B204  1  0.277633  0.846067  0.647247  0.458
  B  B205  1  0.722367  0.568433  0.852753  0.458
  B  B206  1  0.846067  0.277633  0.852753  0.458
  B  B207  1  0.431567  0.153933  0.852753  0.458
  B  B208  1  0.487267  0.098233  0.313913  0.458
  B  B209  1  0.901767  0.389033  0.313913  0.458
  B  B210  1  0.610967  0.512733  0.313913  0.458
  B  B211  1  0.944300  0.764900  0.480580  0.458
  B  B212  1  0.820600  0.055700  0.480580  0.458
  B  B213  1  0.235100  0.179400  0.480580  0.458
  B  B214  1  0.179400  0.235100  0.019420  0.458
  B  B215  1  0.764900  0.944300  0.019420  0.458
  B  B216  1  0.055700  0.820600  0.019420  0.458
  B  B217  1  0.277633  0.431567  0.147247  0.458
  B  B218  1  0.153933  0.722367  0.147247  0.458
  B  B219  1  0.568433  0.846067  0.147247  0.458
  B  B220  1  0.512733  0.901767  0.686087  0.458
  B  B221  1  0.098233  0.610967  0.686087  0.458
  B  B222  1  0.389033  0.487267  0.686087  0.458
  B  B223  1  0.610967  0.098233  0.813913  0.458
  B  B224  1  0.487267  0.389033  0.813913  0.458
  B  B225  1  0.901767  0.512733  0.813913  0.458
  B  B226  1  0.846067  0.568433  0.352753  0.458
  B  B227  1  0.431567  0.277633  0.352753  0.458
  B  B228  1  0.722367  0.153933  0.352753  0.458
  H  H229  1  0.166800  0.268500  0.463700  1.0
  H  H230  1  0.101700  0.833200  0.463700  1.0
  H  H231  1  0.731500  0.898300  0.463700  1.0
  H  H232  1  0.898300  0.731500  0.036300  1.0
  H  H233  1  0.268500  0.166800  0.036300  1.0
  H  H234  1  0.833200  0.101700  0.036300  1.0
  H  H235  1  0.500133  0.935167  0.130367  1.0
  H  H236  1  0.435033  0.499867  0.130367  1.0
  H  H237  1  0.064833  0.564967  0.130367  1.0
  H  H238  1  0.231633  0.398167  0.702967  1.0
  H  H239  1  0.601833  0.833467  0.702967  1.0
  H  H240  1  0.166533  0.768367  0.702967  1.0
  H  H241  1  0.833467  0.601833  0.797033  1.0
  H  H242  1  0.768367  0.166533  0.797033  1.0
  H  H243  1  0.398167  0.231633  0.797033  1.0
  H  H244  1  0.564967  0.064833  0.369633  1.0
  H  H245  1  0.935167  0.500133  0.369633  1.0
  H  H246  1  0.499867  0.435033  0.369633  1.0
  H  H247  1  0.833200  0.731500  0.536300  1.0
  H  H248  1  0.898300  0.166800  0.536300  1.0
  H  H249  1  0.268500  0.101700  0.536300  1.0
  H  H250  1  0.101700  0.268500  0.963700  1.0
  H  H251  1  0.731500  0.833200  0.963700  1.0
  H  H252  1  0.166800  0.898300  0.963700  1.0
  H  H253  1  0.166533  0.398167  0.202967  1.0
  H  H254  1  0.231633  0.833467  0.202967  1.0
  H  H255  1  0.601833  0.768367  0.202967  1.0
  H  H256  1  0.435033  0.935167  0.630367  1.0
  H  H257  1  0.064833  0.499867  0.630367  1.0
  H  H258  1  0.500133  0.564967  0.630367  1.0
  H  H259  1  0.499867  0.064833  0.869633  1.0
  H  H260  1  0.564967  0.500133  0.869633  1.0
  H  H261  1  0.935167  0.435033  0.869633  1.0
  H  H262  1  0.768367  0.601833  0.297033  1.0
  H  H263  1  0.398167  0.166533  0.297033  1.0
  H  H264  1  0.833467  0.231633  0.297033  1.0
  H  H265  1  0.107500  0.245100  0.453900  1.0
  H  H266  1  0.137600  0.892500  0.453900  1.0
  H  H267  1  0.754900  0.862400  0.453900  1.0
  H  H268  1  0.862400  0.754900  0.046100  1.0
  H  H269  1  0.245100  0.107500  0.046100  1.0
  H  H270  1  0.892500  0.137600  0.046100  1.0
  H  H271  1  0.440833  0.911767  0.120567  1.0
  H  H272  1  0.470933  0.559167  0.120567  1.0
  H  H273  1  0.088233  0.529067  0.120567  1.0
  H  H274  1  0.195733  0.421567  0.712767  1.0
  H  H275  1  0.578433  0.774167  0.712767  1.0
  H  H276  1  0.225833  0.804267  0.712767  1.0
  H  H277  1  0.774167  0.578433  0.787233  1.0
  H  H278  1  0.804267  0.225833  0.787233  1.0
  H  H279  1  0.421567  0.195733  0.787233  1.0
  H  H280  1  0.529067  0.088233  0.379433  1.0
  H  H281  1  0.911767  0.440833  0.379433  1.0
  H  H282  1  0.559167  0.470933  0.379433  1.0
  H  H283  1  0.892500  0.754900  0.546100  1.0
  H  H284  1  0.862400  0.107500  0.546100  1.0
  H  H285  1  0.245100  0.137600  0.546100  1.0
  H  H286  1  0.137600  0.245100  0.953900  1.0
  H  H287  1  0.754900  0.892500  0.953900  1.0
  H  H288  1  0.107500  0.862400  0.953900  1.0
  H  H289  1  0.225833  0.421567  0.212767  1.0
  H  H290  1  0.195733  0.774167  0.212767  1.0
  H  H291  1  0.578433  0.804267  0.212767  1.0
  H  H292  1  0.470933  0.911767  0.620567  1.0
  H  H293  1  0.088233  0.559167  0.620567  1.0
  H  H294  1  0.440833  0.529067  0.620567  1.0
  H  H295  1  0.559167  0.088233  0.879433  1.0
  H  H296  1  0.529067  0.440833  0.879433  1.0
  H  H297  1  0.911767  0.470933  0.879433  1.0
  H  H298  1  0.804267  0.578433  0.287233  1.0
  H  H299  1  0.421567  0.225833  0.287233  1.0
  H  H300  1  0.774167  0.195733  0.287233  1.0
  H  H301  1  0.055800  0.246700  0.463300  1.0
  H  H302  1  0.190900  0.944200  0.463300  1.0
  H  H303  1  0.753300  0.809100  0.463300  1.0
  H  H304  1  0.809100  0.753300  0.036700  1.0
  H  H305  1  0.246700  0.055800  0.036700  1.0
  H  H306  1  0.944200  0.190900  0.036700  1.0
  H  H307  1  0.389133  0.913367  0.129967  1.0
  H  H308  1  0.524233  0.610867  0.129967  1.0
  H  H309  1  0.086633  0.475767  0.129967  1.0
  H  H310  1  0.142433  0.419967  0.703367  1.0
  H  H311  1  0.580033  0.722467  0.703367  1.0
  H  H312  1  0.277533  0.857567  0.703367  1.0
  H  H313  1  0.722467  0.580033  0.796633  1.0
  H  H314  1  0.857567  0.277533  0.796633  1.0
  H  H315  1  0.419967  0.142433  0.796633  1.0
  H  H316  1  0.475767  0.086633  0.370033  1.0
  H  H317  1  0.913367  0.389133  0.370033  1.0
  H  H318  1  0.610867  0.524233  0.370033  1.0
  H  H319  1  0.944200  0.753300  0.536700  1.0
  H  H320  1  0.809100  0.055800  0.536700  1.0
  H  H321  1  0.246700  0.190900  0.536700  1.0
  H  H322  1  0.190900  0.246700  0.963300  1.0
  H  H323  1  0.753300  0.944200  0.963300  1.0
  H  H324  1  0.055800  0.809100  0.963300  1.0
  H  H325  1  0.277533  0.419967  0.203367  1.0
  H  H326  1  0.142433  0.722467  0.203367  1.0
  H  H327  1  0.580033  0.857567  0.203367  1.0
  H  H328  1  0.524233  0.913367  0.629967  1.0
  H  H329  1  0.086633  0.610867  0.629967  1.0
  H  H330  1  0.389133  0.475767  0.629967  1.0
  H  H331  1  0.610867  0.086633  0.870033  1.0
  H  H332  1  0.475767  0.389133  0.870033  1.0
  H  H333  1  0.913367  0.524233  0.870033  1.0
  H  H334  1  0.857567  0.580033  0.296633  1.0
  H  H335  1  0.419967  0.277533  0.296633  1.0
  H  H336  1  0.722467  0.142433  0.296633  1.0
  H  H337  1  0.063900  0.272500  0.483000  1.0
  H  H338  1  0.208600  0.936100  0.483000  1.0
  H  H339  1  0.727500  0.791400  0.483000  1.0
  H  H340  1  0.791400  0.727500  0.017000  1.0
  H  H341  1  0.272500  0.063900  0.017000  1.0
  H  H342  1  0.936100  0.208600  0.017000  1.0
  H  H343  1  0.397233  0.939167  0.149667  1.0
  H  H344  1  0.541933  0.602767  0.149667  1.0
  H  H345  1  0.060833  0.458067  0.149667  1.0
  H  H346  1  0.124733  0.394167  0.683667  1.0
  H  H347  1  0.605833  0.730567  0.683667  1.0
  H  H348  1  0.269433  0.875267  0.683667  1.0
  H  H349  1  0.730567  0.605833  0.816333  1.0
  H  H350  1  0.875267  0.269433  0.816333  1.0
  H  H351  1  0.394167  0.124733  0.816333  1.0
  H  H352  1  0.458067  0.060833  0.350333  1.0
  H  H353  1  0.939167  0.397233  0.350333  1.0
  H  H354  1  0.602767  0.541933  0.350333  1.0
  H  H355  1  0.936100  0.727500  0.517000  1.0
  H  H356  1  0.791400  0.063900  0.517000  1.0
  H  H357  1  0.272500  0.208600  0.517000  1.0
  H  H358  1  0.208600  0.272500  0.983000  1.0
  H  H359  1  0.727500  0.936100  0.983000  1.0
  H  H360  1  0.063900  0.791400  0.983000  1.0
  H  H361  1  0.269433  0.394167  0.183667  1.0
  H  H362  1  0.124733  0.730567  0.183667  1.0
  H  H363  1  0.605833  0.875267  0.183667  1.0
  H  H364  1  0.541933  0.939167  0.649667  1.0
  H  H365  1  0.060833  0.602767  0.649667  1.0
  H  H366  1  0.397233  0.458067  0.649667  1.0
  H  H367  1  0.602767  0.060833  0.850333  1.0
  H  H368  1  0.458067  0.397233  0.850333  1.0
  H  H369  1  0.939167  0.541933  0.850333  1.0
  H  H370  1  0.875267  0.605833  0.316333  1.0
  H  H371  1  0.394167  0.269433  0.316333  1.0
  H  H372  1  0.730567  0.124733  0.316333  1.0
  H  H373  1  0.114800  0.308800  0.501200  1.0
  H  H374  1  0.194000  0.885200  0.501200  1.0
  H  H375  1  0.691200  0.806000  0.501200  1.0
  H  H376  1  0.806000  0.691200  0.998800  1.0
  H  H377  1  0.308800  0.114800  0.998800  1.0
  H  H378  1  0.885200  0.194000  0.998800  1.0
  H  H379  1  0.448133  0.975467  0.167867  1.0
  H  H380  1  0.527333  0.551867  0.167867  1.0
  H  H381  1  0.024533  0.472667  0.167867  1.0
  H  H382  1  0.139333  0.357867  0.665467  1.0
  H  H383  1  0.642133  0.781467  0.665467  1.0
  H  H384  1  0.218533  0.860667  0.665467  1.0
  H  H385  1  0.781467  0.642133  0.834533  1.0
  H  H386  1  0.860667  0.218533  0.834533  1.0
  H  H387  1  0.357867  0.139333  0.834533  1.0
  H  H388  1  0.472667  0.024533  0.332133  1.0
  H  H389  1  0.975467  0.448133  0.332133  1.0
  H  H390  1  0.551867  0.527333  0.332133  1.0
  H  H391  1  0.885200  0.691200  0.498800  1.0
  H  H392  1  0.806000  0.114800  0.498800  1.0
  H  H393  1  0.308800  0.194000  0.498800  1.0
  H  H394  1  0.194000  0.308800  0.001200  1.0
  H  H395  1  0.691200  0.885200  0.001200  1.0
  H  H396  1  0.114800  0.806000  0.001200  1.0
  H  H397  1  0.218533  0.357867  0.165467  1.0
  H  H398  1  0.139333  0.781467  0.165467  1.0
  H  H399  1  0.642133  0.860667  0.165467  1.0
  H  H400  1  0.527333  0.975467  0.667867  1.0
  H  H401  1  0.024533  0.551867  0.667867  1.0
  H  H402  1  0.448133  0.472667  0.667867  1.0
  H  H403  1  0.551867  0.024533  0.832133  1.0
  H  H404  1  0.472667  0.448133  0.832133  1.0
  H  H405  1  0.975467  0.527333  0.832133  1.0
  H  H406  1  0.860667  0.642133  0.334533  1.0
  H  H407  1  0.357867  0.218533  0.334533  1.0
  H  H408  1  0.781467  0.139333  0.334533  1.0
  H  H409  1  0.201400  0.397900  0.506300  1.0
  H  H410  1  0.196500  0.798600  0.506300  1.0
  H  H411  1  0.602100  0.803500  0.506300  1.0
  H  H412  1  0.803500  0.602100  0.993700  1.0
  H  H413  1  0.397900  0.201400  0.993700  1.0
  H  H414  1  0.798600  0.196500  0.993700  1.0
  H  H415  1  0.534733  0.064567  0.172967  1.0
  H  H416  1  0.529833  0.465267  0.172967  1.0
  H  H417  1  0.935433  0.470167  0.172967  1.0
  H  H418  1  0.136833  0.268767  0.660367  1.0
  H  H419  1  0.731233  0.868067  0.660367  1.0
  H  H420  1  0.131933  0.863167  0.660367  1.0
  H  H421  1  0.868067  0.731233  0.839633  1.0
  H  H422  1  0.863167  0.131933  0.839633  1.0
  H  H423  1  0.268767  0.136833  0.839633  1.0
  H  H424  1  0.470167  0.935433  0.327033  1.0
  H  H425  1  0.064567  0.534733  0.327033  1.0
  H  H426  1  0.465267  0.529833  0.327033  1.0
  H  H427  1  0.798600  0.602100  0.493700  1.0
  H  H428  1  0.803500  0.201400  0.493700  1.0
  H  H429  1  0.397900  0.196500  0.493700  1.0
  H  H430  1  0.196500  0.397900  0.006300  1.0
  H  H431  1  0.602100  0.798600  0.006300  1.0
  H  H432  1  0.201400  0.803500  0.006300  1.0
  H  H433  1  0.131933  0.268767  0.160367  1.0
  H  H434  1  0.136833  0.868067  0.160367  1.0
  H  H435  1  0.731233  0.863167  0.160367  1.0
  H  H436  1  0.529833  0.064567  0.672967  1.0
  H  H437  1  0.935433  0.465267  0.672967  1.0
  H  H438  1  0.534733  0.470167  0.672967  1.0
  H  H439  1  0.465267  0.935433  0.827033  1.0
  H  H440  1  0.470167  0.534733  0.827033  1.0
  H  H441  1  0.064567  0.529833  0.827033  1.0
  H  H442  1  0.863167  0.731233  0.339633  1.0
  H  H443  1  0.268767  0.131933  0.339633  1.0
  H  H444  1  0.868067  0.136833  0.339633  1.0
  H  H445  1  0.220200  0.423300  0.525800  1.0
  H  H446  1  0.203100  0.779800  0.525800  1.0
  H  H447  1  0.576700  0.796900  0.525800  1.0
  H  H448  1  0.796900  0.576700  0.974200  1.0
  H  H449  1  0.423300  0.220200  0.974200  1.0
  H  H450  1  0.779800  0.203100  0.974200  1.0
  H  H451  1  0.553533  0.089967  0.192467  1.0
  H  H452  1  0.536433  0.446467  0.192467  1.0
  H  H453  1  0.910033  0.463567  0.192467  1.0
  H  H454  1  0.130233  0.243367  0.640867  1.0
  H  H455  1  0.756633  0.886867  0.640867  1.0
  H  H456  1  0.113133  0.869767  0.640867  1.0
  H  H457  1  0.886867  0.756633  0.859133  1.0
  H  H458  1  0.869767  0.113133  0.859133  1.0
  H  H459  1  0.243367  0.130233  0.859133  1.0
  H  H460  1  0.463567  0.910033  0.307533  1.0
  H  H461  1  0.089967  0.553533  0.307533  1.0
  H  H462  1  0.446467  0.536433  0.307533  1.0
  H  H463  1  0.779800  0.576700  0.474200  1.0
  H  H464  1  0.796900  0.220200  0.474200  1.0
  H  H465  1  0.423300  0.203100  0.474200  1.0
  H  H466  1  0.203100  0.423300  0.025800  1.0
  H  H467  1  0.576700  0.779800  0.025800  1.0
  H  H468  1  0.220200  0.796900  0.025800  1.0
  H  H469  1  0.113133  0.243367  0.140867  1.0
  H  H470  1  0.130233  0.886867  0.140867  1.0
  H  H471  1  0.756633  0.869767  0.140867  1.0
  H  H472  1  0.536433  0.089967  0.692467  1.0
  H  H473  1  0.910033  0.446467  0.692467  1.0
  H  H474  1  0.553533  0.463567  0.692467  1.0
  H  H475  1  0.446467  0.910033  0.807533  1.0
  H  H476  1  0.463567  0.553533  0.807533  1.0
  H  H477  1  0.089967  0.536433  0.807533  1.0
  H  H478  1  0.869767  0.756633  0.359133  1.0
  H  H479  1  0.243367  0.113133  0.359133  1.0
  H  H480  1  0.886867  0.130233  0.359133  1.0
  H  H481  1  0.178000  0.312600  0.538900  1.0
  H  H482  1  0.134600  0.822000  0.538900  1.0
  H  H483  1  0.687400  0.865400  0.538900  1.0
  H  H484  1  0.865400  0.687400  0.961100  1.0
  H  H485  1  0.312600  0.178000  0.961100  1.0
  H  H486  1  0.822000  0.134600  0.961100  1.0
  H  H487  1  0.511333  0.979267  0.205567  1.0
  H  H488  1  0.467933  0.488667  0.205567  1.0
  H  H489  1  0.020733  0.532067  0.205567  1.0
  H  H490  1  0.198733  0.354067  0.627767  1.0
  H  H491  1  0.645933  0.844667  0.627767  1.0
  H  H492  1  0.155333  0.801267  0.627767  1.0
  H  H493  1  0.844667  0.645933  0.872233  1.0
  H  H494  1  0.801267  0.155333  0.872233  1.0
  H  H495  1  0.354067  0.198733  0.872233  1.0
  H  H496  1  0.532067  0.020733  0.294433  1.0
  H  H497  1  0.979267  0.511333  0.294433  1.0
  H  H498  1  0.488667  0.467933  0.294433  1.0
  H  H499  1  0.822000  0.687400  0.461100  1.0
  H  H500  1  0.865400  0.178000  0.461100  1.0
  H  H501  1  0.312600  0.134600  0.461100  1.0
  H  H502  1  0.134600  0.312600  0.038900  1.0
  H  H503  1  0.687400  0.822000  0.038900  1.0
  H  H504  1  0.178000  0.865400  0.038900  1.0
  H  H505  1  0.155333  0.354067  0.127767  1.0
  H  H506  1  0.198733  0.844667  0.127767  1.0
  H  H507  1  0.645933  0.801267  0.127767  1.0
  H  H508  1  0.467933  0.979267  0.705567  1.0
  H  H509  1  0.020733  0.488667  0.705567  1.0
  H  H510  1  0.511333  0.532067  0.705567  1.0
  H  H511  1  0.488667  0.020733  0.794433  1.0
  H  H512  1  0.532067  0.511333  0.794433  1.0
  H  H513  1  0.979267  0.467933  0.794433  1.0
  H  H514  1  0.801267  0.645933  0.372233  1.0
  H  H515  1  0.354067  0.155333  0.372233  1.0
  H  H516  1  0.844667  0.198733  0.372233  1.0
  H  H517  1  0.159800  0.285700  0.519600  1.0
  H  H518  1  0.125900  0.840200  0.519600  1.0
  H  H519  1  0.714300  0.874100  0.519600  1.0
  H  H520  1  0.874100  0.714300  0.980400  1.0
  H  H521  1  0.285700  0.159800  0.980400  1.0
  H  H522  1  0.840200  0.125900  0.980400  1.0
  H  H523  1  0.493133  0.952367  0.186267  1.0
  H  H524  1  0.459233  0.506867  0.186267  1.0
  H  H525  1  0.047633  0.540767  0.186267  1.0
  H  H526  1  0.207433  0.380967  0.647067  1.0
  H  H527  1  0.619033  0.826467  0.647067  1.0
  H  H528  1  0.173533  0.792567  0.647067  1.0
  H  H529  1  0.826467  0.619033  0.852933  1.0
  H  H530  1  0.792567  0.173533  0.852933  1.0
  H  H531  1  0.380967  0.207433  0.852933  1.0
  H  H532  1  0.540767  0.047633  0.313733  1.0
  H  H533  1  0.952367  0.493133  0.313733  1.0
  H  H534  1  0.506867  0.459233  0.313733  1.0
  H  H535  1  0.840200  0.714300  0.480400  1.0
  H  H536  1  0.874100  0.159800  0.480400  1.0
  H  H537  1  0.285700  0.125900  0.480400  1.0
  H  H538  1  0.125900  0.285700  0.019600  1.0
  H  H539  1  0.714300  0.840200  0.019600  1.0
  H  H540  1  0.159800  0.874100  0.019600  1.0
  H  H541  1  0.173533  0.380967  0.147067  1.0
  H  H542  1  0.207433  0.826467  0.147067  1.0
  H  H543  1  0.619033  0.792567  0.147067  1.0
  H  H544  1  0.459233  0.952367  0.686267  1.0
  H  H545  1  0.047633  0.506867  0.686267  1.0
  H  H546  1  0.493133  0.540767  0.686267  1.0
  H  H547  1  0.506867  0.047633  0.813733  1.0
  H  H548  1  0.540767  0.493133  0.813733  1.0
  H  H549  1  0.952367  0.459233  0.813733  1.0
  H  H550  1  0.792567  0.619033  0.352933  1.0
  H  H551  1  0.380967  0.173533  0.352933  1.0
  H  H552  1  0.826467  0.207433  0.352933  1.0
  H  H553  1  0.123200  0.406500  0.582800  1.0
  H  H554  1  0.283300  0.876800  0.582800  1.0
  H  H555  1  0.593500  0.716700  0.582800  1.0
  H  H556  1  0.716700  0.593500  0.917200  1.0
  H  H557  1  0.406500  0.123200  0.917200  1.0
  H  H558  1  0.876800  0.283300  0.917200  1.0
  H  H559  1  0.456533  0.073167  0.249467  1.0
  H  H560  1  0.616633  0.543467  0.249467  1.0
  H  H561  1  0.926833  0.383367  0.249467  1.0
  H  H562  1  0.050033  0.260167  0.583867  1.0
  H  H563  1  0.739833  0.789867  0.583867  1.0
  H  H564  1  0.210133  0.949967  0.583867  1.0
  H  H565  1  0.789867  0.739833  0.916133  1.0
  H  H566  1  0.949967  0.210133  0.916133  1.0
  H  H567  1  0.260167  0.050033  0.916133  1.0
  H  H568  1  0.383367  0.926833  0.250533  1.0
  H  H569  1  0.073167  0.456533  0.250533  1.0
  H  H570  1  0.543467  0.616633  0.250533  1.0
  H  H571  1  0.876800  0.593500  0.417200  1.0
  H  H572  1  0.716700  0.123200  0.417200  1.0
  H  H573  1  0.406500  0.283300  0.417200  1.0
  H  H574  1  0.283300  0.406500  0.082800  1.0
  H  H575  1  0.593500  0.876800  0.082800  1.0
  H  H576  1  0.123200  0.716700  0.082800  1.0
  H  H577  1  0.210133  0.260167  0.083867  1.0
  H  H578  1  0.050033  0.789867  0.083867  1.0
  H  H579  1  0.739833  0.949967  0.083867  1.0
  H  H580  1  0.616633  0.073167  0.749467  1.0
  H  H581  1  0.926833  0.543467  0.749467  1.0
  H  H582  1  0.456533  0.383367  0.749467  1.0
  H  H583  1  0.543467  0.926833  0.750533  1.0
  H  H584  1  0.383367  0.456533  0.750533  1.0
  H  H585  1  0.073167  0.616633  0.750533  1.0
  H  H586  1  0.949967  0.739833  0.416133  1.0
  H  H587  1  0.260167  0.210133  0.416133  1.0
  H  H588  1  0.789867  0.050033  0.416133  1.0
  H  H589  1  0.336300  0.412300  0.577100  1.0
  H  H590  1  0.076000  0.663700  0.577100  1.0
  H  H591  1  0.587700  0.924000  0.577100  1.0
  H  H592  1  0.924000  0.587700  0.922900  1.0
  H  H593  1  0.412300  0.336300  0.922900  1.0
  H  H594  1  0.663700  0.076000  0.922900  1.0
  H  H595  1  0.669633  0.078967  0.243767  1.0
  H  H596  1  0.409333  0.330367  0.243767  1.0
  H  H597  1  0.921033  0.590667  0.243767  1.0
  H  H598  1  0.257333  0.254367  0.589567  1.0
  H  H599  1  0.745633  0.002967  0.589567  1.0
  H  H600  1  0.997033  0.742667  0.589567  1.0
  H  H601  1  0.002967  0.745633  0.910433  1.0
  H  H602  1  0.742667  0.997033  0.910433  1.0
  H  H603  1  0.254367  0.257333  0.910433  1.0
  H  H604  1  0.590667  0.921033  0.256233  1.0
  H  H605  1  0.078967  0.669633  0.256233  1.0
  H  H606  1  0.330367  0.409333  0.256233  1.0
  H  H607  1  0.663700  0.587700  0.422900  1.0
  H  H608  1  0.924000  0.336300  0.422900  1.0
  H  H609  1  0.412300  0.076000  0.422900  1.0
  H  H610  1  0.076000  0.412300  0.077100  1.0
  H  H611  1  0.587700  0.663700  0.077100  1.0
  H  H612  1  0.336300  0.924000  0.077100  1.0
  H  H613  1  0.997033  0.254367  0.089567  1.0
  H  H614  1  0.257333  0.002967  0.089567  1.0
  H  H615  1  0.745633  0.742667  0.089567  1.0
  H  H616  1  0.409333  0.078967  0.743767  1.0
  H  H617  1  0.921033  0.330367  0.743767  1.0
  H  H618  1  0.669633  0.590667  0.743767  1.0
  H  H619  1  0.330367  0.921033  0.756233  1.0
  H  H620  1  0.590667  0.669633  0.756233  1.0
  H  H621  1  0.078967  0.409333  0.756233  1.0
  H  H622  1  0.742667  0.745633  0.410433  1.0
  H  H623  1  0.254367  0.997033  0.410433  1.0
  H  H624  1  0.002967  0.257333  0.410433  1.0
  H  H625  1  0.317900  0.587100  0.590100  1.0
  H  H626  1  0.269200  0.682100  0.590100  1.0
  H  H627  1  0.412900  0.730800  0.590100  1.0
  H  H628  1  0.730800  0.412900  0.909900  1.0
  H  H629  1  0.587100  0.317900  0.909900  1.0
  H  H630  1  0.682100  0.269200  0.909900  1.0
  H  H631  1  0.651233  0.253767  0.256767  1.0
  H  H632  1  0.602533  0.348767  0.256767  1.0
  H  H633  1  0.746233  0.397467  0.256767  1.0
  H  H634  1  0.064133  0.079567  0.576567  1.0
  H  H635  1  0.920433  0.984567  0.576567  1.0
  H  H636  1  0.015433  0.935867  0.576567  1.0
  H  H637  1  0.984567  0.920433  0.923433  1.0
  H  H638  1  0.935867  0.015433  0.923433  1.0
  H  H639  1  0.079567  0.064133  0.923433  1.0
  H  H640  1  0.397467  0.746233  0.243233  1.0
  H  H641  1  0.253767  0.651233  0.243233  1.0
  H  H642  1  0.348767  0.602533  0.243233  1.0
  H  H643  1  0.682100  0.412900  0.409900  1.0
  H  H644  1  0.730800  0.317900  0.409900  1.0
  H  H645  1  0.587100  0.269200  0.409900  1.0
  H  H646  1  0.269200  0.587100  0.090100  1.0
  H  H647  1  0.412900  0.682100  0.090100  1.0
  H  H648  1  0.317900  0.730800  0.090100  1.0
  H  H649  1  0.015433  0.079567  0.076567  1.0
  H  H650  1  0.064133  0.984567  0.076567  1.0
  H  H651  1  0.920433  0.935867  0.076567  1.0
  H  H652  1  0.602533  0.253767  0.756767  1.0
  H  H653  1  0.746233  0.348767  0.756767  1.0
  H  H654  1  0.651233  0.397467  0.756767  1.0
  H  H655  1  0.348767  0.746233  0.743233  1.0
  H  H656  1  0.397467  0.651233  0.743233  1.0
  H  H657  1  0.253767  0.602533  0.743233  1.0
  H  H658  1  0.935867  0.920433  0.423433  1.0
  H  H659  1  0.079567  0.015433  0.423433  1.0
  H  H660  1  0.984567  0.064133  0.423433  1.0
  H  H661  1  0.352900  0.641200  0.602900  1.0
  H  H662  1  0.288300  0.647100  0.602900  1.0
  H  H663  1  0.358800  0.711700  0.602900  1.0
  H  H664  1  0.711700  0.358800  0.897100  1.0
  H  H665  1  0.641200  0.352900  0.897100  1.0
  H  H666  1  0.647100  0.288300  0.897100  1.0
  H  H667  1  0.686233  0.307867  0.269567  1.0
  H  H668  1  0.621633  0.313767  0.269567  1.0
  H  H669  1  0.692133  0.378367  0.269567  1.0
  H  H670  1  0.045033  0.025467  0.563767  1.0
  H  H671  1  0.974533  0.019567  0.563767  1.0
  H  H672  1  0.980433  0.954967  0.563767  1.0
  H  H673  1  0.019567  0.974533  0.936233  1.0
  H  H674  1  0.954967  0.980433  0.936233  1.0
  H  H675  1  0.025467  0.045033  0.936233  1.0
  H  H676  1  0.378367  0.692133  0.230433  1.0
  H  H677  1  0.307867  0.686233  0.230433  1.0
  H  H678  1  0.313767  0.621633  0.230433  1.0
  H  H679  1  0.647100  0.358800  0.397100  1.0
  H  H680  1  0.711700  0.352900  0.397100  1.0
  H  H681  1  0.641200  0.288300  0.397100  1.0
  H  H682  1  0.288300  0.641200  0.102900  1.0
  H  H683  1  0.358800  0.647100  0.102900  1.0
  H  H684  1  0.352900  0.711700  0.102900  1.0
  H  H685  1  0.980433  0.025467  0.063767  1.0
  H  H686  1  0.045033  0.019567  0.063767  1.0
  H  H687  1  0.974533  0.954967  0.063767  1.0
  H  H688  1  0.621633  0.307867  0.769567  1.0
  H  H689  1  0.692133  0.313767  0.769567  1.0
  H  H690  1  0.686233  0.378367  0.769567  1.0
  H  H691  1  0.313767  0.692133  0.730433  1.0
  H  H692  1  0.378367  0.686233  0.730433  1.0
  H  H693  1  0.307867  0.621633  0.730433  1.0
  H  H694  1  0.954967  0.974533  0.436233  1.0
  H  H695  1  0.025467  0.980433  0.436233  1.0
  H  H696  1  0.019567  0.045033  0.436233  1.0
  H  H697  1  0.319100  0.564500  0.631200  1.0
  H  H698  1  0.245400  0.680900  0.631200  1.0
  H  H699  1  0.435500  0.754600  0.631200  1.0
  H  H700  1  0.754600  0.435500  0.868800  1.0
  H  H701  1  0.564500  0.319100  0.868800  1.0
  H  H702  1  0.680900  0.245400  0.868800  1.0
  H  H703  1  0.652433  0.231167  0.297867  1.0
  H  H704  1  0.578733  0.347567  0.297867  1.0
  H  H705  1  0.768833  0.421267  0.297867  1.0
  H  H706  1  0.087933  0.102167  0.535467  1.0
  H  H707  1  0.897833  0.985767  0.535467  1.0
  H  H708  1  0.014233  0.912067  0.535467  1.0
  H  H709  1  0.985767  0.897833  0.964533  1.0
  H  H710  1  0.912067  0.014233  0.964533  1.0
  H  H711  1  0.102167  0.087933  0.964533  1.0
  H  H712  1  0.421267  0.768833  0.202133  1.0
  H  H713  1  0.231167  0.652433  0.202133  1.0
  H  H714  1  0.347567  0.578733  0.202133  1.0
  H  H715  1  0.680900  0.435500  0.368800  1.0
  H  H716  1  0.754600  0.319100  0.368800  1.0
  H  H717  1  0.564500  0.245400  0.368800  1.0
  H  H718  1  0.245400  0.564500  0.131200  1.0
  H  H719  1  0.435500  0.680900  0.131200  1.0
  H  H720  1  0.319100  0.754600  0.131200  1.0
  H  H721  1  0.014233  0.102167  0.035467  1.0
  H  H722  1  0.087933  0.985767  0.035467  1.0
  H  H723  1  0.897833  0.912067  0.035467  1.0
  H  H724  1  0.578733  0.231167  0.797867  1.0
  H  H725  1  0.768833  0.347567  0.797867  1.0
  H  H726  1  0.652433  0.421267  0.797867  1.0
  H  H727  1  0.347567  0.768833  0.702133  1.0
  H  H728  1  0.421267  0.652433  0.702133  1.0
  H  H729  1  0.231167  0.578733  0.702133  1.0
  H  H730  1  0.912067  0.897833  0.464533  1.0
  H  H731  1  0.102167  0.014233  0.464533  1.0
  H  H732  1  0.985767  0.087933  0.464533  1.0
  H  H733  1  0.286700  0.510800  0.617900  1.0
  H  H734  1  0.224100  0.713300  0.617900  1.0
  H  H735  1  0.489200  0.775900  0.617900  1.0
  H  H736  1  0.775900  0.489200  0.882100  1.0
  H  H737  1  0.510800  0.286700  0.882100  1.0
  H  H738  1  0.713300  0.224100  0.882100  1.0
  H  H739  1  0.620033  0.177467  0.284567  1.0
  H  H740  1  0.557433  0.379967  0.284567  1.0
  H  H741  1  0.822533  0.442567  0.284567  1.0
  H  H742  1  0.109233  0.155867  0.548767  1.0
  H  H743  1  0.844133  0.953367  0.548767  1.0
  H  H744  1  0.046633  0.890767  0.548767  1.0
  H  H745  1  0.953367  0.844133  0.951233  1.0
  H  H746  1  0.890767  0.046633  0.951233  1.0
  H  H747  1  0.155867  0.109233  0.951233  1.0
  H  H748  1  0.442567  0.822533  0.215433  1.0
  H  H749  1  0.177467  0.620033  0.215433  1.0
  H  H750  1  0.379967  0.557433  0.215433  1.0
  H  H751  1  0.713300  0.489200  0.382100  1.0
  H  H752  1  0.775900  0.286700  0.382100  1.0
  H  H753  1  0.510800  0.224100  0.382100  1.0
  H  H754  1  0.224100  0.510800  0.117900  1.0
  H  H755  1  0.489200  0.713300  0.117900  1.0
  H  H756  1  0.286700  0.775900  0.117900  1.0
  H  H757  1  0.046633  0.155867  0.048767  1.0
  H  H758  1  0.109233  0.953367  0.048767  1.0
  H  H759  1  0.844133  0.890767  0.048767  1.0
  H  H760  1  0.557433  0.177467  0.784567  1.0
  H  H761  1  0.822533  0.379967  0.784567  1.0
  H  H762  1  0.620033  0.442567  0.784567  1.0
  H  H763  1  0.379967  0.822533  0.715433  1.0
  H  H764  1  0.442567  0.620033  0.715433  1.0
  H  H765  1  0.177467  0.557433  0.715433  1.0
  H  H766  1  0.890767  0.844133  0.451233  1.0
  H  H767  1  0.155867  0.046633  0.451233  1.0
  H  H768  1  0.953367  0.109233  0.451233  1.0
  H  H769  1  0.405400  0.632900  0.628100  1.0
  H  H770  1  0.227500  0.594600  0.628100  1.0
  H  H771  1  0.367100  0.772500  0.628100  1.0
  H  H772  1  0.772500  0.367100  0.871900  1.0
  H  H773  1  0.632900  0.405400  0.871900  1.0
  H  H774  1  0.594600  0.227500  0.871900  1.0
  H  H775  1  0.738733  0.299567  0.294767  1.0
  H  H776  1  0.560833  0.261267  0.294767  1.0
  H  H777  1  0.700433  0.439167  0.294767  1.0
  H  H778  1  0.105833  0.033767  0.538567  1.0
  H  H779  1  0.966233  0.072067  0.538567  1.0
  H  H780  1  0.927933  0.894167  0.538567  1.0
  H  H781  1  0.072067  0.966233  0.961433  1.0
  H  H782  1  0.894167  0.927933  0.961433  1.0
  H  H783  1  0.033767  0.105833  0.961433  1.0
  H  H784  1  0.439167  0.700433  0.205233  1.0
  H  H785  1  0.299567  0.738733  0.205233  1.0
  H  H786  1  0.261267  0.560833  0.205233  1.0
  H  H787  1  0.594600  0.367100  0.371900  1.0
  H  H788  1  0.772500  0.405400  0.371900  1.0
  H  H789  1  0.632900  0.227500  0.371900  1.0
  H  H790  1  0.227500  0.632900  0.128100  1.0
  H  H791  1  0.367100  0.594600  0.128100  1.0
  H  H792  1  0.405400  0.772500  0.128100  1.0
  H  H793  1  0.927933  0.033767  0.038567  1.0
  H  H794  1  0.105833  0.072067  0.038567  1.0
  H  H795  1  0.966233  0.894167  0.038567  1.0
  H  H796  1  0.560833  0.299567  0.794767  1.0
  H  H797  1  0.700433  0.261267  0.794767  1.0
  H  H798  1  0.738733  0.439167  0.794767  1.0
  H  H799  1  0.261267  0.700433  0.705233  1.0
  H  H800  1  0.439167  0.738733  0.705233  1.0
  H  H801  1  0.299567  0.560833  0.705233  1.0
  H  H802  1  0.894167  0.966233  0.461433  1.0
  H  H803  1  0.033767  0.927933  0.461433  1.0
  H  H804  1  0.072067  0.105833  0.461433  1.0
  H  H805  1  0.463800  0.678800  0.641900  1.0
  H  H806  1  0.215000  0.536200  0.641900  1.0
  H  H807  1  0.321200  0.785000  0.641900  1.0
  H  H808  1  0.785000  0.321200  0.858100  1.0
  H  H809  1  0.678800  0.463800  0.858100  1.0
  H  H810  1  0.536200  0.215000  0.858100  1.0
  H  H811  1  0.797133  0.345467  0.308567  1.0
  H  H812  1  0.548333  0.202867  0.308567  1.0
  H  H813  1  0.654533  0.451667  0.308567  1.0
  H  H814  1  0.118333  0.987867  0.524767  1.0
  H  H815  1  0.012133  0.130467  0.524767  1.0
  H  H816  1  0.869533  0.881667  0.524767  1.0
  H  H817  1  0.130467  0.012133  0.975233  1.0
  H  H818  1  0.881667  0.869533  0.975233  1.0
  H  H819  1  0.987867  0.118333  0.975233  1.0
  H  H820  1  0.451667  0.654533  0.191433  1.0
  H  H821  1  0.345467  0.797133  0.191433  1.0
  H  H822  1  0.202867  0.548333  0.191433  1.0
  H  H823  1  0.536200  0.321200  0.358100  1.0
  H  H824  1  0.785000  0.463800  0.358100  1.0
  H  H825  1  0.678800  0.215000  0.358100  1.0
  H  H826  1  0.215000  0.678800  0.141900  1.0
  H  H827  1  0.321200  0.536200  0.141900  1.0
  H  H828  1  0.463800  0.785000  0.141900  1.0
  H  H829  1  0.869533  0.987867  0.024767  1.0
  H  H830  1  0.118333  0.130467  0.024767  1.0
  H  H831  1  0.012133  0.881667  0.024767  1.0
  H  H832  1  0.548333  0.345467  0.808567  1.0
  H  H833  1  0.654533  0.202867  0.808567  1.0
  H  H834  1  0.797133  0.451667  0.808567  1.0
  H  H835  1  0.202867  0.654533  0.691433  1.0
  H  H836  1  0.451667  0.797133  0.691433  1.0
  H  H837  1  0.345467  0.548333  0.691433  1.0
  H  H838  1  0.881667  0.012133  0.475233  1.0
  H  H839  1  0.987867  0.869533  0.475233  1.0
  H  H840  1  0.130467  0.118333  0.475233  1.0
  H  H841  1  0.483600  0.722300  0.658600  1.0
  H  H842  1  0.238700  0.516400  0.658600  1.0
  H  H843  1  0.277700  0.761300  0.658600  1.0
  H  H844  1  0.761300  0.277700  0.841400  1.0
  H  H845  1  0.722300  0.483600  0.841400  1.0
  H  H846  1  0.516400  0.238700  0.841400  1.0
  H  H847  1  0.816933  0.388967  0.325267  1.0
  H  H848  1  0.572033  0.183067  0.325267  1.0
  H  H849  1  0.611033  0.427967  0.325267  1.0
  H  H850  1  0.094633  0.944367  0.508067  1.0
  H  H851  1  0.055633  0.150267  0.508067  1.0
  H  H852  1  0.849733  0.905367  0.508067  1.0
  H  H853  1  0.150267  0.055633  0.991933  1.0
  H  H854  1  0.905367  0.849733  0.991933  1.0
  H  H855  1  0.944367  0.094633  0.991933  1.0
  H  H856  1  0.427967  0.611033  0.174733  1.0
  H  H857  1  0.388967  0.816933  0.174733  1.0
  H  H858  1  0.183067  0.572033  0.174733  1.0
  H  H859  1  0.516400  0.277700  0.341400  1.0
  H  H860  1  0.761300  0.483600  0.341400  1.0
  H  H861  1  0.722300  0.238700  0.341400  1.0
  H  H862  1  0.238700  0.722300  0.158600  1.0
  H  H863  1  0.277700  0.516400  0.158600  1.0
  H  H864  1  0.483600  0.761300  0.158600  1.0
  H  H865  1  0.849733  0.944367  0.008067  1.0
  H  H866  1  0.094633  0.150267  0.008067  1.0
  H  H867  1  0.055633  0.905367  0.008067  1.0
  H  H868  1  0.572033  0.388967  0.825267  1.0
  H  H869  1  0.611033  0.183067  0.825267  1.0
  H  H870  1  0.816933  0.427967  0.825267  1.0
  H  H871  1  0.183067  0.611033  0.674733  1.0
  H  H872  1  0.427967  0.816933  0.674733  1.0
  H  H873  1  0.388967  0.572033  0.674733  1.0
  H  H874  1  0.905367  0.055633  0.491933  1.0
  H  H875  1  0.944367  0.849733  0.491933  1.0
  H  H876  1  0.150267  0.094633  0.491933  1.0
  H  H877  1  0.443800  0.747100  0.665000  1.0
  H  H878  1  0.303300  0.556200  0.665000  1.0
  H  H879  1  0.252900  0.696700  0.665000  1.0
  H  H880  1  0.696700  0.252900  0.835000  1.0
  H  H881  1  0.747100  0.443800  0.835000  1.0
  H  H882  1  0.556200  0.303300  0.835000  1.0
  H  H883  1  0.777133  0.413767  0.331667  1.0
  H  H884  1  0.636633  0.222867  0.331667  1.0
  H  H885  1  0.586233  0.363367  0.331667  1.0
  H  H886  1  0.030033  0.919567  0.501667  1.0
  H  H887  1  0.080433  0.110467  0.501667  1.0
  H  H888  1  0.889533  0.969967  0.501667  1.0
  H  H889  1  0.110467  0.080433  0.998333  1.0
  H  H890  1  0.969967  0.889533  0.998333  1.0
  H  H891  1  0.919567  0.030033  0.998333  1.0
  H  H892  1  0.363367  0.586233  0.168333  1.0
  H  H893  1  0.413767  0.777133  0.168333  1.0
  H  H894  1  0.222867  0.636633  0.168333  1.0
  H  H895  1  0.556200  0.252900  0.335000  1.0
  H  H896  1  0.696700  0.443800  0.335000  1.0
  H  H897  1  0.747100  0.303300  0.335000  1.0
  H  H898  1  0.303300  0.747100  0.165000  1.0
  H  H899  1  0.252900  0.556200  0.165000  1.0
  H  H900  1  0.443800  0.696700  0.165000  1.0
  H  H901  1  0.889533  0.919567  0.001667  1.0
  H  H902  1  0.030033  0.110467  0.001667  1.0
  H  H903  1  0.080433  0.969967  0.001667  1.0
  H  H904  1  0.636633  0.413767  0.831667  1.0
  H  H905  1  0.586233  0.222867  0.831667  1.0
  H  H906  1  0.777133  0.363367  0.831667  1.0
  H  H907  1  0.222867  0.586233  0.668333  1.0
  H  H908  1  0.363367  0.777133  0.668333  1.0
  H  H909  1  0.413767  0.636633  0.668333  1.0
  H  H910  1  0.969967  0.080433  0.498333  1.0
  H  H911  1  0.919567  0.889533  0.498333  1.0
  H  H912  1  0.110467  0.030033  0.498333  1.0
  H  H913  1  0.378900  0.719300  0.657700  1.0
  H  H914  1  0.340400  0.621100  0.657700  1.0
  H  H915  1  0.280700  0.659600  0.657700  1.0
  H  H916  1  0.659600  0.280700  0.842300  1.0
  H  H917  1  0.719300  0.378900  0.842300  1.0
  H  H918  1  0.621100  0.340400  0.842300  1.0
  H  H919  1  0.712233  0.385967  0.324367  1.0
  H  H920  1  0.673733  0.287767  0.324367  1.0
  H  H921  1  0.614033  0.326267  0.324367  1.0
  H  H922  1  0.992933  0.947367  0.508967  1.0
  H  H923  1  0.052633  0.045567  0.508967  1.0
  H  H924  1  0.954433  0.007067  0.508967  1.0
  H  H925  1  0.045567  0.052633  0.991033  1.0
  H  H926  1  0.007067  0.954433  0.991033  1.0
  H  H927  1  0.947367  0.992933  0.991033  1.0
  H  H928  1  0.326267  0.614033  0.175633  1.0
  H  H929  1  0.385967  0.712233  0.175633  1.0
  H  H930  1  0.287767  0.673733  0.175633  1.0
  H  H931  1  0.621100  0.280700  0.342300  1.0
  H  H932  1  0.659600  0.378900  0.342300  1.0
  H  H933  1  0.719300  0.340400  0.342300  1.0
  H  H934  1  0.340400  0.719300  0.157700  1.0
  H  H935  1  0.280700  0.621100  0.157700  1.0
  H  H936  1  0.378900  0.659600  0.157700  1.0
  H  H937  1  0.954433  0.947367  0.008967  1.0
  H  H938  1  0.992933  0.045567  0.008967  1.0
  H  H939  1  0.052633  0.007067  0.008967  1.0
  H  H940  1  0.673733  0.385967  0.824367  1.0
  H  H941  1  0.614033  0.287767  0.824367  1.0
  H  H942  1  0.712233  0.326267  0.824367  1.0
  H  H943  1  0.287767  0.614033  0.675633  1.0
  H  H944  1  0.326267  0.712233  0.675633  1.0
  H  H945  1  0.385967  0.673733  0.675633  1.0
  H  H946  1  0.007067  0.052633  0.491033  1.0
  H  H947  1  0.947367  0.954433  0.491033  1.0
  H  H948  1  0.045567  0.992933  0.491033  1.0
  H  H949  1  0.089300  0.344200  0.540800  1.0
  H  H950  1  0.254900  0.910700  0.540800  1.0
  H  H951  1  0.655800  0.745100  0.540800  1.0
  H  H952  1  0.745100  0.655800  0.959200  1.0
  H  H953  1  0.344200  0.089300  0.959200  1.0
  H  H954  1  0.910700  0.254900  0.959200  1.0
  H  H955  1  0.422633  0.010867  0.207467  1.0
  H  H956  1  0.588233  0.577367  0.207467  1.0
  H  H957  1  0.989133  0.411767  0.207467  1.0
  H  H958  1  0.078433  0.322467  0.625867  1.0
  H  H959  1  0.677533  0.755967  0.625867  1.0
  H  H960  1  0.244033  0.921567  0.625867  1.0
  H  H961  1  0.755967  0.677533  0.874133  1.0
  H  H962  1  0.921567  0.244033  0.874133  1.0
  H  H963  1  0.322467  0.078433  0.874133  1.0
  H  H964  1  0.411767  0.989133  0.292533  1.0
  H  H965  1  0.010867  0.422633  0.292533  1.0
  H  H966  1  0.577367  0.588233  0.292533  1.0
  H  H967  1  0.910700  0.655800  0.459200  1.0
  H  H968  1  0.745100  0.089300  0.459200  1.0
  H  H969  1  0.344200  0.254900  0.459200  1.0
  H  H970  1  0.254900  0.344200  0.040800  1.0
  H  H971  1  0.655800  0.910700  0.040800  1.0
  H  H972  1  0.089300  0.745100  0.040800  1.0
  H  H973  1  0.244033  0.322467  0.125867  1.0
  H  H974  1  0.078433  0.755967  0.125867  1.0
  H  H975  1  0.677533  0.921567  0.125867  1.0
  H  H976  1  0.588233  0.010867  0.707467  1.0
  H  H977  1  0.989133  0.577367  0.707467  1.0
  H  H978  1  0.422633  0.411767  0.707467  1.0
  H  H979  1  0.577367  0.989133  0.792533  1.0
  H  H980  1  0.411767  0.422633  0.792533  1.0
  H  H981  1  0.010867  0.588233  0.792533  1.0
  H  H982  1  0.921567  0.677533  0.374133  1.0
  H  H983  1  0.322467  0.244033  0.374133  1.0
  H  H984  1  0.755967  0.078433  0.374133  1.0
  H  H985  1  0.119700  0.329600  0.537000  1.0
  H  H986  1  0.209900  0.880300  0.537000  1.0
  H  H987  1  0.670400  0.790100  0.537000  1.0
  H  H988  1  0.790100  0.670400  0.963000  1.0
  H  H989  1  0.329600  0.119700  0.963000  1.0
  H  H990  1  0.880300  0.209900  0.963000  1.0
  H  H991  1  0.453033  0.996267  0.203667  1.0
  H  H992  1  0.543233  0.546967  0.203667  1.0
  H  H993  1  0.003733  0.456767  0.203667  1.0
  H  H994  1  0.123433  0.337067  0.629667  1.0
  H  H995  1  0.662933  0.786367  0.629667  1.0
  H  H996  1  0.213633  0.876567  0.629667  1.0
  H  H997  1  0.786367  0.662933  0.870333  1.0
  H  H998  1  0.876567  0.213633  0.870333  1.0
  H  H999  1  0.337067  0.123433  0.870333  1.0
  H  H1000  1  0.456767  0.003733  0.296333  1.0
  H  H1001  1  0.996267  0.453033  0.296333  1.0
  H  H1002  1  0.546967  0.543233  0.296333  1.0
  H  H1003  1  0.880300  0.670400  0.463000  1.0
  H  H1004  1  0.790100  0.119700  0.463000  1.0
  H  H1005  1  0.329600  0.209900  0.463000  1.0
  H  H1006  1  0.209900  0.329600  0.037000  1.0
  H  H1007  1  0.670400  0.880300  0.037000  1.0
  H  H1008  1  0.119700  0.790100  0.037000  1.0
  H  H1009  1  0.213633  0.337067  0.129667  1.0
  H  H1010  1  0.123433  0.786367  0.129667  1.0
  H  H1011  1  0.662933  0.876567  0.129667  1.0
  H  H1012  1  0.543233  0.996267  0.703667  1.0
  H  H1013  1  0.003733  0.546967  0.703667  1.0
  H  H1014  1  0.453033  0.456767  0.703667  1.0
  H  H1015  1  0.546967  0.003733  0.796333  1.0
  H  H1016  1  0.456767  0.453033  0.796333  1.0
  H  H1017  1  0.996267  0.543233  0.796333  1.0
  H  H1018  1  0.876567  0.662933  0.370333  1.0
  H  H1019  1  0.337067  0.213633  0.370333  1.0
  H  H1020  1  0.786367  0.123433  0.370333  1.0
  H  H1021  1  0.127100  0.372000  0.532600  1.0
  H  H1022  1  0.244900  0.872900  0.532600  1.0
  H  H1023  1  0.628000  0.755100  0.532600  1.0
  H  H1024  1  0.755100  0.628000  0.967400  1.0
  H  H1025  1  0.372000  0.127100  0.967400  1.0
  H  H1026  1  0.872900  0.244900  0.967400  1.0
  H  H1027  1  0.460433  0.038667  0.199267  1.0
  H  H1028  1  0.578233  0.539567  0.199267  1.0
  H  H1029  1  0.961333  0.421767  0.199267  1.0
  H  H1030  1  0.088433  0.294667  0.634067  1.0
  H  H1031  1  0.705333  0.793767  0.634067  1.0
  H  H1032  1  0.206233  0.911567  0.634067  1.0
  H  H1033  1  0.793767  0.705333  0.865933  1.0
  H  H1034  1  0.911567  0.206233  0.865933  1.0
  H  H1035  1  0.294667  0.088433  0.865933  1.0
  H  H1036  1  0.421767  0.961333  0.300733  1.0
  H  H1037  1  0.038667  0.460433  0.300733  1.0
  H  H1038  1  0.539567  0.578233  0.300733  1.0
  H  H1039  1  0.872900  0.628000  0.467400  1.0
  H  H1040  1  0.755100  0.127100  0.467400  1.0
  H  H1041  1  0.372000  0.244900  0.467400  1.0
  H  H1042  1  0.244900  0.372000  0.032600  1.0
  H  H1043  1  0.628000  0.872900  0.032600  1.0
  H  H1044  1  0.127100  0.755100  0.032600  1.0
  H  H1045  1  0.206233  0.294667  0.134067  1.0
  H  H1046  1  0.088433  0.793767  0.134067  1.0
  H  H1047  1  0.705333  0.911567  0.134067  1.0
  H  H1048  1  0.578233  0.038667  0.699267  1.0
  H  H1049  1  0.961333  0.539567  0.699267  1.0
  H  H1050  1  0.460433  0.421767  0.699267  1.0
  H  H1051  1  0.539567  0.961333  0.800733  1.0
  H  H1052  1  0.421767  0.460433  0.800733  1.0
  H  H1053  1  0.038667  0.578233  0.800733  1.0
  H  H1054  1  0.911567  0.705333  0.365933  1.0
  H  H1055  1  0.294667  0.206233  0.365933  1.0
  H  H1056  1  0.793767  0.088433  0.365933  1.0
  H  H1057  1  0.067900  0.369600  0.555200  1.0
  H  H1058  1  0.301700  0.932100  0.555200  1.0
  H  H1059  1  0.630400  0.698300  0.555200  1.0
  H  H1060  1  0.698300  0.630400  0.944800  1.0
  H  H1061  1  0.369600  0.067900  0.944800  1.0
  H  H1062  1  0.932100  0.301700  0.944800  1.0
  H  H1063  1  0.401233  0.036267  0.221867  1.0
  H  H1064  1  0.635033  0.598767  0.221867  1.0
  H  H1065  1  0.963733  0.364967  0.221867  1.0
  H  H1066  1  0.031633  0.297067  0.611467  1.0
  H  H1067  1  0.702933  0.734567  0.611467  1.0
  H  H1068  1  0.265433  0.968367  0.611467  1.0
  H  H1069  1  0.734567  0.702933  0.888533  1.0
  H  H1070  1  0.968367  0.265433  0.888533  1.0
  H  H1071  1  0.297067  0.031633  0.888533  1.0
  H  H1072  1  0.364967  0.963733  0.278133  1.0
  H  H1073  1  0.036267  0.401233  0.278133  1.0
  H  H1074  1  0.598767  0.635033  0.278133  1.0
  H  H1075  1  0.932100  0.630400  0.444800  1.0
  H  H1076  1  0.698300  0.067900  0.444800  1.0
  H  H1077  1  0.369600  0.301700  0.444800  1.0
  H  H1078  1  0.301700  0.369600  0.055200  1.0
  H  H1079  1  0.630400  0.932100  0.055200  1.0
  H  H1080  1  0.067900  0.698300  0.055200  1.0
  H  H1081  1  0.265433  0.297067  0.111467  1.0
  H  H1082  1  0.031633  0.734567  0.111467  1.0
  H  H1083  1  0.702933  0.968367  0.111467  1.0
  H  H1084  1  0.635033  0.036267  0.721867  1.0
  H  H1085  1  0.963733  0.598767  0.721867  1.0
  H  H1086  1  0.401233  0.364967  0.721867  1.0
  H  H1087  1  0.598767  0.963733  0.778133  1.0
  H  H1088  1  0.364967  0.401233  0.778133  1.0
  H  H1089  1  0.036267  0.635033  0.778133  1.0
  H  H1090  1  0.968367  0.702933  0.388533  1.0
  H  H1091  1  0.297067  0.265433  0.388533  1.0
  H  H1092  1  0.734567  0.031633  0.388533  1.0
  H  H1093  1  0.075900  0.377800  0.569400  1.0
  H  H1094  1  0.301900  0.924100  0.569400  1.0
  H  H1095  1  0.622200  0.698100  0.569400  1.0
  H  H1096  1  0.698100  0.622200  0.930600  1.0
  H  H1097  1  0.377800  0.075900  0.930600  1.0
  H  H1098  1  0.924100  0.301900  0.930600  1.0
  H  H1099  1  0.409233  0.044467  0.236067  1.0
  H  H1100  1  0.635233  0.590767  0.236067  1.0
  H  H1101  1  0.955533  0.364767  0.236067  1.0
  H  H1102  1  0.031433  0.288867  0.597267  1.0
  H  H1103  1  0.711133  0.742567  0.597267  1.0
  H  H1104  1  0.257433  0.968567  0.597267  1.0
  H  H1105  1  0.742567  0.711133  0.902733  1.0
  H  H1106  1  0.968567  0.257433  0.902733  1.0
  H  H1107  1  0.288867  0.031433  0.902733  1.0
  H  H1108  1  0.364767  0.955533  0.263933  1.0
  H  H1109  1  0.044467  0.409233  0.263933  1.0
  H  H1110  1  0.590767  0.635233  0.263933  1.0
  H  H1111  1  0.924100  0.622200  0.430600  1.0
  H  H1112  1  0.698100  0.075900  0.430600  1.0
  H  H1113  1  0.377800  0.301900  0.430600  1.0
  H  H1114  1  0.301900  0.377800  0.069400  1.0
  H  H1115  1  0.622200  0.924100  0.069400  1.0
  H  H1116  1  0.075900  0.698100  0.069400  1.0
  H  H1117  1  0.257433  0.288867  0.097267  1.0
  H  H1118  1  0.031433  0.742567  0.097267  1.0
  H  H1119  1  0.711133  0.968567  0.097267  1.0
  H  H1120  1  0.635233  0.044467  0.736067  1.0
  H  H1121  1  0.955533  0.590767  0.736067  1.0
  H  H1122  1  0.409233  0.364767  0.736067  1.0
  H  H1123  1  0.590767  0.955533  0.763933  1.0
  H  H1124  1  0.364767  0.409233  0.763933  1.0
  H  H1125  1  0.044467  0.635233  0.763933  1.0
  H  H1126  1  0.968567  0.711133  0.402733  1.0
  H  H1127  1  0.288867  0.257433  0.402733  1.0
  H  H1128  1  0.742567  0.031433  0.402733  1.0
  H  H1129  1  0.076700  0.308700  0.561800  1.0
  H  H1130  1  0.232000  0.923300  0.561800  1.0
  H  H1131  1  0.691300  0.768000  0.561800  1.0
  H  H1132  1  0.768000  0.691300  0.938200  1.0
  H  H1133  1  0.308700  0.076700  0.938200  1.0
  H  H1134  1  0.923300  0.232000  0.938200  1.0
  H  H1135  1  0.410033  0.975367  0.228467  1.0
  H  H1136  1  0.565333  0.589967  0.228467  1.0
  H  H1137  1  0.024633  0.434667  0.228467  1.0
  H  H1138  1  0.101333  0.357967  0.604867  1.0
  H  H1139  1  0.642033  0.743367  0.604867  1.0
  H  H1140  1  0.256633  0.898667  0.604867  1.0
  H  H1141  1  0.743367  0.642033  0.895133  1.0
  H  H1142  1  0.898667  0.256633  0.895133  1.0
  H  H1143  1  0.357967  0.101333  0.895133  1.0
  H  H1144  1  0.434667  0.024633  0.271533  1.0
  H  H1145  1  0.975367  0.410033  0.271533  1.0
  H  H1146  1  0.589967  0.565333  0.271533  1.0
  H  H1147  1  0.923300  0.691300  0.438200  1.0
  H  H1148  1  0.768000  0.076700  0.438200  1.0
  H  H1149  1  0.308700  0.232000  0.438200  1.0
  H  H1150  1  0.232000  0.308700  0.061800  1.0
  H  H1151  1  0.691300  0.923300  0.061800  1.0
  H  H1152  1  0.076700  0.768000  0.061800  1.0
  H  H1153  1  0.256633  0.357967  0.104867  1.0
  H  H1154  1  0.101333  0.743367  0.104867  1.0
  H  H1155  1  0.642033  0.898667  0.104867  1.0
  H  H1156  1  0.565333  0.975367  0.728467  1.0
  H  H1157  1  0.024633  0.589967  0.728467  1.0
  H  H1158  1  0.410033  0.434667  0.728467  1.0
  H  H1159  1  0.589967  0.024633  0.771533  1.0
  H  H1160  1  0.434667  0.410033  0.771533  1.0
  H  H1161  1  0.975367  0.565333  0.771533  1.0
  H  H1162  1  0.898667  0.642033  0.395133  1.0
  H  H1163  1  0.357967  0.256633  0.395133  1.0
  H  H1164  1  0.743367  0.101333  0.395133  1.0
  H  H1165  1  0.033900  0.304800  0.560400  1.0
  H  H1166  1  0.270900  0.966100  0.560400  1.0
  H  H1167  1  0.695200  0.729100  0.560400  1.0
  H  H1168  1  0.729100  0.695200  0.939600  1.0
  H  H1169  1  0.304800  0.033900  0.939600  1.0
  H  H1170  1  0.966100  0.270900  0.939600  1.0
  H  H1171  1  0.367233  0.971467  0.227067  1.0
  H  H1172  1  0.604233  0.632767  0.227067  1.0
  H  H1173  1  0.028533  0.395767  0.227067  1.0
  H  H1174  1  0.062433  0.361867  0.606267  1.0
  H  H1175  1  0.638133  0.700567  0.606267  1.0
  H  H1176  1  0.299433  0.937567  0.606267  1.0
  H  H1177  1  0.700567  0.638133  0.893733  1.0
  H  H1178  1  0.937567  0.299433  0.893733  1.0
  H  H1179  1  0.361867  0.062433  0.893733  1.0
  H  H1180  1  0.395767  0.028533  0.272933  1.0
  H  H1181  1  0.971467  0.367233  0.272933  1.0
  H  H1182  1  0.632767  0.604233  0.272933  1.0
  H  H1183  1  0.966100  0.695200  0.439600  1.0
  H  H1184  1  0.729100  0.033900  0.439600  1.0
  H  H1185  1  0.304800  0.270900  0.439600  1.0
  H  H1186  1  0.270900  0.304800  0.060400  1.0
  H  H1187  1  0.695200  0.966100  0.060400  1.0
  H  H1188  1  0.033900  0.729100  0.060400  1.0
  H  H1189  1  0.299433  0.361867  0.106267  1.0
  H  H1190  1  0.062433  0.700567  0.106267  1.0
  H  H1191  1  0.638133  0.937567  0.106267  1.0
  H  H1192  1  0.604233  0.971467  0.727067  1.0
  H  H1193  1  0.028533  0.632767  0.727067  1.0
  H  H1194  1  0.367233  0.395767  0.727067  1.0
  H  H1195  1  0.632767  0.028533  0.772933  1.0
  H  H1196  1  0.395767  0.367233  0.772933  1.0
  H  H1197  1  0.971467  0.604233  0.772933  1.0
  H  H1198  1  0.937567  0.638133  0.393733  1.0
  H  H1199  1  0.361867  0.299433  0.393733  1.0
  H  H1200  1  0.700567  0.062433  0.393733  1.0
  H  H1201  1  0.054500  0.313200  0.573300  1.0
  H  H1202  1  0.258700  0.945500  0.573300  1.0
  H  H1203  1  0.686800  0.741300  0.573300  1.0
  H  H1204  1  0.741300  0.686800  0.926700  1.0
  H  H1205  1  0.313200  0.054500  0.926700  1.0
  H  H1206  1  0.945500  0.258700  0.926700  1.0
  H  H1207  1  0.387833  0.979867  0.239967  1.0
  H  H1208  1  0.592033  0.612167  0.239967  1.0
  H  H1209  1  0.020133  0.407967  0.239967  1.0
  H  H1210  1  0.074633  0.353467  0.593367  1.0
  H  H1211  1  0.646533  0.721167  0.593367  1.0
  H  H1212  1  0.278833  0.925367  0.593367  1.0
  H  H1213  1  0.721167  0.646533  0.906633  1.0
  H  H1214  1  0.925367  0.278833  0.906633  1.0
  H  H1215  1  0.353467  0.074633  0.906633  1.0
  H  H1216  1  0.407967  0.020133  0.260033  1.0
  H  H1217  1  0.979867  0.387833  0.260033  1.0
  H  H1218  1  0.612167  0.592033  0.260033  1.0
  H  H1219  1  0.945500  0.686800  0.426700  1.0
  H  H1220  1  0.741300  0.054500  0.426700  1.0
  H  H1221  1  0.313200  0.258700  0.426700  1.0
  H  H1222  1  0.258700  0.313200  0.073300  1.0
  H  H1223  1  0.686800  0.945500  0.073300  1.0
  H  H1224  1  0.054500  0.741300  0.073300  1.0
  H  H1225  1  0.278833  0.353467  0.093367  1.0
  H  H1226  1  0.074633  0.721167  0.093367  1.0
  H  H1227  1  0.646533  0.925367  0.093367  1.0
  H  H1228  1  0.592033  0.979867  0.739967  1.0
  H  H1229  1  0.020133  0.612167  0.739967  1.0
  H  H1230  1  0.387833  0.407967  0.739967  1.0
  H  H1231  1  0.612167  0.020133  0.760033  1.0
  H  H1232  1  0.407967  0.387833  0.760033  1.0
  H  H1233  1  0.979867  0.592033  0.760033  1.0
  H  H1234  1  0.925367  0.646533  0.406633  1.0
  H  H1235  1  0.353467  0.278833  0.406633  1.0
  H  H1236  1  0.721167  0.074633  0.406633  1.0
  H  H1237  1  0.243400  0.558500  0.603800  1.0
  H  H1238  1  0.315100  0.756600  0.603800  1.0
  H  H1239  1  0.441500  0.684900  0.603800  1.0
  H  H1240  1  0.684900  0.441500  0.896200  1.0
  H  H1241  1  0.558500  0.243400  0.896200  1.0
  H  H1242  1  0.756600  0.315100  0.896200  1.0
  H  H1243  1  0.576733  0.225167  0.270467  1.0
  H  H1244  1  0.648433  0.423267  0.270467  1.0
  H  H1245  1  0.774833  0.351567  0.270467  1.0
  H  H1246  1  0.018233  0.108167  0.562867  1.0
  H  H1247  1  0.891833  0.910067  0.562867  1.0
  H  H1248  1  0.089933  0.981767  0.562867  1.0
  H  H1249  1  0.910067  0.891833  0.937133  1.0
  H  H1250  1  0.981767  0.089933  0.937133  1.0
  H  H1251  1  0.108167  0.018233  0.937133  1.0
  H  H1252  1  0.351567  0.774833  0.229533  1.0
  H  H1253  1  0.225167  0.576733  0.229533  1.0
  H  H1254  1  0.423267  0.648433  0.229533  1.0
  H  H1255  1  0.756600  0.441500  0.396200  1.0
  H  H1256  1  0.684900  0.243400  0.396200  1.0
  H  H1257  1  0.558500  0.315100  0.396200  1.0
  H  H1258  1  0.315100  0.558500  0.103800  1.0
  H  H1259  1  0.441500  0.756600  0.103800  1.0
  H  H1260  1  0.243400  0.684900  0.103800  1.0
  H  H1261  1  0.089933  0.108167  0.062867  1.0
  H  H1262  1  0.018233  0.910067  0.062867  1.0
  H  H1263  1  0.891833  0.981767  0.062867  1.0
  H  H1264  1  0.648433  0.225167  0.770467  1.0
  H  H1265  1  0.774833  0.423267  0.770467  1.0
  H  H1266  1  0.576733  0.351567  0.770467  1.0
  H  H1267  1  0.423267  0.774833  0.729533  1.0
  H  H1268  1  0.351567  0.576733  0.729533  1.0
  H  H1269  1  0.225167  0.648433  0.729533  1.0
  H  H1270  1  0.981767  0.891833  0.437133  1.0
  H  H1271  1  0.108167  0.089933  0.437133  1.0
  H  H1272  1  0.910067  0.018233  0.437133  1.0
  H  H1273  1  0.225500  0.527700  0.614700  1.0
  H  H1274  1  0.302200  0.774500  0.614700  1.0
  H  H1275  1  0.472300  0.697800  0.614700  1.0
  H  H1276  1  0.697800  0.472300  0.885300  1.0
  H  H1277  1  0.527700  0.225500  0.885300  1.0
  H  H1278  1  0.774500  0.302200  0.885300  1.0
  H  H1279  1  0.558833  0.194367  0.281367  1.0
  H  H1280  1  0.635533  0.441167  0.281367  1.0
  H  H1281  1  0.805633  0.364467  0.281367  1.0
  H  H1282  1  0.031133  0.138967  0.551967  1.0
  H  H1283  1  0.861033  0.892167  0.551967  1.0
  H  H1284  1  0.107833  0.968867  0.551967  1.0
  H  H1285  1  0.892167  0.861033  0.948033  1.0
  H  H1286  1  0.968867  0.107833  0.948033  1.0
  H  H1287  1  0.138967  0.031133  0.948033  1.0
  H  H1288  1  0.364467  0.805633  0.218633  1.0
  H  H1289  1  0.194367  0.558833  0.218633  1.0
  H  H1290  1  0.441167  0.635533  0.218633  1.0
  H  H1291  1  0.774500  0.472300  0.385300  1.0
  H  H1292  1  0.697800  0.225500  0.385300  1.0
  H  H1293  1  0.527700  0.302200  0.385300  1.0
  H  H1294  1  0.302200  0.527700  0.114700  1.0
  H  H1295  1  0.472300  0.774500  0.114700  1.0
  H  H1296  1  0.225500  0.697800  0.114700  1.0
  H  H1297  1  0.107833  0.138967  0.051967  1.0
  H  H1298  1  0.031133  0.892167  0.051967  1.0
  H  H1299  1  0.861033  0.968867  0.051967  1.0
  H  H1300  1  0.635533  0.194367  0.781367  1.0
  H  H1301  1  0.805633  0.441167  0.781367  1.0
  H  H1302  1  0.558833  0.364467  0.781367  1.0
  H  H1303  1  0.441167  0.805633  0.718633  1.0
  H  H1304  1  0.364467  0.558833  0.718633  1.0
  H  H1305  1  0.194367  0.635533  0.718633  1.0
  H  H1306  1  0.968867  0.861033  0.448033  1.0
  H  H1307  1  0.138967  0.107833  0.448033  1.0
  H  H1308  1  0.892167  0.031133  0.448033  1.0
  H  H1309  1  0.197000  0.537500  0.606800  1.0
  H  H1310  1  0.340500  0.803000  0.606800  1.0
  H  H1311  1  0.462500  0.659500  0.606800  1.0
  H  H1312  1  0.659500  0.462500  0.893200  1.0
  H  H1313  1  0.537500  0.197000  0.893200  1.0
  H  H1314  1  0.803000  0.340500  0.893200  1.0
  H  H1315  1  0.530333  0.204167  0.273467  1.0
  H  H1316  1  0.673833  0.469667  0.273467  1.0
  H  H1317  1  0.795833  0.326167  0.273467  1.0
  H  H1318  1  0.992833  0.129167  0.559867  1.0
  H  H1319  1  0.870833  0.863667  0.559867  1.0
  H  H1320  1  0.136333  0.007167  0.559867  1.0
  H  H1321  1  0.863667  0.870833  0.940133  1.0
  H  H1322  1  0.007167  0.136333  0.940133  1.0
  H  H1323  1  0.129167  0.992833  0.940133  1.0
  H  H1324  1  0.326167  0.795833  0.226533  1.0
  H  H1325  1  0.204167  0.530333  0.226533  1.0
  H  H1326  1  0.469667  0.673833  0.226533  1.0
  H  H1327  1  0.803000  0.462500  0.393200  1.0
  H  H1328  1  0.659500  0.197000  0.393200  1.0
  H  H1329  1  0.537500  0.340500  0.393200  1.0
  H  H1330  1  0.340500  0.537500  0.106800  1.0
  H  H1331  1  0.462500  0.803000  0.106800  1.0
  H  H1332  1  0.197000  0.659500  0.106800  1.0
  H  H1333  1  0.136333  0.129167  0.059867  1.0
  H  H1334  1  0.992833  0.863667  0.059867  1.0
  H  H1335  1  0.870833  0.007167  0.059867  1.0
  H  H1336  1  0.673833  0.204167  0.773467  1.0
  H  H1337  1  0.795833  0.469667  0.773467  1.0
  H  H1338  1  0.530333  0.326167  0.773467  1.0
  H  H1339  1  0.469667  0.795833  0.726533  1.0
  H  H1340  1  0.326167  0.530333  0.726533  1.0
  H  H1341  1  0.204167  0.673833  0.726533  1.0
  H  H1342  1  0.007167  0.870833  0.440133  1.0
  H  H1343  1  0.129167  0.136333  0.440133  1.0
  H  H1344  1  0.863667  0.992833  0.440133  1.0
  H  H1345  1  0.398800  0.540100  0.601700  1.0
  H  H1346  1  0.141300  0.601200  0.601700  1.0
  H  H1347  1  0.459900  0.858700  0.601700  1.0
  H  H1348  1  0.858700  0.459900  0.898300  1.0
  H  H1349  1  0.540100  0.398800  0.898300  1.0
  H  H1350  1  0.601200  0.141300  0.898300  1.0
  H  H1351  1  0.732133  0.206767  0.268367  1.0
  H  H1352  1  0.474633  0.267867  0.268367  1.0
  H  H1353  1  0.793233  0.525367  0.268367  1.0
  H  H1354  1  0.192033  0.126567  0.564967  1.0
  H  H1355  1  0.873433  0.065467  0.564967  1.0
  H  H1356  1  0.934533  0.807967  0.564967  1.0
  H  H1357  1  0.065467  0.873433  0.935033  1.0
  H  H1358  1  0.807967  0.934533  0.935033  1.0
  H  H1359  1  0.126567  0.192033  0.935033  1.0
  H  H1360  1  0.525367  0.793233  0.231633  1.0
  H  H1361  1  0.206767  0.732133  0.231633  1.0
  H  H1362  1  0.267867  0.474633  0.231633  1.0
  H  H1363  1  0.601200  0.459900  0.398300  1.0
  H  H1364  1  0.858700  0.398800  0.398300  1.0
  H  H1365  1  0.540100  0.141300  0.398300  1.0
  H  H1366  1  0.141300  0.540100  0.101700  1.0
  H  H1367  1  0.459900  0.601200  0.101700  1.0
  H  H1368  1  0.398800  0.858700  0.101700  1.0
  H  H1369  1  0.934533  0.126567  0.064967  1.0
  H  H1370  1  0.192033  0.065467  0.064967  1.0
  H  H1371  1  0.873433  0.807967  0.064967  1.0
  H  H1372  1  0.474633  0.206767  0.768367  1.0
  H  H1373  1  0.793233  0.267867  0.768367  1.0
  H  H1374  1  0.732133  0.525367  0.768367  1.0
  H  H1375  1  0.267867  0.793233  0.731633  1.0
  H  H1376  1  0.525367  0.732133  0.731633  1.0
  H  H1377  1  0.206767  0.474633  0.731633  1.0
  H  H1378  1  0.807967  0.873433  0.435033  1.0
  H  H1379  1  0.126567  0.934533  0.435033  1.0
  H  H1380  1  0.065467  0.192033  0.435033  1.0
  H  H1381  1  0.365200  0.529500  0.611600  1.0
  H  H1382  1  0.164300  0.634800  0.611600  1.0
  H  H1383  1  0.470500  0.835700  0.611600  1.0
  H  H1384  1  0.835700  0.470500  0.888400  1.0
  H  H1385  1  0.529500  0.365200  0.888400  1.0
  H  H1386  1  0.634800  0.164300  0.888400  1.0
  H  H1387  1  0.698533  0.196167  0.278267  1.0
  H  H1388  1  0.497633  0.301467  0.278267  1.0
  H  H1389  1  0.803833  0.502367  0.278267  1.0
  H  H1390  1  0.169033  0.137167  0.555067  1.0
  H  H1391  1  0.862833  0.031867  0.555067  1.0
  H  H1392  1  0.968133  0.830967  0.555067  1.0
  H  H1393  1  0.031867  0.862833  0.944933  1.0
  H  H1394  1  0.830967  0.968133  0.944933  1.0
  H  H1395  1  0.137167  0.169033  0.944933  1.0
  H  H1396  1  0.502367  0.803833  0.221733  1.0
  H  H1397  1  0.196167  0.698533  0.221733  1.0
  H  H1398  1  0.301467  0.497633  0.221733  1.0
  H  H1399  1  0.634800  0.470500  0.388400  1.0
  H  H1400  1  0.835700  0.365200  0.388400  1.0
  H  H1401  1  0.529500  0.164300  0.388400  1.0
  H  H1402  1  0.164300  0.529500  0.111600  1.0
  H  H1403  1  0.470500  0.634800  0.111600  1.0
  H  H1404  1  0.365200  0.835700  0.111600  1.0
  H  H1405  1  0.968133  0.137167  0.055067  1.0
  H  H1406  1  0.169033  0.031867  0.055067  1.0
  H  H1407  1  0.862833  0.830967  0.055067  1.0
  H  H1408  1  0.497633  0.196167  0.778267  1.0
  H  H1409  1  0.803833  0.301467  0.778267  1.0
  H  H1410  1  0.698533  0.502367  0.778267  1.0
  H  H1411  1  0.301467  0.803833  0.721733  1.0
  H  H1412  1  0.502367  0.698533  0.721733  1.0
  H  H1413  1  0.196167  0.497633  0.721733  1.0
  H  H1414  1  0.830967  0.862833  0.444933  1.0
  H  H1415  1  0.137167  0.968133  0.444933  1.0
  H  H1416  1  0.031867  0.169033  0.444933  1.0
  H  H1417  1  0.371600  0.560300  0.601100  1.0
  H  H1418  1  0.188700  0.628400  0.601100  1.0
  H  H1419  1  0.439700  0.811300  0.601100  1.0
  H  H1420  1  0.811300  0.439700  0.898900  1.0
  H  H1421  1  0.560300  0.371600  0.898900  1.0
  H  H1422  1  0.628400  0.188700  0.898900  1.0
  H  H1423  1  0.704933  0.226967  0.267767  1.0
  H  H1424  1  0.522033  0.295067  0.267767  1.0
  H  H1425  1  0.773033  0.477967  0.267767  1.0
  H  H1426  1  0.144633  0.106367  0.565567  1.0
  H  H1427  1  0.893633  0.038267  0.565567  1.0
  H  H1428  1  0.961733  0.855367  0.565567  1.0
  H  H1429  1  0.038267  0.893633  0.934433  1.0
  H  H1430  1  0.855367  0.961733  0.934433  1.0
  H  H1431  1  0.106367  0.144633  0.934433  1.0
  H  H1432  1  0.477967  0.773033  0.232233  1.0
  H  H1433  1  0.226967  0.704933  0.232233  1.0
  H  H1434  1  0.295067  0.522033  0.232233  1.0
  H  H1435  1  0.628400  0.439700  0.398900  1.0
  H  H1436  1  0.811300  0.371600  0.398900  1.0
  H  H1437  1  0.560300  0.188700  0.398900  1.0
  H  H1438  1  0.188700  0.560300  0.101100  1.0
  H  H1439  1  0.439700  0.628400  0.101100  1.0
  H  H1440  1  0.371600  0.811300  0.101100  1.0
  H  H1441  1  0.961733  0.106367  0.065567  1.0
  H  H1442  1  0.144633  0.038267  0.065567  1.0
  H  H1443  1  0.893633  0.855367  0.065567  1.0
  H  H1444  1  0.522033  0.226967  0.767767  1.0
  H  H1445  1  0.773033  0.295067  0.767767  1.0
  H  H1446  1  0.704933  0.477967  0.767767  1.0
  H  H1447  1  0.295067  0.773033  0.732233  1.0
  H  H1448  1  0.477967  0.704933  0.732233  1.0
  H  H1449  1  0.226967  0.522033  0.732233  1.0
  H  H1450  1  0.855367  0.893633  0.434433  1.0
  H  H1451  1  0.106367  0.961733  0.434433  1.0
  H  H1452  1  0.038267  0.144633  0.434433  1.0
  H  H1453  1  0.381600  0.444100  0.591500  1.0
  H  H1454  1  0.062500  0.618400  0.591500  1.0
  H  H1455  1  0.555900  0.937500  0.591500  1.0
  H  H1456  1  0.937500  0.555900  0.908500  1.0
  H  H1457  1  0.444100  0.381600  0.908500  1.0
  H  H1458  1  0.618400  0.062500  0.908500  1.0
  H  H1459  1  0.714933  0.110767  0.258167  1.0
  H  H1460  1  0.395833  0.285067  0.258167  1.0
  H  H1461  1  0.889233  0.604167  0.258167  1.0
  H  H1462  1  0.270833  0.222567  0.575167  1.0
  H  H1463  1  0.777433  0.048267  0.575167  1.0
  H  H1464  1  0.951733  0.729167  0.575167  1.0
  H  H1465  1  0.048267  0.777433  0.924833  1.0
  H  H1466  1  0.729167  0.951733  0.924833  1.0
  H  H1467  1  0.222567  0.270833  0.924833  1.0
  H  H1468  1  0.604167  0.889233  0.241833  1.0
  H  H1469  1  0.110767  0.714933  0.241833  1.0
  H  H1470  1  0.285067  0.395833  0.241833  1.0
  H  H1471  1  0.618400  0.555900  0.408500  1.0
  H  H1472  1  0.937500  0.381600  0.408500  1.0
  H  H1473  1  0.444100  0.062500  0.408500  1.0
  H  H1474  1  0.062500  0.444100  0.091500  1.0
  H  H1475  1  0.555900  0.618400  0.091500  1.0
  H  H1476  1  0.381600  0.937500  0.091500  1.0
  H  H1477  1  0.951733  0.222567  0.075167  1.0
  H  H1478  1  0.270833  0.048267  0.075167  1.0
  H  H1479  1  0.777433  0.729167  0.075167  1.0
  H  H1480  1  0.395833  0.110767  0.758167  1.0
  H  H1481  1  0.889233  0.285067  0.758167  1.0
  H  H1482  1  0.714933  0.604167  0.758167  1.0
  H  H1483  1  0.285067  0.889233  0.741833  1.0
  H  H1484  1  0.604167  0.714933  0.741833  1.0
  H  H1485  1  0.110767  0.395833  0.741833  1.0
  H  H1486  1  0.729167  0.777433  0.424833  1.0
  H  H1487  1  0.222567  0.951733  0.424833  1.0
  H  H1488  1  0.048267  0.270833  0.424833  1.0
  H  H1489  1  0.395200  0.477500  0.601700  1.0
  H  H1490  1  0.082300  0.604800  0.601700  1.0
  H  H1491  1  0.522500  0.917700  0.601700  1.0
  H  H1492  1  0.917700  0.522500  0.898300  1.0
  H  H1493  1  0.477500  0.395200  0.898300  1.0
  H  H1494  1  0.604800  0.082300  0.898300  1.0
  H  H1495  1  0.728533  0.144167  0.268367  1.0
  H  H1496  1  0.415633  0.271467  0.268367  1.0
  H  H1497  1  0.855833  0.584367  0.268367  1.0
  H  H1498  1  0.251033  0.189167  0.564967  1.0
  H  H1499  1  0.810833  0.061867  0.564967  1.0
  H  H1500  1  0.938133  0.748967  0.564967  1.0
  H  H1501  1  0.061867  0.810833  0.935033  1.0
  H  H1502  1  0.748967  0.938133  0.935033  1.0
  H  H1503  1  0.189167  0.251033  0.935033  1.0
  H  H1504  1  0.584367  0.855833  0.231633  1.0
  H  H1505  1  0.144167  0.728533  0.231633  1.0
  H  H1506  1  0.271467  0.415633  0.231633  1.0
  H  H1507  1  0.604800  0.522500  0.398300  1.0
  H  H1508  1  0.917700  0.395200  0.398300  1.0
  H  H1509  1  0.477500  0.082300  0.398300  1.0
  H  H1510  1  0.082300  0.477500  0.101700  1.0
  H  H1511  1  0.522500  0.604800  0.101700  1.0
  H  H1512  1  0.395200  0.917700  0.101700  1.0
  H  H1513  1  0.938133  0.189167  0.064967  1.0
  H  H1514  1  0.251033  0.061867  0.064967  1.0
  H  H1515  1  0.810833  0.748967  0.064967  1.0
  H  H1516  1  0.415633  0.144167  0.768367  1.0
  H  H1517  1  0.855833  0.271467  0.768367  1.0
  H  H1518  1  0.728533  0.584367  0.768367  1.0
  H  H1519  1  0.271467  0.855833  0.731633  1.0
  H  H1520  1  0.584367  0.728533  0.731633  1.0
  H  H1521  1  0.144167  0.415633  0.731633  1.0
  H  H1522  1  0.748967  0.810833  0.435033  1.0
  H  H1523  1  0.189167  0.938133  0.435033  1.0
  H  H1524  1  0.061867  0.251033  0.435033  1.0
  H  H1525  1  0.409200  0.500600  0.576800  1.0
  H  H1526  1  0.091400  0.590800  0.576800  1.0
  H  H1527  1  0.499400  0.908600  0.576800  1.0
  H  H1528  1  0.908600  0.499400  0.923200  1.0
  H  H1529  1  0.500600  0.409200  0.923200  1.0
  H  H1530  1  0.590800  0.091400  0.923200  1.0
  H  H1531  1  0.742533  0.167267  0.243467  1.0
  H  H1532  1  0.424733  0.257467  0.243467  1.0
  H  H1533  1  0.832733  0.575267  0.243467  1.0
  H  H1534  1  0.241933  0.166067  0.589867  1.0
  H  H1535  1  0.833933  0.075867  0.589867  1.0
  H  H1536  1  0.924133  0.758067  0.589867  1.0
  H  H1537  1  0.075867  0.833933  0.910133  1.0
  H  H1538  1  0.758067  0.924133  0.910133  1.0
  H  H1539  1  0.166067  0.241933  0.910133  1.0
  H  H1540  1  0.575267  0.832733  0.256533  1.0
  H  H1541  1  0.167267  0.742533  0.256533  1.0
  H  H1542  1  0.257467  0.424733  0.256533  1.0
  H  H1543  1  0.590800  0.499400  0.423200  1.0
  H  H1544  1  0.908600  0.409200  0.423200  1.0
  H  H1545  1  0.500600  0.091400  0.423200  1.0
  H  H1546  1  0.091400  0.500600  0.076800  1.0
  H  H1547  1  0.499400  0.590800  0.076800  1.0
  H  H1548  1  0.409200  0.908600  0.076800  1.0
  H  H1549  1  0.924133  0.166067  0.089867  1.0
  H  H1550  1  0.241933  0.075867  0.089867  1.0
  H  H1551  1  0.833933  0.758067  0.089867  1.0
  H  H1552  1  0.424733  0.167267  0.743467  1.0
  H  H1553  1  0.832733  0.257467  0.743467  1.0
  H  H1554  1  0.742533  0.575267  0.743467  1.0
  H  H1555  1  0.257467  0.832733  0.756533  1.0
  H  H1556  1  0.575267  0.742533  0.756533  1.0
  H  H1557  1  0.167267  0.424733  0.756533  1.0
  H  H1558  1  0.758067  0.833933  0.410133  1.0
  H  H1559  1  0.166067  0.924133  0.410133  1.0
  H  H1560  1  0.075867  0.241933  0.410133  1.0
  H  H1561  1  0.441500  0.495300  0.584200  1.0
  H  H1562  1  0.053800  0.558500  0.584200  1.0
  H  H1563  1  0.504700  0.946200  0.584200  1.0
  H  H1564  1  0.946200  0.504700  0.915800  1.0
  H  H1565  1  0.495300  0.441500  0.915800  1.0
  H  H1566  1  0.558500  0.053800  0.915800  1.0
  H  H1567  1  0.774833  0.161967  0.250867  1.0
  H  H1568  1  0.387133  0.225167  0.250867  1.0
  H  H1569  1  0.838033  0.612867  0.250867  1.0
  H  H1570  1  0.279533  0.171367  0.582467  1.0
  H  H1571  1  0.828633  0.108167  0.582467  1.0
  H  H1572  1  0.891833  0.720467  0.582467  1.0
  H  H1573  1  0.108167  0.828633  0.917533  1.0
  H  H1574  1  0.720467  0.891833  0.917533  1.0
  H  H1575  1  0.171367  0.279533  0.917533  1.0
  H  H1576  1  0.612867  0.838033  0.249133  1.0
  H  H1577  1  0.161967  0.774833  0.249133  1.0
  H  H1578  1  0.225167  0.387133  0.249133  1.0
  H  H1579  1  0.558500  0.504700  0.415800  1.0
  H  H1580  1  0.946200  0.441500  0.415800  1.0
  H  H1581  1  0.495300  0.053800  0.415800  1.0
  H  H1582  1  0.053800  0.495300  0.084200  1.0
  H  H1583  1  0.504700  0.558500  0.084200  1.0
  H  H1584  1  0.441500  0.946200  0.084200  1.0
  H  H1585  1  0.891833  0.171367  0.082467  1.0
  H  H1586  1  0.279533  0.108167  0.082467  1.0
  H  H1587  1  0.828633  0.720467  0.082467  1.0
  H  H1588  1  0.387133  0.161967  0.750867  1.0
  H  H1589  1  0.838033  0.225167  0.750867  1.0
  H  H1590  1  0.774833  0.612867  0.750867  1.0
  H  H1591  1  0.225167  0.838033  0.749133  1.0
  H  H1592  1  0.612867  0.774833  0.749133  1.0
  H  H1593  1  0.161967  0.387133  0.749133  1.0
  H  H1594  1  0.720467  0.828633  0.417533  1.0
  H  H1595  1  0.171367  0.891833  0.417533  1.0
  H  H1596  1  0.108167  0.279533  0.417533  1.0
  H  H1597  1  0.431000  0.528700  0.588100  1.0
  H  H1598  1  0.097700  0.569000  0.588100  1.0
  H  H1599  1  0.471300  0.902300  0.588100  1.0
  H  H1600  1  0.902300  0.471300  0.911900  1.0
  H  H1601  1  0.528700  0.431000  0.911900  1.0
  H  H1602  1  0.569000  0.097700  0.911900  1.0
  H  H1603  1  0.764333  0.195367  0.254767  1.0
  H  H1604  1  0.431033  0.235667  0.254767  1.0
  H  H1605  1  0.804633  0.568967  0.254767  1.0
  H  H1606  1  0.235633  0.137967  0.578567  1.0
  H  H1607  1  0.862033  0.097667  0.578567  1.0
  H  H1608  1  0.902333  0.764367  0.578567  1.0
  H  H1609  1  0.097667  0.862033  0.921433  1.0
  H  H1610  1  0.764367  0.902333  0.921433  1.0
  H  H1611  1  0.137967  0.235633  0.921433  1.0
  H  H1612  1  0.568967  0.804633  0.245233  1.0
  H  H1613  1  0.195367  0.764333  0.245233  1.0
  H  H1614  1  0.235667  0.431033  0.245233  1.0
  H  H1615  1  0.569000  0.471300  0.411900  1.0
  H  H1616  1  0.902300  0.431000  0.411900  1.0
  H  H1617  1  0.528700  0.097700  0.411900  1.0
  H  H1618  1  0.097700  0.528700  0.088100  1.0
  H  H1619  1  0.471300  0.569000  0.088100  1.0
  H  H1620  1  0.431000  0.902300  0.088100  1.0
  H  H1621  1  0.902333  0.137967  0.078567  1.0
  H  H1622  1  0.235633  0.097667  0.078567  1.0
  H  H1623  1  0.862033  0.764367  0.078567  1.0
  H  H1624  1  0.431033  0.195367  0.754767  1.0
  H  H1625  1  0.804633  0.235667  0.754767  1.0
  H  H1626  1  0.764333  0.568967  0.754767  1.0
  H  H1627  1  0.235667  0.804633  0.745233  1.0
  H  H1628  1  0.568967  0.764333  0.745233  1.0
  H  H1629  1  0.195367  0.431033  0.745233  1.0
  H  H1630  1  0.764367  0.862033  0.421433  1.0
  H  H1631  1  0.137967  0.902333  0.421433  1.0
  H  H1632  1  0.097667  0.235633  0.421433  1.0
  H  H1633  1  0.332200  0.360600  0.549200  1.0
  H  H1634  1  0.028400  0.667800  0.549200  1.0
  H  H1635  1  0.639400  0.971600  0.549200  1.0
  H  H1636  1  0.971600  0.639400  0.950800  1.0
  H  H1637  1  0.360600  0.332200  0.950800  1.0
  H  H1638  1  0.667800  0.028400  0.950800  1.0
  H  H1639  1  0.665533  0.027267  0.215867  1.0
  H  H1640  1  0.361733  0.334467  0.215867  1.0
  H  H1641  1  0.972733  0.638267  0.215867  1.0
  H  H1642  1  0.304933  0.306067  0.617467  1.0
  H  H1643  1  0.693933  0.998867  0.617467  1.0
  H  H1644  1  0.001133  0.695067  0.617467  1.0
  H  H1645  1  0.998867  0.693933  0.882533  1.0
  H  H1646  1  0.695067  0.001133  0.882533  1.0
  H  H1647  1  0.306067  0.304933  0.882533  1.0
  H  H1648  1  0.638267  0.972733  0.284133  1.0
  H  H1649  1  0.027267  0.665533  0.284133  1.0
  H  H1650  1  0.334467  0.361733  0.284133  1.0
  H  H1651  1  0.667800  0.639400  0.450800  1.0
  H  H1652  1  0.971600  0.332200  0.450800  1.0
  H  H1653  1  0.360600  0.028400  0.450800  1.0
  H  H1654  1  0.028400  0.360600  0.049200  1.0
  H  H1655  1  0.639400  0.667800  0.049200  1.0
  H  H1656  1  0.332200  0.971600  0.049200  1.0
  H  H1657  1  0.001133  0.306067  0.117467  1.0
  H  H1658  1  0.304933  0.998867  0.117467  1.0
  H  H1659  1  0.693933  0.695067  0.117467  1.0
  H  H1660  1  0.361733  0.027267  0.715867  1.0
  H  H1661  1  0.972733  0.334467  0.715867  1.0
  H  H1662  1  0.665533  0.638267  0.715867  1.0
  H  H1663  1  0.334467  0.972733  0.784133  1.0
  H  H1664  1  0.638267  0.665533  0.784133  1.0
  H  H1665  1  0.027267  0.361733  0.784133  1.0
  H  H1666  1  0.695067  0.693933  0.382533  1.0
  H  H1667  1  0.306067  0.001133  0.382533  1.0
  H  H1668  1  0.998867  0.304933  0.382533  1.0
  H  H1669  1  0.343700  0.378000  0.562600  1.0
  H  H1670  1  0.034300  0.656300  0.562600  1.0
  H  H1671  1  0.622000  0.965700  0.562600  1.0
  H  H1672  1  0.965700  0.622000  0.937400  1.0
  H  H1673  1  0.378000  0.343700  0.937400  1.0
  H  H1674  1  0.656300  0.034300  0.937400  1.0
  H  H1675  1  0.677033  0.044667  0.229267  1.0
  H  H1676  1  0.367633  0.322967  0.229267  1.0
  H  H1677  1  0.955333  0.632367  0.229267  1.0
  H  H1678  1  0.299033  0.288667  0.604067  1.0
  H  H1679  1  0.711333  0.010367  0.604067  1.0
  H  H1680  1  0.989633  0.700967  0.604067  1.0
  H  H1681  1  0.010367  0.711333  0.895933  1.0
  H  H1682  1  0.700967  0.989633  0.895933  1.0
  H  H1683  1  0.288667  0.299033  0.895933  1.0
  H  H1684  1  0.632367  0.955333  0.270733  1.0
  H  H1685  1  0.044667  0.677033  0.270733  1.0
  H  H1686  1  0.322967  0.367633  0.270733  1.0
  H  H1687  1  0.656300  0.622000  0.437400  1.0
  H  H1688  1  0.965700  0.343700  0.437400  1.0
  H  H1689  1  0.378000  0.034300  0.437400  1.0
  H  H1690  1  0.034300  0.378000  0.062600  1.0
  H  H1691  1  0.622000  0.656300  0.062600  1.0
  H  H1692  1  0.343700  0.965700  0.062600  1.0
  H  H1693  1  0.989633  0.288667  0.104067  1.0
  H  H1694  1  0.299033  0.010367  0.104067  1.0
  H  H1695  1  0.711333  0.700967  0.104067  1.0
  H  H1696  1  0.367633  0.044667  0.729267  1.0
  H  H1697  1  0.955333  0.322967  0.729267  1.0
  H  H1698  1  0.677033  0.632367  0.729267  1.0
  H  H1699  1  0.322967  0.955333  0.770733  1.0
  H  H1700  1  0.632367  0.677033  0.770733  1.0
  H  H1701  1  0.044667  0.367633  0.770733  1.0
  H  H1702  1  0.700967  0.711333  0.395933  1.0
  H  H1703  1  0.288667  0.989633  0.395933  1.0
  H  H1704  1  0.010367  0.299033  0.395933  1.0
  H  H1705  1  0.378100  0.445300  0.553600  1.0
  H  H1706  1  0.067200  0.621900  0.553600  1.0
  H  H1707  1  0.554700  0.932800  0.553600  1.0
  H  H1708  1  0.932800  0.554700  0.946400  1.0
  H  H1709  1  0.445300  0.378100  0.946400  1.0
  H  H1710  1  0.621900  0.067200  0.946400  1.0
  H  H1711  1  0.711433  0.111967  0.220267  1.0
  H  H1712  1  0.400533  0.288567  0.220267  1.0
  H  H1713  1  0.888033  0.599467  0.220267  1.0
  H  H1714  1  0.266133  0.221367  0.613067  1.0
  H  H1715  1  0.778633  0.044767  0.613067  1.0
  H  H1716  1  0.955233  0.733867  0.613067  1.0
  H  H1717  1  0.044767  0.778633  0.886933  1.0
  H  H1718  1  0.733867  0.955233  0.886933  1.0
  H  H1719  1  0.221367  0.266133  0.886933  1.0
  H  H1720  1  0.599467  0.888033  0.279733  1.0
  H  H1721  1  0.111967  0.711433  0.279733  1.0
  H  H1722  1  0.288567  0.400533  0.279733  1.0
  H  H1723  1  0.621900  0.554700  0.446400  1.0
  H  H1724  1  0.932800  0.378100  0.446400  1.0
  H  H1725  1  0.445300  0.067200  0.446400  1.0
  H  H1726  1  0.067200  0.445300  0.053600  1.0
  H  H1727  1  0.554700  0.621900  0.053600  1.0
  H  H1728  1  0.378100  0.932800  0.053600  1.0
  H  H1729  1  0.955233  0.221367  0.113067  1.0
  H  H1730  1  0.266133  0.044767  0.113067  1.0
  H  H1731  1  0.778633  0.733867  0.113067  1.0
  H  H1732  1  0.400533  0.111967  0.720267  1.0
  H  H1733  1  0.888033  0.288567  0.720267  1.0
  H  H1734  1  0.711433  0.599467  0.720267  1.0
  H  H1735  1  0.288567  0.888033  0.779733  1.0
  H  H1736  1  0.599467  0.711433  0.779733  1.0
  H  H1737  1  0.111967  0.400533  0.779733  1.0
  H  H1738  1  0.733867  0.778633  0.386933  1.0
  H  H1739  1  0.221367  0.955233  0.386933  1.0
  H  H1740  1  0.044767  0.266133  0.386933  1.0
  H  H1741  1  0.371500  0.424400  0.540800  1.0
  H  H1742  1  0.052900  0.628500  0.540800  1.0
  H  H1743  1  0.575600  0.947100  0.540800  1.0
  H  H1744  1  0.947100  0.575600  0.959200  1.0
  H  H1745  1  0.424400  0.371500  0.959200  1.0
  H  H1746  1  0.628500  0.052900  0.959200  1.0
  H  H1747  1  0.704833  0.091067  0.207467  1.0
  H  H1748  1  0.386233  0.295167  0.207467  1.0
  H  H1749  1  0.908933  0.613767  0.207467  1.0
  H  H1750  1  0.280433  0.242267  0.625867  1.0
  H  H1751  1  0.757733  0.038167  0.625867  1.0
  H  H1752  1  0.961833  0.719567  0.625867  1.0
  H  H1753  1  0.038167  0.757733  0.874133  1.0
  H  H1754  1  0.719567  0.961833  0.874133  1.0
  H  H1755  1  0.242267  0.280433  0.874133  1.0
  H  H1756  1  0.613767  0.908933  0.292533  1.0
  H  H1757  1  0.091067  0.704833  0.292533  1.0
  H  H1758  1  0.295167  0.386233  0.292533  1.0
  H  H1759  1  0.628500  0.575600  0.459200  1.0
  H  H1760  1  0.947100  0.371500  0.459200  1.0
  H  H1761  1  0.424400  0.052900  0.459200  1.0
  H  H1762  1  0.052900  0.424400  0.040800  1.0
  H  H1763  1  0.575600  0.628500  0.040800  1.0
  H  H1764  1  0.371500  0.947100  0.040800  1.0
  H  H1765  1  0.961833  0.242267  0.125867  1.0
  H  H1766  1  0.280433  0.038167  0.125867  1.0
  H  H1767  1  0.757733  0.719567  0.125867  1.0
  H  H1768  1  0.386233  0.091067  0.707467  1.0
  H  H1769  1  0.908933  0.295167  0.707467  1.0
  H  H1770  1  0.704833  0.613767  0.707467  1.0
  H  H1771  1  0.295167  0.908933  0.792533  1.0
  H  H1772  1  0.613767  0.704833  0.792533  1.0
  H  H1773  1  0.091067  0.386233  0.792533  1.0
  H  H1774  1  0.719567  0.757733  0.374133  1.0
  H  H1775  1  0.242267  0.961833  0.374133  1.0
  H  H1776  1  0.038167  0.280433  0.374133  1.0
  H  H1777  1  0.399100  0.419800  0.550600  1.0
  H  H1778  1  0.020700  0.600900  0.550600  1.0
  H  H1779  1  0.580200  0.979300  0.550600  1.0
  H  H1780  1  0.979300  0.580200  0.949400  1.0
  H  H1781  1  0.419800  0.399100  0.949400  1.0
  H  H1782  1  0.600900  0.020700  0.949400  1.0
  H  H1783  1  0.732433  0.086467  0.217267  1.0
  H  H1784  1  0.354033  0.267567  0.217267  1.0
  H  H1785  1  0.913533  0.645967  0.217267  1.0
  H  H1786  1  0.312633  0.246867  0.616067  1.0
  H  H1787  1  0.753133  0.065767  0.616067  1.0
  H  H1788  1  0.934233  0.687367  0.616067  1.0
  H  H1789  1  0.065767  0.753133  0.883933  1.0
  H  H1790  1  0.687367  0.934233  0.883933  1.0
  H  H1791  1  0.246867  0.312633  0.883933  1.0
  H  H1792  1  0.645967  0.913533  0.282733  1.0
  H  H1793  1  0.086467  0.732433  0.282733  1.0
  H  H1794  1  0.267567  0.354033  0.282733  1.0
  H  H1795  1  0.600900  0.580200  0.449400  1.0
  H  H1796  1  0.979300  0.399100  0.449400  1.0
  H  H1797  1  0.419800  0.020700  0.449400  1.0
  H  H1798  1  0.020700  0.419800  0.050600  1.0
  H  H1799  1  0.580200  0.600900  0.050600  1.0
  H  H1800  1  0.399100  0.979300  0.050600  1.0
  H  H1801  1  0.934233  0.246867  0.116067  1.0
  H  H1802  1  0.312633  0.065767  0.116067  1.0
  H  H1803  1  0.753133  0.687367  0.116067  1.0
  H  H1804  1  0.354033  0.086467  0.717267  1.0
  H  H1805  1  0.913533  0.267567  0.717267  1.0
  H  H1806  1  0.732433  0.645967  0.717267  1.0
  H  H1807  1  0.267567  0.913533  0.782733  1.0
  H  H1808  1  0.645967  0.732433  0.782733  1.0
  H  H1809  1  0.086467  0.354033  0.782733  1.0
  H  H1810  1  0.687367  0.753133  0.383933  1.0
  H  H1811  1  0.246867  0.934233  0.383933  1.0
  H  H1812  1  0.065767  0.312633  0.383933  1.0
  H  H1813  1  0.305000  0.378800  0.531100  1.0
  H  H1814  1  0.073800  0.695000  0.531100  1.0
  H  H1815  1  0.621200  0.926200  0.531100  1.0
  H  H1816  1  0.926200  0.621200  0.968900  1.0
  H  H1817  1  0.378800  0.305000  0.968900  1.0
  H  H1818  1  0.695000  0.073800  0.968900  1.0
  H  H1819  1  0.638333  0.045467  0.197767  1.0
  H  H1820  1  0.407133  0.361667  0.197767  1.0
  H  H1821  1  0.954533  0.592867  0.197767  1.0
  H  H1822  1  0.259533  0.287867  0.635567  1.0
  H  H1823  1  0.712133  0.971667  0.635567  1.0
  H  H1824  1  0.028333  0.740467  0.635567  1.0
  H  H1825  1  0.971667  0.712133  0.864433  1.0
  H  H1826  1  0.740467  0.028333  0.864433  1.0
  H  H1827  1  0.287867  0.259533  0.864433  1.0
  H  H1828  1  0.592867  0.954533  0.302233  1.0
  H  H1829  1  0.045467  0.638333  0.302233  1.0
  H  H1830  1  0.361667  0.407133  0.302233  1.0
  H  H1831  1  0.695000  0.621200  0.468900  1.0
  H  H1832  1  0.926200  0.305000  0.468900  1.0
  H  H1833  1  0.378800  0.073800  0.468900  1.0
  H  H1834  1  0.073800  0.378800  0.031100  1.0
  H  H1835  1  0.621200  0.695000  0.031100  1.0
  H  H1836  1  0.305000  0.926200  0.031100  1.0
  H  H1837  1  0.028333  0.287867  0.135567  1.0
  H  H1838  1  0.259533  0.971667  0.135567  1.0
  H  H1839  1  0.712133  0.740467  0.135567  1.0
  H  H1840  1  0.407133  0.045467  0.697767  1.0
  H  H1841  1  0.954533  0.361667  0.697767  1.0
  H  H1842  1  0.638333  0.592867  0.697767  1.0
  H  H1843  1  0.361667  0.954533  0.802233  1.0
  H  H1844  1  0.592867  0.638333  0.802233  1.0
  H  H1845  1  0.045467  0.407133  0.802233  1.0
  H  H1846  1  0.740467  0.712133  0.364433  1.0
  H  H1847  1  0.287867  0.028333  0.364433  1.0
  H  H1848  1  0.971667  0.259533  0.364433  1.0
  H  H1849  1  0.268100  0.384300  0.527500  1.0
  H  H1850  1  0.116200  0.731900  0.527500  1.0
  H  H1851  1  0.615700  0.883800  0.527500  1.0
  H  H1852  1  0.883800  0.615700  0.972500  1.0
  H  H1853  1  0.384300  0.268100  0.972500  1.0
  H  H1854  1  0.731900  0.116200  0.972500  1.0
  H  H1855  1  0.601433  0.050967  0.194167  1.0
  H  H1856  1  0.449533  0.398567  0.194167  1.0
  H  H1857  1  0.949033  0.550467  0.194167  1.0
  H  H1858  1  0.217133  0.282367  0.639167  1.0
  H  H1859  1  0.717633  0.934767  0.639167  1.0
  H  H1860  1  0.065233  0.782867  0.639167  1.0
  H  H1861  1  0.934767  0.717633  0.860833  1.0
  H  H1862  1  0.782867  0.065233  0.860833  1.0
  H  H1863  1  0.282367  0.217133  0.860833  1.0
  H  H1864  1  0.550467  0.949033  0.305833  1.0
  H  H1865  1  0.050967  0.601433  0.305833  1.0
  H  H1866  1  0.398567  0.449533  0.305833  1.0
  H  H1867  1  0.731900  0.615700  0.472500  1.0
  H  H1868  1  0.883800  0.268100  0.472500  1.0
  H  H1869  1  0.384300  0.116200  0.472500  1.0
  H  H1870  1  0.116200  0.384300  0.027500  1.0
  H  H1871  1  0.615700  0.731900  0.027500  1.0
  H  H1872  1  0.268100  0.883800  0.027500  1.0
  H  H1873  1  0.065233  0.282367  0.139167  1.0
  H  H1874  1  0.217133  0.934767  0.139167  1.0
  H  H1875  1  0.717633  0.782867  0.139167  1.0
  H  H1876  1  0.449533  0.050967  0.694167  1.0
  H  H1877  1  0.949033  0.398567  0.694167  1.0
  H  H1878  1  0.601433  0.550467  0.694167  1.0
  H  H1879  1  0.398567  0.949033  0.805833  1.0
  H  H1880  1  0.550467  0.601433  0.805833  1.0
  H  H1881  1  0.050967  0.449533  0.805833  1.0
  H  H1882  1  0.782867  0.717633  0.360833  1.0
  H  H1883  1  0.282367  0.065233  0.360833  1.0
  H  H1884  1  0.934767  0.217133  0.360833  1.0
  H  H1885  1  0.260600  0.342700  0.532700  1.0
  H  H1886  1  0.082100  0.739400  0.532700  1.0
  H  H1887  1  0.657300  0.917900  0.532700  1.0
  H  H1888  1  0.917900  0.657300  0.967300  1.0
  H  H1889  1  0.342700  0.260600  0.967300  1.0
  H  H1890  1  0.739400  0.082100  0.967300  1.0
  H  H1891  1  0.593933  0.009367  0.199367  1.0
  H  H1892  1  0.415433  0.406067  0.199367  1.0
  H  H1893  1  0.990633  0.584567  0.199367  1.0
  H  H1894  1  0.251233  0.323967  0.633967  1.0
  H  H1895  1  0.676033  0.927267  0.633967  1.0
  H  H1896  1  0.072733  0.748767  0.633967  1.0
  H  H1897  1  0.927267  0.676033  0.866033  1.0
  H  H1898  1  0.748767  0.072733  0.866033  1.0
  H  H1899  1  0.323967  0.251233  0.866033  1.0
  H  H1900  1  0.584567  0.990633  0.300633  1.0
  H  H1901  1  0.009367  0.593933  0.300633  1.0
  H  H1902  1  0.406067  0.415433  0.300633  1.0
  H  H1903  1  0.739400  0.657300  0.467300  1.0
  H  H1904  1  0.917900  0.260600  0.467300  1.0
  H  H1905  1  0.342700  0.082100  0.467300  1.0
  H  H1906  1  0.082100  0.342700  0.032700  1.0
  H  H1907  1  0.657300  0.739400  0.032700  1.0
  H  H1908  1  0.260600  0.917900  0.032700  1.0
  H  H1909  1  0.072733  0.323967  0.133967  1.0
  H  H1910  1  0.251233  0.927267  0.133967  1.0
  H  H1911  1  0.676033  0.748767  0.133967  1.0
  H  H1912  1  0.415433  0.009367  0.699367  1.0
  H  H1913  1  0.990633  0.406067  0.699367  1.0
  H  H1914  1  0.593933  0.584567  0.699367  1.0
  H  H1915  1  0.406067  0.990633  0.800633  1.0
  H  H1916  1  0.584567  0.593933  0.800633  1.0
  H  H1917  1  0.009367  0.415433  0.800633  1.0
  H  H1918  1  0.748767  0.676033  0.366033  1.0
  H  H1919  1  0.323967  0.072733  0.366033  1.0
  H  H1920  1  0.927267  0.251233  0.366033  1.0
  H  H1921  1  0.236000  0.258800  0.480800  1.0
  H  H1922  1  0.022800  0.764000  0.480800  1.0
  H  H1923  1  0.741200  0.977200  0.480800  1.0
  H  H1924  1  0.977200  0.741200  0.019200  1.0
  H  H1925  1  0.258800  0.236000  0.019200  1.0
  H  H1926  1  0.764000  0.022800  0.019200  1.0
  H  H1927  1  0.569333  0.925467  0.147467  1.0
  H  H1928  1  0.356133  0.430667  0.147467  1.0
  H  H1929  1  0.074533  0.643867  0.147467  1.0
  H  H1930  1  0.310533  0.407867  0.685867  1.0
  H  H1931  1  0.592133  0.902667  0.685867  1.0
  H  H1932  1  0.097333  0.689467  0.685867  1.0
  H  H1933  1  0.902667  0.592133  0.814133  1.0
  H  H1934  1  0.689467  0.097333  0.814133  1.0
  H  H1935  1  0.407867  0.310533  0.814133  1.0
  H  H1936  1  0.643867  0.074533  0.352533  1.0
  H  H1937  1  0.925467  0.569333  0.352533  1.0
  H  H1938  1  0.430667  0.356133  0.352533  1.0
  H  H1939  1  0.764000  0.741200  0.519200  1.0
  H  H1940  1  0.977200  0.236000  0.519200  1.0
  H  H1941  1  0.258800  0.022800  0.519200  1.0
  H  H1942  1  0.022800  0.258800  0.980800  1.0
  H  H1943  1  0.741200  0.764000  0.980800  1.0
  H  H1944  1  0.236000  0.977200  0.980800  1.0
  H  H1945  1  0.097333  0.407867  0.185867  1.0
  H  H1946  1  0.310533  0.902667  0.185867  1.0
  H  H1947  1  0.592133  0.689467  0.185867  1.0
  H  H1948  1  0.356133  0.925467  0.647467  1.0
  H  H1949  1  0.074533  0.430667  0.647467  1.0
  H  H1950  1  0.569333  0.643867  0.647467  1.0
  H  H1951  1  0.430667  0.074533  0.852533  1.0
  H  H1952  1  0.643867  0.569333  0.852533  1.0
  H  H1953  1  0.925467  0.356133  0.852533  1.0
  H  H1954  1  0.689467  0.592133  0.314133  1.0
  H  H1955  1  0.407867  0.097333  0.314133  1.0
  H  H1956  1  0.902667  0.310533  0.314133  1.0
  H  H1957  1  0.281100  0.258700  0.467500  1.0
  H  H1958  1  0.977600  0.718900  0.467500  1.0
  H  H1959  1  0.741300  0.022400  0.467500  1.0
  H  H1960  1  0.022400  0.741300  0.032500  1.0
  H  H1961  1  0.258700  0.281100  0.032500  1.0
  H  H1962  1  0.718900  0.977600  0.032500  1.0
  H  H1963  1  0.614433  0.925367  0.134167  1.0
  H  H1964  1  0.310933  0.385567  0.134167  1.0
  H  H1965  1  0.074633  0.689067  0.134167  1.0
  H  H1966  1  0.355733  0.407967  0.699167  1.0
  H  H1967  1  0.592033  0.947767  0.699167  1.0
  H  H1968  1  0.052233  0.644267  0.699167  1.0
  H  H1969  1  0.947767  0.592033  0.800833  1.0
  H  H1970  1  0.644267  0.052233  0.800833  1.0
  H  H1971  1  0.407967  0.355733  0.800833  1.0
  H  H1972  1  0.689067  0.074633  0.365833  1.0
  H  H1973  1  0.925367  0.614433  0.365833  1.0
  H  H1974  1  0.385567  0.310933  0.365833  1.0
  H  H1975  1  0.718900  0.741300  0.532500  1.0
  H  H1976  1  0.022400  0.281100  0.532500  1.0
  H  H1977  1  0.258700  0.977600  0.532500  1.0
  H  H1978  1  0.977600  0.258700  0.967500  1.0
  H  H1979  1  0.741300  0.718900  0.967500  1.0
  H  H1980  1  0.281100  0.022400  0.967500  1.0
  H  H1981  1  0.052233  0.407967  0.199167  1.0
  H  H1982  1  0.355733  0.947767  0.199167  1.0
  H  H1983  1  0.592033  0.644267  0.199167  1.0
  H  H1984  1  0.310933  0.925367  0.634167  1.0
  H  H1985  1  0.074633  0.385567  0.634167  1.0
  H  H1986  1  0.614433  0.689067  0.634167  1.0
  H  H1987  1  0.385567  0.074633  0.865833  1.0
  H  H1988  1  0.689067  0.614433  0.865833  1.0
  H  H1989  1  0.925367  0.310933  0.865833  1.0
  H  H1990  1  0.644267  0.592033  0.300833  1.0
  H  H1991  1  0.407967  0.052233  0.300833  1.0
  H  H1992  1  0.947767  0.355733  0.300833  1.0
  H  H1993  1  0.303600  0.304200  0.452400  1.0
  H  H1994  1  0.000600  0.696400  0.452400  1.0
  H  H1995  1  0.695800  0.999400  0.452400  1.0
  H  H1996  1  0.999400  0.695800  0.047600  1.0
  H  H1997  1  0.304200  0.303600  0.047600  1.0
  H  H1998  1  0.696400  0.000600  0.047600  1.0
  H  H1999  1  0.636933  0.970867  0.119067  1.0
  H  H2000  1  0.333933  0.363067  0.119067  1.0
  H  H2001  1  0.029133  0.666067  0.119067  1.0
  H  H2002  1  0.332733  0.362467  0.714267  1.0
  H  H2003  1  0.637533  0.970267  0.714267  1.0
  H  H2004  1  0.029733  0.667267  0.714267  1.0
  H  H2005  1  0.970267  0.637533  0.785733  1.0
  H  H2006  1  0.667267  0.029733  0.785733  1.0
  H  H2007  1  0.362467  0.332733  0.785733  1.0
  H  H2008  1  0.666067  0.029133  0.380933  1.0
  H  H2009  1  0.970867  0.636933  0.380933  1.0
  H  H2010  1  0.363067  0.333933  0.380933  1.0
  H  H2011  1  0.696400  0.695800  0.547600  1.0
  H  H2012  1  0.999400  0.303600  0.547600  1.0
  H  H2013  1  0.304200  0.000600  0.547600  1.0
  H  H2014  1  0.000600  0.304200  0.952400  1.0
  H  H2015  1  0.695800  0.696400  0.952400  1.0
  H  H2016  1  0.303600  0.999400  0.952400  1.0
  H  H2017  1  0.029733  0.362467  0.214267  1.0
  H  H2018  1  0.332733  0.970267  0.214267  1.0
  H  H2019  1  0.637533  0.667267  0.214267  1.0
  H  H2020  1  0.333933  0.970867  0.619067  1.0
  H  H2021  1  0.029133  0.363067  0.619067  1.0
  H  H2022  1  0.636933  0.666067  0.619067  1.0
  H  H2023  1  0.363067  0.029133  0.880933  1.0
  H  H2024  1  0.666067  0.636933  0.880933  1.0
  H  H2025  1  0.970867  0.333933  0.880933  1.0
  H  H2026  1  0.667267  0.637533  0.285733  1.0
  H  H2027  1  0.362467  0.029733  0.285733  1.0
  H  H2028  1  0.970267  0.332733  0.285733  1.0
  H  H2029  1  0.287200  0.355700  0.451300  1.0
  H  H2030  1  0.068500  0.712800  0.451300  1.0
  H  H2031  1  0.644300  0.931500  0.451300  1.0
  H  H2032  1  0.931500  0.644300  0.048700  1.0
  H  H2033  1  0.355700  0.287200  0.048700  1.0
  H  H2034  1  0.712800  0.068500  0.048700  1.0
  H  H2035  1  0.620533  0.022367  0.117967  1.0
  H  H2036  1  0.401833  0.379467  0.117967  1.0
  H  H2037  1  0.977633  0.598167  0.117967  1.0
  H  H2038  1  0.264833  0.310967  0.715367  1.0
  H  H2039  1  0.689033  0.953867  0.715367  1.0
  H  H2040  1  0.046133  0.735167  0.715367  1.0
  H  H2041  1  0.953867  0.689033  0.784633  1.0
  H  H2042  1  0.735167  0.046133  0.784633  1.0
  H  H2043  1  0.310967  0.264833  0.784633  1.0
  H  H2044  1  0.598167  0.977633  0.382033  1.0
  H  H2045  1  0.022367  0.620533  0.382033  1.0
  H  H2046  1  0.379467  0.401833  0.382033  1.0
  H  H2047  1  0.712800  0.644300  0.548700  1.0
  H  H2048  1  0.931500  0.287200  0.548700  1.0
  H  H2049  1  0.355700  0.068500  0.548700  1.0
  H  H2050  1  0.068500  0.355700  0.951300  1.0
  H  H2051  1  0.644300  0.712800  0.951300  1.0
  H  H2052  1  0.287200  0.931500  0.951300  1.0
  H  H2053  1  0.046133  0.310967  0.215367  1.0
  H  H2054  1  0.264833  0.953867  0.215367  1.0
  H  H2055  1  0.689033  0.735167  0.215367  1.0
  H  H2056  1  0.401833  0.022367  0.617967  1.0
  H  H2057  1  0.977633  0.379467  0.617967  1.0
  H  H2058  1  0.620533  0.598167  0.617967  1.0
  H  H2059  1  0.379467  0.977633  0.882033  1.0
  H  H2060  1  0.598167  0.620533  0.882033  1.0
  H  H2061  1  0.022367  0.401833  0.882033  1.0
  H  H2062  1  0.735167  0.689033  0.284633  1.0
  H  H2063  1  0.310967  0.046133  0.284633  1.0
  H  H2064  1  0.953867  0.264833  0.284633  1.0
  H  H2065  1  0.244100  0.384700  0.461500  1.0
  H  H2066  1  0.140600  0.755900  0.461500  1.0
  H  H2067  1  0.615300  0.859400  0.461500  1.0
  H  H2068  1  0.859400  0.615300  0.038500  1.0
  H  H2069  1  0.384700  0.244100  0.038500  1.0
  H  H2070  1  0.755900  0.140600  0.038500  1.0
  H  H2071  1  0.577433  0.051367  0.128167  1.0
  H  H2072  1  0.473933  0.422567  0.128167  1.0
  H  H2073  1  0.948633  0.526067  0.128167  1.0
  H  H2074  1  0.192733  0.281967  0.705167  1.0
  H  H2075  1  0.718033  0.910767  0.705167  1.0
  H  H2076  1  0.089233  0.807267  0.705167  1.0
  H  H2077  1  0.910767  0.718033  0.794833  1.0
  H  H2078  1  0.807267  0.089233  0.794833  1.0
  H  H2079  1  0.281967  0.192733  0.794833  1.0
  H  H2080  1  0.526067  0.948633  0.371833  1.0
  H  H2081  1  0.051367  0.577433  0.371833  1.0
  H  H2082  1  0.422567  0.473933  0.371833  1.0
  H  H2083  1  0.755900  0.615300  0.538500  1.0
  H  H2084  1  0.859400  0.244100  0.538500  1.0
  H  H2085  1  0.384700  0.140600  0.538500  1.0
  H  H2086  1  0.140600  0.384700  0.961500  1.0
  H  H2087  1  0.615300  0.755900  0.961500  1.0
  H  H2088  1  0.244100  0.859400  0.961500  1.0
  H  H2089  1  0.089233  0.281967  0.205167  1.0
  H  H2090  1  0.192733  0.910767  0.205167  1.0
  H  H2091  1  0.718033  0.807267  0.205167  1.0
  H  H2092  1  0.473933  0.051367  0.628167  1.0
  H  H2093  1  0.948633  0.422567  0.628167  1.0
  H  H2094  1  0.577433  0.526067  0.628167  1.0
  H  H2095  1  0.422567  0.948633  0.871833  1.0
  H  H2096  1  0.526067  0.577433  0.871833  1.0
  H  H2097  1  0.051367  0.473933  0.871833  1.0
  H  H2098  1  0.807267  0.718033  0.294833  1.0
  H  H2099  1  0.281967  0.089233  0.294833  1.0
  H  H2100  1  0.910767  0.192733  0.294833  1.0
  H  H2101  1  0.152400  0.353800  0.467600  1.0
  H  H2102  1  0.201400  0.847600  0.467600  1.0
  H  H2103  1  0.646200  0.798600  0.467600  1.0
  H  H2104  1  0.798600  0.646200  0.032400  1.0
  H  H2105  1  0.353800  0.152400  0.032400  1.0
  H  H2106  1  0.847600  0.201400  0.032400  1.0
  H  H2107  1  0.485733  0.020467  0.134267  1.0
  H  H2108  1  0.534733  0.514267  0.134267  1.0
  H  H2109  1  0.979533  0.465267  0.134267  1.0
  H  H2110  1  0.131933  0.312867  0.699067  1.0
  H  H2111  1  0.687133  0.819067  0.699067  1.0
  H  H2112  1  0.180933  0.868067  0.699067  1.0
  H  H2113  1  0.819067  0.687133  0.800933  1.0
  H  H2114  1  0.868067  0.180933  0.800933  1.0
  H  H2115  1  0.312867  0.131933  0.800933  1.0
  H  H2116  1  0.465267  0.979533  0.365733  1.0
  H  H2117  1  0.020467  0.485733  0.365733  1.0
  H  H2118  1  0.514267  0.534733  0.365733  1.0
  H  H2119  1  0.847600  0.646200  0.532400  1.0
  H  H2120  1  0.798600  0.152400  0.532400  1.0
  H  H2121  1  0.353800  0.201400  0.532400  1.0
  H  H2122  1  0.201400  0.353800  0.967600  1.0
  H  H2123  1  0.646200  0.847600  0.967600  1.0
  H  H2124  1  0.152400  0.798600  0.967600  1.0
  H  H2125  1  0.180933  0.312867  0.199067  1.0
  H  H2126  1  0.131933  0.819067  0.199067  1.0
  H  H2127  1  0.687133  0.868067  0.199067  1.0
  H  H2128  1  0.534733  0.020467  0.634267  1.0
  H  H2129  1  0.979533  0.514267  0.634267  1.0
  H  H2130  1  0.485733  0.465267  0.634267  1.0
  H  H2131  1  0.514267  0.979533  0.865733  1.0
  H  H2132  1  0.465267  0.485733  0.865733  1.0
  H  H2133  1  0.020467  0.534733  0.865733  1.0
  H  H2134  1  0.868067  0.687133  0.300933  1.0
  H  H2135  1  0.312867  0.180933  0.300933  1.0
  H  H2136  1  0.819067  0.131933  0.300933  1.0
  H  H2137  1  0.124300  0.394300  0.469700  1.0
  H  H2138  1  0.270000  0.875700  0.469700  1.0
  H  H2139  1  0.605700  0.730000  0.469700  1.0
  H  H2140  1  0.730000  0.605700  0.030300  1.0
  H  H2141  1  0.394300  0.124300  0.030300  1.0
  H  H2142  1  0.875700  0.270000  0.030300  1.0
  H  H2143  1  0.457633  0.060967  0.136367  1.0
  H  H2144  1  0.603333  0.542367  0.136367  1.0
  H  H2145  1  0.939033  0.396667  0.136367  1.0
  H  H2146  1  0.063333  0.272367  0.696967  1.0
  H  H2147  1  0.727633  0.790967  0.696967  1.0
  H  H2148  1  0.209033  0.936667  0.696967  1.0
  H  H2149  1  0.790967  0.727633  0.803033  1.0
  H  H2150  1  0.936667  0.209033  0.803033  1.0
  H  H2151  1  0.272367  0.063333  0.803033  1.0
  H  H2152  1  0.396667  0.939033  0.363633  1.0
  H  H2153  1  0.060967  0.457633  0.363633  1.0
  H  H2154  1  0.542367  0.603333  0.363633  1.0
  H  H2155  1  0.875700  0.605700  0.530300  1.0
  H  H2156  1  0.730000  0.124300  0.530300  1.0
  H  H2157  1  0.394300  0.270000  0.530300  1.0
  H  H2158  1  0.270000  0.394300  0.969700  1.0
  H  H2159  1  0.605700  0.875700  0.969700  1.0
  H  H2160  1  0.124300  0.730000  0.969700  1.0
  H  H2161  1  0.209033  0.272367  0.196967  1.0
  H  H2162  1  0.063333  0.790967  0.196967  1.0
  H  H2163  1  0.727633  0.936667  0.196967  1.0
  H  H2164  1  0.603333  0.060967  0.636367  1.0
  H  H2165  1  0.939033  0.542367  0.636367  1.0
  H  H2166  1  0.457633  0.396667  0.636367  1.0
  H  H2167  1  0.542367  0.939033  0.863633  1.0
  H  H2168  1  0.396667  0.457633  0.863633  1.0
  H  H2169  1  0.060967  0.603333  0.863633  1.0
  H  H2170  1  0.936667  0.727633  0.303033  1.0
  H  H2171  1  0.272367  0.209033  0.303033  1.0
  H  H2172  1  0.790967  0.063333  0.303033  1.0
  H  H2173  1  0.218800  0.473900  0.488800  1.0
  H  H2174  1  0.255100  0.781200  0.488800  1.0
  H  H2175  1  0.526100  0.744900  0.488800  1.0
  H  H2176  1  0.744900  0.526100  0.011200  1.0
  H  H2177  1  0.473900  0.218800  0.011200  1.0
  H  H2178  1  0.781200  0.255100  0.011200  1.0
  H  H2179  1  0.552133  0.140567  0.155467  1.0
  H  H2180  1  0.588433  0.447867  0.155467  1.0
  H  H2181  1  0.859433  0.411567  0.155467  1.0
  H  H2182  1  0.078233  0.192767  0.677867  1.0
  H  H2183  1  0.807233  0.885467  0.677867  1.0
  H  H2184  1  0.114533  0.921767  0.677867  1.0
  H  H2185  1  0.885467  0.807233  0.822133  1.0
  H  H2186  1  0.921767  0.114533  0.822133  1.0
  H  H2187  1  0.192767  0.078233  0.822133  1.0
  H  H2188  1  0.411567  0.859433  0.344533  1.0
  H  H2189  1  0.140567  0.552133  0.344533  1.0
  H  H2190  1  0.447867  0.588433  0.344533  1.0
  H  H2191  1  0.781200  0.526100  0.511200  1.0
  H  H2192  1  0.744900  0.218800  0.511200  1.0
  H  H2193  1  0.473900  0.255100  0.511200  1.0
  H  H2194  1  0.255100  0.473900  0.988800  1.0
  H  H2195  1  0.526100  0.781200  0.988800  1.0
  H  H2196  1  0.218800  0.744900  0.988800  1.0
  H  H2197  1  0.114533  0.192767  0.177867  1.0
  H  H2198  1  0.078233  0.885467  0.177867  1.0
  H  H2199  1  0.807233  0.921767  0.177867  1.0
  H  H2200  1  0.588433  0.140567  0.655467  1.0
  H  H2201  1  0.859433  0.447867  0.655467  1.0
  H  H2202  1  0.552133  0.411567  0.655467  1.0
  H  H2203  1  0.447867  0.859433  0.844533  1.0
  H  H2204  1  0.411567  0.552133  0.844533  1.0
  H  H2205  1  0.140567  0.588433  0.844533  1.0
  H  H2206  1  0.921767  0.807233  0.322133  1.0
  H  H2207  1  0.192767  0.114533  0.322133  1.0
  H  H2208  1  0.885467  0.078233  0.322133  1.0
  H  H2209  1  0.246100  0.431700  0.488000  1.0
  H  H2210  1  0.185600  0.753900  0.488000  1.0
  H  H2211  1  0.568300  0.814400  0.488000  1.0
  H  H2212  1  0.814400  0.568300  0.012000  1.0
  H  H2213  1  0.431700  0.246100  0.012000  1.0
  H  H2214  1  0.753900  0.185600  0.012000  1.0
  H  H2215  1  0.579433  0.098367  0.154667  1.0
  H  H2216  1  0.518933  0.420567  0.154667  1.0
  H  H2217  1  0.901633  0.481067  0.154667  1.0
  H  H2218  1  0.147733  0.234967  0.678667  1.0
  H  H2219  1  0.765033  0.912767  0.678667  1.0
  H  H2220  1  0.087233  0.852267  0.678667  1.0
  H  H2221  1  0.912767  0.765033  0.821333  1.0
  H  H2222  1  0.852267  0.087233  0.821333  1.0
  H  H2223  1  0.234967  0.147733  0.821333  1.0
  H  H2224  1  0.481067  0.901633  0.345333  1.0
  H  H2225  1  0.098367  0.579433  0.345333  1.0
  H  H2226  1  0.420567  0.518933  0.345333  1.0
  H  H2227  1  0.753900  0.568300  0.512000  1.0
  H  H2228  1  0.814400  0.246100  0.512000  1.0
  H  H2229  1  0.431700  0.185600  0.512000  1.0
  H  H2230  1  0.185600  0.431700  0.988000  1.0
  H  H2231  1  0.568300  0.753900  0.988000  1.0
  H  H2232  1  0.246100  0.814400  0.988000  1.0
  H  H2233  1  0.087233  0.234967  0.178667  1.0
  H  H2234  1  0.147733  0.912767  0.178667  1.0
  H  H2235  1  0.765033  0.852267  0.178667  1.0
  H  H2236  1  0.518933  0.098367  0.654667  1.0
  H  H2237  1  0.901633  0.420567  0.654667  1.0
  H  H2238  1  0.579433  0.481067  0.654667  1.0
  H  H2239  1  0.420567  0.901633  0.845333  1.0
  H  H2240  1  0.481067  0.579433  0.845333  1.0
  H  H2241  1  0.098367  0.518933  0.845333  1.0
  H  H2242  1  0.852267  0.765033  0.321333  1.0
  H  H2243  1  0.234967  0.087233  0.321333  1.0
  H  H2244  1  0.912767  0.147733  0.321333  1.0
  H  H2245  1  0.155400  0.572500  0.445400  1.0
  H  H2246  1  0.417100  0.844600  0.445400  1.0
  H  H2247  1  0.427500  0.582900  0.445400  1.0
  H  H2248  1  0.582900  0.427500  0.054600  1.0
  H  H2249  1  0.572500  0.155400  0.054600  1.0
  H  H2250  1  0.844600  0.417100  0.054600  1.0
  H  H2251  1  0.488733  0.239167  0.112067  1.0
  H  H2252  1  0.750433  0.511267  0.112067  1.0
  H  H2253  1  0.760833  0.249567  0.112067  1.0
  H  H2254  1  0.916233  0.094167  0.721267  1.0
  H  H2255  1  0.905833  0.822067  0.721267  1.0
  H  H2256  1  0.177933  0.083767  0.721267  1.0
  H  H2257  1  0.822067  0.905833  0.778733  1.0
  H  H2258  1  0.083767  0.177933  0.778733  1.0
  H  H2259  1  0.094167  0.916233  0.778733  1.0
  H  H2260  1  0.249567  0.760833  0.387933  1.0
  H  H2261  1  0.239167  0.488733  0.387933  1.0
  H  H2262  1  0.511267  0.750433  0.387933  1.0
  H  H2263  1  0.844600  0.427500  0.554600  1.0
  H  H2264  1  0.582900  0.155400  0.554600  1.0
  H  H2265  1  0.572500  0.417100  0.554600  1.0
  H  H2266  1  0.417100  0.572500  0.945400  1.0
  H  H2267  1  0.427500  0.844600  0.945400  1.0
  H  H2268  1  0.155400  0.582900  0.945400  1.0
  H  H2269  1  0.177933  0.094167  0.221267  1.0
  H  H2270  1  0.916233  0.822067  0.221267  1.0
  H  H2271  1  0.905833  0.083767  0.221267  1.0
  H  H2272  1  0.750433  0.239167  0.612067  1.0
  H  H2273  1  0.760833  0.511267  0.612067  1.0
  H  H2274  1  0.488733  0.249567  0.612067  1.0
  H  H2275  1  0.511267  0.760833  0.887933  1.0
  H  H2276  1  0.249567  0.488733  0.887933  1.0
  H  H2277  1  0.239167  0.750433  0.887933  1.0
  H  H2278  1  0.083767  0.905833  0.278733  1.0
  H  H2279  1  0.094167  0.177933  0.278733  1.0
  H  H2280  1  0.822067  0.916233  0.278733  1.0
  H  H2281  1  0.032000  0.460600  0.507900  1.0
  H  H2282  1  0.428600  0.968000  0.507900  1.0
  H  H2283  1  0.539400  0.571400  0.507900  1.0
  H  H2284  1  0.571400  0.539400  0.992100  1.0
  H  H2285  1  0.460600  0.032000  0.992100  1.0
  H  H2286  1  0.968000  0.428600  0.992100  1.0
  H  H2287  1  0.365333  0.127267  0.174567  1.0
  H  H2288  1  0.761933  0.634667  0.174567  1.0
  H  H2289  1  0.872733  0.238067  0.174567  1.0
  H  H2290  1  0.904733  0.206067  0.658767  1.0
  H  H2291  1  0.793933  0.698667  0.658767  1.0
  H  H2292  1  0.301333  0.095267  0.658767  1.0
  H  H2293  1  0.698667  0.793933  0.841233  1.0
  H  H2294  1  0.095267  0.301333  0.841233  1.0
  H  H2295  1  0.206067  0.904733  0.841233  1.0
  H  H2296  1  0.238067  0.872733  0.325433  1.0
  H  H2297  1  0.127267  0.365333  0.325433  1.0
  H  H2298  1  0.634667  0.761933  0.325433  1.0
  H  H2299  1  0.968000  0.539400  0.492100  1.0
  H  H2300  1  0.571400  0.032000  0.492100  1.0
  H  H2301  1  0.460600  0.428600  0.492100  1.0
  H  H2302  1  0.428600  0.460600  0.007900  1.0
  H  H2303  1  0.539400  0.968000  0.007900  1.0
  H  H2304  1  0.032000  0.571400  0.007900  1.0
  H  H2305  1  0.301333  0.206067  0.158767  1.0
  H  H2306  1  0.904733  0.698667  0.158767  1.0
  H  H2307  1  0.793933  0.095267  0.158767  1.0
  H  H2308  1  0.761933  0.127267  0.674567  1.0
  H  H2309  1  0.872733  0.634667  0.674567  1.0
  H  H2310  1  0.365333  0.238067  0.674567  1.0
  H  H2311  1  0.634667  0.872733  0.825433  1.0
  H  H2312  1  0.238067  0.365333  0.825433  1.0
  H  H2313  1  0.127267  0.761933  0.825433  1.0
  H  H2314  1  0.095267  0.793933  0.341233  1.0
  H  H2315  1  0.206067  0.301333  0.341233  1.0
  H  H2316  1  0.698667  0.904733  0.341233  1.0
  H  H2317  1  0.146200  0.672000  0.502200  1.0
  H  H2318  1  0.525800  0.853800  0.502200  1.0
  H  H2319  1  0.328000  0.474200  0.502200  1.0
  H  H2320  1  0.474200  0.328000  0.997800  1.0
  H  H2321  1  0.672000  0.146200  0.997800  1.0
  H  H2322  1  0.853800  0.525800  0.997800  1.0
  H  H2323  1  0.479533  0.338667  0.168867  1.0
  H  H2324  1  0.859133  0.520467  0.168867  1.0
  H  H2325  1  0.661333  0.140867  0.168867  1.0
  H  H2326  1  0.807533  0.994667  0.664467  1.0
  H  H2327  1  0.005333  0.812867  0.664467  1.0
  H  H2328  1  0.187133  0.192467  0.664467  1.0
  H  H2329  1  0.812867  0.005333  0.835533  1.0
  H  H2330  1  0.192467  0.187133  0.835533  1.0
  H  H2331  1  0.994667  0.807533  0.835533  1.0
  H  H2332  1  0.140867  0.661333  0.331133  1.0
  H  H2333  1  0.338667  0.479533  0.331133  1.0
  H  H2334  1  0.520467  0.859133  0.331133  1.0
  H  H2335  1  0.853800  0.328000  0.497800  1.0
  H  H2336  1  0.474200  0.146200  0.497800  1.0
  H  H2337  1  0.672000  0.525800  0.497800  1.0
  H  H2338  1  0.525800  0.672000  0.002200  1.0
  H  H2339  1  0.328000  0.853800  0.002200  1.0
  H  H2340  1  0.146200  0.474200  0.002200  1.0
  H  H2341  1  0.187133  0.994667  0.164467  1.0
  H  H2342  1  0.807533  0.812867  0.164467  1.0
  H  H2343  1  0.005333  0.192467  0.164467  1.0
  H  H2344  1  0.859133  0.338667  0.668867  1.0
  H  H2345  1  0.661333  0.520467  0.668867  1.0
  H  H2346  1  0.479533  0.140867  0.668867  1.0
  H  H2347  1  0.520467  0.661333  0.831133  1.0
  H  H2348  1  0.140867  0.479533  0.831133  1.0
  H  H2349  1  0.338667  0.859133  0.831133  1.0
  H  H2350  1  0.192467  0.005333  0.335533  1.0
  H  H2351  1  0.994667  0.187133  0.335533  1.0
  H  H2352  1  0.812867  0.807533  0.335533  1.0
  H  H2353  1  0.142500  0.729500  0.505500  1.0
  H  H2354  1  0.587000  0.857500  0.505500  1.0
  H  H2355  1  0.270500  0.413000  0.505500  1.0
  H  H2356  1  0.413000  0.270500  0.994500  1.0
  H  H2357  1  0.729500  0.142500  0.994500  1.0
  H  H2358  1  0.857500  0.587000  0.994500  1.0
  H  H2359  1  0.475833  0.396167  0.172167  1.0
  H  H2360  1  0.920333  0.524167  0.172167  1.0
  H  H2361  1  0.603833  0.079667  0.172167  1.0
  H  H2362  1  0.746333  0.937167  0.661167  1.0
  H  H2363  1  0.062833  0.809167  0.661167  1.0
  H  H2364  1  0.190833  0.253667  0.661167  1.0
  H  H2365  1  0.809167  0.062833  0.838833  1.0
  H  H2366  1  0.253667  0.190833  0.838833  1.0
  H  H2367  1  0.937167  0.746333  0.838833  1.0
  H  H2368  1  0.079667  0.603833  0.327833  1.0
  H  H2369  1  0.396167  0.475833  0.327833  1.0
  H  H2370  1  0.524167  0.920333  0.327833  1.0
  H  H2371  1  0.857500  0.270500  0.494500  1.0
  H  H2372  1  0.413000  0.142500  0.494500  1.0
  H  H2373  1  0.729500  0.587000  0.494500  1.0
  H  H2374  1  0.587000  0.729500  0.005500  1.0
  H  H2375  1  0.270500  0.857500  0.005500  1.0
  H  H2376  1  0.142500  0.413000  0.005500  1.0
  H  H2377  1  0.190833  0.937167  0.161167  1.0
  H  H2378  1  0.746333  0.809167  0.161167  1.0
  H  H2379  1  0.062833  0.253667  0.161167  1.0
  H  H2380  1  0.920333  0.396167  0.672167  1.0
  H  H2381  1  0.603833  0.524167  0.672167  1.0
  H  H2382  1  0.475833  0.079667  0.672167  1.0
  H  H2383  1  0.524167  0.603833  0.827833  1.0
  H  H2384  1  0.079667  0.475833  0.827833  1.0
  H  H2385  1  0.396167  0.920333  0.827833  1.0
  H  H2386  1  0.253667  0.062833  0.338833  1.0
  H  H2387  1  0.937167  0.190833  0.338833  1.0
  H  H2388  1  0.809167  0.746333  0.338833  1.0
  H  H2389  1  0.044600  0.683500  0.484100  1.0
  H  H2390  1  0.638900  0.955400  0.484100  1.0
  H  H2391  1  0.316500  0.361100  0.484100  1.0
  H  H2392  1  0.361100  0.316500  0.015900  1.0
  H  H2393  1  0.683500  0.044600  0.015900  1.0
  H  H2394  1  0.955400  0.638900  0.015900  1.0
  H  H2395  1  0.377933  0.350167  0.150767  1.0
  H  H2396  1  0.972233  0.622067  0.150767  1.0
  H  H2397  1  0.649833  0.027767  0.150767  1.0
  H  H2398  1  0.694433  0.983167  0.682567  1.0
  H  H2399  1  0.016833  0.711267  0.682567  1.0
  H  H2400  1  0.288733  0.305567  0.682567  1.0
  H  H2401  1  0.711267  0.016833  0.817433  1.0
  H  H2402  1  0.305567  0.288733  0.817433  1.0
  H  H2403  1  0.983167  0.694433  0.817433  1.0
  H  H2404  1  0.027767  0.649833  0.349233  1.0
  H  H2405  1  0.350167  0.377933  0.349233  1.0
  H  H2406  1  0.622067  0.972233  0.349233  1.0
  H  H2407  1  0.955400  0.316500  0.515900  1.0
  H  H2408  1  0.361100  0.044600  0.515900  1.0
  H  H2409  1  0.683500  0.638900  0.515900  1.0
  H  H2410  1  0.638900  0.683500  0.984100  1.0
  H  H2411  1  0.316500  0.955400  0.984100  1.0
  H  H2412  1  0.044600  0.361100  0.984100  1.0
  H  H2413  1  0.288733  0.983167  0.182567  1.0
  H  H2414  1  0.694433  0.711267  0.182567  1.0
  H  H2415  1  0.016833  0.305567  0.182567  1.0
  H  H2416  1  0.972233  0.350167  0.650767  1.0
  H  H2417  1  0.649833  0.622067  0.650767  1.0
  H  H2418  1  0.377933  0.027767  0.650767  1.0
  H  H2419  1  0.622067  0.649833  0.849233  1.0
  H  H2420  1  0.027767  0.377933  0.849233  1.0
  H  H2421  1  0.350167  0.972233  0.849233  1.0
  H  H2422  1  0.305567  0.016833  0.317433  1.0
  H  H2423  1  0.983167  0.288733  0.317433  1.0
  H  H2424  1  0.711267  0.694433  0.317433  1.0
  H  H2425  1  0.050900  0.627500  0.480400  1.0
  H  H2426  1  0.576600  0.949100  0.480400  1.0
  H  H2427  1  0.372500  0.423400  0.480400  1.0
  H  H2428  1  0.423400  0.372500  0.019600  1.0
  H  H2429  1  0.627500  0.050900  0.019600  1.0
  H  H2430  1  0.949100  0.576600  0.019600  1.0
  H  H2431  1  0.384233  0.294167  0.147067  1.0
  H  H2432  1  0.909933  0.615767  0.147067  1.0
  H  H2433  1  0.705833  0.090067  0.147067  1.0
  H  H2434  1  0.756733  0.039167  0.686267  1.0
  H  H2435  1  0.960833  0.717567  0.686267  1.0
  H  H2436  1  0.282433  0.243267  0.686267  1.0
  H  H2437  1  0.717567  0.960833  0.813733  1.0
  H  H2438  1  0.243267  0.282433  0.813733  1.0
  H  H2439  1  0.039167  0.756733  0.813733  1.0
  H  H2440  1  0.090067  0.705833  0.352933  1.0
  H  H2441  1  0.294167  0.384233  0.352933  1.0
  H  H2442  1  0.615767  0.909933  0.352933  1.0
  H  H2443  1  0.949100  0.372500  0.519600  1.0
  H  H2444  1  0.423400  0.050900  0.519600  1.0
  H  H2445  1  0.627500  0.576600  0.519600  1.0
  H  H2446  1  0.576600  0.627500  0.980400  1.0
  H  H2447  1  0.372500  0.949100  0.980400  1.0
  H  H2448  1  0.050900  0.423400  0.980400  1.0
  H  H2449  1  0.282433  0.039167  0.186267  1.0
  H  H2450  1  0.756733  0.717567  0.186267  1.0
  H  H2451  1  0.960833  0.243267  0.186267  1.0
  H  H2452  1  0.909933  0.294167  0.647067  1.0
  H  H2453  1  0.705833  0.615767  0.647067  1.0
  H  H2454  1  0.384233  0.090067  0.647067  1.0
  H  H2455  1  0.615767  0.705833  0.852933  1.0
  H  H2456  1  0.090067  0.384233  0.852933  1.0
  H  H2457  1  0.294167  0.909933  0.852933  1.0
  H  H2458  1  0.243267  0.960833  0.313733  1.0
  H  H2459  1  0.039167  0.282433  0.313733  1.0
  H  H2460  1  0.717567  0.756733  0.313733  1.0
  H  H2461  1  0.050900  0.721800  0.510500  1.0
  H  H2462  1  0.670900  0.949100  0.510500  1.0
  H  H2463  1  0.278200  0.329100  0.510500  1.0
  H  H2464  1  0.329100  0.278200  0.989500  1.0
  H  H2465  1  0.721800  0.050900  0.989500  1.0
  H  H2466  1  0.949100  0.670900  0.989500  1.0
  H  H2467  1  0.384233  0.388467  0.177167  1.0
  H  H2468  1  0.004233  0.615767  0.177167  1.0
  H  H2469  1  0.611533  0.995767  0.177167  1.0
  H  H2470  1  0.662433  0.944867  0.656167  1.0
  H  H2471  1  0.055133  0.717567  0.656167  1.0
  H  H2472  1  0.282433  0.337567  0.656167  1.0
  H  H2473  1  0.717567  0.055133  0.843833  1.0
  H  H2474  1  0.337567  0.282433  0.843833  1.0
  H  H2475  1  0.944867  0.662433  0.843833  1.0
  H  H2476  1  0.995767  0.611533  0.322833  1.0
  H  H2477  1  0.388467  0.384233  0.322833  1.0
  H  H2478  1  0.615767  0.004233  0.322833  1.0
  H  H2479  1  0.949100  0.278200  0.489500  1.0
  H  H2480  1  0.329100  0.050900  0.489500  1.0
  H  H2481  1  0.721800  0.670900  0.489500  1.0
  H  H2482  1  0.670900  0.721800  0.010500  1.0
  H  H2483  1  0.278200  0.949100  0.010500  1.0
  H  H2484  1  0.050900  0.329100  0.010500  1.0
  H  H2485  1  0.282433  0.944867  0.156167  1.0
  H  H2486  1  0.662433  0.717567  0.156167  1.0
  H  H2487  1  0.055133  0.337567  0.156167  1.0
  H  H2488  1  0.004233  0.388467  0.677167  1.0
  H  H2489  1  0.611533  0.615767  0.677167  1.0
  H  H2490  1  0.384233  0.995767  0.677167  1.0
  H  H2491  1  0.615767  0.611533  0.822833  1.0
  H  H2492  1  0.995767  0.384233  0.822833  1.0
  H  H2493  1  0.388467  0.004233  0.822833  1.0
  H  H2494  1  0.337567  0.055133  0.343833  1.0
  H  H2495  1  0.944867  0.282433  0.343833  1.0
  H  H2496  1  0.717567  0.662433  0.343833  1.0
  H  H2497  1  0.018000  0.758700  0.520400  1.0
  H  H2498  1  0.740700  0.982000  0.520400  1.0
  H  H2499  1  0.241300  0.259300  0.520400  1.0
  H  H2500  1  0.259300  0.241300  0.979600  1.0
  H  H2501  1  0.758700  0.018000  0.979600  1.0
  H  H2502  1  0.982000  0.740700  0.979600  1.0
  H  H2503  1  0.351333  0.425367  0.187067  1.0
  H  H2504  1  0.074033  0.648667  0.187067  1.0
  H  H2505  1  0.574633  0.925967  0.187067  1.0
  H  H2506  1  0.592633  0.907967  0.646267  1.0
  H  H2507  1  0.092033  0.684667  0.646267  1.0
  H  H2508  1  0.315333  0.407367  0.646267  1.0
  H  H2509  1  0.684667  0.092033  0.853733  1.0
  H  H2510  1  0.407367  0.315333  0.853733  1.0
  H  H2511  1  0.907967  0.592633  0.853733  1.0
  H  H2512  1  0.925967  0.574633  0.312933  1.0
  H  H2513  1  0.425367  0.351333  0.312933  1.0
  H  H2514  1  0.648667  0.074033  0.312933  1.0
  H  H2515  1  0.982000  0.241300  0.479600  1.0
  H  H2516  1  0.259300  0.018000  0.479600  1.0
  H  H2517  1  0.758700  0.740700  0.479600  1.0
  H  H2518  1  0.740700  0.758700  0.020400  1.0
  H  H2519  1  0.241300  0.982000  0.020400  1.0
  H  H2520  1  0.018000  0.259300  0.020400  1.0
  H  H2521  1  0.315333  0.907967  0.146267  1.0
  H  H2522  1  0.592633  0.684667  0.146267  1.0
  H  H2523  1  0.092033  0.407367  0.146267  1.0
  H  H2524  1  0.074033  0.425367  0.687067  1.0
  H  H2525  1  0.574633  0.648667  0.687067  1.0
  H  H2526  1  0.351333  0.925967  0.687067  1.0
  H  H2527  1  0.648667  0.574633  0.812933  1.0
  H  H2528  1  0.925967  0.351333  0.812933  1.0
  H  H2529  1  0.425367  0.074033  0.812933  1.0
  H  H2530  1  0.407367  0.092033  0.353733  1.0
  H  H2531  1  0.907967  0.315333  0.353733  1.0
  H  H2532  1  0.684667  0.592633  0.353733  1.0
  H  H2533  1  0.011900  0.815900  0.520900  1.0
  H  H2534  1  0.804000  0.988100  0.520900  1.0
  H  H2535  1  0.184100  0.196000  0.520900  1.0
  H  H2536  1  0.196000  0.184100  0.979100  1.0
  H  H2537  1  0.815900  0.011900  0.979100  1.0
  H  H2538  1  0.988100  0.804000  0.979100  1.0
  H  H2539  1  0.345233  0.482567  0.187567  1.0
  H  H2540  1  0.137333  0.654767  0.187567  1.0
  H  H2541  1  0.517433  0.862667  0.187567  1.0
  H  H2542  1  0.529333  0.850767  0.645767  1.0
  H  H2543  1  0.149233  0.678567  0.645767  1.0
  H  H2544  1  0.321433  0.470667  0.645767  1.0
  H  H2545  1  0.678567  0.149233  0.854233  1.0
  H  H2546  1  0.470667  0.321433  0.854233  1.0
  H  H2547  1  0.850767  0.529333  0.854233  1.0
  H  H2548  1  0.862667  0.517433  0.312433  1.0
  H  H2549  1  0.482567  0.345233  0.312433  1.0
  H  H2550  1  0.654767  0.137333  0.312433  1.0
  H  H2551  1  0.988100  0.184100  0.479100  1.0
  H  H2552  1  0.196000  0.011900  0.479100  1.0
  H  H2553  1  0.815900  0.804000  0.479100  1.0
  H  H2554  1  0.804000  0.815900  0.020900  1.0
  H  H2555  1  0.184100  0.988100  0.020900  1.0
  H  H2556  1  0.011900  0.196000  0.020900  1.0
  H  H2557  1  0.321433  0.850767  0.145767  1.0
  H  H2558  1  0.529333  0.678567  0.145767  1.0
  H  H2559  1  0.149233  0.470667  0.145767  1.0
  H  H2560  1  0.137333  0.482567  0.687567  1.0
  H  H2561  1  0.517433  0.654767  0.687567  1.0
  H  H2562  1  0.345233  0.862667  0.687567  1.0
  H  H2563  1  0.654767  0.517433  0.812433  1.0
  H  H2564  1  0.862667  0.345233  0.812433  1.0
  H  H2565  1  0.482567  0.137333  0.812433  1.0
  H  H2566  1  0.470667  0.149233  0.354233  1.0
  H  H2567  1  0.850767  0.321433  0.354233  1.0
  H  H2568  1  0.678567  0.529333  0.354233  1.0
  H  H2569  1  0.039900  0.862400  0.505400  1.0
  H  H2570  1  0.822500  0.960100  0.505400  1.0
  H  H2571  1  0.137600  0.177500  0.505400  1.0
  H  H2572  1  0.177500  0.137600  0.994600  1.0
  H  H2573  1  0.862400  0.039900  0.994600  1.0
  H  H2574  1  0.960100  0.822500  0.994600  1.0
  H  H2575  1  0.373233  0.529067  0.172067  1.0
  H  H2576  1  0.155833  0.626767  0.172067  1.0
  H  H2577  1  0.470933  0.844167  0.172067  1.0
  H  H2578  1  0.510833  0.804267  0.661267  1.0
  H  H2579  1  0.195733  0.706567  0.661267  1.0
  H  H2580  1  0.293433  0.489167  0.661267  1.0
  H  H2581  1  0.706567  0.195733  0.838733  1.0
  H  H2582  1  0.489167  0.293433  0.838733  1.0
  H  H2583  1  0.804267  0.510833  0.838733  1.0
  H  H2584  1  0.844167  0.470933  0.327933  1.0
  H  H2585  1  0.529067  0.373233  0.327933  1.0
  H  H2586  1  0.626767  0.155833  0.327933  1.0
  H  H2587  1  0.960100  0.137600  0.494600  1.0
  H  H2588  1  0.177500  0.039900  0.494600  1.0
  H  H2589  1  0.862400  0.822500  0.494600  1.0
  H  H2590  1  0.822500  0.862400  0.005400  1.0
  H  H2591  1  0.137600  0.960100  0.005400  1.0
  H  H2592  1  0.039900  0.177500  0.005400  1.0
  H  H2593  1  0.293433  0.804267  0.161267  1.0
  H  H2594  1  0.510833  0.706567  0.161267  1.0
  H  H2595  1  0.195733  0.489167  0.161267  1.0
  H  H2596  1  0.155833  0.529067  0.672067  1.0
  H  H2597  1  0.470933  0.626767  0.672067  1.0
  H  H2598  1  0.373233  0.844167  0.672067  1.0
  H  H2599  1  0.626767  0.470933  0.827933  1.0
  H  H2600  1  0.844167  0.373233  0.827933  1.0
  H  H2601  1  0.529067  0.155833  0.827933  1.0
  H  H2602  1  0.489167  0.195733  0.338733  1.0
  H  H2603  1  0.804267  0.293433  0.338733  1.0
  H  H2604  1  0.706567  0.510833  0.338733  1.0
  H  H2605  1  0.081500  0.856200  0.491500  1.0
  H  H2606  1  0.774700  0.918500  0.491500  1.0
  H  H2607  1  0.143800  0.225300  0.491500  1.0
  H  H2608  1  0.225300  0.143800  0.008500  1.0
  H  H2609  1  0.856200  0.081500  0.008500  1.0
  H  H2610  1  0.918500  0.774700  0.008500  1.0
  H  H2611  1  0.414833  0.522867  0.158167  1.0
  H  H2612  1  0.108033  0.585167  0.158167  1.0
  H  H2613  1  0.477133  0.891967  0.158167  1.0
  H  H2614  1  0.558633  0.810467  0.675167  1.0
  H  H2615  1  0.189533  0.748167  0.675167  1.0
  H  H2616  1  0.251833  0.441367  0.675167  1.0
  H  H2617  1  0.748167  0.189533  0.824833  1.0
  H  H2618  1  0.441367  0.251833  0.824833  1.0
  H  H2619  1  0.810467  0.558633  0.824833  1.0
  H  H2620  1  0.891967  0.477133  0.341833  1.0
  H  H2621  1  0.522867  0.414833  0.341833  1.0
  H  H2622  1  0.585167  0.108033  0.341833  1.0
  H  H2623  1  0.918500  0.143800  0.508500  1.0
  H  H2624  1  0.225300  0.081500  0.508500  1.0
  H  H2625  1  0.856200  0.774700  0.508500  1.0
  H  H2626  1  0.774700  0.856200  0.991500  1.0
  H  H2627  1  0.143800  0.918500  0.991500  1.0
  H  H2628  1  0.081500  0.225300  0.991500  1.0
  H  H2629  1  0.251833  0.810467  0.175167  1.0
  H  H2630  1  0.558633  0.748167  0.175167  1.0
  H  H2631  1  0.189533  0.441367  0.175167  1.0
  H  H2632  1  0.108033  0.522867  0.658167  1.0
  H  H2633  1  0.477133  0.585167  0.658167  1.0
  H  H2634  1  0.414833  0.891967  0.658167  1.0
  H  H2635  1  0.585167  0.477133  0.841833  1.0
  H  H2636  1  0.891967  0.414833  0.841833  1.0
  H  H2637  1  0.522867  0.108033  0.841833  1.0
  H  H2638  1  0.441367  0.189533  0.324833  1.0
  H  H2639  1  0.810467  0.251833  0.324833  1.0
  H  H2640  1  0.748167  0.558633  0.324833  1.0
  H  H2641  1  0.211400  0.478500  0.447000  1.0
  H  H2642  1  0.267100  0.788600  0.447000  1.0
  H  H2643  1  0.521500  0.732900  0.447000  1.0
  H  H2644  1  0.732900  0.521500  0.053000  1.0
  H  H2645  1  0.478500  0.211400  0.053000  1.0
  H  H2646  1  0.788600  0.267100  0.053000  1.0
  H  H2647  1  0.544733  0.145167  0.113667  1.0
  H  H2648  1  0.600433  0.455267  0.113667  1.0
  H  H2649  1  0.854833  0.399567  0.113667  1.0
  H  H2650  1  0.066233  0.188167  0.719667  1.0
  H  H2651  1  0.811833  0.878067  0.719667  1.0
  H  H2652  1  0.121933  0.933767  0.719667  1.0
  H  H2653  1  0.878067  0.811833  0.780333  1.0
  H  H2654  1  0.933767  0.121933  0.780333  1.0
  H  H2655  1  0.188167  0.066233  0.780333  1.0
  H  H2656  1  0.399567  0.854833  0.386333  1.0
  H  H2657  1  0.145167  0.544733  0.386333  1.0
  H  H2658  1  0.455267  0.600433  0.386333  1.0
  H  H2659  1  0.788600  0.521500  0.553000  1.0
  H  H2660  1  0.732900  0.211400  0.553000  1.0
  H  H2661  1  0.478500  0.267100  0.553000  1.0
  H  H2662  1  0.267100  0.478500  0.947000  1.0
  H  H2663  1  0.521500  0.788600  0.947000  1.0
  H  H2664  1  0.211400  0.732900  0.947000  1.0
  H  H2665  1  0.121933  0.188167  0.219667  1.0
  H  H2666  1  0.066233  0.878067  0.219667  1.0
  H  H2667  1  0.811833  0.933767  0.219667  1.0
  H  H2668  1  0.600433  0.145167  0.613667  1.0
  H  H2669  1  0.854833  0.455267  0.613667  1.0
  H  H2670  1  0.544733  0.399567  0.613667  1.0
  H  H2671  1  0.455267  0.854833  0.886333  1.0
  H  H2672  1  0.399567  0.544733  0.886333  1.0
  H  H2673  1  0.145167  0.600433  0.886333  1.0
  H  H2674  1  0.933767  0.811833  0.280333  1.0
  H  H2675  1  0.188167  0.121933  0.280333  1.0
  H  H2676  1  0.878067  0.066233  0.280333  1.0
  H  H2677  1  0.184700  0.441900  0.455700  1.0
  H  H2678  1  0.257200  0.815300  0.455700  1.0
  H  H2679  1  0.558100  0.742800  0.455700  1.0
  H  H2680  1  0.742800  0.558100  0.044300  1.0
  H  H2681  1  0.441900  0.184700  0.044300  1.0
  H  H2682  1  0.815300  0.257200  0.044300  1.0
  H  H2683  1  0.518033  0.108567  0.122367  1.0
  H  H2684  1  0.590533  0.481967  0.122367  1.0
  H  H2685  1  0.891433  0.409467  0.122367  1.0
  H  H2686  1  0.076133  0.224767  0.710967  1.0
  H  H2687  1  0.775233  0.851367  0.710967  1.0
  H  H2688  1  0.148633  0.923867  0.710967  1.0
  H  H2689  1  0.851367  0.775233  0.789033  1.0
  H  H2690  1  0.923867  0.148633  0.789033  1.0
  H  H2691  1  0.224767  0.076133  0.789033  1.0
  H  H2692  1  0.409467  0.891433  0.377633  1.0
  H  H2693  1  0.108567  0.518033  0.377633  1.0
  H  H2694  1  0.481967  0.590533  0.377633  1.0
  H  H2695  1  0.815300  0.558100  0.544300  1.0
  H  H2696  1  0.742800  0.184700  0.544300  1.0
  H  H2697  1  0.441900  0.257200  0.544300  1.0
  H  H2698  1  0.257200  0.441900  0.955700  1.0
  H  H2699  1  0.558100  0.815300  0.955700  1.0
  H  H2700  1  0.184700  0.742800  0.955700  1.0
  H  H2701  1  0.148633  0.224767  0.210967  1.0
  H  H2702  1  0.076133  0.851367  0.210967  1.0
  H  H2703  1  0.775233  0.923867  0.210967  1.0
  H  H2704  1  0.590533  0.108567  0.622367  1.0
  H  H2705  1  0.891433  0.481967  0.622367  1.0
  H  H2706  1  0.518033  0.409467  0.622367  1.0
  H  H2707  1  0.481967  0.891433  0.877633  1.0
  H  H2708  1  0.409467  0.518033  0.877633  1.0
  H  H2709  1  0.108567  0.590533  0.877633  1.0
  H  H2710  1  0.923867  0.775233  0.289033  1.0
  H  H2711  1  0.224767  0.148633  0.289033  1.0
  H  H2712  1  0.851367  0.076133  0.289033  1.0
  H  H2713  1  0.224700  0.479100  0.460600  1.0
  H  H2714  1  0.254400  0.775300  0.460600  1.0
  H  H2715  1  0.520900  0.745600  0.460600  1.0
  H  H2716  1  0.745600  0.520900  0.039400  1.0
  H  H2717  1  0.479100  0.224700  0.039400  1.0
  H  H2718  1  0.775300  0.254400  0.039400  1.0
  H  H2719  1  0.558033  0.145767  0.127267  1.0
  H  H2720  1  0.587733  0.441967  0.127267  1.0
  H  H2721  1  0.854233  0.412267  0.127267  1.0
  H  H2722  1  0.078933  0.187567  0.706067  1.0
  H  H2723  1  0.812433  0.891367  0.706067  1.0
  H  H2724  1  0.108633  0.921067  0.706067  1.0
  H  H2725  1  0.891367  0.812433  0.793933  1.0
  H  H2726  1  0.921067  0.108633  0.793933  1.0
  H  H2727  1  0.187567  0.078933  0.793933  1.0
  H  H2728  1  0.412267  0.854233  0.372733  1.0
  H  H2729  1  0.145767  0.558033  0.372733  1.0
  H  H2730  1  0.441967  0.587733  0.372733  1.0
  H  H2731  1  0.775300  0.520900  0.539400  1.0
  H  H2732  1  0.745600  0.224700  0.539400  1.0
  H  H2733  1  0.479100  0.254400  0.539400  1.0
  H  H2734  1  0.254400  0.479100  0.960600  1.0
  H  H2735  1  0.520900  0.775300  0.960600  1.0
  H  H2736  1  0.224700  0.745600  0.960600  1.0
  H  H2737  1  0.108633  0.187567  0.206067  1.0
  H  H2738  1  0.078933  0.891367  0.206067  1.0
  H  H2739  1  0.812433  0.921067  0.206067  1.0
  H  H2740  1  0.587733  0.145767  0.627267  1.0
  H  H2741  1  0.854233  0.441967  0.627267  1.0
  H  H2742  1  0.558033  0.412267  0.627267  1.0
  H  H2743  1  0.441967  0.854233  0.872733  1.0
  H  H2744  1  0.412267  0.558033  0.872733  1.0
  H  H2745  1  0.145767  0.587733  0.872733  1.0
  H  H2746  1  0.921067  0.812433  0.293933  1.0
  H  H2747  1  0.187567  0.108633  0.293933  1.0
  H  H2748  1  0.891367  0.078933  0.293933  1.0
  H  H2749  1  0.170700  0.700800  0.464200  1.0
  H  H2750  1  0.530100  0.829300  0.464200  1.0
  H  H2751  1  0.299200  0.469900  0.464200  1.0
  H  H2752  1  0.469900  0.299200  0.035800  1.0
  H  H2753  1  0.700800  0.170700  0.035800  1.0
  H  H2754  1  0.829300  0.530100  0.035800  1.0
  H  H2755  1  0.504033  0.367467  0.130867  1.0
  H  H2756  1  0.863433  0.495967  0.130867  1.0
  H  H2757  1  0.632533  0.136567  0.130867  1.0
  H  H2758  1  0.803233  0.965867  0.702467  1.0
  H  H2759  1  0.034133  0.837367  0.702467  1.0
  H  H2760  1  0.162633  0.196767  0.702467  1.0
  H  H2761  1  0.837367  0.034133  0.797533  1.0
  H  H2762  1  0.196767  0.162633  0.797533  1.0
  H  H2763  1  0.965867  0.803233  0.797533  1.0
  H  H2764  1  0.136567  0.632533  0.369133  1.0
  H  H2765  1  0.367467  0.504033  0.369133  1.0
  H  H2766  1  0.495967  0.863433  0.369133  1.0
  H  H2767  1  0.829300  0.299200  0.535800  1.0
  H  H2768  1  0.469900  0.170700  0.535800  1.0
  H  H2769  1  0.700800  0.530100  0.535800  1.0
  H  H2770  1  0.530100  0.700800  0.964200  1.0
  H  H2771  1  0.299200  0.829300  0.964200  1.0
  H  H2772  1  0.170700  0.469900  0.964200  1.0
  H  H2773  1  0.162633  0.965867  0.202467  1.0
  H  H2774  1  0.803233  0.837367  0.202467  1.0
  H  H2775  1  0.034133  0.196767  0.202467  1.0
  H  H2776  1  0.863433  0.367467  0.630867  1.0
  H  H2777  1  0.632533  0.495967  0.630867  1.0
  H  H2778  1  0.504033  0.136567  0.630867  1.0
  H  H2779  1  0.495967  0.632533  0.869133  1.0
  H  H2780  1  0.136567  0.504033  0.869133  1.0
  H  H2781  1  0.367467  0.863433  0.869133  1.0
  H  H2782  1  0.196767  0.034133  0.297533  1.0
  H  H2783  1  0.965867  0.162633  0.297533  1.0
  H  H2784  1  0.837367  0.803233  0.297533  1.0
  H  H2785  1  0.147900  0.690400  0.476800  1.0
  H  H2786  1  0.542500  0.852100  0.476800  1.0
  H  H2787  1  0.309600  0.457500  0.476800  1.0
  H  H2788  1  0.457500  0.309600  0.023200  1.0
  H  H2789  1  0.690400  0.147900  0.023200  1.0
  H  H2790  1  0.852100  0.542500  0.023200  1.0
  H  H2791  1  0.481233  0.357067  0.143467  1.0
  H  H2792  1  0.875833  0.518767  0.143467  1.0
  H  H2793  1  0.642933  0.124167  0.143467  1.0
  H  H2794  1  0.790833  0.976267  0.689867  1.0
  H  H2795  1  0.023733  0.814567  0.689867  1.0
  H  H2796  1  0.185433  0.209167  0.689867  1.0
  H  H2797  1  0.814567  0.023733  0.810133  1.0
  H  H2798  1  0.209167  0.185433  0.810133  1.0
  H  H2799  1  0.976267  0.790833  0.810133  1.0
  H  H2800  1  0.124167  0.642933  0.356533  1.0
  H  H2801  1  0.357067  0.481233  0.356533  1.0
  H  H2802  1  0.518767  0.875833  0.356533  1.0
  H  H2803  1  0.852100  0.309600  0.523200  1.0
  H  H2804  1  0.457500  0.147900  0.523200  1.0
  H  H2805  1  0.690400  0.542500  0.523200  1.0
  H  H2806  1  0.542500  0.690400  0.976800  1.0
  H  H2807  1  0.309600  0.852100  0.976800  1.0
  H  H2808  1  0.147900  0.457500  0.976800  1.0
  H  H2809  1  0.185433  0.976267  0.189867  1.0
  H  H2810  1  0.790833  0.814567  0.189867  1.0
  H  H2811  1  0.023733  0.209167  0.189867  1.0
  H  H2812  1  0.875833  0.357067  0.643467  1.0
  H  H2813  1  0.642933  0.518767  0.643467  1.0
  H  H2814  1  0.481233  0.124167  0.643467  1.0
  H  H2815  1  0.518767  0.642933  0.856533  1.0
  H  H2816  1  0.124167  0.481233  0.856533  1.0
  H  H2817  1  0.357067  0.875833  0.856533  1.0
  H  H2818  1  0.209167  0.023733  0.310133  1.0
  H  H2819  1  0.976267  0.185433  0.310133  1.0
  H  H2820  1  0.814567  0.790833  0.310133  1.0
  H  H2821  1  0.123700  0.684000  0.464600  1.0
  H  H2822  1  0.560300  0.876300  0.464600  1.0
  H  H2823  1  0.316000  0.439700  0.464600  1.0
  H  H2824  1  0.439700  0.316000  0.035400  1.0
  H  H2825  1  0.684000  0.123700  0.035400  1.0
  H  H2826  1  0.876300  0.560300  0.035400  1.0
  H  H2827  1  0.457033  0.350667  0.131267  1.0
  H  H2828  1  0.893633  0.542967  0.131267  1.0
  H  H2829  1  0.649333  0.106367  0.131267  1.0
  H  H2830  1  0.773033  0.982667  0.702067  1.0
  H  H2831  1  0.017333  0.790367  0.702067  1.0
  H  H2832  1  0.209633  0.226967  0.702067  1.0
  H  H2833  1  0.790367  0.017333  0.797933  1.0
  H  H2834  1  0.226967  0.209633  0.797933  1.0
  H  H2835  1  0.982667  0.773033  0.797933  1.0
  H  H2836  1  0.106367  0.649333  0.368733  1.0
  H  H2837  1  0.350667  0.457033  0.368733  1.0
  H  H2838  1  0.542967  0.893633  0.368733  1.0
  H  H2839  1  0.876300  0.316000  0.535400  1.0
  H  H2840  1  0.439700  0.123700  0.535400  1.0
  H  H2841  1  0.684000  0.560300  0.535400  1.0
  H  H2842  1  0.560300  0.684000  0.964600  1.0
  H  H2843  1  0.316000  0.876300  0.964600  1.0
  H  H2844  1  0.123700  0.439700  0.964600  1.0
  H  H2845  1  0.209633  0.982667  0.202067  1.0
  H  H2846  1  0.773033  0.790367  0.202067  1.0
  H  H2847  1  0.017333  0.226967  0.202067  1.0
  H  H2848  1  0.893633  0.350667  0.631267  1.0
  H  H2849  1  0.649333  0.542967  0.631267  1.0
  H  H2850  1  0.457033  0.106367  0.631267  1.0
  H  H2851  1  0.542967  0.649333  0.868733  1.0
  H  H2852  1  0.106367  0.457033  0.868733  1.0
  H  H2853  1  0.350667  0.893633  0.868733  1.0
  H  H2854  1  0.226967  0.017333  0.297933  1.0
  H  H2855  1  0.982667  0.209633  0.297933  1.0
  H  H2856  1  0.790367  0.773033  0.297933  1.0
  H  H2857  1  0.038900  0.611300  0.506600  1.0
  H  H2858  1  0.572400  0.961100  0.506600  1.0
  H  H2859  1  0.388700  0.427600  0.506600  1.0
  H  H2860  1  0.427600  0.388700  0.993400  1.0
  H  H2861  1  0.611300  0.038900  0.993400  1.0
  H  H2862  1  0.961100  0.572400  0.993400  1.0
  H  H2863  1  0.372233  0.277967  0.173267  1.0
  H  H2864  1  0.905733  0.627767  0.173267  1.0
  H  H2865  1  0.722033  0.094267  0.173267  1.0
  H  H2866  1  0.760933  0.055367  0.660067  1.0
  H  H2867  1  0.944633  0.705567  0.660067  1.0
  H  H2868  1  0.294433  0.239067  0.660067  1.0
  H  H2869  1  0.705567  0.944633  0.839933  1.0
  H  H2870  1  0.239067  0.294433  0.839933  1.0
  H  H2871  1  0.055367  0.760933  0.839933  1.0
  H  H2872  1  0.094267  0.722033  0.326733  1.0
  H  H2873  1  0.277967  0.372233  0.326733  1.0
  H  H2874  1  0.627767  0.905733  0.326733  1.0
  H  H2875  1  0.961100  0.388700  0.493400  1.0
  H  H2876  1  0.427600  0.038900  0.493400  1.0
  H  H2877  1  0.611300  0.572400  0.493400  1.0
  H  H2878  1  0.572400  0.611300  0.006600  1.0
  H  H2879  1  0.388700  0.961100  0.006600  1.0
  H  H2880  1  0.038900  0.427600  0.006600  1.0
  H  H2881  1  0.294433  0.055367  0.160067  1.0
  H  H2882  1  0.760933  0.705567  0.160067  1.0
  H  H2883  1  0.944633  0.239067  0.160067  1.0
  H  H2884  1  0.905733  0.277967  0.673267  1.0
  H  H2885  1  0.722033  0.627767  0.673267  1.0
  H  H2886  1  0.372233  0.094267  0.673267  1.0
  H  H2887  1  0.627767  0.722033  0.826733  1.0
  H  H2888  1  0.094267  0.372233  0.826733  1.0
  H  H2889  1  0.277967  0.905733  0.826733  1.0
  H  H2890  1  0.239067  0.944633  0.339933  1.0
  H  H2891  1  0.055367  0.294433  0.339933  1.0
  H  H2892  1  0.705567  0.760933  0.339933  1.0
  H  H2893  1  0.079100  0.625300  0.514000  1.0
  H  H2894  1  0.546200  0.920900  0.514000  1.0
  H  H2895  1  0.374700  0.453800  0.514000  1.0
  H  H2896  1  0.453800  0.374700  0.986000  1.0
  H  H2897  1  0.625300  0.079100  0.986000  1.0
  H  H2898  1  0.920900  0.546200  0.986000  1.0
  H  H2899  1  0.412433  0.291967  0.180667  1.0
  H  H2900  1  0.879533  0.587567  0.180667  1.0
  H  H2901  1  0.708033  0.120467  0.180667  1.0
  H  H2902  1  0.787133  0.041367  0.652667  1.0
  H  H2903  1  0.958633  0.745767  0.652667  1.0
  H  H2904  1  0.254233  0.212867  0.652667  1.0
  H  H2905  1  0.745767  0.958633  0.847333  1.0
  H  H2906  1  0.212867  0.254233  0.847333  1.0
  H  H2907  1  0.041367  0.787133  0.847333  1.0
  H  H2908  1  0.120467  0.708033  0.319333  1.0
  H  H2909  1  0.291967  0.412433  0.319333  1.0
  H  H2910  1  0.587567  0.879533  0.319333  1.0
  H  H2911  1  0.920900  0.374700  0.486000  1.0
  H  H2912  1  0.453800  0.079100  0.486000  1.0
  H  H2913  1  0.625300  0.546200  0.486000  1.0
  H  H2914  1  0.546200  0.625300  0.014000  1.0
  H  H2915  1  0.374700  0.920900  0.014000  1.0
  H  H2916  1  0.079100  0.453800  0.014000  1.0
  H  H2917  1  0.254233  0.041367  0.152667  1.0
  H  H2918  1  0.787133  0.745767  0.152667  1.0
  H  H2919  1  0.958633  0.212867  0.152667  1.0
  H  H2920  1  0.879533  0.291967  0.680667  1.0
  H  H2921  1  0.708033  0.587567  0.680667  1.0
  H  H2922  1  0.412433  0.120467  0.680667  1.0
  H  H2923  1  0.587567  0.708033  0.819333  1.0
  H  H2924  1  0.120467  0.412433  0.819333  1.0
  H  H2925  1  0.291967  0.879533  0.819333  1.0
  H  H2926  1  0.212867  0.958633  0.347333  1.0
  H  H2927  1  0.041367  0.254233  0.347333  1.0
  H  H2928  1  0.745767  0.787133  0.347333  1.0
  H  H2929  1  0.037700  0.590200  0.519100  1.0
  H  H2930  1  0.552500  0.962300  0.519100  1.0
  H  H2931  1  0.409800  0.447500  0.519100  1.0
  H  H2932  1  0.447500  0.409800  0.980900  1.0
  H  H2933  1  0.590200  0.037700  0.980900  1.0
  H  H2934  1  0.962300  0.552500  0.980900  1.0
  H  H2935  1  0.371033  0.256867  0.185767  1.0
  H  H2936  1  0.885833  0.628967  0.185767  1.0
  H  H2937  1  0.743133  0.114167  0.185767  1.0
  H  H2938  1  0.780833  0.076467  0.647567  1.0
  H  H2939  1  0.923533  0.704367  0.647567  1.0
  H  H2940  1  0.295633  0.219167  0.647567  1.0
  H  H2941  1  0.704367  0.923533  0.852433  1.0
  H  H2942  1  0.219167  0.295633  0.852433  1.0
  H  H2943  1  0.076467  0.780833  0.852433  1.0
  H  H2944  1  0.114167  0.743133  0.314233  1.0
  H  H2945  1  0.256867  0.371033  0.314233  1.0
  H  H2946  1  0.628967  0.885833  0.314233  1.0
  H  H2947  1  0.962300  0.409800  0.480900  1.0
  H  H2948  1  0.447500  0.037700  0.480900  1.0
  H  H2949  1  0.590200  0.552500  0.480900  1.0
  H  H2950  1  0.552500  0.590200  0.019100  1.0
  H  H2951  1  0.409800  0.962300  0.019100  1.0
  H  H2952  1  0.037700  0.447500  0.019100  1.0
  H  H2953  1  0.295633  0.076467  0.147567  1.0
  H  H2954  1  0.780833  0.704367  0.147567  1.0
  H  H2955  1  0.923533  0.219167  0.147567  1.0
  H  H2956  1  0.885833  0.256867  0.685767  1.0
  H  H2957  1  0.743133  0.628967  0.685767  1.0
  H  H2958  1  0.371033  0.114167  0.685767  1.0
  H  H2959  1  0.628967  0.743133  0.814233  1.0
  H  H2960  1  0.114167  0.371033  0.814233  1.0
  H  H2961  1  0.256867  0.885833  0.814233  1.0
  H  H2962  1  0.219167  0.923533  0.352433  1.0
  H  H2963  1  0.076467  0.295633  0.352433  1.0
  H  H2964  1  0.704367  0.780833  0.352433  1.0
  H  H2965  1  0.999000  0.485100  0.518200  1.0
  H  H2966  1  0.486100  0.001000  0.518200  1.0
  H  H2967  1  0.514900  0.513900  0.518200  1.0
  H  H2968  1  0.513900  0.514900  0.981800  1.0
  H  H2969  1  0.485100  0.999000  0.981800  1.0
  H  H2970  1  0.001000  0.486100  0.981800  1.0
  H  H2971  1  0.332333  0.151767  0.184867  1.0
  H  H2972  1  0.819433  0.667667  0.184867  1.0
  H  H2973  1  0.848233  0.180567  0.184867  1.0
  H  H2974  1  0.847233  0.181567  0.648467  1.0
  H  H2975  1  0.818433  0.665667  0.648467  1.0
  H  H2976  1  0.334333  0.152767  0.648467  1.0
  H  H2977  1  0.665667  0.818433  0.851533  1.0
  H  H2978  1  0.152767  0.334333  0.851533  1.0
  H  H2979  1  0.181567  0.847233  0.851533  1.0
  H  H2980  1  0.180567  0.848233  0.315133  1.0
  H  H2981  1  0.151767  0.332333  0.315133  1.0
  H  H2982  1  0.667667  0.819433  0.315133  1.0
  H  H2983  1  0.001000  0.514900  0.481800  1.0
  H  H2984  1  0.513900  0.999000  0.481800  1.0
  H  H2985  1  0.485100  0.486100  0.481800  1.0
  H  H2986  1  0.486100  0.485100  0.018200  1.0
  H  H2987  1  0.514900  0.001000  0.018200  1.0
  H  H2988  1  0.999000  0.513900  0.018200  1.0
  H  H2989  1  0.334333  0.181567  0.148467  1.0
  H  H2990  1  0.847233  0.665667  0.148467  1.0
  H  H2991  1  0.818433  0.152767  0.148467  1.0
  H  H2992  1  0.819433  0.151767  0.684867  1.0
  H  H2993  1  0.848233  0.667667  0.684867  1.0
  H  H2994  1  0.332333  0.180567  0.684867  1.0
  H  H2995  1  0.667667  0.848233  0.815133  1.0
  H  H2996  1  0.180567  0.332333  0.815133  1.0
  H  H2997  1  0.151767  0.819433  0.815133  1.0
  H  H2998  1  0.152767  0.818433  0.351533  1.0
  H  H2999  1  0.181567  0.334333  0.351533  1.0
  H  H3000  1  0.665667  0.847233  0.351533  1.0
  H  H3001  1  0.997600  0.525200  0.520400  1.0
  H  H3002  1  0.527600  0.002400  0.520400  1.0
  H  H3003  1  0.474800  0.472400  0.520400  1.0
  H  H3004  1  0.472400  0.474800  0.979600  1.0
  H  H3005  1  0.525200  0.997600  0.979600  1.0
  H  H3006  1  0.002400  0.527600  0.979600  1.0
  H  H3007  1  0.330933  0.191867  0.187067  1.0
  H  H3008  1  0.860933  0.669067  0.187067  1.0
  H  H3009  1  0.808133  0.139067  0.187067  1.0
  H  H3010  1  0.805733  0.141467  0.646267  1.0
  H  H3011  1  0.858533  0.664267  0.646267  1.0
  H  H3012  1  0.335733  0.194267  0.646267  1.0
  H  H3013  1  0.664267  0.858533  0.853733  1.0
  H  H3014  1  0.194267  0.335733  0.853733  1.0
  H  H3015  1  0.141467  0.805733  0.853733  1.0
  H  H3016  1  0.139067  0.808133  0.312933  1.0
  H  H3017  1  0.191867  0.330933  0.312933  1.0
  H  H3018  1  0.669067  0.860933  0.312933  1.0
  H  H3019  1  0.002400  0.474800  0.479600  1.0
  H  H3020  1  0.472400  0.997600  0.479600  1.0
  H  H3021  1  0.525200  0.527600  0.479600  1.0
  H  H3022  1  0.527600  0.525200  0.020400  1.0
  H  H3023  1  0.474800  0.002400  0.020400  1.0
  H  H3024  1  0.997600  0.472400  0.020400  1.0
  H  H3025  1  0.335733  0.141467  0.146267  1.0
  H  H3026  1  0.805733  0.664267  0.146267  1.0
  H  H3027  1  0.858533  0.194267  0.146267  1.0
  H  H3028  1  0.860933  0.191867  0.687067  1.0
  H  H3029  1  0.808133  0.669067  0.687067  1.0
  H  H3030  1  0.330933  0.139067  0.687067  1.0
  H  H3031  1  0.669067  0.808133  0.812933  1.0
  H  H3032  1  0.139067  0.330933  0.812933  1.0
  H  H3033  1  0.191867  0.860933  0.812933  1.0
  H  H3034  1  0.194267  0.858533  0.353733  1.0
  H  H3035  1  0.141467  0.335733  0.353733  1.0
  H  H3036  1  0.664267  0.805733  0.353733  1.0
  H  H3037  1  0.062100  0.515500  0.529500  1.0
  H  H3038  1  0.453400  0.937900  0.529500  1.0
  H  H3039  1  0.484500  0.546600  0.529500  1.0
  H  H3040  1  0.546600  0.484500  0.970500  1.0
  H  H3041  1  0.515500  0.062100  0.970500  1.0
  H  H3042  1  0.937900  0.453400  0.970500  1.0
  H  H3043  1  0.395433  0.182167  0.196167  1.0
  H  H3044  1  0.786733  0.604567  0.196167  1.0
  H  H3045  1  0.817833  0.213267  0.196167  1.0
  H  H3046  1  0.879933  0.151167  0.637167  1.0
  H  H3047  1  0.848833  0.728767  0.637167  1.0
  H  H3048  1  0.271233  0.120067  0.637167  1.0
  H  H3049  1  0.728767  0.848833  0.862833  1.0
  H  H3050  1  0.120067  0.271233  0.862833  1.0
  H  H3051  1  0.151167  0.879933  0.862833  1.0
  H  H3052  1  0.213267  0.817833  0.303833  1.0
  H  H3053  1  0.182167  0.395433  0.303833  1.0
  H  H3054  1  0.604567  0.786733  0.303833  1.0
  H  H3055  1  0.937900  0.484500  0.470500  1.0
  H  H3056  1  0.546600  0.062100  0.470500  1.0
  H  H3057  1  0.515500  0.453400  0.470500  1.0
  H  H3058  1  0.453400  0.515500  0.029500  1.0
  H  H3059  1  0.484500  0.937900  0.029500  1.0
  H  H3060  1  0.062100  0.546600  0.029500  1.0
  H  H3061  1  0.271233  0.151167  0.137167  1.0
  H  H3062  1  0.879933  0.728767  0.137167  1.0
  H  H3063  1  0.848833  0.120067  0.137167  1.0
  H  H3064  1  0.786733  0.182167  0.696167  1.0
  H  H3065  1  0.817833  0.604567  0.696167  1.0
  H  H3066  1  0.395433  0.213267  0.696167  1.0
  H  H3067  1  0.604567  0.817833  0.803833  1.0
  H  H3068  1  0.213267  0.395433  0.803833  1.0
  H  H3069  1  0.182167  0.786733  0.803833  1.0
  H  H3070  1  0.120067  0.848833  0.362833  1.0
  H  H3071  1  0.151167  0.271233  0.362833  1.0
  H  H3072  1  0.728767  0.879933  0.362833  1.0
  H  H3073  1  0.024900  0.507200  0.537700  1.0
  H  H3074  1  0.482300  0.975100  0.537700  1.0
  H  H3075  1  0.492800  0.517700  0.537700  1.0
  H  H3076  1  0.517700  0.492800  0.962300  1.0
  H  H3077  1  0.507200  0.024900  0.962300  1.0
  H  H3078  1  0.975100  0.482300  0.962300  1.0
  H  H3079  1  0.358233  0.173867  0.204367  1.0
  H  H3080  1  0.815633  0.641767  0.204367  1.0
  H  H3081  1  0.826133  0.184367  0.204367  1.0
  H  H3082  1  0.851033  0.159467  0.628967  1.0
  H  H3083  1  0.840533  0.691567  0.628967  1.0
  H  H3084  1  0.308433  0.148967  0.628967  1.0
  H  H3085  1  0.691567  0.840533  0.871033  1.0
  H  H3086  1  0.148967  0.308433  0.871033  1.0
  H  H3087  1  0.159467  0.851033  0.871033  1.0
  H  H3088  1  0.184367  0.826133  0.295633  1.0
  H  H3089  1  0.173867  0.358233  0.295633  1.0
  H  H3090  1  0.641767  0.815633  0.295633  1.0
  H  H3091  1  0.975100  0.492800  0.462300  1.0
  H  H3092  1  0.517700  0.024900  0.462300  1.0
  H  H3093  1  0.507200  0.482300  0.462300  1.0
  H  H3094  1  0.482300  0.507200  0.037700  1.0
  H  H3095  1  0.492800  0.975100  0.037700  1.0
  H  H3096  1  0.024900  0.517700  0.037700  1.0
  H  H3097  1  0.308433  0.159467  0.128967  1.0
  H  H3098  1  0.851033  0.691567  0.128967  1.0
  H  H3099  1  0.840533  0.148967  0.128967  1.0
  H  H3100  1  0.815633  0.173867  0.704367  1.0
  H  H3101  1  0.826133  0.641767  0.704367  1.0
  H  H3102  1  0.358233  0.184367  0.704367  1.0
  H  H3103  1  0.641767  0.826133  0.795633  1.0
  H  H3104  1  0.184367  0.358233  0.795633  1.0
  H  H3105  1  0.173867  0.815633  0.795633  1.0
  H  H3106  1  0.148967  0.840533  0.371033  1.0
  H  H3107  1  0.159467  0.308433  0.371033  1.0
  H  H3108  1  0.691567  0.851033  0.371033  1.0
  H  H3109  1  0.054500  0.551200  0.532900  1.0
  H  H3110  1  0.496700  0.945500  0.532900  1.0
  H  H3111  1  0.448800  0.503300  0.532900  1.0
  H  H3112  1  0.503300  0.448800  0.967100  1.0
  H  H3113  1  0.551200  0.054500  0.967100  1.0
  H  H3114  1  0.945500  0.496700  0.967100  1.0
  H  H3115  1  0.387833  0.217867  0.199567  1.0
  H  H3116  1  0.830033  0.612167  0.199567  1.0
  H  H3117  1  0.782133  0.169967  0.199567  1.0
  H  H3118  1  0.836633  0.115467  0.633767  1.0
  H  H3119  1  0.884533  0.721167  0.633767  1.0
  H  H3120  1  0.278833  0.163367  0.633767  1.0
  H  H3121  1  0.721167  0.884533  0.866233  1.0
  H  H3122  1  0.163367  0.278833  0.866233  1.0
  H  H3123  1  0.115467  0.836633  0.866233  1.0
  H  H3124  1  0.169967  0.782133  0.300433  1.0
  H  H3125  1  0.217867  0.387833  0.300433  1.0
  H  H3126  1  0.612167  0.830033  0.300433  1.0
  H  H3127  1  0.945500  0.448800  0.467100  1.0
  H  H3128  1  0.503300  0.054500  0.467100  1.0
  H  H3129  1  0.551200  0.496700  0.467100  1.0
  H  H3130  1  0.496700  0.551200  0.032900  1.0
  H  H3131  1  0.448800  0.945500  0.032900  1.0
  H  H3132  1  0.054500  0.503300  0.032900  1.0
  H  H3133  1  0.278833  0.115467  0.133767  1.0
  H  H3134  1  0.836633  0.721167  0.133767  1.0
  H  H3135  1  0.884533  0.163367  0.133767  1.0
  H  H3136  1  0.830033  0.217867  0.699567  1.0
  H  H3137  1  0.782133  0.612167  0.699567  1.0
  H  H3138  1  0.387833  0.169967  0.699567  1.0
  H  H3139  1  0.612167  0.782133  0.800433  1.0
  H  H3140  1  0.169967  0.387833  0.800433  1.0
  H  H3141  1  0.217867  0.830033  0.800433  1.0
  H  H3142  1  0.163367  0.884533  0.366233  1.0
  H  H3143  1  0.115467  0.278833  0.366233  1.0
  H  H3144  1  0.721167  0.836633  0.366233  1.0
  H  H3145  1  0.044300  0.369800  0.509000  1.0
  H  H3146  1  0.325500  0.955700  0.509000  1.0
  H  H3147  1  0.630200  0.674500  0.509000  1.0
  H  H3148  1  0.674500  0.630200  0.991000  1.0
  H  H3149  1  0.369800  0.044300  0.991000  1.0
  H  H3150  1  0.955700  0.325500  0.991000  1.0
  H  H3151  1  0.377633  0.036467  0.175667  1.0
  H  H3152  1  0.658833  0.622367  0.175667  1.0
  H  H3153  1  0.963533  0.341167  0.175667  1.0
  H  H3154  1  0.007833  0.296867  0.657667  1.0
  H  H3155  1  0.703133  0.710967  0.657667  1.0
  H  H3156  1  0.289033  0.992167  0.657667  1.0
  H  H3157  1  0.710967  0.703133  0.842333  1.0
  H  H3158  1  0.992167  0.289033  0.842333  1.0
  H  H3159  1  0.296867  0.007833  0.842333  1.0
  H  H3160  1  0.341167  0.963533  0.324333  1.0
  H  H3161  1  0.036467  0.377633  0.324333  1.0
  H  H3162  1  0.622367  0.658833  0.324333  1.0
  H  H3163  1  0.955700  0.630200  0.491000  1.0
  H  H3164  1  0.674500  0.044300  0.491000  1.0
  H  H3165  1  0.369800  0.325500  0.491000  1.0
  H  H3166  1  0.325500  0.369800  0.009000  1.0
  H  H3167  1  0.630200  0.955700  0.009000  1.0
  H  H3168  1  0.044300  0.674500  0.009000  1.0
  H  H3169  1  0.289033  0.296867  0.157667  1.0
  H  H3170  1  0.007833  0.710967  0.157667  1.0
  H  H3171  1  0.703133  0.992167  0.157667  1.0
  H  H3172  1  0.658833  0.036467  0.675667  1.0
  H  H3173  1  0.963533  0.622367  0.675667  1.0
  H  H3174  1  0.377633  0.341167  0.675667  1.0
  H  H3175  1  0.622367  0.963533  0.824333  1.0
  H  H3176  1  0.341167  0.377633  0.824333  1.0
  H  H3177  1  0.036467  0.658833  0.824333  1.0
  H  H3178  1  0.992167  0.703133  0.342333  1.0
  H  H3179  1  0.296867  0.289033  0.342333  1.0
  H  H3180  1  0.710967  0.007833  0.342333  1.0
  H  H3181  1  0.019600  0.393000  0.508900  1.0
  H  H3182  1  0.373400  0.980400  0.508900  1.0
  H  H3183  1  0.607000  0.626600  0.508900  1.0
  H  H3184  1  0.626600  0.607000  0.991100  1.0
  H  H3185  1  0.393000  0.019600  0.991100  1.0
  H  H3186  1  0.980400  0.373400  0.991100  1.0
  H  H3187  1  0.352933  0.059667  0.175567  1.0
  H  H3188  1  0.706733  0.647067  0.175567  1.0
  H  H3189  1  0.940333  0.293267  0.175567  1.0
  H  H3190  1  0.959933  0.273667  0.657767  1.0
  H  H3191  1  0.726333  0.686267  0.657767  1.0
  H  H3192  1  0.313733  0.040067  0.657767  1.0
  H  H3193  1  0.686267  0.726333  0.842233  1.0
  H  H3194  1  0.040067  0.313733  0.842233  1.0
  H  H3195  1  0.273667  0.959933  0.842233  1.0
  H  H3196  1  0.293267  0.940333  0.324433  1.0
  H  H3197  1  0.059667  0.352933  0.324433  1.0
  H  H3198  1  0.647067  0.706733  0.324433  1.0
  H  H3199  1  0.980400  0.607000  0.491100  1.0
  H  H3200  1  0.626600  0.019600  0.491100  1.0
  H  H3201  1  0.393000  0.373400  0.491100  1.0
  H  H3202  1  0.373400  0.393000  0.008900  1.0
  H  H3203  1  0.607000  0.980400  0.008900  1.0
  H  H3204  1  0.019600  0.626600  0.008900  1.0
  H  H3205  1  0.313733  0.273667  0.157767  1.0
  H  H3206  1  0.959933  0.686267  0.157767  1.0
  H  H3207  1  0.726333  0.040067  0.157767  1.0
  H  H3208  1  0.706733  0.059667  0.675567  1.0
  H  H3209  1  0.940333  0.647067  0.675567  1.0
  H  H3210  1  0.352933  0.293267  0.675567  1.0
  H  H3211  1  0.647067  0.940333  0.824433  1.0
  H  H3212  1  0.293267  0.352933  0.824433  1.0
  H  H3213  1  0.059667  0.706733  0.824433  1.0
  H  H3214  1  0.040067  0.726333  0.342233  1.0
  H  H3215  1  0.273667  0.313733  0.342233  1.0
  H  H3216  1  0.686267  0.959933  0.342233  1.0
  H  H3217  1  0.055600  0.389000  0.528600  1.0
  H  H3218  1  0.333400  0.944400  0.528600  1.0
  H  H3219  1  0.611000  0.666600  0.528600  1.0
  H  H3220  1  0.666600  0.611000  0.971400  1.0
  H  H3221  1  0.389000  0.055600  0.971400  1.0
  H  H3222  1  0.944400  0.333400  0.971400  1.0
  H  H3223  1  0.388933  0.055667  0.195267  1.0
  H  H3224  1  0.666733  0.611067  0.195267  1.0
  H  H3225  1  0.944333  0.333267  0.195267  1.0
  H  H3226  1  0.999933  0.277667  0.638067  1.0
  H  H3227  1  0.722333  0.722267  0.638067  1.0
  H  H3228  1  0.277733  0.000067  0.638067  1.0
  H  H3229  1  0.722267  0.722333  0.861933  1.0
  H  H3230  1  0.000067  0.277733  0.861933  1.0
  H  H3231  1  0.277667  0.999933  0.861933  1.0
  H  H3232  1  0.333267  0.944333  0.304733  1.0
  H  H3233  1  0.055667  0.388933  0.304733  1.0
  H  H3234  1  0.611067  0.666733  0.304733  1.0
  H  H3235  1  0.944400  0.611000  0.471400  1.0
  H  H3236  1  0.666600  0.055600  0.471400  1.0
  H  H3237  1  0.389000  0.333400  0.471400  1.0
  H  H3238  1  0.333400  0.389000  0.028600  1.0
  H  H3239  1  0.611000  0.944400  0.028600  1.0
  H  H3240  1  0.055600  0.666600  0.028600  1.0
  H  H3241  1  0.277733  0.277667  0.138067  1.0
  H  H3242  1  0.999933  0.722267  0.138067  1.0
  H  H3243  1  0.722333  0.000067  0.138067  1.0
  H  H3244  1  0.666733  0.055667  0.695267  1.0
  H  H3245  1  0.944333  0.611067  0.695267  1.0
  H  H3246  1  0.388933  0.333267  0.695267  1.0
  H  H3247  1  0.611067  0.944333  0.804733  1.0
  H  H3248  1  0.333267  0.388933  0.804733  1.0
  H  H3249  1  0.055667  0.666733  0.804733  1.0
  H  H3250  1  0.000067  0.722333  0.361933  1.0
  H  H3251  1  0.277667  0.277733  0.361933  1.0
  H  H3252  1  0.722267  0.999933  0.361933  1.0
  H  H3253  1  0.047000  0.424800  0.526400  1.0
  H  H3254  1  0.377800  0.953000  0.526400  1.0
  H  H3255  1  0.575200  0.622200  0.526400  1.0
  H  H3256  1  0.622200  0.575200  0.973600  1.0
  H  H3257  1  0.424800  0.047000  0.973600  1.0
  H  H3258  1  0.953000  0.377800  0.973600  1.0
  H  H3259  1  0.380333  0.091467  0.193067  1.0
  H  H3260  1  0.711133  0.619667  0.193067  1.0
  H  H3261  1  0.908533  0.288867  0.193067  1.0
  H  H3262  1  0.955533  0.241867  0.640267  1.0
  H  H3263  1  0.758133  0.713667  0.640267  1.0
  H  H3264  1  0.286333  0.044467  0.640267  1.0
  H  H3265  1  0.713667  0.758133  0.859733  1.0
  H  H3266  1  0.044467  0.286333  0.859733  1.0
  H  H3267  1  0.241867  0.955533  0.859733  1.0
  H  H3268  1  0.288867  0.908533  0.306933  1.0
  H  H3269  1  0.091467  0.380333  0.306933  1.0
  H  H3270  1  0.619667  0.711133  0.306933  1.0
  H  H3271  1  0.953000  0.575200  0.473600  1.0
  H  H3272  1  0.622200  0.047000  0.473600  1.0
  H  H3273  1  0.424800  0.377800  0.473600  1.0
  H  H3274  1  0.377800  0.424800  0.026400  1.0
  H  H3275  1  0.575200  0.953000  0.026400  1.0
  H  H3276  1  0.047000  0.622200  0.026400  1.0
  H  H3277  1  0.286333  0.241867  0.140267  1.0
  H  H3278  1  0.955533  0.713667  0.140267  1.0
  H  H3279  1  0.758133  0.044467  0.140267  1.0
  H  H3280  1  0.711133  0.091467  0.693067  1.0
  H  H3281  1  0.908533  0.619667  0.693067  1.0
  H  H3282  1  0.380333  0.288867  0.693067  1.0
  H  H3283  1  0.619667  0.908533  0.806933  1.0
  H  H3284  1  0.288867  0.380333  0.806933  1.0
  H  H3285  1  0.091467  0.711133  0.806933  1.0
  H  H3286  1  0.044467  0.758133  0.359733  1.0
  H  H3287  1  0.241867  0.286333  0.359733  1.0
  H  H3288  1  0.713667  0.955533  0.359733  1.0
  H  H3289  1  0.089600  0.430300  0.523200  1.0
  H  H3290  1  0.340700  0.910400  0.523200  1.0
  H  H3291  1  0.569700  0.659300  0.523200  1.0
  H  H3292  1  0.659300  0.569700  0.976800  1.0
  H  H3293  1  0.430300  0.089600  0.976800  1.0
  H  H3294  1  0.910400  0.340700  0.976800  1.0
  H  H3295  1  0.422933  0.096967  0.189867  1.0
  H  H3296  1  0.674033  0.577067  0.189867  1.0
  H  H3297  1  0.903033  0.325967  0.189867  1.0
  H  H3298  1  0.992633  0.236367  0.643467  1.0
  H  H3299  1  0.763633  0.756267  0.643467  1.0
  H  H3300  1  0.243733  0.007367  0.643467  1.0
  H  H3301  1  0.756267  0.763633  0.856533  1.0
  H  H3302  1  0.007367  0.243733  0.856533  1.0
  H  H3303  1  0.236367  0.992633  0.856533  1.0
  H  H3304  1  0.325967  0.903033  0.310133  1.0
  H  H3305  1  0.096967  0.422933  0.310133  1.0
  H  H3306  1  0.577067  0.674033  0.310133  1.0
  H  H3307  1  0.910400  0.569700  0.476800  1.0
  H  H3308  1  0.659300  0.089600  0.476800  1.0
  H  H3309  1  0.430300  0.340700  0.476800  1.0
  H  H3310  1  0.340700  0.430300  0.023200  1.0
  H  H3311  1  0.569700  0.910400  0.023200  1.0
  H  H3312  1  0.089600  0.659300  0.023200  1.0
  H  H3313  1  0.243733  0.236367  0.143467  1.0
  H  H3314  1  0.992633  0.756267  0.143467  1.0
  H  H3315  1  0.763633  0.007367  0.143467  1.0
  H  H3316  1  0.674033  0.096967  0.689867  1.0
  H  H3317  1  0.903033  0.577067  0.689867  1.0
  H  H3318  1  0.422933  0.325967  0.689867  1.0
  H  H3319  1  0.577067  0.903033  0.810133  1.0
  H  H3320  1  0.325967  0.422933  0.810133  1.0
  H  H3321  1  0.096967  0.674033  0.810133  1.0
  H  H3322  1  0.007367  0.763633  0.356533  1.0
  H  H3323  1  0.236367  0.243733  0.356533  1.0
  H  H3324  1  0.756267  0.992633  0.356533  1.0
  H  H3325  1  0.144400  0.402300  0.494900  1.0
  H  H3326  1  0.257900  0.855600  0.494900  1.0
  H  H3327  1  0.597700  0.742100  0.494900  1.0
  H  H3328  1  0.742100  0.597700  0.005100  1.0
  H  H3329  1  0.402300  0.144400  0.005100  1.0
  H  H3330  1  0.855600  0.257900  0.005100  1.0
  H  H3331  1  0.477733  0.068967  0.161567  1.0
  H  H3332  1  0.591233  0.522267  0.161567  1.0
  H  H3333  1  0.931033  0.408767  0.161567  1.0
  H  H3334  1  0.075433  0.264367  0.671767  1.0
  H  H3335  1  0.735633  0.811067  0.671767  1.0
  H  H3336  1  0.188933  0.924567  0.671767  1.0
  H  H3337  1  0.811067  0.735633  0.828233  1.0
  H  H3338  1  0.924567  0.188933  0.828233  1.0
  H  H3339  1  0.264367  0.075433  0.828233  1.0
  H  H3340  1  0.408767  0.931033  0.338433  1.0
  H  H3341  1  0.068967  0.477733  0.338433  1.0
  H  H3342  1  0.522267  0.591233  0.338433  1.0
  H  H3343  1  0.855600  0.597700  0.505100  1.0
  H  H3344  1  0.742100  0.144400  0.505100  1.0
  H  H3345  1  0.402300  0.257900  0.505100  1.0
  H  H3346  1  0.257900  0.402300  0.994900  1.0
  H  H3347  1  0.597700  0.855600  0.994900  1.0
  H  H3348  1  0.144400  0.742100  0.994900  1.0
  H  H3349  1  0.188933  0.264367  0.171767  1.0
  H  H3350  1  0.075433  0.811067  0.171767  1.0
  H  H3351  1  0.735633  0.924567  0.171767  1.0
  H  H3352  1  0.591233  0.068967  0.661567  1.0
  H  H3353  1  0.931033  0.522267  0.661567  1.0
  H  H3354  1  0.477733  0.408767  0.661567  1.0
  H  H3355  1  0.522267  0.931033  0.838433  1.0
  H  H3356  1  0.408767  0.477733  0.838433  1.0
  H  H3357  1  0.068967  0.591233  0.838433  1.0
  H  H3358  1  0.924567  0.735633  0.328233  1.0
  H  H3359  1  0.264367  0.188933  0.328233  1.0
  H  H3360  1  0.811067  0.075433  0.328233  1.0
  H  H3361  1  0.124900  0.394600  0.508000  1.0
  H  H3362  1  0.269700  0.875100  0.508000  1.0
  H  H3363  1  0.605400  0.730300  0.508000  1.0
  H  H3364  1  0.730300  0.605400  0.992000  1.0
  H  H3365  1  0.394600  0.124900  0.992000  1.0
  H  H3366  1  0.875100  0.269700  0.992000  1.0
  H  H3367  1  0.458233  0.061267  0.174667  1.0
  H  H3368  1  0.603033  0.541767  0.174667  1.0
  H  H3369  1  0.938733  0.396967  0.174667  1.0
  H  H3370  1  0.063633  0.272067  0.658667  1.0
  H  H3371  1  0.727933  0.791567  0.658667  1.0
  H  H3372  1  0.208433  0.936367  0.658667  1.0
  H  H3373  1  0.791567  0.727933  0.841333  1.0
  H  H3374  1  0.936367  0.208433  0.841333  1.0
  H  H3375  1  0.272067  0.063633  0.841333  1.0
  H  H3376  1  0.396967  0.938733  0.325333  1.0
  H  H3377  1  0.061267  0.458233  0.325333  1.0
  H  H3378  1  0.541767  0.603033  0.325333  1.0
  H  H3379  1  0.875100  0.605400  0.492000  1.0
  H  H3380  1  0.730300  0.124900  0.492000  1.0
  H  H3381  1  0.394600  0.269700  0.492000  1.0
  H  H3382  1  0.269700  0.394600  0.008000  1.0
  H  H3383  1  0.605400  0.875100  0.008000  1.0
  H  H3384  1  0.124900  0.730300  0.008000  1.0
  H  H3385  1  0.208433  0.272067  0.158667  1.0
  H  H3386  1  0.063633  0.791567  0.158667  1.0
  H  H3387  1  0.727933  0.936367  0.158667  1.0
  H  H3388  1  0.603033  0.061267  0.674667  1.0
  H  H3389  1  0.938733  0.541767  0.674667  1.0
  H  H3390  1  0.458233  0.396967  0.674667  1.0
  H  H3391  1  0.541767  0.938733  0.825333  1.0
  H  H3392  1  0.396967  0.458233  0.825333  1.0
  H  H3393  1  0.061267  0.603033  0.825333  1.0
  H  H3394  1  0.936367  0.727933  0.341333  1.0
  H  H3395  1  0.272067  0.208433  0.341333  1.0
  H  H3396  1  0.791567  0.063633  0.341333  1.0
  H  H3397  1  0.098600  0.369500  0.496700  1.0
  H  H3398  1  0.270900  0.901400  0.496700  1.0
  H  H3399  1  0.630500  0.729100  0.496700  1.0
  H  H3400  1  0.729100  0.630500  0.003300  1.0
  H  H3401  1  0.369500  0.098600  0.003300  1.0
  H  H3402  1  0.901400  0.270900  0.003300  1.0
  H  H3403  1  0.431933  0.036167  0.163367  1.0
  H  H3404  1  0.604233  0.568067  0.163367  1.0
  H  H3405  1  0.963833  0.395767  0.163367  1.0
  H  H3406  1  0.062433  0.297167  0.669967  1.0
  H  H3407  1  0.702833  0.765267  0.669967  1.0
  H  H3408  1  0.234733  0.937567  0.669967  1.0
  H  H3409  1  0.765267  0.702833  0.830033  1.0
  H  H3410  1  0.937567  0.234733  0.830033  1.0
  H  H3411  1  0.297167  0.062433  0.830033  1.0
  H  H3412  1  0.395767  0.963833  0.336633  1.0
  H  H3413  1  0.036167  0.431933  0.336633  1.0
  H  H3414  1  0.568067  0.604233  0.336633  1.0
  H  H3415  1  0.901400  0.630500  0.503300  1.0
  H  H3416  1  0.729100  0.098600  0.503300  1.0
  H  H3417  1  0.369500  0.270900  0.503300  1.0
  H  H3418  1  0.270900  0.369500  0.996700  1.0
  H  H3419  1  0.630500  0.901400  0.996700  1.0
  H  H3420  1  0.098600  0.729100  0.996700  1.0
  H  H3421  1  0.234733  0.297167  0.169967  1.0
  H  H3422  1  0.062433  0.765267  0.169967  1.0
  H  H3423  1  0.702833  0.937567  0.169967  1.0
  H  H3424  1  0.604233  0.036167  0.663367  1.0
  H  H3425  1  0.963833  0.568067  0.663367  1.0
  H  H3426  1  0.431933  0.395767  0.663367  1.0
  H  H3427  1  0.568067  0.963833  0.836633  1.0
  H  H3428  1  0.395767  0.431933  0.836633  1.0
  H  H3429  1  0.036167  0.604233  0.836633  1.0
  H  H3430  1  0.937567  0.702833  0.330033  1.0
  H  H3431  1  0.297167  0.234733  0.330033  1.0
  H  H3432  1  0.765267  0.062433  0.330033  1.0
  H  H3433  1  0.208600  0.522100  0.436100  0.43
  H  H3434  1  0.313500  0.791400  0.436100  0.43
  H  H3435  1  0.477900  0.686500  0.436100  0.43
  H  H3436  1  0.686500  0.477900  0.063900  0.43
  H  H3437  1  0.522100  0.208600  0.063900  0.43
  H  H3438  1  0.791400  0.313500  0.063900  0.43
  H  H3439  1  0.541933  0.188767  0.102767  0.43
  H  H3440  1  0.646833  0.458067  0.102767  0.43
  H  H3441  1  0.811233  0.353167  0.102767  0.43
  H  H3442  1  0.019833  0.144567  0.730567  0.43
  H  H3443  1  0.855433  0.875267  0.730567  0.43
  H  H3444  1  0.124733  0.980167  0.730567  0.43
  H  H3445  1  0.875267  0.855433  0.769433  0.43
  H  H3446  1  0.980167  0.124733  0.769433  0.43
  H  H3447  1  0.144567  0.019833  0.769433  0.43
  H  H3448  1  0.353167  0.811233  0.397233  0.43
  H  H3449  1  0.188767  0.541933  0.397233  0.43
  H  H3450  1  0.458067  0.646833  0.397233  0.43
  H  H3451  1  0.791400  0.477900  0.563900  0.43
  H  H3452  1  0.686500  0.208600  0.563900  0.43
  H  H3453  1  0.522100  0.313500  0.563900  0.43
  H  H3454  1  0.313500  0.522100  0.936100  0.43
  H  H3455  1  0.477900  0.791400  0.936100  0.43
  H  H3456  1  0.208600  0.686500  0.936100  0.43
  H  H3457  1  0.124733  0.144567  0.230567  0.43
  H  H3458  1  0.019833  0.875267  0.230567  0.43
  H  H3459  1  0.855433  0.980167  0.230567  0.43
  H  H3460  1  0.646833  0.188767  0.602767  0.43
  H  H3461  1  0.811233  0.458067  0.602767  0.43
  H  H3462  1  0.541933  0.353167  0.602767  0.43
  H  H3463  1  0.458067  0.811233  0.897233  0.43
  H  H3464  1  0.353167  0.541933  0.897233  0.43
  H  H3465  1  0.188767  0.646833  0.897233  0.43
  H  H3466  1  0.980167  0.855433  0.269433  0.43
  H  H3467  1  0.144567  0.124733  0.269433  0.43
  H  H3468  1  0.875267  0.019833  0.269433  0.43
  H  H3469  1  0.189700  0.550700  0.435600  0.43
  H  H3470  1  0.361000  0.810300  0.435600  0.43
  H  H3471  1  0.449300  0.639000  0.435600  0.43
  H  H3472  1  0.639000  0.449300  0.064400  0.43
  H  H3473  1  0.550700  0.189700  0.064400  0.43
  H  H3474  1  0.810300  0.361000  0.064400  0.43
  H  H3475  1  0.523033  0.217367  0.102267  0.43
  H  H3476  1  0.694333  0.476967  0.102267  0.43
  H  H3477  1  0.782633  0.305667  0.102267  0.43
  H  H3478  1  0.972333  0.115967  0.731067  0.43
  H  H3479  1  0.884033  0.856367  0.731067  0.43
  H  H3480  1  0.143633  0.027667  0.731067  0.43
  H  H3481  1  0.856367  0.884033  0.768933  0.43
  H  H3482  1  0.027667  0.143633  0.768933  0.43
  H  H3483  1  0.115967  0.972333  0.768933  0.43
  H  H3484  1  0.305667  0.782633  0.397733  0.43
  H  H3485  1  0.217367  0.523033  0.397733  0.43
  H  H3486  1  0.476967  0.694333  0.397733  0.43
  H  H3487  1  0.810300  0.449300  0.564400  0.43
  H  H3488  1  0.639000  0.189700  0.564400  0.43
  H  H3489  1  0.550700  0.361000  0.564400  0.43
  H  H3490  1  0.361000  0.550700  0.935600  0.43
  H  H3491  1  0.449300  0.810300  0.935600  0.43
  H  H3492  1  0.189700  0.639000  0.935600  0.43
  H  H3493  1  0.143633  0.115967  0.231067  0.43
  H  H3494  1  0.972333  0.856367  0.231067  0.43
  H  H3495  1  0.884033  0.027667  0.231067  0.43
  H  H3496  1  0.694333  0.217367  0.602267  0.43
  H  H3497  1  0.782633  0.476967  0.602267  0.43
  H  H3498  1  0.523033  0.305667  0.602267  0.43
  H  H3499  1  0.476967  0.782633  0.897733  0.43
  H  H3500  1  0.305667  0.523033  0.897733  0.43
  H  H3501  1  0.217367  0.694333  0.897733  0.43
  H  H3502  1  0.027667  0.884033  0.268933  0.43
  H  H3503  1  0.115967  0.143633  0.268933  0.43
  H  H3504  1  0.856367  0.972333  0.268933  0.43
  H  H3505  1  0.153200  0.495100  0.422300  0.43
  H  H3506  1  0.341900  0.846800  0.422300  0.43
  H  H3507  1  0.504900  0.658100  0.422300  0.43
  H  H3508  1  0.658100  0.504900  0.077700  0.43
  H  H3509  1  0.495100  0.153200  0.077700  0.43
  H  H3510  1  0.846800  0.341900  0.077700  0.43
  H  H3511  1  0.486533  0.161767  0.088967  0.43
  H  H3512  1  0.675233  0.513467  0.088967  0.43
  H  H3513  1  0.838233  0.324767  0.088967  0.43
  H  H3514  1  0.991433  0.171567  0.744367  0.43
  H  H3515  1  0.828433  0.819867  0.744367  0.43
  H  H3516  1  0.180133  0.008567  0.744367  0.43
  H  H3517  1  0.819867  0.828433  0.755633  0.43
  H  H3518  1  0.008567  0.180133  0.755633  0.43
  H  H3519  1  0.171567  0.991433  0.755633  0.43
  H  H3520  1  0.324767  0.838233  0.411033  0.43
  H  H3521  1  0.161767  0.486533  0.411033  0.43
  H  H3522  1  0.513467  0.675233  0.411033  0.43
  H  H3523  1  0.846800  0.504900  0.577700  0.43
  H  H3524  1  0.658100  0.153200  0.577700  0.43
  H  H3525  1  0.495100  0.341900  0.577700  0.43
  H  H3526  1  0.341900  0.495100  0.922300  0.43
  H  H3527  1  0.504900  0.846800  0.922300  0.43
  H  H3528  1  0.153200  0.658100  0.922300  0.43
  H  H3529  1  0.180133  0.171567  0.244367  0.43
  H  H3530  1  0.991433  0.819867  0.244367  0.43
  H  H3531  1  0.828433  0.008567  0.244367  0.43
  H  H3532  1  0.675233  0.161767  0.588967  0.43
  H  H3533  1  0.838233  0.513467  0.588967  0.43
  H  H3534  1  0.486533  0.324767  0.588967  0.43
  H  H3535  1  0.513467  0.838233  0.911033  0.43
  H  H3536  1  0.324767  0.486533  0.911033  0.43
  H  H3537  1  0.161767  0.675233  0.911033  0.43
  H  H3538  1  0.008567  0.828433  0.255633  0.43
  H  H3539  1  0.171567  0.180133  0.255633  0.43
  H  H3540  1  0.819867  0.991433  0.255633  0.43
  H  H3541  1  0.143200  0.465000  0.433300  0.43
  H  H3542  1  0.321800  0.856800  0.433300  0.43
  H  H3543  1  0.535000  0.678200  0.433300  0.43
  H  H3544  1  0.678200  0.535000  0.066700  0.43
  H  H3545  1  0.465000  0.143200  0.066700  0.43
  H  H3546  1  0.856800  0.321800  0.066700  0.43
  H  H3547  1  0.476533  0.131667  0.099967  0.43
  H  H3548  1  0.655133  0.523467  0.099967  0.43
  H  H3549  1  0.868333  0.344867  0.099967  0.43
  H  H3550  1  0.011533  0.201667  0.733367  0.43
  H  H3551  1  0.798333  0.809867  0.733367  0.43
  H  H3552  1  0.190133  0.988467  0.733367  0.43
  H  H3553  1  0.809867  0.798333  0.766633  0.43
  H  H3554  1  0.988467  0.190133  0.766633  0.43
  H  H3555  1  0.201667  0.011533  0.766633  0.43
  H  H3556  1  0.344867  0.868333  0.400033  0.43
  H  H3557  1  0.131667  0.476533  0.400033  0.43
  H  H3558  1  0.523467  0.655133  0.400033  0.43
  H  H3559  1  0.856800  0.535000  0.566700  0.43
  H  H3560  1  0.678200  0.143200  0.566700  0.43
  H  H3561  1  0.465000  0.321800  0.566700  0.43
  H  H3562  1  0.321800  0.465000  0.933300  0.43
  H  H3563  1  0.535000  0.856800  0.933300  0.43
  H  H3564  1  0.143200  0.678200  0.933300  0.43
  H  H3565  1  0.190133  0.201667  0.233367  0.43
  H  H3566  1  0.011533  0.809867  0.233367  0.43
  H  H3567  1  0.798333  0.988467  0.233367  0.43
  H  H3568  1  0.655133  0.131667  0.599967  0.43
  H  H3569  1  0.868333  0.523467  0.599967  0.43
  H  H3570  1  0.476533  0.344867  0.599967  0.43
  H  H3571  1  0.523467  0.868333  0.900033  0.43
  H  H3572  1  0.344867  0.476533  0.900033  0.43
  H  H3573  1  0.131667  0.655133  0.900033  0.43
  H  H3574  1  0.988467  0.798333  0.266633  0.43
  H  H3575  1  0.201667  0.190133  0.266633  0.43
  H  H3576  1  0.809867  0.011533  0.266633  0.43
  H  H3577  1  0.124500  0.493600  0.432800  0.43
  H  H3578  1  0.369100  0.875500  0.432800  0.43
  H  H3579  1  0.506400  0.630900  0.432800  0.43
  H  H3580  1  0.630900  0.506400  0.067200  0.43
  H  H3581  1  0.493600  0.124500  0.067200  0.43
  H  H3582  1  0.875500  0.369100  0.067200  0.43
  H  H3583  1  0.457833  0.160267  0.099467  0.43
  H  H3584  1  0.702433  0.542167  0.099467  0.43
  H  H3585  1  0.839733  0.297567  0.099467  0.43
  H  H3586  1  0.964233  0.173067  0.733867  0.43
  H  H3587  1  0.826933  0.791167  0.733867  0.43
  H  H3588  1  0.208833  0.035767  0.733867  0.43
  H  H3589  1  0.791167  0.826933  0.766133  0.43
  H  H3590  1  0.035767  0.208833  0.766133  0.43
  H  H3591  1  0.173067  0.964233  0.766133  0.43
  H  H3592  1  0.297567  0.839733  0.400533  0.43
  H  H3593  1  0.160267  0.457833  0.400533  0.43
  H  H3594  1  0.542167  0.702433  0.400533  0.43
  H  H3595  1  0.875500  0.506400  0.567200  0.43
  H  H3596  1  0.630900  0.124500  0.567200  0.43
  H  H3597  1  0.493600  0.369100  0.567200  0.43
  H  H3598  1  0.369100  0.493600  0.932800  0.43
  H  H3599  1  0.506400  0.875500  0.932800  0.43
  H  H3600  1  0.124500  0.630900  0.932800  0.43
  H  H3601  1  0.208833  0.173067  0.233867  0.43
  H  H3602  1  0.964233  0.791167  0.233867  0.43
  H  H3603  1  0.826933  0.035767  0.233867  0.43
  H  H3604  1  0.702433  0.160267  0.599467  0.43
  H  H3605  1  0.839733  0.542167  0.599467  0.43
  H  H3606  1  0.457833  0.297567  0.599467  0.43
  H  H3607  1  0.542167  0.839733  0.900533  0.43
  H  H3608  1  0.297567  0.457833  0.900533  0.43
  H  H3609  1  0.160267  0.702433  0.900533  0.43
  H  H3610  1  0.035767  0.826933  0.266133  0.43
  H  H3611  1  0.173067  0.208833  0.266133  0.43
  H  H3612  1  0.791167  0.964233  0.266133  0.43
  H  H3613  1  0.151900  0.622900  0.439100  0.43
  H  H3614  1  0.471000  0.848100  0.439100  0.43
  H  H3615  1  0.377100  0.529000  0.439100  0.43
  H  H3616  1  0.529000  0.377100  0.060900  0.43
  H  H3617  1  0.622900  0.151900  0.060900  0.43
  H  H3618  1  0.848100  0.471000  0.060900  0.43
  H  H3619  1  0.485233  0.289567  0.105767  0.43
  H  H3620  1  0.804333  0.514767  0.105767  0.43
  H  H3621  1  0.710433  0.195667  0.105767  0.43
  H  H3622  1  0.862333  0.043767  0.727567  0.43
  H  H3623  1  0.956233  0.818567  0.727567  0.43
  H  H3624  1  0.181433  0.137667  0.727567  0.43
  H  H3625  1  0.818567  0.956233  0.772433  0.43
  H  H3626  1  0.137667  0.181433  0.772433  0.43
  H  H3627  1  0.043767  0.862333  0.772433  0.43
  H  H3628  1  0.195667  0.710433  0.394233  0.43
  H  H3629  1  0.289567  0.485233  0.394233  0.43
  H  H3630  1  0.514767  0.804333  0.394233  0.43
  H  H3631  1  0.848100  0.377100  0.560900  0.43
  H  H3632  1  0.529000  0.151900  0.560900  0.43
  H  H3633  1  0.622900  0.471000  0.560900  0.43
  H  H3634  1  0.471000  0.622900  0.939100  0.43
  H  H3635  1  0.377100  0.848100  0.939100  0.43
  H  H3636  1  0.151900  0.529000  0.939100  0.43
  H  H3637  1  0.181433  0.043767  0.227567  0.43
  H  H3638  1  0.862333  0.818567  0.227567  0.43
  H  H3639  1  0.956233  0.137667  0.227567  0.43
  H  H3640  1  0.804333  0.289567  0.605767  0.43
  H  H3641  1  0.710433  0.514767  0.605767  0.43
  H  H3642  1  0.485233  0.195667  0.605767  0.43
  H  H3643  1  0.514767  0.710433  0.894233  0.43
  H  H3644  1  0.195667  0.485233  0.894233  0.43
  H  H3645  1  0.289567  0.804333  0.894233  0.43
  H  H3646  1  0.137667  0.956233  0.272433  0.43
  H  H3647  1  0.043767  0.181433  0.272433  0.43
  H  H3648  1  0.818567  0.862333  0.272433  0.43
  H  H3649  1  0.148500  0.660600  0.443400  0.43
  H  H3650  1  0.512100  0.851500  0.443400  0.43
  H  H3651  1  0.339400  0.487900  0.443400  0.43
  H  H3652  1  0.487900  0.339400  0.056600  0.43
  H  H3653  1  0.660600  0.148500  0.056600  0.43
  H  H3654  1  0.851500  0.512100  0.056600  0.43
  H  H3655  1  0.481833  0.327267  0.110067  0.43
  H  H3656  1  0.845433  0.518167  0.110067  0.43
  H  H3657  1  0.672733  0.154567  0.110067  0.43
  H  H3658  1  0.821233  0.006067  0.723267  0.43
  H  H3659  1  0.993933  0.815167  0.723267  0.43
  H  H3660  1  0.184833  0.178767  0.723267  0.43
  H  H3661  1  0.815167  0.993933  0.776733  0.43
  H  H3662  1  0.178767  0.184833  0.776733  0.43
  H  H3663  1  0.006067  0.821233  0.776733  0.43
  H  H3664  1  0.154567  0.672733  0.389933  0.43
  H  H3665  1  0.327267  0.481833  0.389933  0.43
  H  H3666  1  0.518167  0.845433  0.389933  0.43
  H  H3667  1  0.851500  0.339400  0.556600  0.43
  H  H3668  1  0.487900  0.148500  0.556600  0.43
  H  H3669  1  0.660600  0.512100  0.556600  0.43
  H  H3670  1  0.512100  0.660600  0.943400  0.43
  H  H3671  1  0.339400  0.851500  0.943400  0.43
  H  H3672  1  0.148500  0.487900  0.943400  0.43
  H  H3673  1  0.184833  0.006067  0.223267  0.43
  H  H3674  1  0.821233  0.815167  0.223267  0.43
  H  H3675  1  0.993933  0.178767  0.223267  0.43
  H  H3676  1  0.845433  0.327267  0.610067  0.43
  H  H3677  1  0.672733  0.518167  0.610067  0.43
  H  H3678  1  0.481833  0.154567  0.610067  0.43
  H  H3679  1  0.518167  0.672733  0.889933  0.43
  H  H3680  1  0.154567  0.481833  0.889933  0.43
  H  H3681  1  0.327267  0.845433  0.889933  0.43
  H  H3682  1  0.178767  0.993933  0.276733  0.43
  H  H3683  1  0.006067  0.184833  0.276733  0.43
  H  H3684  1  0.815167  0.821233  0.276733  0.43
  H  H3685  1  0.214500  0.681700  0.437100  0.43
  H  H3686  1  0.467200  0.785500  0.437100  0.43
  H  H3687  1  0.318300  0.532800  0.437100  0.43
  H  H3688  1  0.532800  0.318300  0.062900  0.43
  H  H3689  1  0.681700  0.214500  0.062900  0.43
  H  H3690  1  0.785500  0.467200  0.062900  0.43
  H  H3691  1  0.547833  0.348367  0.103767  0.43
  H  H3692  1  0.800533  0.452167  0.103767  0.43
  H  H3693  1  0.651633  0.199467  0.103767  0.43
  H  H3694  1  0.866133  0.984967  0.729567  0.43
  H  H3695  1  0.015033  0.881167  0.729567  0.43
  H  H3696  1  0.118833  0.133867  0.729567  0.43
  H  H3697  1  0.881167  0.015033  0.770433  0.43
  H  H3698  1  0.133867  0.118833  0.770433  0.43
  H  H3699  1  0.984967  0.866133  0.770433  0.43
  H  H3700  1  0.199467  0.651633  0.396233  0.43
  H  H3701  1  0.348367  0.547833  0.396233  0.43
  H  H3702  1  0.452167  0.800533  0.396233  0.43
  H  H3703  1  0.785500  0.318300  0.562900  0.43
  H  H3704  1  0.532800  0.214500  0.562900  0.43
  H  H3705  1  0.681700  0.467200  0.562900  0.43
  H  H3706  1  0.467200  0.681700  0.937100  0.43
  H  H3707  1  0.318300  0.785500  0.937100  0.43
  H  H3708  1  0.214500  0.532800  0.937100  0.43
  H  H3709  1  0.118833  0.984967  0.229567  0.43
  H  H3710  1  0.866133  0.881167  0.229567  0.43
  H  H3711  1  0.015033  0.133867  0.229567  0.43
  H  H3712  1  0.800533  0.348367  0.603767  0.43
  H  H3713  1  0.651633  0.452167  0.603767  0.43
  H  H3714  1  0.547833  0.199467  0.603767  0.43
  H  H3715  1  0.452167  0.651633  0.896233  0.43
  H  H3716  1  0.199467  0.547833  0.896233  0.43
  H  H3717  1  0.348367  0.800533  0.896233  0.43
  H  H3718  1  0.133867  0.015033  0.270433  0.43
  H  H3719  1  0.984967  0.118833  0.270433  0.43
  H  H3720  1  0.881167  0.866133  0.270433  0.43
  H  H3721  1  0.214300  0.690800  0.451100  0.43
  H  H3722  1  0.476500  0.785700  0.451100  0.43
  H  H3723  1  0.309200  0.523500  0.451100  0.43
  H  H3724  1  0.523500  0.309200  0.048900  0.43
  H  H3725  1  0.690800  0.214300  0.048900  0.43
  H  H3726  1  0.785700  0.476500  0.048900  0.43
  H  H3727  1  0.547633  0.357467  0.117767  0.43
  H  H3728  1  0.809833  0.452367  0.117767  0.43
  H  H3729  1  0.642533  0.190167  0.117767  0.43
  H  H3730  1  0.856833  0.975867  0.715567  0.43
  H  H3731  1  0.024133  0.880967  0.715567  0.43
  H  H3732  1  0.119033  0.143167  0.715567  0.43
  H  H3733  1  0.880967  0.024133  0.784433  0.43
  H  H3734  1  0.143167  0.119033  0.784433  0.43
  H  H3735  1  0.975867  0.856833  0.784433  0.43
  H  H3736  1  0.190167  0.642533  0.382233  0.43
  H  H3737  1  0.357467  0.547633  0.382233  0.43
  H  H3738  1  0.452367  0.809833  0.382233  0.43
  H  H3739  1  0.785700  0.309200  0.548900  0.43
  H  H3740  1  0.523500  0.214300  0.548900  0.43
  H  H3741  1  0.690800  0.476500  0.548900  0.43
  H  H3742  1  0.476500  0.690800  0.951100  0.43
  H  H3743  1  0.309200  0.785700  0.951100  0.43
  H  H3744  1  0.214300  0.523500  0.951100  0.43
  H  H3745  1  0.119033  0.975867  0.215567  0.43
  H  H3746  1  0.856833  0.880967  0.215567  0.43
  H  H3747  1  0.024133  0.143167  0.215567  0.43
  H  H3748  1  0.809833  0.357467  0.617767  0.43
  H  H3749  1  0.642533  0.452367  0.617767  0.43
  H  H3750  1  0.547633  0.190167  0.617767  0.43
  H  H3751  1  0.452367  0.642533  0.882233  0.43
  H  H3752  1  0.190167  0.547633  0.882233  0.43
  H  H3753  1  0.357467  0.809833  0.882233  0.43
  H  H3754  1  0.143167  0.024133  0.284433  0.43
  H  H3755  1  0.975867  0.119033  0.284433  0.43
  H  H3756  1  0.880967  0.856833  0.284433  0.43
  H  H3757  1  0.217700  0.653200  0.446900  0.43
  H  H3758  1  0.435500  0.782300  0.446900  0.43
  H  H3759  1  0.346800  0.564500  0.446900  0.43
  H  H3760  1  0.564500  0.346800  0.053100  0.43
  H  H3761  1  0.653200  0.217700  0.053100  0.43
  H  H3762  1  0.782300  0.435500  0.053100  0.43
  H  H3763  1  0.551033  0.319867  0.113567  0.43
  H  H3764  1  0.768833  0.448967  0.113567  0.43
  H  H3765  1  0.680133  0.231167  0.113567  0.43
  H  H3766  1  0.897833  0.013467  0.719767  0.43
  H  H3767  1  0.986533  0.884367  0.719767  0.43
  H  H3768  1  0.115633  0.102167  0.719767  0.43
  H  H3769  1  0.884367  0.986533  0.780233  0.43
  H  H3770  1  0.102167  0.115633  0.780233  0.43
  H  H3771  1  0.013467  0.897833  0.780233  0.43
  H  H3772  1  0.231167  0.680133  0.386433  0.43
  H  H3773  1  0.319867  0.551033  0.386433  0.43
  H  H3774  1  0.448967  0.768833  0.386433  0.43
  H  H3775  1  0.782300  0.346800  0.553100  0.43
  H  H3776  1  0.564500  0.217700  0.553100  0.43
  H  H3777  1  0.653200  0.435500  0.553100  0.43
  H  H3778  1  0.435500  0.653200  0.946900  0.43
  H  H3779  1  0.346800  0.782300  0.946900  0.43
  H  H3780  1  0.217700  0.564500  0.946900  0.43
  H  H3781  1  0.115633  0.013467  0.219767  0.43
  H  H3782  1  0.897833  0.884367  0.219767  0.43
  H  H3783  1  0.986533  0.102167  0.219767  0.43
  H  H3784  1  0.768833  0.319867  0.613567  0.43
  H  H3785  1  0.680133  0.448967  0.613567  0.43
  H  H3786  1  0.551033  0.231167  0.613567  0.43
  H  H3787  1  0.448967  0.680133  0.886433  0.43
  H  H3788  1  0.231167  0.551033  0.886433  0.43
  H  H3789  1  0.319867  0.768833  0.886433  0.43
  H  H3790  1  0.102167  0.986533  0.280233  0.43
  H  H3791  1  0.013467  0.115633  0.280233  0.43
  H  H3792  1  0.884367  0.897833  0.280233  0.43
  H  H3793  1  0.119800  0.469800  0.593300  0.45
  H  H3794  1  0.350000  0.880200  0.593300  0.45
  H  H3795  1  0.530200  0.650000  0.593300  0.45
  H  H3796  1  0.650000  0.530200  0.906700  0.45
  H  H3797  1  0.469800  0.119800  0.906700  0.45
  H  H3798  1  0.880200  0.350000  0.906700  0.45
  H  H3799  1  0.453133  0.136467  0.259967  0.45
  H  H3800  1  0.683333  0.546867  0.259967  0.45
  H  H3801  1  0.863533  0.316667  0.259967  0.45
  H  H3802  1  0.983333  0.196867  0.573367  0.45
  H  H3803  1  0.803133  0.786467  0.573367  0.45
  H  H3804  1  0.213533  0.016667  0.573367  0.45
  H  H3805  1  0.786467  0.803133  0.926633  0.45
  H  H3806  1  0.016667  0.213533  0.926633  0.45
  H  H3807  1  0.196867  0.983333  0.926633  0.45
  H  H3808  1  0.316667  0.863533  0.240033  0.45
  H  H3809  1  0.136467  0.453133  0.240033  0.45
  H  H3810  1  0.546867  0.683333  0.240033  0.45
  H  H3811  1  0.880200  0.530200  0.406700  0.45
  H  H3812  1  0.650000  0.119800  0.406700  0.45
  H  H3813  1  0.469800  0.350000  0.406700  0.45
  H  H3814  1  0.350000  0.469800  0.093300  0.45
  H  H3815  1  0.530200  0.880200  0.093300  0.45
  H  H3816  1  0.119800  0.650000  0.093300  0.45
  H  H3817  1  0.213533  0.196867  0.073367  0.45
  H  H3818  1  0.983333  0.786467  0.073367  0.45
  H  H3819  1  0.803133  0.016667  0.073367  0.45
  H  H3820  1  0.683333  0.136467  0.759967  0.45
  H  H3821  1  0.863533  0.546867  0.759967  0.45
  H  H3822  1  0.453133  0.316667  0.759967  0.45
  H  H3823  1  0.546867  0.863533  0.740033  0.45
  H  H3824  1  0.316667  0.453133  0.740033  0.45
  H  H3825  1  0.136467  0.683333  0.740033  0.45
  H  H3826  1  0.016667  0.803133  0.426633  0.45
  H  H3827  1  0.196867  0.213533  0.426633  0.45
  H  H3828  1  0.786467  0.983333  0.426633  0.45
  H  H3829  1  0.139000  0.480600  0.606600  0.45
  H  H3830  1  0.341600  0.861000  0.606600  0.45
  H  H3831  1  0.519400  0.658400  0.606600  0.45
  H  H3832  1  0.658400  0.519400  0.893400  0.45
  H  H3833  1  0.480600  0.139000  0.893400  0.45
  H  H3834  1  0.861000  0.341600  0.893400  0.45
  H  H3835  1  0.472333  0.147267  0.273267  0.45
  H  H3836  1  0.674933  0.527667  0.273267  0.45
  H  H3837  1  0.852733  0.325067  0.273267  0.45
  H  H3838  1  0.991733  0.186067  0.560067  0.45
  H  H3839  1  0.813933  0.805667  0.560067  0.45
  H  H3840  1  0.194333  0.008267  0.560067  0.45
  H  H3841  1  0.805667  0.813933  0.939933  0.45
  H  H3842  1  0.008267  0.194333  0.939933  0.45
  H  H3843  1  0.186067  0.991733  0.939933  0.45
  H  H3844  1  0.325067  0.852733  0.226733  0.45
  H  H3845  1  0.147267  0.472333  0.226733  0.45
  H  H3846  1  0.527667  0.674933  0.226733  0.45
  H  H3847  1  0.861000  0.519400  0.393400  0.45
  H  H3848  1  0.658400  0.139000  0.393400  0.45
  H  H3849  1  0.480600  0.341600  0.393400  0.45
  H  H3850  1  0.341600  0.480600  0.106600  0.45
  H  H3851  1  0.519400  0.861000  0.106600  0.45
  H  H3852  1  0.139000  0.658400  0.106600  0.45
  H  H3853  1  0.194333  0.186067  0.060067  0.45
  H  H3854  1  0.991733  0.805667  0.060067  0.45
  H  H3855  1  0.813933  0.008267  0.060067  0.45
  H  H3856  1  0.674933  0.147267  0.773267  0.45
  H  H3857  1  0.852733  0.527667  0.773267  0.45
  H  H3858  1  0.472333  0.325067  0.773267  0.45
  H  H3859  1  0.527667  0.852733  0.726733  0.45
  H  H3860  1  0.325067  0.472333  0.726733  0.45
  H  H3861  1  0.147267  0.674933  0.726733  0.45
  H  H3862  1  0.008267  0.813933  0.439933  0.45
  H  H3863  1  0.186067  0.194333  0.439933  0.45
  H  H3864  1  0.805667  0.991733  0.439933  0.45
  H  H3865  1  0.086400  0.412000  0.606100  0.45
  H  H3866  1  0.325600  0.913600  0.606100  0.45
  H  H3867  1  0.588000  0.674400  0.606100  0.45
  H  H3868  1  0.674400  0.588000  0.893900  0.45
  H  H3869  1  0.412000  0.086400  0.893900  0.45
  H  H3870  1  0.913600  0.325600  0.893900  0.45
  H  H3871  1  0.419733  0.078667  0.272767  0.45
  H  H3872  1  0.658933  0.580267  0.272767  0.45
  H  H3873  1  0.921333  0.341067  0.272767  0.45
  H  H3874  1  0.007733  0.254667  0.560567  0.45
  H  H3875  1  0.745333  0.753067  0.560567  0.45
  H  H3876  1  0.246933  0.992267  0.560567  0.45
  H  H3877  1  0.753067  0.745333  0.939433  0.45
  H  H3878  1  0.992267  0.246933  0.939433  0.45
  H  H3879  1  0.254667  0.007733  0.939433  0.45
  H  H3880  1  0.341067  0.921333  0.227233  0.45
  H  H3881  1  0.078667  0.419733  0.227233  0.45
  H  H3882  1  0.580267  0.658933  0.227233  0.45
  H  H3883  1  0.913600  0.588000  0.393900  0.45
  H  H3884  1  0.674400  0.086400  0.393900  0.45
  H  H3885  1  0.412000  0.325600  0.393900  0.45
  H  H3886  1  0.325600  0.412000  0.106100  0.45
  H  H3887  1  0.588000  0.913600  0.106100  0.45
  H  H3888  1  0.086400  0.674400  0.106100  0.45
  H  H3889  1  0.246933  0.254667  0.060567  0.45
  H  H3890  1  0.007733  0.753067  0.060567  0.45
  H  H3891  1  0.745333  0.992267  0.060567  0.45
  H  H3892  1  0.658933  0.078667  0.772767  0.45
  H  H3893  1  0.921333  0.580267  0.772767  0.45
  H  H3894  1  0.419733  0.341067  0.772767  0.45
  H  H3895  1  0.580267  0.921333  0.727233  0.45
  H  H3896  1  0.341067  0.419733  0.727233  0.45
  H  H3897  1  0.078667  0.658933  0.727233  0.45
  H  H3898  1  0.992267  0.745333  0.439433  0.45
  H  H3899  1  0.254667  0.246933  0.439433  0.45
  H  H3900  1  0.753067  0.007733  0.439433  0.45
  H  H3901  1  0.108700  0.403100  0.595500  0.45
  H  H3902  1  0.294400  0.891300  0.595500  0.45
  H  H3903  1  0.596900  0.705600  0.595500  0.45
  H  H3904  1  0.705600  0.596900  0.904500  0.45
  H  H3905  1  0.403100  0.108700  0.904500  0.45
  H  H3906  1  0.891300  0.294400  0.904500  0.45
  H  H3907  1  0.442033  0.069767  0.262167  0.45
  H  H3908  1  0.627733  0.557967  0.262167  0.45
  H  H3909  1  0.930233  0.372267  0.262167  0.45
  H  H3910  1  0.038933  0.263567  0.571167  0.45
  H  H3911  1  0.736433  0.775367  0.571167  0.45
  H  H3912  1  0.224633  0.961067  0.571167  0.45
  H  H3913  1  0.775367  0.736433  0.928833  0.45
  H  H3914  1  0.961067  0.224633  0.928833  0.45
  H  H3915  1  0.263567  0.038933  0.928833  0.45
  H  H3916  1  0.372267  0.930233  0.237833  0.45
  H  H3917  1  0.069767  0.442033  0.237833  0.45
  H  H3918  1  0.557967  0.627733  0.237833  0.45
  H  H3919  1  0.891300  0.596900  0.404500  0.45
  H  H3920  1  0.705600  0.108700  0.404500  0.45
  H  H3921  1  0.403100  0.294400  0.404500  0.45
  H  H3922  1  0.294400  0.403100  0.095500  0.45
  H  H3923  1  0.596900  0.891300  0.095500  0.45
  H  H3924  1  0.108700  0.705600  0.095500  0.45
  H  H3925  1  0.224633  0.263567  0.071167  0.45
  H  H3926  1  0.038933  0.775367  0.071167  0.45
  H  H3927  1  0.736433  0.961067  0.071167  0.45
  H  H3928  1  0.627733  0.069767  0.762167  0.45
  H  H3929  1  0.930233  0.557967  0.762167  0.45
  H  H3930  1  0.442033  0.372267  0.762167  0.45
  H  H3931  1  0.557967  0.930233  0.737833  0.45
  H  H3932  1  0.372267  0.442033  0.737833  0.45
  H  H3933  1  0.069767  0.627733  0.737833  0.45
  H  H3934  1  0.961067  0.736433  0.428833  0.45
  H  H3935  1  0.263567  0.224633  0.428833  0.45
  H  H3936  1  0.775367  0.038933  0.428833  0.45
  H  H3937  1  0.127900  0.414000  0.608700  0.45
  H  H3938  1  0.286100  0.872100  0.608700  0.45
  H  H3939  1  0.586000  0.713900  0.608700  0.45
  H  H3940  1  0.713900  0.586000  0.891300  0.45
  H  H3941  1  0.414000  0.127900  0.891300  0.45
  H  H3942  1  0.872100  0.286100  0.891300  0.45
  H  H3943  1  0.461233  0.080667  0.275367  0.45
  H  H3944  1  0.619433  0.538767  0.275367  0.45
  H  H3945  1  0.919333  0.380567  0.275367  0.45
  H  H3946  1  0.047233  0.252667  0.557967  0.45
  H  H3947  1  0.747333  0.794567  0.557967  0.45
  H  H3948  1  0.205433  0.952767  0.557967  0.45
  H  H3949  1  0.794567  0.747333  0.942033  0.45
  H  H3950  1  0.952767  0.205433  0.942033  0.45
  H  H3951  1  0.252667  0.047233  0.942033  0.45
  H  H3952  1  0.380567  0.919333  0.224633  0.45
  H  H3953  1  0.080667  0.461233  0.224633  0.45
  H  H3954  1  0.538767  0.619433  0.224633  0.45
  H  H3955  1  0.872100  0.586000  0.391300  0.45
  H  H3956  1  0.713900  0.127900  0.391300  0.45
  H  H3957  1  0.414000  0.286100  0.391300  0.45
  H  H3958  1  0.286100  0.414000  0.108700  0.45
  H  H3959  1  0.586000  0.872100  0.108700  0.45
  H  H3960  1  0.127900  0.713900  0.108700  0.45
  H  H3961  1  0.205433  0.252667  0.057967  0.45
  H  H3962  1  0.047233  0.794567  0.057967  0.45
  H  H3963  1  0.747333  0.952767  0.057967  0.45
  H  H3964  1  0.619433  0.080667  0.775367  0.45
  H  H3965  1  0.919333  0.538767  0.775367  0.45
  H  H3966  1  0.461233  0.380567  0.775367  0.45
  H  H3967  1  0.538767  0.919333  0.724633  0.45
  H  H3968  1  0.380567  0.461233  0.724633  0.45
  H  H3969  1  0.080667  0.619433  0.724633  0.45
  H  H3970  1  0.952767  0.747333  0.442033  0.45
  H  H3971  1  0.252667  0.205433  0.442033  0.45
  H  H3972  1  0.794567  0.047233  0.442033  0.45
  H  H3973  1  0.247500  0.349200  0.598300  0.477
  H  H3974  1  0.101700  0.752500  0.598300  0.477
  H  H3975  1  0.650800  0.898300  0.598300  0.477
  H  H3976  1  0.898300  0.650800  0.901700  0.477
  H  H3977  1  0.349200  0.247500  0.901700  0.477
  H  H3978  1  0.752500  0.101700  0.901700  0.477
  H  H3979  1  0.580833  0.015867  0.264967  0.477
  H  H3980  1  0.435033  0.419167  0.264967  0.477
  H  H3981  1  0.984133  0.564967  0.264967  0.477
  H  H3982  1  0.231633  0.317467  0.568367  0.477
  H  H3983  1  0.682533  0.914167  0.568367  0.477
  H  H3984  1  0.085833  0.768367  0.568367  0.477
  H  H3985  1  0.914167  0.682533  0.931633  0.477
  H  H3986  1  0.768367  0.085833  0.931633  0.477
  H  H3987  1  0.317467  0.231633  0.931633  0.477
  H  H3988  1  0.564967  0.984133  0.235033  0.477
  H  H3989  1  0.015867  0.580833  0.235033  0.477
  H  H3990  1  0.419167  0.435033  0.235033  0.477
  H  H3991  1  0.752500  0.650800  0.401700  0.477
  H  H3992  1  0.898300  0.247500  0.401700  0.477
  H  H3993  1  0.349200  0.101700  0.401700  0.477
  H  H3994  1  0.101700  0.349200  0.098300  0.477
  H  H3995  1  0.650800  0.752500  0.098300  0.477
  H  H3996  1  0.247500  0.898300  0.098300  0.477
  H  H3997  1  0.085833  0.317467  0.068367  0.477
  H  H3998  1  0.231633  0.914167  0.068367  0.477
  H  H3999  1  0.682533  0.768367  0.068367  0.477
  H  H4000  1  0.435033  0.015867  0.764967  0.477
  H  H4001  1  0.984133  0.419167  0.764967  0.477
  H  H4002  1  0.580833  0.564967  0.764967  0.477
  H  H4003  1  0.419167  0.984133  0.735033  0.477
  H  H4004  1  0.564967  0.580833  0.735033  0.477
  H  H4005  1  0.015867  0.435033  0.735033  0.477
  H  H4006  1  0.768367  0.682533  0.431633  0.477
  H  H4007  1  0.317467  0.085833  0.431633  0.477
  H  H4008  1  0.914167  0.231633  0.431633  0.477
  H  H4009  1  0.184500  0.340700  0.594000  0.477
  H  H4010  1  0.156200  0.815500  0.594000  0.477
  H  H4011  1  0.659300  0.843800  0.594000  0.477
  H  H4012  1  0.843800  0.659300  0.906000  0.477
  H  H4013  1  0.340700  0.184500  0.906000  0.477
  H  H4014  1  0.815500  0.156200  0.906000  0.477
  H  H4015  1  0.517833  0.007367  0.260667  0.477
  H  H4016  1  0.489533  0.482167  0.260667  0.477
  H  H4017  1  0.992633  0.510467  0.260667  0.477
  H  H4018  1  0.177133  0.325967  0.572667  0.477
  H  H4019  1  0.674033  0.851167  0.572667  0.477
  H  H4020  1  0.148833  0.822867  0.572667  0.477
  H  H4021  1  0.851167  0.674033  0.927333  0.477
  H  H4022  1  0.822867  0.148833  0.927333  0.477
  H  H4023  1  0.325967  0.177133  0.927333  0.477
  H  H4024  1  0.510467  0.992633  0.239333  0.477
  H  H4025  1  0.007367  0.517833  0.239333  0.477
  H  H4026  1  0.482167  0.489533  0.239333  0.477
  H  H4027  1  0.815500  0.659300  0.406000  0.477
  H  H4028  1  0.843800  0.184500  0.406000  0.477
  H  H4029  1  0.340700  0.156200  0.406000  0.477
  H  H4030  1  0.156200  0.340700  0.094000  0.477
  H  H4031  1  0.659300  0.815500  0.094000  0.477
  H  H4032  1  0.184500  0.843800  0.094000  0.477
  H  H4033  1  0.148833  0.325967  0.072667  0.477
  H  H4034  1  0.177133  0.851167  0.072667  0.477
  H  H4035  1  0.674033  0.822867  0.072667  0.477
  H  H4036  1  0.489533  0.007367  0.760667  0.477
  H  H4037  1  0.992633  0.482167  0.760667  0.477
  H  H4038  1  0.517833  0.510467  0.760667  0.477
  H  H4039  1  0.482167  0.992633  0.739333  0.477
  H  H4040  1  0.510467  0.517833  0.739333  0.477
  H  H4041  1  0.007367  0.489533  0.739333  0.477
  H  H4042  1  0.822867  0.674033  0.427333  0.477
  H  H4043  1  0.325967  0.148833  0.427333  0.477
  H  H4044  1  0.851167  0.177133  0.427333  0.477
  H  H4045  1  0.164300  0.382500  0.602900  0.477
  H  H4046  1  0.218200  0.835700  0.602900  0.477
  H  H4047  1  0.617500  0.781800  0.602900  0.477
  H  H4048  1  0.781800  0.617500  0.897100  0.477
  H  H4049  1  0.382500  0.164300  0.897100  0.477
  H  H4050  1  0.835700  0.218200  0.897100  0.477
  H  H4051  1  0.497633  0.049167  0.269567  0.477
  H  H4052  1  0.551533  0.502367  0.269567  0.477
  H  H4053  1  0.950833  0.448467  0.269567  0.477
  H  H4054  1  0.115133  0.284167  0.563767  0.477
  H  H4055  1  0.715833  0.830967  0.563767  0.477
  H  H4056  1  0.169033  0.884867  0.563767  0.477
  H  H4057  1  0.830967  0.715833  0.936233  0.477
  H  H4058  1  0.884867  0.169033  0.936233  0.477
  H  H4059  1  0.284167  0.115133  0.936233  0.477
  H  H4060  1  0.448467  0.950833  0.230433  0.477
  H  H4061  1  0.049167  0.497633  0.230433  0.477
  H  H4062  1  0.502367  0.551533  0.230433  0.477
  H  H4063  1  0.835700  0.617500  0.397100  0.477
  H  H4064  1  0.781800  0.164300  0.397100  0.477
  H  H4065  1  0.382500  0.218200  0.397100  0.477
  H  H4066  1  0.218200  0.382500  0.102900  0.477
  H  H4067  1  0.617500  0.835700  0.102900  0.477
  H  H4068  1  0.164300  0.781800  0.102900  0.477
  H  H4069  1  0.169033  0.284167  0.063767  0.477
  H  H4070  1  0.115133  0.830967  0.063767  0.477
  H  H4071  1  0.715833  0.884867  0.063767  0.477
  H  H4072  1  0.551533  0.049167  0.769567  0.477
  H  H4073  1  0.950833  0.502367  0.769567  0.477
  H  H4074  1  0.497633  0.448467  0.769567  0.477
  H  H4075  1  0.502367  0.950833  0.730433  0.477
  H  H4076  1  0.448467  0.497633  0.730433  0.477
  H  H4077  1  0.049167  0.551533  0.730433  0.477
  H  H4078  1  0.884867  0.715833  0.436233  0.477
  H  H4079  1  0.284167  0.169033  0.436233  0.477
  H  H4080  1  0.830967  0.115133  0.436233  0.477
  H  H4081  1  0.207200  0.432900  0.616100  0.477
  H  H4082  1  0.225700  0.792800  0.616100  0.477
  H  H4083  1  0.567100  0.774300  0.616100  0.477
  H  H4084  1  0.774300  0.567100  0.883900  0.477
  H  H4085  1  0.432900  0.207200  0.883900  0.477
  H  H4086  1  0.792800  0.225700  0.883900  0.477
  H  H4087  1  0.540533  0.099567  0.282767  0.477
  H  H4088  1  0.559033  0.459467  0.282767  0.477
  H  H4089  1  0.900433  0.440967  0.282767  0.477
  H  H4090  1  0.107633  0.233767  0.550567  0.477
  H  H4091  1  0.766233  0.873867  0.550567  0.477
  H  H4092  1  0.126133  0.892367  0.550567  0.477
  H  H4093  1  0.873867  0.766233  0.949433  0.477
  H  H4094  1  0.892367  0.126133  0.949433  0.477
  H  H4095  1  0.233767  0.107633  0.949433  0.477
  H  H4096  1  0.440967  0.900433  0.217233  0.477
  H  H4097  1  0.099567  0.540533  0.217233  0.477
  H  H4098  1  0.459467  0.559033  0.217233  0.477
  H  H4099  1  0.792800  0.567100  0.383900  0.477
  H  H4100  1  0.774300  0.207200  0.383900  0.477
  H  H4101  1  0.432900  0.225700  0.383900  0.477
  H  H4102  1  0.225700  0.432900  0.116100  0.477
  H  H4103  1  0.567100  0.792800  0.116100  0.477
  H  H4104  1  0.207200  0.774300  0.116100  0.477
  H  H4105  1  0.126133  0.233767  0.050567  0.477
  H  H4106  1  0.107633  0.873867  0.050567  0.477
  H  H4107  1  0.766233  0.892367  0.050567  0.477
  H  H4108  1  0.559033  0.099567  0.782767  0.477
  H  H4109  1  0.900433  0.459467  0.782767  0.477
  H  H4110  1  0.540533  0.440967  0.782767  0.477
  H  H4111  1  0.459467  0.900433  0.717233  0.477
  H  H4112  1  0.440967  0.540533  0.717233  0.477
  H  H4113  1  0.099567  0.559033  0.717233  0.477
  H  H4114  1  0.892367  0.766233  0.449433  0.477
  H  H4115  1  0.233767  0.126133  0.449433  0.477
  H  H4116  1  0.873867  0.107633  0.449433  0.477
  H  H4117  1  0.270200  0.441400  0.620500  0.477
  H  H4118  1  0.171200  0.729800  0.620500  0.477
  H  H4119  1  0.558600  0.828800  0.620500  0.477
  H  H4120  1  0.828800  0.558600  0.879500  0.477
  H  H4121  1  0.441400  0.270200  0.879500  0.477
  H  H4122  1  0.729800  0.171200  0.879500  0.477
  H  H4123  1  0.603533  0.108067  0.287167  0.477
  H  H4124  1  0.504533  0.396467  0.287167  0.477
  H  H4125  1  0.891933  0.495467  0.287167  0.477
  H  H4126  1  0.162133  0.225267  0.546167  0.477
  H  H4127  1  0.774733  0.936867  0.546167  0.477
  H  H4128  1  0.063133  0.837867  0.546167  0.477
  H  H4129  1  0.936867  0.774733  0.953833  0.477
  H  H4130  1  0.837867  0.063133  0.953833  0.477
  H  H4131  1  0.225267  0.162133  0.953833  0.477
  H  H4132  1  0.495467  0.891933  0.212833  0.477
  H  H4133  1  0.108067  0.603533  0.212833  0.477
  H  H4134  1  0.396467  0.504533  0.212833  0.477
  H  H4135  1  0.729800  0.558600  0.379500  0.477
  H  H4136  1  0.828800  0.270200  0.379500  0.477
  H  H4137  1  0.441400  0.171200  0.379500  0.477
  H  H4138  1  0.171200  0.441400  0.120500  0.477
  H  H4139  1  0.558600  0.729800  0.120500  0.477
  H  H4140  1  0.270200  0.828800  0.120500  0.477
  H  H4141  1  0.063133  0.225267  0.046167  0.477
  H  H4142  1  0.162133  0.936867  0.046167  0.477
  H  H4143  1  0.774733  0.837867  0.046167  0.477
  H  H4144  1  0.504533  0.108067  0.787167  0.477
  H  H4145  1  0.891933  0.396467  0.787167  0.477
  H  H4146  1  0.603533  0.495467  0.787167  0.477
  H  H4147  1  0.396467  0.891933  0.712833  0.477
  H  H4148  1  0.495467  0.603533  0.712833  0.477
  H  H4149  1  0.108067  0.504533  0.712833  0.477
  H  H4150  1  0.837867  0.774733  0.453833  0.477
  H  H4151  1  0.225267  0.063133  0.453833  0.477
  H  H4152  1  0.936867  0.162133  0.453833  0.477
  H  H4153  1  0.151300  0.506600  0.508800  0.5
  H  H4154  1  0.355300  0.848700  0.508800  0.5
  H  H4155  1  0.493400  0.644700  0.508800  0.5
  H  H4156  1  0.644700  0.493400  0.991200  0.5
  H  H4157  1  0.506600  0.151300  0.991200  0.5
  H  H4158  1  0.848700  0.355300  0.991200  0.5
  H  H4159  1  0.484633  0.173267  0.175467  0.5
  H  H4160  1  0.688633  0.515367  0.175467  0.5
  H  H4161  1  0.826733  0.311367  0.175467  0.5
  H  H4162  1  0.978033  0.160067  0.657867  0.5
  H  H4163  1  0.839933  0.817967  0.657867  0.5
  H  H4164  1  0.182033  0.021967  0.657867  0.5
  H  H4165  1  0.817967  0.839933  0.842133  0.5
  H  H4166  1  0.021967  0.182033  0.842133  0.5
  H  H4167  1  0.160067  0.978033  0.842133  0.5
  H  H4168  1  0.311367  0.826733  0.324533  0.5
  H  H4169  1  0.173267  0.484633  0.324533  0.5
  H  H4170  1  0.515367  0.688633  0.324533  0.5
  H  H4171  1  0.848700  0.493400  0.491200  0.5
  H  H4172  1  0.644700  0.151300  0.491200  0.5
  H  H4173  1  0.506600  0.355300  0.491200  0.5
  H  H4174  1  0.355300  0.506600  0.008800  0.5
  H  H4175  1  0.493400  0.848700  0.008800  0.5
  H  H4176  1  0.151300  0.644700  0.008800  0.5
  H  H4177  1  0.182033  0.160067  0.157867  0.5
  H  H4178  1  0.978033  0.817967  0.157867  0.5
  H  H4179  1  0.839933  0.021967  0.157867  0.5
  H  H4180  1  0.688633  0.173267  0.675467  0.5
  H  H4181  1  0.826733  0.515367  0.675467  0.5
  H  H4182  1  0.484633  0.311367  0.675467  0.5
  H  H4183  1  0.515367  0.826733  0.824533  0.5
  H  H4184  1  0.311367  0.484633  0.824533  0.5
  H  H4185  1  0.173267  0.688633  0.824533  0.5
  H  H4186  1  0.021967  0.839933  0.342133  0.5
  H  H4187  1  0.160067  0.182033  0.342133  0.5
  H  H4188  1  0.817967  0.978033  0.342133  0.5
  H  H4189  1  0.135900  0.557800  0.510700  0.5
  H  H4190  1  0.421900  0.864100  0.510700  0.5
  H  H4191  1  0.442200  0.578100  0.510700  0.5
  H  H4192  1  0.578100  0.442200  0.989300  0.5
  H  H4193  1  0.557800  0.135900  0.989300  0.5
  H  H4194  1  0.864100  0.421900  0.989300  0.5
  H  H4195  1  0.469233  0.224467  0.177367  0.5
  H  H4196  1  0.755233  0.530767  0.177367  0.5
  H  H4197  1  0.775533  0.244767  0.177367  0.5
  H  H4198  1  0.911433  0.108867  0.655967  0.5
  H  H4199  1  0.891133  0.802567  0.655967  0.5
  H  H4200  1  0.197433  0.088567  0.655967  0.5
  H  H4201  1  0.802567  0.891133  0.844033  0.5
  H  H4202  1  0.088567  0.197433  0.844033  0.5
  H  H4203  1  0.108867  0.911433  0.844033  0.5
  H  H4204  1  0.244767  0.775533  0.322633  0.5
  H  H4205  1  0.224467  0.469233  0.322633  0.5
  H  H4206  1  0.530767  0.755233  0.322633  0.5
  H  H4207  1  0.864100  0.442200  0.489300  0.5
  H  H4208  1  0.578100  0.135900  0.489300  0.5
  H  H4209  1  0.557800  0.421900  0.489300  0.5
  H  H4210  1  0.421900  0.557800  0.010700  0.5
  H  H4211  1  0.442200  0.864100  0.010700  0.5
  H  H4212  1  0.135900  0.578100  0.010700  0.5
  H  H4213  1  0.197433  0.108867  0.155967  0.5
  H  H4214  1  0.911433  0.802567  0.155967  0.5
  H  H4215  1  0.891133  0.088567  0.155967  0.5
  H  H4216  1  0.755233  0.224467  0.677367  0.5
  H  H4217  1  0.775533  0.530767  0.677367  0.5
  H  H4218  1  0.469233  0.244767  0.677367  0.5
  H  H4219  1  0.530767  0.775533  0.822633  0.5
  H  H4220  1  0.244767  0.469233  0.822633  0.5
  H  H4221  1  0.224467  0.755233  0.822633  0.5
  H  H4222  1  0.088567  0.891133  0.344033  0.5
  H  H4223  1  0.108867  0.197433  0.344033  0.5
  H  H4224  1  0.802567  0.911433  0.344033  0.5
  H  H4225  1  0.166300  0.606100  0.525400  0.5
  H  H4226  1  0.439800  0.833700  0.525400  0.5
  H  H4227  1  0.393900  0.560200  0.525400  0.5
  H  H4228  1  0.560200  0.393900  0.974600  0.5
  H  H4229  1  0.606100  0.166300  0.974600  0.5
  H  H4230  1  0.833700  0.439800  0.974600  0.5
  H  H4231  1  0.499633  0.272767  0.192067  0.5
  H  H4232  1  0.773133  0.500367  0.192067  0.5
  H  H4233  1  0.727233  0.226867  0.192067  0.5
  H  H4234  1  0.893533  0.060567  0.641267  0.5
  H  H4235  1  0.939433  0.832967  0.641267  0.5
  H  H4236  1  0.167033  0.106467  0.641267  0.5
  H  H4237  1  0.832967  0.939433  0.858733  0.5
  H  H4238  1  0.106467  0.167033  0.858733  0.5
  H  H4239  1  0.060567  0.893533  0.858733  0.5
  H  H4240  1  0.226867  0.727233  0.307933  0.5
  H  H4241  1  0.272767  0.499633  0.307933  0.5
  H  H4242  1  0.500367  0.773133  0.307933  0.5
  H  H4243  1  0.833700  0.393900  0.474600  0.5
  H  H4244  1  0.560200  0.166300  0.474600  0.5
  H  H4245  1  0.606100  0.439800  0.474600  0.5
  H  H4246  1  0.439800  0.606100  0.025400  0.5
  H  H4247  1  0.393900  0.833700  0.025400  0.5
  H  H4248  1  0.166300  0.560200  0.025400  0.5
  H  H4249  1  0.167033  0.060567  0.141267  0.5
  H  H4250  1  0.893533  0.832967  0.141267  0.5
  H  H4251  1  0.939433  0.106467  0.141267  0.5
  H  H4252  1  0.773133  0.272767  0.692067  0.5
  H  H4253  1  0.727233  0.500367  0.692067  0.5
  H  H4254  1  0.499633  0.226867  0.692067  0.5
  H  H4255  1  0.500367  0.727233  0.807933  0.5
  H  H4256  1  0.226867  0.499633  0.807933  0.5
  H  H4257  1  0.272767  0.773133  0.807933  0.5
  H  H4258  1  0.106467  0.939433  0.358733  0.5
  H  H4259  1  0.060567  0.167033  0.358733  0.5
  H  H4260  1  0.832967  0.893533  0.358733  0.5
  H  H4261  1  0.212200  0.604300  0.538500  0.5
  H  H4262  1  0.392100  0.787800  0.538500  0.5
  H  H4263  1  0.395700  0.607900  0.538500  0.5
  H  H4264  1  0.607900  0.395700  0.961500  0.5
  H  H4265  1  0.604300  0.212200  0.961500  0.5
  H  H4266  1  0.787800  0.392100  0.961500  0.5
  H  H4267  1  0.545533  0.270967  0.205167  0.5
  H  H4268  1  0.725433  0.454467  0.205167  0.5
  H  H4269  1  0.729033  0.274567  0.205167  0.5
  H  H4270  1  0.941233  0.062367  0.628167  0.5
  H  H4271  1  0.937633  0.878867  0.628167  0.5
  H  H4272  1  0.121133  0.058767  0.628167  0.5
  H  H4273  1  0.878867  0.937633  0.871833  0.5
  H  H4274  1  0.058767  0.121133  0.871833  0.5
  H  H4275  1  0.062367  0.941233  0.871833  0.5
  H  H4276  1  0.274567  0.729033  0.294833  0.5
  H  H4277  1  0.270967  0.545533  0.294833  0.5
  H  H4278  1  0.454467  0.725433  0.294833  0.5
  H  H4279  1  0.787800  0.395700  0.461500  0.5
  H  H4280  1  0.607900  0.212200  0.461500  0.5
  H  H4281  1  0.604300  0.392100  0.461500  0.5
  H  H4282  1  0.392100  0.604300  0.038500  0.5
  H  H4283  1  0.395700  0.787800  0.038500  0.5
  H  H4284  1  0.212200  0.607900  0.038500  0.5
  H  H4285  1  0.121133  0.062367  0.128167  0.5
  H  H4286  1  0.941233  0.878867  0.128167  0.5
  H  H4287  1  0.937633  0.058767  0.128167  0.5
  H  H4288  1  0.725433  0.270967  0.705167  0.5
  H  H4289  1  0.729033  0.454467  0.705167  0.5
  H  H4290  1  0.545533  0.274567  0.705167  0.5
  H  H4291  1  0.454467  0.729033  0.794833  0.5
  H  H4292  1  0.274567  0.545533  0.794833  0.5
  H  H4293  1  0.270967  0.725433  0.794833  0.5
  H  H4294  1  0.058767  0.937633  0.371833  0.5
  H  H4295  1  0.062367  0.121133  0.371833  0.5
  H  H4296  1  0.878867  0.941233  0.371833  0.5
  H  H4297  1  0.229700  0.554700  0.536500  0.5
  H  H4298  1  0.325000  0.770300  0.536500  0.5
  H  H4299  1  0.445300  0.675000  0.536500  0.5
  H  H4300  1  0.675000  0.445300  0.963500  0.5
  H  H4301  1  0.554700  0.229700  0.963500  0.5
  H  H4302  1  0.770300  0.325000  0.963500  0.5
  H  H4303  1  0.563033  0.221367  0.203167  0.5
  H  H4304  1  0.658333  0.436967  0.203167  0.5
  H  H4305  1  0.778633  0.341667  0.203167  0.5
  H  H4306  1  0.008333  0.111967  0.630167  0.5
  H  H4307  1  0.888033  0.896367  0.630167  0.5
  H  H4308  1  0.103633  0.991667  0.630167  0.5
  H  H4309  1  0.896367  0.888033  0.869833  0.5
  H  H4310  1  0.991667  0.103633  0.869833  0.5
  H  H4311  1  0.111967  0.008333  0.869833  0.5
  H  H4312  1  0.341667  0.778633  0.296833  0.5
  H  H4313  1  0.221367  0.563033  0.296833  0.5
  H  H4314  1  0.436967  0.658333  0.296833  0.5
  H  H4315  1  0.770300  0.445300  0.463500  0.5
  H  H4316  1  0.675000  0.229700  0.463500  0.5
  H  H4317  1  0.554700  0.325000  0.463500  0.5
  H  H4318  1  0.325000  0.554700  0.036500  0.5
  H  H4319  1  0.445300  0.770300  0.036500  0.5
  H  H4320  1  0.229700  0.675000  0.036500  0.5
  H  H4321  1  0.103633  0.111967  0.130167  0.5
  H  H4322  1  0.008333  0.896367  0.130167  0.5
  H  H4323  1  0.888033  0.991667  0.130167  0.5
  H  H4324  1  0.658333  0.221367  0.703167  0.5
  H  H4325  1  0.778633  0.436967  0.703167  0.5
  H  H4326  1  0.563033  0.341667  0.703167  0.5
  H  H4327  1  0.436967  0.778633  0.796833  0.5
  H  H4328  1  0.341667  0.563033  0.796833  0.5
  H  H4329  1  0.221367  0.658333  0.796833  0.5
  H  H4330  1  0.991667  0.888033  0.369833  0.5
  H  H4331  1  0.111967  0.103633  0.369833  0.5
  H  H4332  1  0.896367  0.008333  0.369833  0.5
  H  H4333  1  0.282400  0.370400  0.604300  0.523
  H  H4334  1  0.088000  0.717600  0.604300  0.523
  H  H4335  1  0.629600  0.912000  0.604300  0.523
  H  H4336  1  0.912000  0.629600  0.895700  0.523
  H  H4337  1  0.370400  0.282400  0.895700  0.523
  H  H4338  1  0.717600  0.088000  0.895700  0.523
  H  H4339  1  0.615733  0.037067  0.270967  0.523
  H  H4340  1  0.421333  0.384267  0.270967  0.523
  H  H4341  1  0.962933  0.578667  0.270967  0.523
  H  H4342  1  0.245333  0.296267  0.562367  0.523
  H  H4343  1  0.703733  0.949067  0.562367  0.523
  H  H4344  1  0.050933  0.754667  0.562367  0.523
  H  H4345  1  0.949067  0.703733  0.937633  0.523
  H  H4346  1  0.754667  0.050933  0.937633  0.523
  H  H4347  1  0.296267  0.245333  0.937633  0.523
  H  H4348  1  0.578667  0.962933  0.229033  0.523
  H  H4349  1  0.037067  0.615733  0.229033  0.523
  H  H4350  1  0.384267  0.421333  0.229033  0.523
  H  H4351  1  0.717600  0.629600  0.395700  0.523
  H  H4352  1  0.912000  0.282400  0.395700  0.523
  H  H4353  1  0.370400  0.088000  0.395700  0.523
  H  H4354  1  0.088000  0.370400  0.104300  0.523
  H  H4355  1  0.629600  0.717600  0.104300  0.523
  H  H4356  1  0.282400  0.912000  0.104300  0.523
  H  H4357  1  0.050933  0.296267  0.062367  0.523
  H  H4358  1  0.245333  0.949067  0.062367  0.523
  H  H4359  1  0.703733  0.754667  0.062367  0.523
  H  H4360  1  0.421333  0.037067  0.770967  0.523
  H  H4361  1  0.962933  0.384267  0.770967  0.523
  H  H4362  1  0.615733  0.578667  0.770967  0.523
  H  H4363  1  0.384267  0.962933  0.729033  0.523
  H  H4364  1  0.578667  0.615733  0.729033  0.523
  H  H4365  1  0.037067  0.421333  0.729033  0.523
  H  H4366  1  0.754667  0.703733  0.437633  0.523
  H  H4367  1  0.296267  0.050933  0.437633  0.523
  H  H4368  1  0.949067  0.245333  0.437633  0.523
  H  H4369  1  0.221900  0.336500  0.593900  0.523
  H  H4370  1  0.114600  0.778100  0.593900  0.523
  H  H4371  1  0.663500  0.885400  0.593900  0.523
  H  H4372  1  0.885400  0.663500  0.906100  0.523
  H  H4373  1  0.336500  0.221900  0.906100  0.523
  H  H4374  1  0.778100  0.114600  0.906100  0.523
  H  H4375  1  0.555233  0.003167  0.260567  0.523
  H  H4376  1  0.447933  0.444767  0.260567  0.523
  H  H4377  1  0.996833  0.552067  0.260567  0.523
  H  H4378  1  0.218733  0.330167  0.572767  0.523
  H  H4379  1  0.669833  0.888567  0.572767  0.523
  H  H4380  1  0.111433  0.781267  0.572767  0.523
  H  H4381  1  0.888567  0.669833  0.927233  0.523
  H  H4382  1  0.781267  0.111433  0.927233  0.523
  H  H4383  1  0.330167  0.218733  0.927233  0.523
  H  H4384  1  0.552067  0.996833  0.239433  0.523
  H  H4385  1  0.003167  0.555233  0.239433  0.523
  H  H4386  1  0.444767  0.447933  0.239433  0.523
  H  H4387  1  0.778100  0.663500  0.406100  0.523
  H  H4388  1  0.885400  0.221900  0.406100  0.523
  H  H4389  1  0.336500  0.114600  0.406100  0.523
  H  H4390  1  0.114600  0.336500  0.093900  0.523
  H  H4391  1  0.663500  0.778100  0.093900  0.523
  H  H4392  1  0.221900  0.885400  0.093900  0.523
  H  H4393  1  0.111433  0.330167  0.072767  0.523
  H  H4394  1  0.218733  0.888567  0.072767  0.523
  H  H4395  1  0.669833  0.781267  0.072767  0.523
  H  H4396  1  0.447933  0.003167  0.760567  0.523
  H  H4397  1  0.996833  0.444767  0.760567  0.523
  H  H4398  1  0.555233  0.552067  0.760567  0.523
  H  H4399  1  0.444767  0.996833  0.739433  0.523
  H  H4400  1  0.552067  0.555233  0.739433  0.523
  H  H4401  1  0.003167  0.447933  0.739433  0.523
  H  H4402  1  0.781267  0.669833  0.427233  0.523
  H  H4403  1  0.330167  0.111433  0.427233  0.523
  H  H4404  1  0.888567  0.218733  0.427233  0.523
  H  H4405  1  0.174000  0.356100  0.596100  0.523
  H  H4406  1  0.182100  0.826000  0.596100  0.523
  H  H4407  1  0.643900  0.817900  0.596100  0.523
  H  H4408  1  0.817900  0.643900  0.903900  0.523
  H  H4409  1  0.356100  0.174000  0.903900  0.523
  H  H4410  1  0.826000  0.182100  0.903900  0.523
  H  H4411  1  0.507333  0.022767  0.262767  0.523
  H  H4412  1  0.515433  0.492667  0.262767  0.523
  H  H4413  1  0.977233  0.484567  0.262767  0.523
  H  H4414  1  0.151233  0.310567  0.570567  0.523
  H  H4415  1  0.689433  0.840667  0.570567  0.523
  H  H4416  1  0.159333  0.848767  0.570567  0.523
  H  H4417  1  0.840667  0.689433  0.929433  0.523
  H  H4418  1  0.848767  0.159333  0.929433  0.523
  H  H4419  1  0.310567  0.151233  0.929433  0.523
  H  H4420  1  0.484567  0.977233  0.237233  0.523
  H  H4421  1  0.022767  0.507333  0.237233  0.523
  H  H4422  1  0.492667  0.515433  0.237233  0.523
  H  H4423  1  0.826000  0.643900  0.403900  0.523
  H  H4424  1  0.817900  0.174000  0.403900  0.523
  H  H4425  1  0.356100  0.182100  0.403900  0.523
  H  H4426  1  0.182100  0.356100  0.096100  0.523
  H  H4427  1  0.643900  0.826000  0.096100  0.523
  H  H4428  1  0.174000  0.817900  0.096100  0.523
  H  H4429  1  0.159333  0.310567  0.070567  0.523
  H  H4430  1  0.151233  0.840667  0.070567  0.523
  H  H4431  1  0.689433  0.848767  0.070567  0.523
  H  H4432  1  0.515433  0.022767  0.762767  0.523
  H  H4433  1  0.977233  0.492667  0.762767  0.523
  H  H4434  1  0.507333  0.484567  0.762767  0.523
  H  H4435  1  0.492667  0.977233  0.737233  0.523
  H  H4436  1  0.484567  0.507333  0.737233  0.523
  H  H4437  1  0.022767  0.515433  0.737233  0.523
  H  H4438  1  0.848767  0.689433  0.429433  0.523
  H  H4439  1  0.310567  0.159333  0.429433  0.523
  H  H4440  1  0.840667  0.151233  0.429433  0.523
  H  H4441  1  0.186600  0.409600  0.608700  0.523
  H  H4442  1  0.223000  0.813400  0.608700  0.523
  H  H4443  1  0.590400  0.777000  0.608700  0.523
  H  H4444  1  0.777000  0.590400  0.891300  0.523
  H  H4445  1  0.409600  0.186600  0.891300  0.523
  H  H4446  1  0.813400  0.223000  0.891300  0.523
  H  H4447  1  0.519933  0.076267  0.275367  0.523
  H  H4448  1  0.556333  0.480067  0.275367  0.523
  H  H4449  1  0.923733  0.443667  0.275367  0.523
  H  H4450  1  0.110333  0.257067  0.557967  0.523
  H  H4451  1  0.742933  0.853267  0.557967  0.523
  H  H4452  1  0.146733  0.889667  0.557967  0.523
  H  H4453  1  0.853267  0.742933  0.942033  0.523
  H  H4454  1  0.889667  0.146733  0.942033  0.523
  H  H4455  1  0.257067  0.110333  0.942033  0.523
  H  H4456  1  0.443667  0.923733  0.224633  0.523
  H  H4457  1  0.076267  0.519933  0.224633  0.523
  H  H4458  1  0.480067  0.556333  0.224633  0.523
  H  H4459  1  0.813400  0.590400  0.391300  0.523
  H  H4460  1  0.777000  0.186600  0.391300  0.523
  H  H4461  1  0.409600  0.223000  0.391300  0.523
  H  H4462  1  0.223000  0.409600  0.108700  0.523
  H  H4463  1  0.590400  0.813400  0.108700  0.523
  H  H4464  1  0.186600  0.777000  0.108700  0.523
  H  H4465  1  0.146733  0.257067  0.057967  0.523
  H  H4466  1  0.110333  0.853267  0.057967  0.523
  H  H4467  1  0.742933  0.889667  0.057967  0.523
  H  H4468  1  0.556333  0.076267  0.775367  0.523
  H  H4469  1  0.923733  0.480067  0.775367  0.523
  H  H4470  1  0.519933  0.443667  0.775367  0.523
  H  H4471  1  0.480067  0.923733  0.724633  0.523
  H  H4472  1  0.443667  0.519933  0.724633  0.523
  H  H4473  1  0.076267  0.556333  0.724633  0.523
  H  H4474  1  0.889667  0.742933  0.442033  0.523
  H  H4475  1  0.257067  0.146733  0.442033  0.523
  H  H4476  1  0.853267  0.110333  0.442033  0.523
  H  H4477  1  0.247200  0.443600  0.619100  0.523
  H  H4478  1  0.196400  0.752800  0.619100  0.523
  H  H4479  1  0.556400  0.803600  0.619100  0.523
  H  H4480  1  0.803600  0.556400  0.880900  0.523
  H  H4481  1  0.443600  0.247200  0.880900  0.523
  H  H4482  1  0.752800  0.196400  0.880900  0.523
  H  H4483  1  0.580533  0.110267  0.285767  0.523
  H  H4484  1  0.529733  0.419467  0.285767  0.523
  H  H4485  1  0.889733  0.470267  0.285767  0.523
  H  H4486  1  0.136933  0.223067  0.547567  0.523
  H  H4487  1  0.776933  0.913867  0.547567  0.523
  H  H4488  1  0.086133  0.863067  0.547567  0.523
  H  H4489  1  0.913867  0.776933  0.952433  0.523
  H  H4490  1  0.863067  0.086133  0.952433  0.523
  H  H4491  1  0.223067  0.136933  0.952433  0.523
  H  H4492  1  0.470267  0.889733  0.214233  0.523
  H  H4493  1  0.110267  0.580533  0.214233  0.523
  H  H4494  1  0.419467  0.529733  0.214233  0.523
  H  H4495  1  0.752800  0.556400  0.380900  0.523
  H  H4496  1  0.803600  0.247200  0.380900  0.523
  H  H4497  1  0.443600  0.196400  0.380900  0.523
  H  H4498  1  0.196400  0.443600  0.119100  0.523
  H  H4499  1  0.556400  0.752800  0.119100  0.523
  H  H4500  1  0.247200  0.803600  0.119100  0.523
  H  H4501  1  0.086133  0.223067  0.047567  0.523
  H  H4502  1  0.136933  0.913867  0.047567  0.523
  H  H4503  1  0.776933  0.863067  0.047567  0.523
  H  H4504  1  0.529733  0.110267  0.785767  0.523
  H  H4505  1  0.889733  0.419467  0.785767  0.523
  H  H4506  1  0.580533  0.470267  0.785767  0.523
  H  H4507  1  0.419467  0.889733  0.714233  0.523
  H  H4508  1  0.470267  0.580533  0.714233  0.523
  H  H4509  1  0.110267  0.529733  0.714233  0.523
  H  H4510  1  0.863067  0.776933  0.452433  0.523
  H  H4511  1  0.223067  0.086133  0.452433  0.523
  H  H4512  1  0.913867  0.136933  0.452433  0.523
  H  H4513  1  0.115000  0.435600  0.598200  0.55
  H  H4514  1  0.320600  0.885000  0.598200  0.55
  H  H4515  1  0.564400  0.679400  0.598200  0.55
  H  H4516  1  0.679400  0.564400  0.901800  0.55
  H  H4517  1  0.435600  0.115000  0.901800  0.55
  H  H4518  1  0.885000  0.320600  0.901800  0.55
  H  H4519  1  0.448333  0.102267  0.264867  0.55
  H  H4520  1  0.653933  0.551667  0.264867  0.55
  H  H4521  1  0.897733  0.346067  0.264867  0.55
  H  H4522  1  0.012733  0.231067  0.568467  0.55
  H  H4523  1  0.768933  0.781667  0.568467  0.55
  H  H4524  1  0.218333  0.987267  0.568467  0.55
  H  H4525  1  0.781667  0.768933  0.931533  0.55
  H  H4526  1  0.987267  0.218333  0.931533  0.55
  H  H4527  1  0.231067  0.012733  0.931533  0.55
  H  H4528  1  0.346067  0.897733  0.235133  0.55
  H  H4529  1  0.102267  0.448333  0.235133  0.55
  H  H4530  1  0.551667  0.653933  0.235133  0.55
  H  H4531  1  0.885000  0.564400  0.401800  0.55
  H  H4532  1  0.679400  0.115000  0.401800  0.55
  H  H4533  1  0.435600  0.320600  0.401800  0.55
  H  H4534  1  0.320600  0.435600  0.098200  0.55
  H  H4535  1  0.564400  0.885000  0.098200  0.55
  H  H4536  1  0.115000  0.679400  0.098200  0.55
  H  H4537  1  0.218333  0.231067  0.068467  0.55
  H  H4538  1  0.012733  0.781667  0.068467  0.55
  H  H4539  1  0.768933  0.987267  0.068467  0.55
  H  H4540  1  0.653933  0.102267  0.764867  0.55
  H  H4541  1  0.897733  0.551667  0.764867  0.55
  H  H4542  1  0.448333  0.346067  0.764867  0.55
  H  H4543  1  0.551667  0.897733  0.735133  0.55
  H  H4544  1  0.346067  0.448333  0.735133  0.55
  H  H4545  1  0.102267  0.653933  0.735133  0.55
  H  H4546  1  0.987267  0.768933  0.431533  0.55
  H  H4547  1  0.231067  0.218333  0.431533  0.55
  H  H4548  1  0.781667  0.012733  0.431533  0.55
  H  H4549  1  0.137700  0.469800  0.608100  0.55
  H  H4550  1  0.332100  0.862300  0.608100  0.55
  H  H4551  1  0.530200  0.667900  0.608100  0.55
  H  H4552  1  0.667900  0.530200  0.891900  0.55
  H  H4553  1  0.469800  0.137700  0.891900  0.55
  H  H4554  1  0.862300  0.332100  0.891900  0.55
  H  H4555  1  0.471033  0.136467  0.274767  0.55
  H  H4556  1  0.665433  0.528967  0.274767  0.55
  H  H4557  1  0.863533  0.334567  0.274767  0.55
  H  H4558  1  0.001233  0.196867  0.558567  0.55
  H  H4559  1  0.803133  0.804367  0.558567  0.55
  H  H4560  1  0.195633  0.998767  0.558567  0.55
  H  H4561  1  0.804367  0.803133  0.941433  0.55
  H  H4562  1  0.998767  0.195633  0.941433  0.55
  H  H4563  1  0.196867  0.001233  0.941433  0.55
  H  H4564  1  0.334567  0.863533  0.225233  0.55
  H  H4565  1  0.136467  0.471033  0.225233  0.55
  H  H4566  1  0.528967  0.665433  0.225233  0.55
  H  H4567  1  0.862300  0.530200  0.391900  0.55
  H  H4568  1  0.667900  0.137700  0.391900  0.55
  H  H4569  1  0.469800  0.332100  0.391900  0.55
  H  H4570  1  0.332100  0.469800  0.108100  0.55
  H  H4571  1  0.530200  0.862300  0.108100  0.55
  H  H4572  1  0.137700  0.667900  0.108100  0.55
  H  H4573  1  0.195633  0.196867  0.058567  0.55
  H  H4574  1  0.001233  0.804367  0.058567  0.55
  H  H4575  1  0.803133  0.998767  0.058567  0.55
  H  H4576  1  0.665433  0.136467  0.774767  0.55
  H  H4577  1  0.863533  0.528967  0.774767  0.55
  H  H4578  1  0.471033  0.334567  0.774767  0.55
  H  H4579  1  0.528967  0.863533  0.725233  0.55
  H  H4580  1  0.334567  0.471033  0.725233  0.55
  H  H4581  1  0.136467  0.665433  0.725233  0.55
  H  H4582  1  0.998767  0.803133  0.441433  0.55
  H  H4583  1  0.196867  0.195633  0.441433  0.55
  H  H4584  1  0.804367  0.001233  0.441433  0.55
  H  H4585  1  0.095900  0.484700  0.596200  0.55
  H  H4586  1  0.388800  0.904100  0.596200  0.55
  H  H4587  1  0.515300  0.611200  0.596200  0.55
  H  H4588  1  0.611200  0.515300  0.903800  0.55
  H  H4589  1  0.484700  0.095900  0.903800  0.55
  H  H4590  1  0.904100  0.388800  0.903800  0.55
  H  H4591  1  0.429233  0.151367  0.262867  0.55
  H  H4592  1  0.722133  0.570767  0.262867  0.55
  H  H4593  1  0.848633  0.277867  0.262867  0.55
  H  H4594  1  0.944533  0.181967  0.570467  0.55
  H  H4595  1  0.818033  0.762567  0.570467  0.55
  H  H4596  1  0.237433  0.055467  0.570467  0.55
  H  H4597  1  0.762567  0.818033  0.929533  0.55
  H  H4598  1  0.055467  0.237433  0.929533  0.55
  H  H4599  1  0.181967  0.944533  0.929533  0.55
  H  H4600  1  0.277867  0.848633  0.237133  0.55
  H  H4601  1  0.151367  0.429233  0.237133  0.55
  H  H4602  1  0.570767  0.722133  0.237133  0.55
  H  H4603  1  0.904100  0.515300  0.403800  0.55
  H  H4604  1  0.611200  0.095900  0.403800  0.55
  H  H4605  1  0.484700  0.388800  0.403800  0.55
  H  H4606  1  0.388800  0.484700  0.096200  0.55
  H  H4607  1  0.515300  0.904100  0.096200  0.55
  H  H4608  1  0.095900  0.611200  0.096200  0.55
  H  H4609  1  0.237433  0.181967  0.070467  0.55
  H  H4610  1  0.944533  0.762567  0.070467  0.55
  H  H4611  1  0.818033  0.055467  0.070467  0.55
  H  H4612  1  0.722133  0.151367  0.762867  0.55
  H  H4613  1  0.848633  0.570767  0.762867  0.55
  H  H4614  1  0.429233  0.277867  0.762867  0.55
  H  H4615  1  0.570767  0.848633  0.737133  0.55
  H  H4616  1  0.277867  0.429233  0.737133  0.55
  H  H4617  1  0.151367  0.722133  0.737133  0.55
  H  H4618  1  0.055467  0.818033  0.429533  0.55
  H  H4619  1  0.181967  0.237433  0.429533  0.55
  H  H4620  1  0.762567  0.944533  0.429533  0.55
  H  H4621  1  0.141300  0.518100  0.594200  0.55
  H  H4622  1  0.376800  0.858700  0.594200  0.55
  H  H4623  1  0.481900  0.623200  0.594200  0.55
  H  H4624  1  0.623200  0.481900  0.905800  0.55
  H  H4625  1  0.518100  0.141300  0.905800  0.55
  H  H4626  1  0.858700  0.376800  0.905800  0.55
  H  H4627  1  0.474633  0.184767  0.260867  0.55
  H  H4628  1  0.710133  0.525367  0.260867  0.55
  H  H4629  1  0.815233  0.289867  0.260867  0.55
  H  H4630  1  0.956533  0.148567  0.572467  0.55
  H  H4631  1  0.851433  0.807967  0.572467  0.55
  H  H4632  1  0.192033  0.043467  0.572467  0.55
  H  H4633  1  0.807967  0.851433  0.927533  0.55
  H  H4634  1  0.043467  0.192033  0.927533  0.55
  H  H4635  1  0.148567  0.956533  0.927533  0.55
  H  H4636  1  0.289867  0.815233  0.239133  0.55
  H  H4637  1  0.184767  0.474633  0.239133  0.55
  H  H4638  1  0.525367  0.710133  0.239133  0.55
  H  H4639  1  0.858700  0.481900  0.405800  0.55
  H  H4640  1  0.623200  0.141300  0.405800  0.55
  H  H4641  1  0.518100  0.376800  0.405800  0.55
  H  H4642  1  0.376800  0.518100  0.094200  0.55
  H  H4643  1  0.481900  0.858700  0.094200  0.55
  H  H4644  1  0.141300  0.623200  0.094200  0.55
  H  H4645  1  0.192033  0.148567  0.072467  0.55
  H  H4646  1  0.956533  0.807967  0.072467  0.55
  H  H4647  1  0.851433  0.043467  0.072467  0.55
  H  H4648  1  0.710133  0.184767  0.760867  0.55
  H  H4649  1  0.815233  0.525367  0.760867  0.55
  H  H4650  1  0.474633  0.289867  0.760867  0.55
  H  H4651  1  0.525367  0.815233  0.739133  0.55
  H  H4652  1  0.289867  0.474633  0.739133  0.55
  H  H4653  1  0.184767  0.710133  0.739133  0.55
  H  H4654  1  0.043467  0.851433  0.427533  0.55
  H  H4655  1  0.148567  0.192033  0.427533  0.55
  H  H4656  1  0.807967  0.956533  0.427533  0.55
  H  H4657  1  0.118700  0.484000  0.584400  0.55
  H  H4658  1  0.365300  0.881300  0.584400  0.55
  H  H4659  1  0.516000  0.634700  0.584400  0.55
  H  H4660  1  0.634700  0.516000  0.915600  0.55
  H  H4661  1  0.484000  0.118700  0.915600  0.55
  H  H4662  1  0.881300  0.365300  0.915600  0.55
  H  H4663  1  0.452033  0.150667  0.251067  0.55
  H  H4664  1  0.698633  0.547967  0.251067  0.55
  H  H4665  1  0.849333  0.301367  0.251067  0.55
  H  H4666  1  0.968033  0.182667  0.582267  0.55
  H  H4667  1  0.817333  0.785367  0.582267  0.55
  H  H4668  1  0.214633  0.031967  0.582267  0.55
  H  H4669  1  0.785367  0.817333  0.917733  0.55
  H  H4670  1  0.031967  0.214633  0.917733  0.55
  H  H4671  1  0.182667  0.968033  0.917733  0.55
  H  H4672  1  0.301367  0.849333  0.248933  0.55
  H  H4673  1  0.150667  0.452033  0.248933  0.55
  H  H4674  1  0.547967  0.698633  0.248933  0.55
  H  H4675  1  0.881300  0.516000  0.415600  0.55
  H  H4676  1  0.634700  0.118700  0.415600  0.55
  H  H4677  1  0.484000  0.365300  0.415600  0.55
  H  H4678  1  0.365300  0.484000  0.084400  0.55
  H  H4679  1  0.516000  0.881300  0.084400  0.55
  H  H4680  1  0.118700  0.634700  0.084400  0.55
  H  H4681  1  0.214633  0.182667  0.082267  0.55
  H  H4682  1  0.968033  0.785367  0.082267  0.55
  H  H4683  1  0.817333  0.031967  0.082267  0.55
  H  H4684  1  0.698633  0.150667  0.751067  0.55
  H  H4685  1  0.849333  0.547967  0.751067  0.55
  H  H4686  1  0.452033  0.301367  0.751067  0.55
  H  H4687  1  0.547967  0.849333  0.748933  0.55
  H  H4688  1  0.301367  0.452033  0.748933  0.55
  H  H4689  1  0.150667  0.698633  0.748933  0.55
  H  H4690  1  0.031967  0.817333  0.417733  0.55
  H  H4691  1  0.182667  0.214633  0.417733  0.55
  H  H4692  1  0.785367  0.968033  0.417733  0.55
  H  H4693  1  0.167100  0.532200  0.433900  0.57
  H  H4694  1  0.365100  0.832900  0.433900  0.57
  H  H4695  1  0.467800  0.634900  0.433900  0.57
  H  H4696  1  0.634900  0.467800  0.066100  0.57
  H  H4697  1  0.532200  0.167100  0.066100  0.57
  H  H4698  1  0.832900  0.365100  0.066100  0.57
  H  H4699  1  0.500433  0.198867  0.100567  0.57
  H  H4700  1  0.698433  0.499567  0.100567  0.57
  H  H4701  1  0.801133  0.301567  0.100567  0.57
  H  H4702  1  0.968233  0.134467  0.732767  0.57
  H  H4703  1  0.865533  0.833767  0.732767  0.57
  H  H4704  1  0.166233  0.031767  0.732767  0.57
  H  H4705  1  0.833767  0.865533  0.767233  0.57
  H  H4706  1  0.031767  0.166233  0.767233  0.57
  H  H4707  1  0.134467  0.968233  0.767233  0.57
  H  H4708  1  0.301567  0.801133  0.399433  0.57
  H  H4709  1  0.198867  0.500433  0.399433  0.57
  H  H4710  1  0.499567  0.698433  0.399433  0.57
  H  H4711  1  0.832900  0.467800  0.566100  0.57
  H  H4712  1  0.634900  0.167100  0.566100  0.57
  H  H4713  1  0.532200  0.365100  0.566100  0.57
  H  H4714  1  0.365100  0.532200  0.933900  0.57
  H  H4715  1  0.467800  0.832900  0.933900  0.57
  H  H4716  1  0.167100  0.634900  0.933900  0.57
  H  H4717  1  0.166233  0.134467  0.232767  0.57
  H  H4718  1  0.968233  0.833767  0.232767  0.57
  H  H4719  1  0.865533  0.031767  0.232767  0.57
  H  H4720  1  0.698433  0.198867  0.600567  0.57
  H  H4721  1  0.801133  0.499567  0.600567  0.57
  H  H4722  1  0.500433  0.301567  0.600567  0.57
  H  H4723  1  0.499567  0.801133  0.899433  0.57
  H  H4724  1  0.301567  0.500433  0.899433  0.57
  H  H4725  1  0.198867  0.698433  0.899433  0.57
  H  H4726  1  0.031767  0.865533  0.267233  0.57
  H  H4727  1  0.134467  0.166233  0.267233  0.57
  H  H4728  1  0.833767  0.968233  0.267233  0.57
  H  H4729  1  0.181100  0.499600  0.433900  0.57
  H  H4730  1  0.318500  0.818900  0.433900  0.57
  H  H4731  1  0.500400  0.681500  0.433900  0.57
  H  H4732  1  0.681500  0.500400  0.066100  0.57
  H  H4733  1  0.499600  0.181100  0.066100  0.57
  H  H4734  1  0.818900  0.318500  0.066100  0.57
  H  H4735  1  0.514433  0.166267  0.100567  0.57
  H  H4736  1  0.651833  0.485567  0.100567  0.57
  H  H4737  1  0.833733  0.348167  0.100567  0.57
  H  H4738  1  0.014833  0.167067  0.732767  0.57
  H  H4739  1  0.832933  0.847767  0.732767  0.57
  H  H4740  1  0.152233  0.985167  0.732767  0.57
  H  H4741  1  0.847767  0.832933  0.767233  0.57
  H  H4742  1  0.985167  0.152233  0.767233  0.57
  H  H4743  1  0.167067  0.014833  0.767233  0.57
  H  H4744  1  0.348167  0.833733  0.399433  0.57
  H  H4745  1  0.166267  0.514433  0.399433  0.57
  H  H4746  1  0.485567  0.651833  0.399433  0.57
  H  H4747  1  0.818900  0.500400  0.566100  0.57
  H  H4748  1  0.681500  0.181100  0.566100  0.57
  H  H4749  1  0.499600  0.318500  0.566100  0.57
  H  H4750  1  0.318500  0.499600  0.933900  0.57
  H  H4751  1  0.500400  0.818900  0.933900  0.57
  H  H4752  1  0.181100  0.681500  0.933900  0.57
  H  H4753  1  0.152233  0.167067  0.232767  0.57
  H  H4754  1  0.014833  0.847767  0.232767  0.57
  H  H4755  1  0.832933  0.985167  0.232767  0.57
  H  H4756  1  0.651833  0.166267  0.600567  0.57
  H  H4757  1  0.833733  0.485567  0.600567  0.57
  H  H4758  1  0.514433  0.348167  0.600567  0.57
  H  H4759  1  0.485567  0.833733  0.899433  0.57
  H  H4760  1  0.348167  0.514433  0.899433  0.57
  H  H4761  1  0.166267  0.651833  0.899433  0.57
  H  H4762  1  0.985167  0.832933  0.267233  0.57
  H  H4763  1  0.167067  0.152233  0.267233  0.57
  H  H4764  1  0.847767  0.014833  0.267233  0.57
  H  H4765  1  0.182700  0.640400  0.442300  0.57
  H  H4766  1  0.457700  0.817300  0.442300  0.57
  H  H4767  1  0.359600  0.542300  0.442300  0.57
  H  H4768  1  0.542300  0.359600  0.057700  0.57
  H  H4769  1  0.640400  0.182700  0.057700  0.57
  H  H4770  1  0.817300  0.457700  0.057700  0.57
  H  H4771  1  0.516033  0.307067  0.108967  0.57
  H  H4772  1  0.791033  0.483967  0.108967  0.57
  H  H4773  1  0.692933  0.208967  0.108967  0.57
  H  H4774  1  0.875633  0.026267  0.724367  0.57
  H  H4775  1  0.973733  0.849367  0.724367  0.57
  H  H4776  1  0.150633  0.124367  0.724367  0.57
  H  H4777  1  0.849367  0.973733  0.775633  0.57
  H  H4778  1  0.124367  0.150633  0.775633  0.57
  H  H4779  1  0.026267  0.875633  0.775633  0.57
  H  H4780  1  0.208967  0.692933  0.391033  0.57
  H  H4781  1  0.307067  0.516033  0.391033  0.57
  H  H4782  1  0.483967  0.791033  0.391033  0.57
  H  H4783  1  0.817300  0.359600  0.557700  0.57
  H  H4784  1  0.542300  0.182700  0.557700  0.57
  H  H4785  1  0.640400  0.457700  0.557700  0.57
  H  H4786  1  0.457700  0.640400  0.942300  0.57
  H  H4787  1  0.359600  0.817300  0.942300  0.57
  H  H4788  1  0.182700  0.542300  0.942300  0.57
  H  H4789  1  0.150633  0.026267  0.224367  0.57
  H  H4790  1  0.875633  0.849367  0.224367  0.57
  H  H4791  1  0.973733  0.124367  0.224367  0.57
  H  H4792  1  0.791033  0.307067  0.608967  0.57
  H  H4793  1  0.692933  0.483967  0.608967  0.57
  H  H4794  1  0.516033  0.208967  0.608967  0.57
  H  H4795  1  0.483967  0.692933  0.891033  0.57
  H  H4796  1  0.208967  0.516033  0.891033  0.57
  H  H4797  1  0.307067  0.791033  0.891033  0.57
  H  H4798  1  0.124367  0.973733  0.275633  0.57
  H  H4799  1  0.026267  0.150633  0.275633  0.57
  H  H4800  1  0.849367  0.875633  0.275633  0.57
  H  H4801  1  0.170100  0.672900  0.445600  0.57
  H  H4802  1  0.502800  0.829900  0.445600  0.57
  H  H4803  1  0.327100  0.497200  0.445600  0.57
  H  H4804  1  0.497200  0.327100  0.054400  0.57
  H  H4805  1  0.672900  0.170100  0.054400  0.57
  H  H4806  1  0.829900  0.502800  0.054400  0.57
  H  H4807  1  0.503433  0.339567  0.112267  0.57
  H  H4808  1  0.836133  0.496567  0.112267  0.57
  H  H4809  1  0.660433  0.163867  0.112267  0.57
  H  H4810  1  0.830533  0.993767  0.721067  0.57
  H  H4811  1  0.006233  0.836767  0.721067  0.57
  H  H4812  1  0.163233  0.169467  0.721067  0.57
  H  H4813  1  0.836767  0.006233  0.778933  0.57
  H  H4814  1  0.169467  0.163233  0.778933  0.57
  H  H4815  1  0.993767  0.830533  0.778933  0.57
  H  H4816  1  0.163867  0.660433  0.387733  0.57
  H  H4817  1  0.339567  0.503433  0.387733  0.57
  H  H4818  1  0.496567  0.836133  0.387733  0.57
  H  H4819  1  0.829900  0.327100  0.554400  0.57
  H  H4820  1  0.497200  0.170100  0.554400  0.57
  H  H4821  1  0.672900  0.502800  0.554400  0.57
  H  H4822  1  0.502800  0.672900  0.945600  0.57
  H  H4823  1  0.327100  0.829900  0.945600  0.57
  H  H4824  1  0.170100  0.497200  0.945600  0.57
  H  H4825  1  0.163233  0.993767  0.221067  0.57
  H  H4826  1  0.830533  0.836767  0.221067  0.57
  H  H4827  1  0.006233  0.169467  0.221067  0.57
  H  H4828  1  0.836133  0.339567  0.612267  0.57
  H  H4829  1  0.660433  0.496567  0.612267  0.57
  H  H4830  1  0.503433  0.163867  0.612267  0.57
  H  H4831  1  0.496567  0.660433  0.887733  0.57
  H  H4832  1  0.163867  0.503433  0.887733  0.57
  H  H4833  1  0.339567  0.836133  0.887733  0.57
  H  H4834  1  0.169467  0.006233  0.278933  0.57
  H  H4835  1  0.993767  0.163233  0.278933  0.57
  H  H4836  1  0.836767  0.830533  0.278933  0.57
  H  H4837  1  0.132100  0.634300  0.428700  0.57
  H  H4838  1  0.502200  0.867900  0.428700  0.57
  H  H4839  1  0.365700  0.497800  0.428700  0.57
  H  H4840  1  0.497800  0.365700  0.071300  0.57
  H  H4841  1  0.634300  0.132100  0.071300  0.57
  H  H4842  1  0.867900  0.502200  0.071300  0.57
  H  H4843  1  0.465433  0.300967  0.095367  0.57
  H  H4844  1  0.835533  0.534567  0.095367  0.57
  H  H4845  1  0.699033  0.164467  0.095367  0.57
  H  H4846  1  0.831133  0.032367  0.737967  0.57
  H  H4847  1  0.967633  0.798767  0.737967  0.57
  H  H4848  1  0.201233  0.168867  0.737967  0.57
  H  H4849  1  0.798767  0.967633  0.762033  0.57
  H  H4850  1  0.168867  0.201233  0.762033  0.57
  H  H4851  1  0.032367  0.831133  0.762033  0.57
  H  H4852  1  0.164467  0.699033  0.404633  0.57
  H  H4853  1  0.300967  0.465433  0.404633  0.57
  H  H4854  1  0.534567  0.835533  0.404633  0.57
  H  H4855  1  0.867900  0.365700  0.571300  0.57
  H  H4856  1  0.497800  0.132100  0.571300  0.57
  H  H4857  1  0.634300  0.502200  0.571300  0.57
  H  H4858  1  0.502200  0.634300  0.928700  0.57
  H  H4859  1  0.365700  0.867900  0.928700  0.57
  H  H4860  1  0.132100  0.497800  0.928700  0.57
  H  H4861  1  0.201233  0.032367  0.237967  0.57
  H  H4862  1  0.831133  0.798767  0.237967  0.57
  H  H4863  1  0.967633  0.168867  0.237967  0.57
  H  H4864  1  0.835533  0.300967  0.595367  0.57
  H  H4865  1  0.699033  0.534567  0.595367  0.57
  H  H4866  1  0.465433  0.164467  0.595367  0.57
  H  H4867  1  0.534567  0.699033  0.904633  0.57
  H  H4868  1  0.164467  0.465433  0.904633  0.57
  H  H4869  1  0.300967  0.835533  0.904633  0.57
  H  H4870  1  0.168867  0.967633  0.262033  0.57
  H  H4871  1  0.032367  0.201233  0.262033  0.57
  H  H4872  1  0.798767  0.831133  0.262033  0.57
  H  H4873  1  0.115400  0.594400  0.436500  0.57
  H  H4874  1  0.479000  0.884600  0.436500  0.57
  H  H4875  1  0.405600  0.521000  0.436500  0.57
  H  H4876  1  0.521000  0.405600  0.063500  0.57
  H  H4877  1  0.594400  0.115400  0.063500  0.57
  H  H4878  1  0.884600  0.479000  0.063500  0.57
  H  H4879  1  0.448733  0.261067  0.103167  0.57
  H  H4880  1  0.812333  0.551267  0.103167  0.57
  H  H4881  1  0.738933  0.187667  0.103167  0.57
  H  H4882  1  0.854333  0.072267  0.730167  0.57
  H  H4883  1  0.927733  0.782067  0.730167  0.57
  H  H4884  1  0.217933  0.145667  0.730167  0.57
  H  H4885  1  0.782067  0.927733  0.769833  0.57
  H  H4886  1  0.145667  0.217933  0.769833  0.57
  H  H4887  1  0.072267  0.854333  0.769833  0.57
  H  H4888  1  0.187667  0.738933  0.396833  0.57
  H  H4889  1  0.261067  0.448733  0.396833  0.57
  H  H4890  1  0.551267  0.812333  0.396833  0.57
  H  H4891  1  0.884600  0.405600  0.563500  0.57
  H  H4892  1  0.521000  0.115400  0.563500  0.57
  H  H4893  1  0.594400  0.479000  0.563500  0.57
  H  H4894  1  0.479000  0.594400  0.936500  0.57
  H  H4895  1  0.405600  0.884600  0.936500  0.57
  H  H4896  1  0.115400  0.521000  0.936500  0.57
  H  H4897  1  0.217933  0.072267  0.230167  0.57
  H  H4898  1  0.854333  0.782067  0.230167  0.57
  H  H4899  1  0.927733  0.145667  0.230167  0.57
  H  H4900  1  0.812333  0.261067  0.603167  0.57
  H  H4901  1  0.738933  0.551267  0.603167  0.57
  H  H4902  1  0.448733  0.187667  0.603167  0.57
  H  H4903  1  0.551267  0.738933  0.896833  0.57
  H  H4904  1  0.187667  0.448733  0.896833  0.57
  H  H4905  1  0.261067  0.812333  0.896833  0.57
  H  H4906  1  0.145667  0.927733  0.269833  0.57
  H  H4907  1  0.072267  0.217933  0.269833  0.57
  H  H4908  1  0.782067  0.854333  0.269833  0.57
  H  H4909  1  0.102800  0.626800  0.439700  0.57
  H  H4910  1  0.524000  0.897200  0.439700  0.57
  H  H4911  1  0.373200  0.476000  0.439700  0.57
  H  H4912  1  0.476000  0.373200  0.060300  0.57
  H  H4913  1  0.626800  0.102800  0.060300  0.57
  H  H4914  1  0.897200  0.524000  0.060300  0.57
  H  H4915  1  0.436133  0.293467  0.106367  0.57
  H  H4916  1  0.857333  0.563867  0.106367  0.57
  H  H4917  1  0.706533  0.142667  0.106367  0.57
  H  H4918  1  0.809333  0.039867  0.726967  0.57
  H  H4919  1  0.960133  0.769467  0.726967  0.57
  H  H4920  1  0.230533  0.190667  0.726967  0.57
  H  H4921  1  0.769467  0.960133  0.773033  0.57
  H  H4922  1  0.190667  0.230533  0.773033  0.57
  H  H4923  1  0.039867  0.809333  0.773033  0.57
  H  H4924  1  0.142667  0.706533  0.393633  0.57
  H  H4925  1  0.293467  0.436133  0.393633  0.57
  H  H4926  1  0.563867  0.857333  0.393633  0.57
  H  H4927  1  0.897200  0.373200  0.560300  0.57
  H  H4928  1  0.476000  0.102800  0.560300  0.57
  H  H4929  1  0.626800  0.524000  0.560300  0.57
  H  H4930  1  0.524000  0.626800  0.939700  0.57
  H  H4931  1  0.373200  0.897200  0.939700  0.57
  H  H4932  1  0.102800  0.476000  0.939700  0.57
  H  H4933  1  0.230533  0.039867  0.226967  0.57
  H  H4934  1  0.809333  0.769467  0.226967  0.57
  H  H4935  1  0.960133  0.190667  0.226967  0.57
  H  H4936  1  0.857333  0.293467  0.606367  0.57
  H  H4937  1  0.706533  0.563867  0.606367  0.57
  H  H4938  1  0.436133  0.142667  0.606367  0.57
  H  H4939  1  0.563867  0.706533  0.893633  0.57
  H  H4940  1  0.142667  0.436133  0.893633  0.57
  H  H4941  1  0.293467  0.857333  0.893633  0.57
  H  H4942  1  0.190667  0.960133  0.273033  0.57
  H  H4943  1  0.039867  0.230533  0.273033  0.57
  H  H4944  1  0.769467  0.809333  0.273033  0.57
  H  H4945  1  0.236900  0.563800  0.428800  0.57
  H  H4946  1  0.326900  0.763100  0.428800  0.57
  H  H4947  1  0.436200  0.673100  0.428800  0.57
  H  H4948  1  0.673100  0.436200  0.071200  0.57
  H  H4949  1  0.563800  0.236900  0.071200  0.57
  H  H4950  1  0.763100  0.326900  0.071200  0.57
  H  H4951  1  0.570233  0.230467  0.095467  0.57
  H  H4952  1  0.660233  0.429767  0.095467  0.57
  H  H4953  1  0.769533  0.339767  0.095467  0.57
  H  H4954  1  0.006433  0.102867  0.737867  0.57
  H  H4955  1  0.897133  0.903567  0.737867  0.57
  H  H4956  1  0.096433  0.993567  0.737867  0.57
  H  H4957  1  0.903567  0.897133  0.762133  0.57
  H  H4958  1  0.993567  0.096433  0.762133  0.57
  H  H4959  1  0.102867  0.006433  0.762133  0.57
  H  H4960  1  0.339767  0.769533  0.404533  0.57
  H  H4961  1  0.230467  0.570233  0.404533  0.57
  H  H4962  1  0.429767  0.660233  0.404533  0.57
  H  H4963  1  0.763100  0.436200  0.571200  0.57
  H  H4964  1  0.673100  0.236900  0.571200  0.57
  H  H4965  1  0.563800  0.326900  0.571200  0.57
  H  H4966  1  0.326900  0.563800  0.928800  0.57
  H  H4967  1  0.436200  0.763100  0.928800  0.57
  H  H4968  1  0.236900  0.673100  0.928800  0.57
  H  H4969  1  0.096433  0.102867  0.237867  0.57
  H  H4970  1  0.006433  0.903567  0.237867  0.57
  H  H4971  1  0.897133  0.993567  0.237867  0.57
  H  H4972  1  0.660233  0.230467  0.595467  0.57
  H  H4973  1  0.769533  0.429767  0.595467  0.57
  H  H4974  1  0.570233  0.339767  0.595467  0.57
  H  H4975  1  0.429767  0.769533  0.904533  0.57
  H  H4976  1  0.339767  0.570233  0.904533  0.57
  H  H4977  1  0.230467  0.660233  0.904533  0.57
  H  H4978  1  0.993567  0.897133  0.262133  0.57
  H  H4979  1  0.102867  0.096433  0.262133  0.57
  H  H4980  1  0.903567  0.006433  0.262133  0.57
  H  H4981  1  0.231900  0.581700  0.441100  0.57
  H  H4982  1  0.349800  0.768100  0.441100  0.57
  H  H4983  1  0.418300  0.650200  0.441100  0.57
  H  H4984  1  0.650200  0.418300  0.058900  0.57
  H  H4985  1  0.581700  0.231900  0.058900  0.57
  H  H4986  1  0.768100  0.349800  0.058900  0.57
  H  H4987  1  0.565233  0.248367  0.107767  0.57
  H  H4988  1  0.683133  0.434767  0.107767  0.57
  H  H4989  1  0.751633  0.316867  0.107767  0.57
  H  H4990  1  0.983533  0.084967  0.725567  0.57
  H  H4991  1  0.915033  0.898567  0.725567  0.57
  H  H4992  1  0.101433  0.016467  0.725567  0.57
  H  H4993  1  0.898567  0.915033  0.774433  0.57
  H  H4994  1  0.016467  0.101433  0.774433  0.57
  H  H4995  1  0.084967  0.983533  0.774433  0.57
  H  H4996  1  0.316867  0.751633  0.392233  0.57
  H  H4997  1  0.248367  0.565233  0.392233  0.57
  H  H4998  1  0.434767  0.683133  0.392233  0.57
  H  H4999  1  0.768100  0.418300  0.558900  0.57
  H  H5000  1  0.650200  0.231900  0.558900  0.57
  H  H5001  1  0.581700  0.349800  0.558900  0.57
  H  H5002  1  0.349800  0.581700  0.941100  0.57
  H  H5003  1  0.418300  0.768100  0.941100  0.57
  H  H5004  1  0.231900  0.650200  0.941100  0.57
  H  H5005  1  0.101433  0.084967  0.225567  0.57
  H  H5006  1  0.983533  0.898567  0.225567  0.57
  H  H5007  1  0.915033  0.016467  0.225567  0.57
  H  H5008  1  0.683133  0.248367  0.607767  0.57
  H  H5009  1  0.751633  0.434767  0.607767  0.57
  H  H5010  1  0.565233  0.316867  0.607767  0.57
  H  H5011  1  0.434767  0.751633  0.892233  0.57
  H  H5012  1  0.316867  0.565233  0.892233  0.57
  H  H5013  1  0.248367  0.683133  0.892233  0.57
  H  H5014  1  0.016467  0.915033  0.274433  0.57
  H  H5015  1  0.084967  0.101433  0.274433  0.57
  H  H5016  1  0.898567  0.983533  0.274433  0.57
  H  H5017  1  0.245800  0.549300  0.441200  0.57
  H  H5018  1  0.303500  0.754200  0.441200  0.57
  H  H5019  1  0.450700  0.696500  0.441200  0.57
  H  H5020  1  0.696500  0.450700  0.058800  0.57
  H  H5021  1  0.549300  0.245800  0.058800  0.57
  H  H5022  1  0.754200  0.303500  0.058800  0.57
  H  H5023  1  0.579133  0.215967  0.107867  0.57
  H  H5024  1  0.636833  0.420867  0.107867  0.57
  H  H5025  1  0.784033  0.363167  0.107867  0.57
  H  H5026  1  0.029833  0.117367  0.725467  0.57
  H  H5027  1  0.882633  0.912467  0.725467  0.57
  H  H5028  1  0.087533  0.970167  0.725467  0.57
  H  H5029  1  0.912467  0.882633  0.774533  0.57
  H  H5030  1  0.970167  0.087533  0.774533  0.57
  H  H5031  1  0.117367  0.029833  0.774533  0.57
  H  H5032  1  0.363167  0.784033  0.392133  0.57
  H  H5033  1  0.215967  0.579133  0.392133  0.57
  H  H5034  1  0.420867  0.636833  0.392133  0.57
  H  H5035  1  0.754200  0.450700  0.558800  0.57
  H  H5036  1  0.696500  0.245800  0.558800  0.57
  H  H5037  1  0.549300  0.303500  0.558800  0.57
  H  H5038  1  0.303500  0.549300  0.941200  0.57
  H  H5039  1  0.450700  0.754200  0.941200  0.57
  H  H5040  1  0.245800  0.696500  0.941200  0.57
  H  H5041  1  0.087533  0.117367  0.225467  0.57
  H  H5042  1  0.029833  0.912467  0.225467  0.57
  H  H5043  1  0.882633  0.970167  0.225467  0.57
  H  H5044  1  0.636833  0.215967  0.607867  0.57
  H  H5045  1  0.784033  0.420867  0.607867  0.57
  H  H5046  1  0.579133  0.363167  0.607867  0.57
  H  H5047  1  0.420867  0.784033  0.892133  0.57
  H  H5048  1  0.363167  0.579133  0.892133  0.57
  H  H5049  1  0.215967  0.636833  0.892133  0.57
  H  H5050  1  0.970167  0.882633  0.274533  0.57
  H  H5051  1  0.117367  0.087533  0.274533  0.57
  H  H5052  1  0.912467  0.029833  0.274533  0.57
  H  H5053  1  0.048200  0.326200  0.457000  0.6667
  H  H5054  1  0.278000  0.951800  0.457000  0.6667
  H  H5055  1  0.673800  0.722000  0.457000  0.6667
  H  H5056  1  0.722000  0.673800  0.043000  0.6667
  H  H5057  1  0.326200  0.048200  0.043000  0.6667
  H  H5058  1  0.951800  0.278000  0.043000  0.6667
  H  H5059  1  0.381533  0.992867  0.123667  0.6667
  H  H5060  1  0.611333  0.618467  0.123667  0.6667
  H  H5061  1  0.007133  0.388667  0.123667  0.6667
  H  H5062  1  0.055333  0.340467  0.709667  0.6667
  H  H5063  1  0.659533  0.714867  0.709667  0.6667
  H  H5064  1  0.285133  0.944667  0.709667  0.6667
  H  H5065  1  0.714867  0.659533  0.790333  0.6667
  H  H5066  1  0.944667  0.285133  0.790333  0.6667
  H  H5067  1  0.340467  0.055333  0.790333  0.6667
  H  H5068  1  0.388667  0.007133  0.376333  0.6667
  H  H5069  1  0.992867  0.381533  0.376333  0.6667
  H  H5070  1  0.618467  0.611333  0.376333  0.6667
  H  H5071  1  0.951800  0.673800  0.543000  0.6667
  H  H5072  1  0.722000  0.048200  0.543000  0.6667
  H  H5073  1  0.326200  0.278000  0.543000  0.6667
  H  H5074  1  0.278000  0.326200  0.957000  0.6667
  H  H5075  1  0.673800  0.951800  0.957000  0.6667
  H  H5076  1  0.048200  0.722000  0.957000  0.6667
  H  H5077  1  0.285133  0.340467  0.209667  0.6667
  H  H5078  1  0.055333  0.714867  0.209667  0.6667
  H  H5079  1  0.659533  0.944667  0.209667  0.6667
  H  H5080  1  0.611333  0.992867  0.623667  0.6667
  H  H5081  1  0.007133  0.618467  0.623667  0.6667
  H  H5082  1  0.381533  0.388667  0.623667  0.6667
  H  H5083  1  0.618467  0.007133  0.876333  0.6667
  H  H5084  1  0.388667  0.381533  0.876333  0.6667
  H  H5085  1  0.992867  0.611333  0.876333  0.6667
  H  H5086  1  0.944667  0.659533  0.290333  0.6667
  H  H5087  1  0.340467  0.285133  0.290333  0.6667
  H  H5088  1  0.714867  0.055333  0.290333  0.6667
  H  H5089  1  0.081300  0.368300  0.440800  0.6667
  H  H5090  1  0.287000  0.918700  0.440800  0.6667
  H  H5091  1  0.631700  0.713000  0.440800  0.6667
  H  H5092  1  0.713000  0.631700  0.059200  0.6667
  H  H5093  1  0.368300  0.081300  0.059200  0.6667
  H  H5094  1  0.918700  0.287000  0.059200  0.6667
  H  H5095  1  0.414633  0.034967  0.107467  0.6667
  H  H5096  1  0.620333  0.585367  0.107467  0.6667
  H  H5097  1  0.965033  0.379667  0.107467  0.6667
  H  H5098  1  0.046333  0.298367  0.725867  0.6667
  H  H5099  1  0.701633  0.747967  0.725867  0.6667
  H  H5100  1  0.252033  0.953667  0.725867  0.6667
  H  H5101  1  0.747967  0.701633  0.774133  0.6667
  H  H5102  1  0.953667  0.252033  0.774133  0.6667
  H  H5103  1  0.298367  0.046333  0.774133  0.6667
  H  H5104  1  0.379667  0.965033  0.392533  0.6667
  H  H5105  1  0.034967  0.414633  0.392533  0.6667
  H  H5106  1  0.585367  0.620333  0.392533  0.6667
  H  H5107  1  0.918700  0.631700  0.559200  0.6667
  H  H5108  1  0.713000  0.081300  0.559200  0.6667
  H  H5109  1  0.368300  0.287000  0.559200  0.6667
  H  H5110  1  0.287000  0.368300  0.940800  0.6667
  H  H5111  1  0.631700  0.918700  0.940800  0.6667
  H  H5112  1  0.081300  0.713000  0.940800  0.6667
  H  H5113  1  0.252033  0.298367  0.225867  0.6667
  H  H5114  1  0.046333  0.747967  0.225867  0.6667
  H  H5115  1  0.701633  0.953667  0.225867  0.6667
  H  H5116  1  0.620333  0.034967  0.607467  0.6667
  H  H5117  1  0.965033  0.585367  0.607467  0.6667
  H  H5118  1  0.414633  0.379667  0.607467  0.6667
  H  H5119  1  0.585367  0.965033  0.892533  0.6667
  H  H5120  1  0.379667  0.414633  0.892533  0.6667
  H  H5121  1  0.034967  0.620333  0.892533  0.6667
  H  H5122  1  0.953667  0.701633  0.274133  0.6667
  H  H5123  1  0.298367  0.252033  0.274133  0.6667
  H  H5124  1  0.747967  0.046333  0.274133  0.6667
  H  H5125  1  0.093700  0.434100  0.440800  0.6667
  H  H5126  1  0.340400  0.906300  0.440800  0.6667
  H  H5127  1  0.565900  0.659600  0.440800  0.6667
  H  H5128  1  0.659600  0.565900  0.059200  0.6667
  H  H5129  1  0.434100  0.093700  0.059200  0.6667
  H  H5130  1  0.906300  0.340400  0.059200  0.6667
  H  H5131  1  0.427033  0.100767  0.107467  0.6667
  H  H5132  1  0.673733  0.572967  0.107467  0.6667
  H  H5133  1  0.899233  0.326267  0.107467  0.6667
  H  H5134  1  0.992933  0.232567  0.725867  0.6667
  H  H5135  1  0.767433  0.760367  0.725867  0.6667
  H  H5136  1  0.239633  0.007067  0.725867  0.6667
  H  H5137  1  0.760367  0.767433  0.774133  0.6667
  H  H5138  1  0.007067  0.239633  0.774133  0.6667
  H  H5139  1  0.232567  0.992933  0.774133  0.6667
  H  H5140  1  0.326267  0.899233  0.392533  0.6667
  H  H5141  1  0.100767  0.427033  0.392533  0.6667
  H  H5142  1  0.572967  0.673733  0.392533  0.6667
  H  H5143  1  0.906300  0.565900  0.559200  0.6667
  H  H5144  1  0.659600  0.093700  0.559200  0.6667
  H  H5145  1  0.434100  0.340400  0.559200  0.6667
  H  H5146  1  0.340400  0.434100  0.940800  0.6667
  H  H5147  1  0.565900  0.906300  0.940800  0.6667
  H  H5148  1  0.093700  0.659600  0.940800  0.6667
  H  H5149  1  0.239633  0.232567  0.225867  0.6667
  H  H5150  1  0.992933  0.760367  0.225867  0.6667
  H  H5151  1  0.767433  0.007067  0.225867  0.6667
  H  H5152  1  0.673733  0.100767  0.607467  0.6667
  H  H5153  1  0.899233  0.572967  0.607467  0.6667
  H  H5154  1  0.427033  0.326267  0.607467  0.6667
  H  H5155  1  0.572967  0.899233  0.892533  0.6667
  H  H5156  1  0.326267  0.427033  0.892533  0.6667
  H  H5157  1  0.100767  0.673733  0.892533  0.6667
  H  H5158  1  0.007067  0.767433  0.274133  0.6667
  H  H5159  1  0.232567  0.239633  0.274133  0.6667
  H  H5160  1  0.760367  0.992933  0.274133  0.6667
  H  H5161  1  0.072900  0.457600  0.457000  0.6667
  H  H5162  1  0.384700  0.927100  0.457000  0.6667
  H  H5163  1  0.542400  0.615300  0.457000  0.6667
  H  H5164  1  0.615300  0.542400  0.043000  0.6667
  H  H5165  1  0.457600  0.072900  0.043000  0.6667
  H  H5166  1  0.927100  0.384700  0.043000  0.6667
  H  H5167  1  0.406233  0.124267  0.123667  0.6667
  H  H5168  1  0.718033  0.593767  0.123667  0.6667
  H  H5169  1  0.875733  0.281967  0.123667  0.6667
  H  H5170  1  0.948633  0.209067  0.709667  0.6667
  H  H5171  1  0.790933  0.739567  0.709667  0.6667
  H  H5172  1  0.260433  0.051367  0.709667  0.6667
  H  H5173  1  0.739567  0.790933  0.790333  0.6667
  H  H5174  1  0.051367  0.260433  0.790333  0.6667
  H  H5175  1  0.209067  0.948633  0.790333  0.6667
  H  H5176  1  0.281967  0.875733  0.376333  0.6667
  H  H5177  1  0.124267  0.406233  0.376333  0.6667
  H  H5178  1  0.593767  0.718033  0.376333  0.6667
  H  H5179  1  0.927100  0.542400  0.543000  0.6667
  H  H5180  1  0.615300  0.072900  0.543000  0.6667
  H  H5181  1  0.457600  0.384700  0.543000  0.6667
  H  H5182  1  0.384700  0.457600  0.957000  0.6667
  H  H5183  1  0.542400  0.927100  0.957000  0.6667
  H  H5184  1  0.072900  0.615300  0.957000  0.6667
  H  H5185  1  0.260433  0.209067  0.209667  0.6667
  H  H5186  1  0.948633  0.739567  0.209667  0.6667
  H  H5187  1  0.790933  0.051367  0.209667  0.6667
  H  H5188  1  0.718033  0.124267  0.623667  0.6667
  H  H5189  1  0.875733  0.593767  0.623667  0.6667
  H  H5190  1  0.406233  0.281967  0.623667  0.6667
  H  H5191  1  0.593767  0.875733  0.876333  0.6667
  H  H5192  1  0.281967  0.406233  0.876333  0.6667
  H  H5193  1  0.124267  0.718033  0.876333  0.6667
  H  H5194  1  0.051367  0.790933  0.290333  0.6667
  H  H5195  1  0.209067  0.260433  0.290333  0.6667
  H  H5196  1  0.739567  0.948633  0.290333  0.6667
  H  H5197  1  0.039700  0.415300  0.473300  0.6667
  H  H5198  1  0.375600  0.960300  0.473300  0.6667
  H  H5199  1  0.584700  0.624400  0.473300  0.6667
  H  H5200  1  0.624400  0.584700  0.026700  0.6667
  H  H5201  1  0.415300  0.039700  0.026700  0.6667
  H  H5202  1  0.960300  0.375600  0.026700  0.6667
  H  H5203  1  0.373033  0.081967  0.139967  0.6667
  H  H5204  1  0.708933  0.626967  0.139967  0.6667
  H  H5205  1  0.918033  0.291067  0.139967  0.6667
  H  H5206  1  0.957733  0.251367  0.693367  0.6667
  H  H5207  1  0.748633  0.706367  0.693367  0.6667
  H  H5208  1  0.293633  0.042267  0.693367  0.6667
  H  H5209  1  0.706367  0.748633  0.806633  0.6667
  H  H5210  1  0.042267  0.293633  0.806633  0.6667
  H  H5211  1  0.251367  0.957733  0.806633  0.6667
  H  H5212  1  0.291067  0.918033  0.360033  0.6667
  H  H5213  1  0.081967  0.373033  0.360033  0.6667
  H  H5214  1  0.626967  0.708933  0.360033  0.6667
  H  H5215  1  0.960300  0.584700  0.526700  0.6667
  H  H5216  1  0.624400  0.039700  0.526700  0.6667
  H  H5217  1  0.415300  0.375600  0.526700  0.6667
  H  H5218  1  0.375600  0.415300  0.973300  0.6667
  H  H5219  1  0.584700  0.960300  0.973300  0.6667
  H  H5220  1  0.039700  0.624400  0.973300  0.6667
  H  H5221  1  0.293633  0.251367  0.193367  0.6667
  H  H5222  1  0.957733  0.706367  0.193367  0.6667
  H  H5223  1  0.748633  0.042267  0.193367  0.6667
  H  H5224  1  0.708933  0.081967  0.639967  0.6667
  H  H5225  1  0.918033  0.626967  0.639967  0.6667
  H  H5226  1  0.373033  0.291067  0.639967  0.6667
  H  H5227  1  0.626967  0.918033  0.860033  0.6667
  H  H5228  1  0.291067  0.373033  0.860033  0.6667
  H  H5229  1  0.081967  0.708933  0.860033  0.6667
  H  H5230  1  0.042267  0.748633  0.306633  0.6667
  H  H5231  1  0.251367  0.293633  0.306633  0.6667
  H  H5232  1  0.706367  0.957733  0.306633  0.6667
  C  C5233  1  0.148000  0.491000  0.430900  0.43
  C  C5234  1  0.343000  0.852000  0.430900  0.43
  C  C5235  1  0.509000  0.657000  0.430900  0.43
  C  C5236  1  0.657000  0.509000  0.069100  0.43
  C  C5237  1  0.491000  0.148000  0.069100  0.43
  C  C5238  1  0.852000  0.343000  0.069100  0.43
  C  C5239  1  0.481333  0.157667  0.097567  0.43
  C  C5240  1  0.676333  0.518667  0.097567  0.43
  C  C5241  1  0.842333  0.323667  0.097567  0.43
  C  C5242  1  0.990333  0.175667  0.735767  0.43
  C  C5243  1  0.824333  0.814667  0.735767  0.43
  C  C5244  1  0.185333  0.009667  0.735767  0.43
  C  C5245  1  0.814667  0.824333  0.764233  0.43
  C  C5246  1  0.009667  0.185333  0.764233  0.43
  C  C5247  1  0.175667  0.990333  0.764233  0.43
  C  C5248  1  0.323667  0.842333  0.402433  0.43
  C  C5249  1  0.157667  0.481333  0.402433  0.43
  C  C5250  1  0.518667  0.676333  0.402433  0.43
  C  C5251  1  0.852000  0.509000  0.569100  0.43
  C  C5252  1  0.657000  0.148000  0.569100  0.43
  C  C5253  1  0.491000  0.343000  0.569100  0.43
  C  C5254  1  0.343000  0.491000  0.930900  0.43
  C  C5255  1  0.509000  0.852000  0.930900  0.43
  C  C5256  1  0.148000  0.657000  0.930900  0.43
  C  C5257  1  0.185333  0.175667  0.235767  0.43
  C  C5258  1  0.990333  0.814667  0.235767  0.43
  C  C5259  1  0.824333  0.009667  0.235767  0.43
  C  C5260  1  0.676333  0.157667  0.597567  0.43
  C  C5261  1  0.842333  0.518667  0.597567  0.43
  C  C5262  1  0.481333  0.323667  0.597567  0.43
  C  C5263  1  0.518667  0.842333  0.902433  0.43
  C  C5264  1  0.323667  0.481333  0.902433  0.43
  C  C5265  1  0.157667  0.676333  0.902433  0.43
  C  C5266  1  0.009667  0.824333  0.264233  0.43
  C  C5267  1  0.175667  0.185333  0.264233  0.43
  C  C5268  1  0.814667  0.990333  0.264233  0.43
  C  C5269  1  0.205800  0.669700  0.445100  0.43
  C  C5270  1  0.463900  0.794200  0.445100  0.43
  C  C5271  1  0.330300  0.536100  0.445100  0.43
  C  C5272  1  0.536100  0.330300  0.054900  0.43
  C  C5273  1  0.669700  0.205800  0.054900  0.43
  C  C5274  1  0.794200  0.463900  0.054900  0.43
  C  C5275  1  0.539133  0.336367  0.111767  0.43
  C  C5276  1  0.797233  0.460867  0.111767  0.43
  C  C5277  1  0.663633  0.202767  0.111767  0.43
  C  C5278  1  0.869433  0.996967  0.721567  0.43
  C  C5279  1  0.003033  0.872467  0.721567  0.43
  C  C5280  1  0.127533  0.130567  0.721567  0.43
  C  C5281  1  0.872467  0.003033  0.778433  0.43
  C  C5282  1  0.130567  0.127533  0.778433  0.43
  C  C5283  1  0.996967  0.869433  0.778433  0.43
  C  C5284  1  0.202767  0.663633  0.388233  0.43
  C  C5285  1  0.336367  0.539133  0.388233  0.43
  C  C5286  1  0.460867  0.797233  0.388233  0.43
  C  C5287  1  0.794200  0.330300  0.554900  0.43
  C  C5288  1  0.536100  0.205800  0.554900  0.43
  C  C5289  1  0.669700  0.463900  0.554900  0.43
  C  C5290  1  0.463900  0.669700  0.945100  0.43
  C  C5291  1  0.330300  0.794200  0.945100  0.43
  C  C5292  1  0.205800  0.536100  0.945100  0.43
  C  C5293  1  0.127533  0.996967  0.221567  0.43
  C  C5294  1  0.869433  0.872467  0.221567  0.43
  C  C5295  1  0.003033  0.130567  0.221567  0.43
  C  C5296  1  0.797233  0.336367  0.611767  0.43
  C  C5297  1  0.663633  0.460867  0.611767  0.43
  C  C5298  1  0.539133  0.202767  0.611767  0.43
  C  C5299  1  0.460867  0.663633  0.888233  0.43
  C  C5300  1  0.202767  0.539133  0.888233  0.43
  C  C5301  1  0.336367  0.797233  0.888233  0.43
  C  C5302  1  0.130567  0.003033  0.278433  0.43
  C  C5303  1  0.996967  0.127533  0.278433  0.43
  C  C5304  1  0.872467  0.869433  0.278433  0.43
  C  C5305  1  0.146100  0.270600  0.467530  1.0
  C  C5306  1  0.124500  0.853900  0.467530  1.0
  C  C5307  1  0.729400  0.875500  0.467530  1.0
  C  C5308  1  0.875500  0.729400  0.032470  1.0
  C  C5309  1  0.270600  0.146100  0.032470  1.0
  C  C5310  1  0.853900  0.124500  0.032470  1.0
  C  C5311  1  0.479433  0.937267  0.134197  1.0
  C  C5312  1  0.457833  0.520567  0.134197  1.0
  C  C5313  1  0.062733  0.542167  0.134197  1.0
  C  C5314  1  0.208833  0.396067  0.699137  1.0
  C  C5315  1  0.603933  0.812767  0.699137  1.0
  C  C5316  1  0.187233  0.791167  0.699137  1.0
  C  C5317  1  0.812767  0.603933  0.800863  1.0
  C  C5318  1  0.791167  0.187233  0.800863  1.0
  C  C5319  1  0.396067  0.208833  0.800863  1.0
  C  C5320  1  0.542167  0.062733  0.365803  1.0
  C  C5321  1  0.937267  0.479433  0.365803  1.0
  C  C5322  1  0.520567  0.457833  0.365803  1.0
  C  C5323  1  0.853900  0.729400  0.532470  1.0
  C  C5324  1  0.875500  0.146100  0.532470  1.0
  C  C5325  1  0.270600  0.124500  0.532470  1.0
  C  C5326  1  0.124500  0.270600  0.967530  1.0
  C  C5327  1  0.729400  0.853900  0.967530  1.0
  C  C5328  1  0.146100  0.875500  0.967530  1.0
  C  C5329  1  0.187233  0.396067  0.199137  1.0
  C  C5330  1  0.208833  0.812767  0.199137  1.0
  C  C5331  1  0.603933  0.791167  0.199137  1.0
  C  C5332  1  0.457833  0.937267  0.634197  1.0
  C  C5333  1  0.062733  0.520567  0.634197  1.0
  C  C5334  1  0.479433  0.542167  0.634197  1.0
  C  C5335  1  0.520567  0.062733  0.865803  1.0
  C  C5336  1  0.542167  0.479433  0.865803  1.0
  C  C5337  1  0.937267  0.457833  0.865803  1.0
  C  C5338  1  0.791167  0.603933  0.300863  1.0
  C  C5339  1  0.396067  0.187233  0.300863  1.0
  C  C5340  1  0.812767  0.208833  0.300863  1.0
  C  C5341  1  0.110700  0.255800  0.461720  1.0
  C  C5342  1  0.145100  0.889300  0.461720  1.0
  C  C5343  1  0.744200  0.854900  0.461720  1.0
  C  C5344  1  0.854900  0.744200  0.038280  1.0
  C  C5345  1  0.255800  0.110700  0.038280  1.0
  C  C5346  1  0.889300  0.145100  0.038280  1.0
  C  C5347  1  0.444033  0.922467  0.128387  1.0
  C  C5348  1  0.478433  0.555967  0.128387  1.0
  C  C5349  1  0.077533  0.521567  0.128387  1.0
  C  C5350  1  0.188233  0.410867  0.704947  1.0
  C  C5351  1  0.589133  0.777367  0.704947  1.0
  C  C5352  1  0.222633  0.811767  0.704947  1.0
  C  C5353  1  0.777367  0.589133  0.795053  1.0
  C  C5354  1  0.811767  0.222633  0.795053  1.0
  C  C5355  1  0.410867  0.188233  0.795053  1.0
  C  C5356  1  0.521567  0.077533  0.371613  1.0
  C  C5357  1  0.922467  0.444033  0.371613  1.0
  C  C5358  1  0.555967  0.478433  0.371613  1.0
  C  C5359  1  0.889300  0.744200  0.538280  1.0
  C  C5360  1  0.854900  0.110700  0.538280  1.0
  C  C5361  1  0.255800  0.145100  0.538280  1.0
  C  C5362  1  0.145100  0.255800  0.961720  1.0
  C  C5363  1  0.744200  0.889300  0.961720  1.0
  C  C5364  1  0.110700  0.854900  0.961720  1.0
  C  C5365  1  0.222633  0.410867  0.204947  1.0
  C  C5366  1  0.188233  0.777367  0.204947  1.0
  C  C5367  1  0.589133  0.811767  0.204947  1.0
  C  C5368  1  0.478433  0.922467  0.628387  1.0
  C  C5369  1  0.077533  0.555967  0.628387  1.0
  C  C5370  1  0.444033  0.521567  0.628387  1.0
  C  C5371  1  0.555967  0.077533  0.871613  1.0
  C  C5372  1  0.521567  0.444033  0.871613  1.0
  C  C5373  1  0.922467  0.478433  0.871613  1.0
  C  C5374  1  0.811767  0.589133  0.295053  1.0
  C  C5375  1  0.410867  0.222633  0.295053  1.0
  C  C5376  1  0.777367  0.188233  0.295053  1.0
  C  C5377  1  0.080600  0.256700  0.467250  1.0
  C  C5378  1  0.176100  0.919400  0.467250  1.0
  C  C5379  1  0.743300  0.823900  0.467250  1.0
  C  C5380  1  0.823900  0.743300  0.032750  1.0
  C  C5381  1  0.256700  0.080600  0.032750  1.0
  C  C5382  1  0.919400  0.176100  0.032750  1.0
  C  C5383  1  0.413933  0.923367  0.133917  1.0
  C  C5384  1  0.509433  0.586067  0.133917  1.0
  C  C5385  1  0.076633  0.490567  0.133917  1.0
  C  C5386  1  0.157233  0.409967  0.699417  1.0
  C  C5387  1  0.590033  0.747267  0.699417  1.0
  C  C5388  1  0.252733  0.842767  0.699417  1.0
  C  C5389  1  0.747267  0.590033  0.800583  1.0
  C  C5390  1  0.842767  0.252733  0.800583  1.0
  C  C5391  1  0.409967  0.157233  0.800583  1.0
  C  C5392  1  0.490567  0.076633  0.366083  1.0
  C  C5393  1  0.923367  0.413933  0.366083  1.0
  C  C5394  1  0.586067  0.509433  0.366083  1.0
  C  C5395  1  0.919400  0.743300  0.532750  1.0
  C  C5396  1  0.823900  0.080600  0.532750  1.0
  C  C5397  1  0.256700  0.176100  0.532750  1.0
  C  C5398  1  0.176100  0.256700  0.967250  1.0
  C  C5399  1  0.743300  0.919400  0.967250  1.0
  C  C5400  1  0.080600  0.823900  0.967250  1.0
  C  C5401  1  0.252733  0.409967  0.199417  1.0
  C  C5402  1  0.157233  0.747267  0.199417  1.0
  C  C5403  1  0.590033  0.842767  0.199417  1.0
  C  C5404  1  0.509433  0.923367  0.633917  1.0
  C  C5405  1  0.076633  0.586067  0.633917  1.0
  C  C5406  1  0.413933  0.490567  0.633917  1.0
  C  C5407  1  0.586067  0.076633  0.866083  1.0
  C  C5408  1  0.490567  0.413933  0.866083  1.0
  C  C5409  1  0.923367  0.509433  0.866083  1.0
  C  C5410  1  0.842767  0.590033  0.300583  1.0
  C  C5411  1  0.409967  0.252733  0.300583  1.0
  C  C5412  1  0.747267  0.157233  0.300583  1.0
  C  C5413  1  0.085300  0.272300  0.478940  1.0
  C  C5414  1  0.187000  0.914700  0.478940  1.0
  C  C5415  1  0.727700  0.813000  0.478940  1.0
  C  C5416  1  0.813000  0.727700  0.021060  1.0
  C  C5417  1  0.272300  0.085300  0.021060  1.0
  C  C5418  1  0.914700  0.187000  0.021060  1.0
  C  C5419  1  0.418633  0.938967  0.145607  1.0
  C  C5420  1  0.520333  0.581367  0.145607  1.0
  C  C5421  1  0.061033  0.479667  0.145607  1.0
  C  C5422  1  0.146333  0.394367  0.687727  1.0
  C  C5423  1  0.605633  0.751967  0.687727  1.0
  C  C5424  1  0.248033  0.853667  0.687727  1.0
  C  C5425  1  0.751967  0.605633  0.812273  1.0
  C  C5426  1  0.853667  0.248033  0.812273  1.0
  C  C5427  1  0.394367  0.146333  0.812273  1.0
  C  C5428  1  0.479667  0.061033  0.354393  1.0
  C  C5429  1  0.938967  0.418633  0.354393  1.0
  C  C5430  1  0.581367  0.520333  0.354393  1.0
  C  C5431  1  0.914700  0.727700  0.521060  1.0
  C  C5432  1  0.813000  0.085300  0.521060  1.0
  C  C5433  1  0.272300  0.187000  0.521060  1.0
  C  C5434  1  0.187000  0.272300  0.978940  1.0
  C  C5435  1  0.727700  0.914700  0.978940  1.0
  C  C5436  1  0.085300  0.813000  0.978940  1.0
  C  C5437  1  0.248033  0.394367  0.187727  1.0
  C  C5438  1  0.146333  0.751967  0.187727  1.0
  C  C5439  1  0.605633  0.853667  0.187727  1.0
  C  C5440  1  0.520333  0.938967  0.645607  1.0
  C  C5441  1  0.061033  0.581367  0.645607  1.0
  C  C5442  1  0.418633  0.479667  0.645607  1.0
  C  C5443  1  0.581367  0.061033  0.854393  1.0
  C  C5444  1  0.479667  0.418633  0.854393  1.0
  C  C5445  1  0.938967  0.520333  0.854393  1.0
  C  C5446  1  0.853667  0.605633  0.312273  1.0
  C  C5447  1  0.394367  0.248033  0.312273  1.0
  C  C5448  1  0.751967  0.146333  0.312273  1.0
  C  C5449  1  0.122700  0.287400  0.484300  1.0
  C  C5450  1  0.164700  0.877300  0.484300  1.0
  C  C5451  1  0.712600  0.835300  0.484300  1.0
  C  C5452  1  0.835300  0.712600  0.015700  1.0
  C  C5453  1  0.287400  0.122700  0.015700  1.0
  C  C5454  1  0.877300  0.164700  0.015700  1.0
  C  C5455  1  0.456033  0.954067  0.150967  1.0
  C  C5456  1  0.498033  0.543967  0.150967  1.0
  C  C5457  1  0.045933  0.501967  0.150967  1.0
  C  C5458  1  0.168633  0.379267  0.682367  1.0
  C  C5459  1  0.620733  0.789367  0.682367  1.0
  C  C5460  1  0.210633  0.831367  0.682367  1.0
  C  C5461  1  0.789367  0.620733  0.817633  1.0
  C  C5462  1  0.831367  0.210633  0.817633  1.0
  C  C5463  1  0.379267  0.168633  0.817633  1.0
  C  C5464  1  0.501967  0.045933  0.349033  1.0
  C  C5465  1  0.954067  0.456033  0.349033  1.0
  C  C5466  1  0.543967  0.498033  0.349033  1.0
  C  C5467  1  0.877300  0.712600  0.515700  1.0
  C  C5468  1  0.835300  0.122700  0.515700  1.0
  C  C5469  1  0.287400  0.164700  0.515700  1.0
  C  C5470  1  0.164700  0.287400  0.984300  1.0
  C  C5471  1  0.712600  0.877300  0.984300  1.0
  C  C5472  1  0.122700  0.835300  0.984300  1.0
  C  C5473  1  0.210633  0.379267  0.182367  1.0
  C  C5474  1  0.168633  0.789367  0.182367  1.0
  C  C5475  1  0.620733  0.831367  0.182367  1.0
  C  C5476  1  0.498033  0.954067  0.650967  1.0
  C  C5477  1  0.045933  0.543967  0.650967  1.0
  C  C5478  1  0.456033  0.501967  0.650967  1.0
  C  C5479  1  0.543967  0.045933  0.849033  1.0
  C  C5480  1  0.501967  0.456033  0.849033  1.0
  C  C5481  1  0.954067  0.498033  0.849033  1.0
  C  C5482  1  0.831367  0.620733  0.317633  1.0
  C  C5483  1  0.379267  0.210633  0.317633  1.0
  C  C5484  1  0.789367  0.168633  0.317633  1.0
  C  C5485  1  0.133800  0.307800  0.496020  1.0
  C  C5486  1  0.174000  0.866200  0.496020  1.0
  C  C5487  1  0.692200  0.826000  0.496020  1.0
  C  C5488  1  0.826000  0.692200  0.003980  1.0
  C  C5489  1  0.307800  0.133800  0.003980  1.0
  C  C5490  1  0.866200  0.174000  0.003980  1.0
  C  C5491  1  0.467133  0.974467  0.162687  1.0
  C  C5492  1  0.507333  0.532867  0.162687  1.0
  C  C5493  1  0.025533  0.492667  0.162687  1.0
  C  C5494  1  0.159333  0.358867  0.670647  1.0
  C  C5495  1  0.641133  0.800467  0.670647  1.0
  C  C5496  1  0.199533  0.840667  0.670647  1.0
  C  C5497  1  0.800467  0.641133  0.829353  1.0
  C  C5498  1  0.840667  0.199533  0.829353  1.0
  C  C5499  1  0.358867  0.159333  0.829353  1.0
  C  C5500  1  0.492667  0.025533  0.337313  1.0
  C  C5501  1  0.974467  0.467133  0.337313  1.0
  C  C5502  1  0.532867  0.507333  0.337313  1.0
  C  C5503  1  0.866200  0.692200  0.503980  1.0
  C  C5504  1  0.826000  0.133800  0.503980  1.0
  C  C5505  1  0.307800  0.174000  0.503980  1.0
  C  C5506  1  0.174000  0.307800  0.996020  1.0
  C  C5507  1  0.692200  0.866200  0.996020  1.0
  C  C5508  1  0.133800  0.826000  0.996020  1.0
  C  C5509  1  0.199533  0.358867  0.170647  1.0
  C  C5510  1  0.159333  0.800467  0.170647  1.0
  C  C5511  1  0.641133  0.840667  0.170647  1.0
  C  C5512  1  0.507333  0.974467  0.662687  1.0
  C  C5513  1  0.025533  0.532867  0.662687  1.0
  C  C5514  1  0.467133  0.492667  0.662687  1.0
  C  C5515  1  0.532867  0.025533  0.837313  1.0
  C  C5516  1  0.492667  0.467133  0.837313  1.0
  C  C5517  1  0.974467  0.507333  0.837313  1.0
  C  C5518  1  0.840667  0.641133  0.329353  1.0
  C  C5519  1  0.358867  0.199533  0.329353  1.0
  C  C5520  1  0.800467  0.159333  0.329353  1.0
  C  C5521  1  0.180400  0.340100  0.511090  1.0
  C  C5522  1  0.159700  0.819600  0.511090  1.0
  C  C5523  1  0.659900  0.840300  0.511090  1.0
  C  C5524  1  0.840300  0.659900  0.988910  1.0
  C  C5525  1  0.340100  0.180400  0.988910  1.0
  C  C5526  1  0.819600  0.159700  0.988910  1.0
  C  C5527  1  0.513733  0.006767  0.177757  1.0
  C  C5528  1  0.493033  0.486267  0.177757  1.0
  C  C5529  1  0.993233  0.506967  0.177757  1.0
  C  C5530  1  0.173633  0.326567  0.655577  1.0
  C  C5531  1  0.673433  0.847067  0.655577  1.0
  C  C5532  1  0.152933  0.826367  0.655577  1.0
  C  C5533  1  0.847067  0.673433  0.844423  1.0
  C  C5534  1  0.826367  0.152933  0.844423  1.0
  C  C5535  1  0.326567  0.173633  0.844423  1.0
  C  C5536  1  0.506967  0.993233  0.322243  1.0
  C  C5537  1  0.006767  0.513733  0.322243  1.0
  C  C5538  1  0.486267  0.493033  0.322243  1.0
  C  C5539  1  0.819600  0.659900  0.488910  1.0
  C  C5540  1  0.840300  0.180400  0.488910  1.0
  C  C5541  1  0.340100  0.159700  0.488910  1.0
  C  C5542  1  0.159700  0.340100  0.011090  1.0
  C  C5543  1  0.659900  0.819600  0.011090  1.0
  C  C5544  1  0.180400  0.840300  0.011090  1.0
  C  C5545  1  0.152933  0.326567  0.155577  1.0
  C  C5546  1  0.173633  0.847067  0.155577  1.0
  C  C5547  1  0.673433  0.826367  0.155577  1.0
  C  C5548  1  0.493033  0.006767  0.677757  1.0
  C  C5549  1  0.993233  0.486267  0.677757  1.0
  C  C5550  1  0.513733  0.506967  0.677757  1.0
  C  C5551  1  0.486267  0.993233  0.822243  1.0
  C  C5552  1  0.506967  0.513733  0.822243  1.0
  C  C5553  1  0.006767  0.493033  0.822243  1.0
  C  C5554  1  0.826367  0.673433  0.344423  1.0
  C  C5555  1  0.326567  0.152933  0.344423  1.0
  C  C5556  1  0.847067  0.173633  0.344423  1.0
  C  C5557  1  0.197200  0.380600  0.512880  1.0
  C  C5558  1  0.183400  0.802800  0.512880  1.0
  C  C5559  1  0.619400  0.816600  0.512880  1.0
  C  C5560  1  0.816600  0.619400  0.987120  1.0
  C  C5561  1  0.380600  0.197200  0.987120  1.0
  C  C5562  1  0.802800  0.183400  0.987120  1.0
  C  C5563  1  0.530533  0.047267  0.179547  1.0
  C  C5564  1  0.516733  0.469467  0.179547  1.0
  C  C5565  1  0.952733  0.483267  0.179547  1.0
  C  C5566  1  0.149933  0.286067  0.653787  1.0
  C  C5567  1  0.713933  0.863867  0.653787  1.0
  C  C5568  1  0.136133  0.850067  0.653787  1.0
  C  C5569  1  0.863867  0.713933  0.846213  1.0
  C  C5570  1  0.850067  0.136133  0.846213  1.0
  C  C5571  1  0.286067  0.149933  0.846213  1.0
  C  C5572  1  0.483267  0.952733  0.320453  1.0
  C  C5573  1  0.047267  0.530533  0.320453  1.0
  C  C5574  1  0.469467  0.516733  0.320453  1.0
  C  C5575  1  0.802800  0.619400  0.487120  1.0
  C  C5576  1  0.816600  0.197200  0.487120  1.0
  C  C5577  1  0.380600  0.183400  0.487120  1.0
  C  C5578  1  0.183400  0.380600  0.012880  1.0
  C  C5579  1  0.619400  0.802800  0.012880  1.0
  C  C5580  1  0.197200  0.816600  0.012880  1.0
  C  C5581  1  0.136133  0.286067  0.153787  1.0
  C  C5582  1  0.149933  0.863867  0.153787  1.0
  C  C5583  1  0.713933  0.850067  0.153787  1.0
  C  C5584  1  0.516733  0.047267  0.679547  1.0
  C  C5585  1  0.952733  0.469467  0.679547  1.0
  C  C5586  1  0.530533  0.483267  0.679547  1.0
  C  C5587  1  0.469467  0.952733  0.820453  1.0
  C  C5588  1  0.483267  0.530533  0.820453  1.0
  C  C5589  1  0.047267  0.516733  0.820453  1.0
  C  C5590  1  0.850067  0.713933  0.346213  1.0
  C  C5591  1  0.286067  0.136133  0.346213  1.0
  C  C5592  1  0.863867  0.149933  0.346213  1.0
  C  C5593  1  0.207800  0.395500  0.524510  1.0
  C  C5594  1  0.187700  0.792200  0.524510  1.0
  C  C5595  1  0.604500  0.812300  0.524510  1.0
  C  C5596  1  0.812300  0.604500  0.975490  1.0
  C  C5597  1  0.395500  0.207800  0.975490  1.0
  C  C5598  1  0.792200  0.187700  0.975490  1.0
  C  C5599  1  0.541133  0.062167  0.191177  1.0
  C  C5600  1  0.521033  0.458867  0.191177  1.0
  C  C5601  1  0.937833  0.478967  0.191177  1.0
  C  C5602  1  0.145633  0.271167  0.642157  1.0
  C  C5603  1  0.728833  0.874467  0.642157  1.0
  C  C5604  1  0.125533  0.854367  0.642157  1.0
  C  C5605  1  0.874467  0.728833  0.857843  1.0
  C  C5606  1  0.854367  0.125533  0.857843  1.0
  C  C5607  1  0.271167  0.145633  0.857843  1.0
  C  C5608  1  0.478967  0.937833  0.308823  1.0
  C  C5609  1  0.062167  0.541133  0.308823  1.0
  C  C5610  1  0.458867  0.521033  0.308823  1.0
  C  C5611  1  0.792200  0.604500  0.475490  1.0
  C  C5612  1  0.812300  0.207800  0.475490  1.0
  C  C5613  1  0.395500  0.187700  0.475490  1.0
  C  C5614  1  0.187700  0.395500  0.024510  1.0
  C  C5615  1  0.604500  0.792200  0.024510  1.0
  C  C5616  1  0.207800  0.812300  0.024510  1.0
  C  C5617  1  0.125533  0.271167  0.142157  1.0
  C  C5618  1  0.145633  0.874467  0.142157  1.0
  C  C5619  1  0.728833  0.854367  0.142157  1.0
  C  C5620  1  0.521033  0.062167  0.691177  1.0
  C  C5621  1  0.937833  0.458867  0.691177  1.0
  C  C5622  1  0.541133  0.478967  0.691177  1.0
  C  C5623  1  0.458867  0.937833  0.808823  1.0
  C  C5624  1  0.478967  0.541133  0.808823  1.0
  C  C5625  1  0.062167  0.521033  0.808823  1.0
  C  C5626  1  0.854367  0.728833  0.357843  1.0
  C  C5627  1  0.271167  0.125533  0.357843  1.0
  C  C5628  1  0.874467  0.145633  0.357843  1.0
  C  C5629  1  0.200500  0.370400  0.534170  1.0
  C  C5630  1  0.169900  0.799500  0.534170  1.0
  C  C5631  1  0.629600  0.830100  0.534170  1.0
  C  C5632  1  0.830100  0.629600  0.965830  1.0
  C  C5633  1  0.370400  0.200500  0.965830  1.0
  C  C5634  1  0.799500  0.169900  0.965830  1.0
  C  C5635  1  0.533833  0.037067  0.200837  1.0
  C  C5636  1  0.503233  0.466167  0.200837  1.0
  C  C5637  1  0.962933  0.496767  0.200837  1.0
  C  C5638  1  0.163433  0.296267  0.632497  1.0
  C  C5639  1  0.703733  0.867167  0.632497  1.0
  C  C5640  1  0.132833  0.836567  0.632497  1.0
  C  C5641  1  0.867167  0.703733  0.867503  1.0
  C  C5642  1  0.836567  0.132833  0.867503  1.0
  C  C5643  1  0.296267  0.163433  0.867503  1.0
  C  C5644  1  0.496767  0.962933  0.299163  1.0
  C  C5645  1  0.037067  0.533833  0.299163  1.0
  C  C5646  1  0.466167  0.503233  0.299163  1.0
  C  C5647  1  0.799500  0.629600  0.465830  1.0
  C  C5648  1  0.830100  0.200500  0.465830  1.0
  C  C5649  1  0.370400  0.169900  0.465830  1.0
  C  C5650  1  0.169900  0.370400  0.034170  1.0
  C  C5651  1  0.629600  0.799500  0.034170  1.0
  C  C5652  1  0.200500  0.830100  0.034170  1.0
  C  C5653  1  0.132833  0.296267  0.132497  1.0
  C  C5654  1  0.163433  0.867167  0.132497  1.0
  C  C5655  1  0.703733  0.836567  0.132497  1.0
  C  C5656  1  0.503233  0.037067  0.700837  1.0
  C  C5657  1  0.962933  0.466167  0.700837  1.0
  C  C5658  1  0.533833  0.496767  0.700837  1.0
  C  C5659  1  0.466167  0.962933  0.799163  1.0
  C  C5660  1  0.496767  0.533833  0.799163  1.0
  C  C5661  1  0.037067  0.503233  0.799163  1.0
  C  C5662  1  0.836567  0.703733  0.367503  1.0
  C  C5663  1  0.296267  0.132833  0.367503  1.0
  C  C5664  1  0.867167  0.163433  0.367503  1.0
  C  C5665  1  0.182900  0.329800  0.532240  1.0
  C  C5666  1  0.146900  0.817100  0.532240  1.0
  C  C5667  1  0.670200  0.853100  0.532240  1.0
  C  C5668  1  0.853100  0.670200  0.967760  1.0
  C  C5669  1  0.329800  0.182900  0.967760  1.0
  C  C5670  1  0.817100  0.146900  0.967760  1.0
  C  C5671  1  0.516233  0.996467  0.198907  1.0
  C  C5672  1  0.480233  0.483767  0.198907  1.0
  C  C5673  1  0.003533  0.519767  0.198907  1.0
  C  C5674  1  0.186433  0.336867  0.634427  1.0
  C  C5675  1  0.663133  0.849567  0.634427  1.0
  C  C5676  1  0.150433  0.813567  0.634427  1.0
  C  C5677  1  0.849567  0.663133  0.865573  1.0
  C  C5678  1  0.813567  0.150433  0.865573  1.0
  C  C5679  1  0.336867  0.186433  0.865573  1.0
  C  C5680  1  0.519767  0.003533  0.301093  1.0
  C  C5681  1  0.996467  0.516233  0.301093  1.0
  C  C5682  1  0.483767  0.480233  0.301093  1.0
  C  C5683  1  0.817100  0.670200  0.467760  1.0
  C  C5684  1  0.853100  0.182900  0.467760  1.0
  C  C5685  1  0.329800  0.146900  0.467760  1.0
  C  C5686  1  0.146900  0.329800  0.032240  1.0
  C  C5687  1  0.670200  0.817100  0.032240  1.0
  C  C5688  1  0.182900  0.853100  0.032240  1.0
  C  C5689  1  0.150433  0.336867  0.134427  1.0
  C  C5690  1  0.186433  0.849567  0.134427  1.0
  C  C5691  1  0.663133  0.813567  0.134427  1.0
  C  C5692  1  0.480233  0.996467  0.698907  1.0
  C  C5693  1  0.003533  0.483767  0.698907  1.0
  C  C5694  1  0.516233  0.519767  0.698907  1.0
  C  C5695  1  0.483767  0.003533  0.801093  1.0
  C  C5696  1  0.519767  0.516233  0.801093  1.0
  C  C5697  1  0.996467  0.480233  0.801093  1.0
  C  C5698  1  0.813567  0.663133  0.365573  1.0
  C  C5699  1  0.336867  0.150433  0.365573  1.0
  C  C5700  1  0.849567  0.186433  0.365573  1.0
  C  C5701  1  0.172200  0.313600  0.520870  1.0
  C  C5702  1  0.141400  0.827800  0.520870  1.0
  C  C5703  1  0.686400  0.858600  0.520870  1.0
  C  C5704  1  0.858600  0.686400  0.979130  1.0
  C  C5705  1  0.313600  0.172200  0.979130  1.0
  C  C5706  1  0.827800  0.141400  0.979130  1.0
  C  C5707  1  0.505533  0.980267  0.187537  1.0
  C  C5708  1  0.474733  0.494467  0.187537  1.0
  C  C5709  1  0.019733  0.525267  0.187537  1.0
  C  C5710  1  0.191933  0.353067  0.645797  1.0
  C  C5711  1  0.646933  0.838867  0.645797  1.0
  C  C5712  1  0.161133  0.808067  0.645797  1.0
  C  C5713  1  0.838867  0.646933  0.854203  1.0
  C  C5714  1  0.808067  0.161133  0.854203  1.0
  C  C5715  1  0.353067  0.191933  0.854203  1.0
  C  C5716  1  0.525267  0.019733  0.312463  1.0
  C  C5717  1  0.980267  0.505533  0.312463  1.0
  C  C5718  1  0.494467  0.474733  0.312463  1.0
  C  C5719  1  0.827800  0.686400  0.479130  1.0
  C  C5720  1  0.858600  0.172200  0.479130  1.0
  C  C5721  1  0.313600  0.141400  0.479130  1.0
  C  C5722  1  0.141400  0.313600  0.020870  1.0
  C  C5723  1  0.686400  0.827800  0.020870  1.0
  C  C5724  1  0.172200  0.858600  0.020870  1.0
  C  C5725  1  0.161133  0.353067  0.145797  1.0
  C  C5726  1  0.191933  0.838867  0.145797  1.0
  C  C5727  1  0.646933  0.808067  0.145797  1.0
  C  C5728  1  0.474733  0.980267  0.687537  1.0
  C  C5729  1  0.019733  0.494467  0.687537  1.0
  C  C5730  1  0.505533  0.525267  0.687537  1.0
  C  C5731  1  0.494467  0.019733  0.812463  1.0
  C  C5732  1  0.525267  0.505533  0.812463  1.0
  C  C5733  1  0.980267  0.474733  0.812463  1.0
  C  C5734  1  0.808067  0.646933  0.354203  1.0
  C  C5735  1  0.353067  0.161133  0.354203  1.0
  C  C5736  1  0.838867  0.191933  0.354203  1.0
  C  C5737  1  0.212000  0.387600  0.546660  1.0
  C  C5738  1  0.175600  0.788000  0.546660  1.0
  C  C5739  1  0.612400  0.824400  0.546660  1.0
  C  C5740  1  0.824400  0.612400  0.953340  1.0
  C  C5741  1  0.387600  0.212000  0.953340  1.0
  C  C5742  1  0.788000  0.175600  0.953340  1.0
  C  C5743  1  0.545333  0.054267  0.213327  1.0
  C  C5744  1  0.508933  0.454667  0.213327  1.0
  C  C5745  1  0.945733  0.491067  0.213327  1.0
  C  C5746  1  0.157733  0.279067  0.620007  1.0
  C  C5747  1  0.720933  0.878667  0.620007  1.0
  C  C5748  1  0.121333  0.842267  0.620007  1.0
  C  C5749  1  0.878667  0.720933  0.879993  1.0
  C  C5750  1  0.842267  0.121333  0.879993  1.0
  C  C5751  1  0.279067  0.157733  0.879993  1.0
  C  C5752  1  0.491067  0.945733  0.286673  1.0
  C  C5753  1  0.054267  0.545333  0.286673  1.0
  C  C5754  1  0.454667  0.508933  0.286673  1.0
  C  C5755  1  0.788000  0.612400  0.453340  1.0
  C  C5756  1  0.824400  0.212000  0.453340  1.0
  C  C5757  1  0.387600  0.175600  0.453340  1.0
  C  C5758  1  0.175600  0.387600  0.046660  1.0
  C  C5759  1  0.612400  0.788000  0.046660  1.0
  C  C5760  1  0.212000  0.824400  0.046660  1.0
  C  C5761  1  0.121333  0.279067  0.120007  1.0
  C  C5762  1  0.157733  0.878667  0.120007  1.0
  C  C5763  1  0.720933  0.842267  0.120007  1.0
  C  C5764  1  0.508933  0.054267  0.713327  1.0
  C  C5765  1  0.945733  0.454667  0.713327  1.0
  C  C5766  1  0.545333  0.491067  0.713327  1.0
  C  C5767  1  0.454667  0.945733  0.786673  1.0
  C  C5768  1  0.491067  0.545333  0.786673  1.0
  C  C5769  1  0.054267  0.508933  0.786673  1.0
  C  C5770  1  0.842267  0.720933  0.379993  1.0
  C  C5771  1  0.279067  0.121333  0.379993  1.0
  C  C5772  1  0.878667  0.157733  0.379993  1.0
  C  C5773  1  0.183200  0.389000  0.553740  1.0
  C  C5774  1  0.205800  0.816800  0.553740  1.0
  C  C5775  1  0.611000  0.794200  0.553740  1.0
  C  C5776  1  0.794200  0.611000  0.946260  1.0
  C  C5777  1  0.389000  0.183200  0.946260  1.0
  C  C5778  1  0.816800  0.205800  0.946260  1.0
  C  C5779  1  0.516533  0.055667  0.220407  1.0
  C  C5780  1  0.539133  0.483467  0.220407  1.0
  C  C5781  1  0.944333  0.460867  0.220407  1.0
  C  C5782  1  0.127533  0.277667  0.612927  1.0
  C  C5783  1  0.722333  0.849867  0.612927  1.0
  C  C5784  1  0.150133  0.872467  0.612927  1.0
  C  C5785  1  0.849867  0.722333  0.887073  1.0
  C  C5786  1  0.872467  0.150133  0.887073  1.0
  C  C5787  1  0.277667  0.127533  0.887073  1.0
  C  C5788  1  0.460867  0.944333  0.279593  1.0
  C  C5789  1  0.055667  0.516533  0.279593  1.0
  C  C5790  1  0.483467  0.539133  0.279593  1.0
  C  C5791  1  0.816800  0.611000  0.446260  1.0
  C  C5792  1  0.794200  0.183200  0.446260  1.0
  C  C5793  1  0.389000  0.205800  0.446260  1.0
  C  C5794  1  0.205800  0.389000  0.053740  1.0
  C  C5795  1  0.611000  0.816800  0.053740  1.0
  C  C5796  1  0.183200  0.794200  0.053740  1.0
  C  C5797  1  0.150133  0.277667  0.112927  1.0
  C  C5798  1  0.127533  0.849867  0.112927  1.0
  C  C5799  1  0.722333  0.872467  0.112927  1.0
  C  C5800  1  0.539133  0.055667  0.720407  1.0
  C  C5801  1  0.944333  0.483467  0.720407  1.0
  C  C5802  1  0.516533  0.460867  0.720407  1.0
  C  C5803  1  0.483467  0.944333  0.779593  1.0
  C  C5804  1  0.460867  0.516533  0.779593  1.0
  C  C5805  1  0.055667  0.539133  0.779593  1.0
  C  C5806  1  0.872467  0.722333  0.387073  1.0
  C  C5807  1  0.277667  0.150133  0.387073  1.0
  C  C5808  1  0.849867  0.127533  0.387073  1.0
  C  C5809  1  0.142000  0.372100  0.550600  1.0
  C  C5810  1  0.230100  0.858000  0.550600  1.0
  C  C5811  1  0.627900  0.769900  0.550600  1.0
  C  C5812  1  0.769900  0.627900  0.949400  1.0
  C  C5813  1  0.372100  0.142000  0.949400  1.0
  C  C5814  1  0.858000  0.230100  0.949400  1.0
  C  C5815  1  0.475333  0.038767  0.217267  1.0
  C  C5816  1  0.563433  0.524667  0.217267  1.0
  C  C5817  1  0.961233  0.436567  0.217267  1.0
  C  C5818  1  0.103233  0.294567  0.616067  1.0
  C  C5819  1  0.705433  0.808667  0.616067  1.0
  C  C5820  1  0.191333  0.896767  0.616067  1.0
  C  C5821  1  0.808667  0.705433  0.883933  1.0
  C  C5822  1  0.896767  0.191333  0.883933  1.0
  C  C5823  1  0.294567  0.103233  0.883933  1.0
  C  C5824  1  0.436567  0.961233  0.282733  1.0
  C  C5825  1  0.038767  0.475333  0.282733  1.0
  C  C5826  1  0.524667  0.563433  0.282733  1.0
  C  C5827  1  0.858000  0.627900  0.449400  1.0
  C  C5828  1  0.769900  0.142000  0.449400  1.0
  C  C5829  1  0.372100  0.230100  0.449400  1.0
  C  C5830  1  0.230100  0.372100  0.050600  1.0
  C  C5831  1  0.627900  0.858000  0.050600  1.0
  C  C5832  1  0.142000  0.769900  0.050600  1.0
  C  C5833  1  0.191333  0.294567  0.116067  1.0
  C  C5834  1  0.103233  0.808667  0.116067  1.0
  C  C5835  1  0.705433  0.896767  0.116067  1.0
  C  C5836  1  0.563433  0.038767  0.717267  1.0
  C  C5837  1  0.961233  0.524667  0.717267  1.0
  C  C5838  1  0.475333  0.436567  0.717267  1.0
  C  C5839  1  0.524667  0.961233  0.782733  1.0
  C  C5840  1  0.436567  0.475333  0.782733  1.0
  C  C5841  1  0.038767  0.563433  0.782733  1.0
  C  C5842  1  0.896767  0.705433  0.383933  1.0
  C  C5843  1  0.294567  0.191333  0.383933  1.0
  C  C5844  1  0.808667  0.103233  0.383933  1.0
  C  C5845  1  0.123700  0.378100  0.560420  1.0
  C  C5846  1  0.254400  0.876300  0.560420  1.0
  C  C5847  1  0.621900  0.745600  0.560420  1.0
  C  C5848  1  0.745600  0.621900  0.939580  1.0
  C  C5849  1  0.378100  0.123700  0.939580  1.0
  C  C5850  1  0.876300  0.254400  0.939580  1.0
  C  C5851  1  0.457033  0.044767  0.227087  1.0
  C  C5852  1  0.587733  0.542967  0.227087  1.0
  C  C5853  1  0.955233  0.412267  0.227087  1.0
  C  C5854  1  0.078933  0.288567  0.606247  1.0
  C  C5855  1  0.711433  0.790367  0.606247  1.0
  C  C5856  1  0.209633  0.921067  0.606247  1.0
  C  C5857  1  0.790367  0.711433  0.893753  1.0
  C  C5858  1  0.921067  0.209633  0.893753  1.0
  C  C5859  1  0.288567  0.078933  0.893753  1.0
  C  C5860  1  0.412267  0.955233  0.272913  1.0
  C  C5861  1  0.044767  0.457033  0.272913  1.0
  C  C5862  1  0.542967  0.587733  0.272913  1.0
  C  C5863  1  0.876300  0.621900  0.439580  1.0
  C  C5864  1  0.745600  0.123700  0.439580  1.0
  C  C5865  1  0.378100  0.254400  0.439580  1.0
  C  C5866  1  0.254400  0.378100  0.060420  1.0
  C  C5867  1  0.621900  0.876300  0.060420  1.0
  C  C5868  1  0.123700  0.745600  0.060420  1.0
  C  C5869  1  0.209633  0.288567  0.106247  1.0
  C  C5870  1  0.078933  0.790367  0.106247  1.0
  C  C5871  1  0.711433  0.921067  0.106247  1.0
  C  C5872  1  0.587733  0.044767  0.727087  1.0
  C  C5873  1  0.955233  0.542967  0.727087  1.0
  C  C5874  1  0.457033  0.412267  0.727087  1.0
  C  C5875  1  0.542967  0.955233  0.772913  1.0
  C  C5876  1  0.412267  0.457033  0.772913  1.0
  C  C5877  1  0.044767  0.587733  0.772913  1.0
  C  C5878  1  0.921067  0.711433  0.393753  1.0
  C  C5879  1  0.288567  0.209633  0.393753  1.0
  C  C5880  1  0.790367  0.078933  0.393753  1.0
  C  C5881  1  0.154200  0.399200  0.569290  1.0
  C  C5882  1  0.245000  0.845800  0.569290  1.0
  C  C5883  1  0.600800  0.755000  0.569290  1.0
  C  C5884  1  0.755000  0.600800  0.930710  1.0
  C  C5885  1  0.399200  0.154200  0.930710  1.0
  C  C5886  1  0.845800  0.245000  0.930710  1.0
  C  C5887  1  0.487533  0.065867  0.235957  1.0
  C  C5888  1  0.578333  0.512467  0.235957  1.0
  C  C5889  1  0.934133  0.421667  0.235957  1.0
  C  C5890  1  0.088333  0.267467  0.597377  1.0
  C  C5891  1  0.732533  0.820867  0.597377  1.0
  C  C5892  1  0.179133  0.911667  0.597377  1.0
  C  C5893  1  0.820867  0.732533  0.902623  1.0
  C  C5894  1  0.911667  0.179133  0.902623  1.0
  C  C5895  1  0.267467  0.088333  0.902623  1.0
  C  C5896  1  0.421667  0.934133  0.264043  1.0
  C  C5897  1  0.065867  0.487533  0.264043  1.0
  C  C5898  1  0.512467  0.578333  0.264043  1.0
  C  C5899  1  0.845800  0.600800  0.430710  1.0
  C  C5900  1  0.755000  0.154200  0.430710  1.0
  C  C5901  1  0.399200  0.245000  0.430710  1.0
  C  C5902  1  0.245000  0.399200  0.069290  1.0
  C  C5903  1  0.600800  0.845800  0.069290  1.0
  C  C5904  1  0.154200  0.755000  0.069290  1.0
  C  C5905  1  0.179133  0.267467  0.097377  1.0
  C  C5906  1  0.088333  0.820867  0.097377  1.0
  C  C5907  1  0.732533  0.911667  0.097377  1.0
  C  C5908  1  0.578333  0.065867  0.735957  1.0
  C  C5909  1  0.934133  0.512467  0.735957  1.0
  C  C5910  1  0.487533  0.421667  0.735957  1.0
  C  C5911  1  0.512467  0.934133  0.764043  1.0
  C  C5912  1  0.421667  0.487533  0.764043  1.0
  C  C5913  1  0.065867  0.578333  0.764043  1.0
  C  C5914  1  0.911667  0.732533  0.402623  1.0
  C  C5915  1  0.267467  0.179133  0.402623  1.0
  C  C5916  1  0.820867  0.088333  0.402623  1.0
  C  C5917  1  0.149500  0.416300  0.579890  1.0
  C  C5918  1  0.266800  0.850500  0.579890  1.0
  C  C5919  1  0.583700  0.733200  0.579890  1.0
  C  C5920  1  0.733200  0.583700  0.920110  1.0
  C  C5921  1  0.416300  0.149500  0.920110  1.0
  C  C5922  1  0.850500  0.266800  0.920110  1.0
  C  C5923  1  0.482833  0.082967  0.246557  1.0
  C  C5924  1  0.600133  0.517167  0.246557  1.0
  C  C5925  1  0.917033  0.399867  0.246557  1.0
  C  C5926  1  0.066533  0.250367  0.586777  1.0
  C  C5927  1  0.749633  0.816167  0.586777  1.0
  C  C5928  1  0.183833  0.933467  0.586777  1.0
  C  C5929  1  0.816167  0.749633  0.913223  1.0
  C  C5930  1  0.933467  0.183833  0.913223  1.0
  C  C5931  1  0.250367  0.066533  0.913223  1.0
  C  C5932  1  0.399867  0.917033  0.253443  1.0
  C  C5933  1  0.082967  0.482833  0.253443  1.0
  C  C5934  1  0.517167  0.600133  0.253443  1.0
  C  C5935  1  0.850500  0.583700  0.420110  1.0
  C  C5936  1  0.733200  0.149500  0.420110  1.0
  C  C5937  1  0.416300  0.266800  0.420110  1.0
  C  C5938  1  0.266800  0.416300  0.079890  1.0
  C  C5939  1  0.583700  0.850500  0.079890  1.0
  C  C5940  1  0.149500  0.733200  0.079890  1.0
  C  C5941  1  0.183833  0.250367  0.086777  1.0
  C  C5942  1  0.066533  0.816167  0.086777  1.0
  C  C5943  1  0.749633  0.933467  0.086777  1.0
  C  C5944  1  0.600133  0.082967  0.746557  1.0
  C  C5945  1  0.917033  0.517167  0.746557  1.0
  C  C5946  1  0.482833  0.399867  0.746557  1.0
  C  C5947  1  0.517167  0.917033  0.753443  1.0
  C  C5948  1  0.399867  0.482833  0.753443  1.0
  C  C5949  1  0.082967  0.600133  0.753443  1.0
  C  C5950  1  0.933467  0.749633  0.413223  1.0
  C  C5951  1  0.250367  0.183833  0.413223  1.0
  C  C5952  1  0.816167  0.066533  0.413223  1.0
  C  C5953  1  0.180200  0.446200  0.586320  1.0
  C  C5954  1  0.266000  0.819800  0.586320  1.0
  C  C5955  1  0.553800  0.734000  0.586320  1.0
  C  C5956  1  0.734000  0.553800  0.913680  1.0
  C  C5957  1  0.446200  0.180200  0.913680  1.0
  C  C5958  1  0.819800  0.266000  0.913680  1.0
  C  C5959  1  0.513533  0.112867  0.252987  1.0
  C  C5960  1  0.599333  0.486467  0.252987  1.0
  C  C5961  1  0.887133  0.400667  0.252987  1.0
  C  C5962  1  0.067333  0.220467  0.580347  1.0
  C  C5963  1  0.779533  0.846867  0.580347  1.0
  C  C5964  1  0.153133  0.932667  0.580347  1.0
  C  C5965  1  0.846867  0.779533  0.919653  1.0
  C  C5966  1  0.932667  0.153133  0.919653  1.0
  C  C5967  1  0.220467  0.067333  0.919653  1.0
  C  C5968  1  0.400667  0.887133  0.247013  1.0
  C  C5969  1  0.112867  0.513533  0.247013  1.0
  C  C5970  1  0.486467  0.599333  0.247013  1.0
  C  C5971  1  0.819800  0.553800  0.413680  1.0
  C  C5972  1  0.734000  0.180200  0.413680  1.0
  C  C5973  1  0.446200  0.266000  0.413680  1.0
  C  C5974  1  0.266000  0.446200  0.086320  1.0
  C  C5975  1  0.553800  0.819800  0.086320  1.0
  C  C5976  1  0.180200  0.734000  0.086320  1.0
  C  C5977  1  0.153133  0.220467  0.080347  1.0
  C  C5978  1  0.067333  0.846867  0.080347  1.0
  C  C5979  1  0.779533  0.932667  0.080347  1.0
  C  C5980  1  0.599333  0.112867  0.752987  1.0
  C  C5981  1  0.887133  0.486467  0.752987  1.0
  C  C5982  1  0.513533  0.400667  0.752987  1.0
  C  C5983  1  0.486467  0.887133  0.747013  1.0
  C  C5984  1  0.400667  0.513533  0.747013  1.0
  C  C5985  1  0.112867  0.599333  0.747013  1.0
  C  C5986  1  0.932667  0.779533  0.419653  1.0
  C  C5987  1  0.220467  0.153133  0.419653  1.0
  C  C5988  1  0.846867  0.067333  0.419653  1.0
  C  C5989  1  0.175400  0.472700  0.594100  1.0
  C  C5990  1  0.297300  0.824600  0.594100  1.0
  C  C5991  1  0.527300  0.702700  0.594100  1.0
  C  C5992  1  0.702700  0.527300  0.905900  1.0
  C  C5993  1  0.472700  0.175400  0.905900  1.0
  C  C5994  1  0.824600  0.297300  0.905900  1.0
  C  C5995  1  0.508733  0.139367  0.260767  1.0
  C  C5996  1  0.630633  0.491267  0.260767  1.0
  C  C5997  1  0.860633  0.369367  0.260767  1.0
  C  C5998  1  0.036033  0.193967  0.572567  1.0
  C  C5999  1  0.806033  0.842067  0.572567  1.0
  C  C6000  1  0.157933  0.963967  0.572567  1.0
  C  C6001  1  0.842067  0.806033  0.927433  1.0
  C  C6002  1  0.963967  0.157933  0.927433  1.0
  C  C6003  1  0.193967  0.036033  0.927433  1.0
  C  C6004  1  0.369367  0.860633  0.239233  1.0
  C  C6005  1  0.139367  0.508733  0.239233  1.0
  C  C6006  1  0.491267  0.630633  0.239233  1.0
  C  C6007  1  0.824600  0.527300  0.405900  1.0
  C  C6008  1  0.702700  0.175400  0.405900  1.0
  C  C6009  1  0.472700  0.297300  0.405900  1.0
  C  C6010  1  0.297300  0.472700  0.094100  1.0
  C  C6011  1  0.527300  0.824600  0.094100  1.0
  C  C6012  1  0.175400  0.702700  0.094100  1.0
  C  C6013  1  0.157933  0.193967  0.072567  1.0
  C  C6014  1  0.036033  0.842067  0.072567  1.0
  C  C6015  1  0.806033  0.963967  0.072567  1.0
  C  C6016  1  0.630633  0.139367  0.760767  1.0
  C  C6017  1  0.860633  0.491267  0.760767  1.0
  C  C6018  1  0.508733  0.369367  0.760767  1.0
  C  C6019  1  0.491267  0.860633  0.739233  1.0
  C  C6020  1  0.369367  0.508733  0.739233  1.0
  C  C6021  1  0.139367  0.630633  0.739233  1.0
  C  C6022  1  0.963967  0.806033  0.427433  1.0
  C  C6023  1  0.193967  0.157933  0.427433  1.0
  C  C6024  1  0.842067  0.036033  0.427433  1.0
  C  C6025  1  0.212200  0.499900  0.598090  1.0
  C  C6026  1  0.287700  0.787800  0.598090  1.0
  C  C6027  1  0.500100  0.712300  0.598090  1.0
  C  C6028  1  0.712300  0.500100  0.901910  1.0
  C  C6029  1  0.499900  0.212200  0.901910  1.0
  C  C6030  1  0.787800  0.287700  0.901910  1.0
  C  C6031  1  0.545533  0.166567  0.264757  1.0
  C  C6032  1  0.621033  0.454467  0.264757  1.0
  C  C6033  1  0.833433  0.378967  0.264757  1.0
  C  C6034  1  0.045633  0.166767  0.568577  1.0
  C  C6035  1  0.833233  0.878867  0.568577  1.0
  C  C6036  1  0.121133  0.954367  0.568577  1.0
  C  C6037  1  0.878867  0.833233  0.931423  1.0
  C  C6038  1  0.954367  0.121133  0.931423  1.0
  C  C6039  1  0.166767  0.045633  0.931423  1.0
  C  C6040  1  0.378967  0.833433  0.235243  1.0
  C  C6041  1  0.166567  0.545533  0.235243  1.0
  C  C6042  1  0.454467  0.621033  0.235243  1.0
  C  C6043  1  0.787800  0.500100  0.401910  1.0
  C  C6044  1  0.712300  0.212200  0.401910  1.0
  C  C6045  1  0.499900  0.287700  0.401910  1.0
  C  C6046  1  0.287700  0.499900  0.098090  1.0
  C  C6047  1  0.500100  0.787800  0.098090  1.0
  C  C6048  1  0.212200  0.712300  0.098090  1.0
  C  C6049  1  0.121133  0.166767  0.068577  1.0
  C  C6050  1  0.045633  0.878867  0.068577  1.0
  C  C6051  1  0.833233  0.954367  0.068577  1.0
  C  C6052  1  0.621033  0.166567  0.764757  1.0
  C  C6053  1  0.833433  0.454467  0.764757  1.0
  C  C6054  1  0.545533  0.378967  0.764757  1.0
  C  C6055  1  0.454467  0.833433  0.735243  1.0
  C  C6056  1  0.378967  0.545533  0.735243  1.0
  C  C6057  1  0.166567  0.621033  0.735243  1.0
  C  C6058  1  0.954367  0.833233  0.431423  1.0
  C  C6059  1  0.166767  0.121133  0.431423  1.0
  C  C6060  1  0.878867  0.045633  0.431423  1.0
  C  C6061  1  0.241300  0.492800  0.591370  1.0
  C  C6062  1  0.251500  0.758700  0.591370  1.0
  C  C6063  1  0.507200  0.748500  0.591370  1.0
  C  C6064  1  0.748500  0.507200  0.908630  1.0
  C  C6065  1  0.492800  0.241300  0.908630  1.0
  C  C6066  1  0.758700  0.251500  0.908630  1.0
  C  C6067  1  0.574633  0.159467  0.258037  1.0
  C  C6068  1  0.584833  0.425367  0.258037  1.0
  C  C6069  1  0.840533  0.415167  0.258037  1.0
  C  C6070  1  0.081833  0.173867  0.575297  1.0
  C  C6071  1  0.826133  0.907967  0.575297  1.0
  C  C6072  1  0.092033  0.918167  0.575297  1.0
  C  C6073  1  0.907967  0.826133  0.924703  1.0
  C  C6074  1  0.918167  0.092033  0.924703  1.0
  C  C6075  1  0.173867  0.081833  0.924703  1.0
  C  C6076  1  0.415167  0.840533  0.241963  1.0
  C  C6077  1  0.159467  0.574633  0.241963  1.0
  C  C6078  1  0.425367  0.584833  0.241963  1.0
  C  C6079  1  0.758700  0.507200  0.408630  1.0
  C  C6080  1  0.748500  0.241300  0.408630  1.0
  C  C6081  1  0.492800  0.251500  0.408630  1.0
  C  C6082  1  0.251500  0.492800  0.091370  1.0
  C  C6083  1  0.507200  0.758700  0.091370  1.0
  C  C6084  1  0.241300  0.748500  0.091370  1.0
  C  C6085  1  0.092033  0.173867  0.075297  1.0
  C  C6086  1  0.081833  0.907967  0.075297  1.0
  C  C6087  1  0.826133  0.918167  0.075297  1.0
  C  C6088  1  0.584833  0.159467  0.758037  1.0
  C  C6089  1  0.840533  0.425367  0.758037  1.0
  C  C6090  1  0.574633  0.415167  0.758037  1.0
  C  C6091  1  0.425367  0.840533  0.741963  1.0
  C  C6092  1  0.415167  0.574633  0.741963  1.0
  C  C6093  1  0.159467  0.584833  0.741963  1.0
  C  C6094  1  0.918167  0.826133  0.424703  1.0
  C  C6095  1  0.173867  0.092033  0.424703  1.0
  C  C6096  1  0.907967  0.081833  0.424703  1.0
  C  C6097  1  0.280200  0.507800  0.594250  1.0
  C  C6098  1  0.227600  0.719800  0.594250  1.0
  C  C6099  1  0.492200  0.772400  0.594250  1.0
  C  C6100  1  0.772400  0.492200  0.905750  1.0
  C  C6101  1  0.507800  0.280200  0.905750  1.0
  C  C6102  1  0.719800  0.227600  0.905750  1.0
  C  C6103  1  0.613533  0.174467  0.260917  1.0
  C  C6104  1  0.560933  0.386467  0.260917  1.0
  C  C6105  1  0.825533  0.439067  0.260917  1.0
  C  C6106  1  0.105733  0.158867  0.572417  1.0
  C  C6107  1  0.841133  0.946867  0.572417  1.0
  C  C6108  1  0.053133  0.894267  0.572417  1.0
  C  C6109  1  0.946867  0.841133  0.927583  1.0
  C  C6110  1  0.894267  0.053133  0.927583  1.0
  C  C6111  1  0.158867  0.105733  0.927583  1.0
  C  C6112  1  0.439067  0.825533  0.239083  1.0
  C  C6113  1  0.174467  0.613533  0.239083  1.0
  C  C6114  1  0.386467  0.560933  0.239083  1.0
  C  C6115  1  0.719800  0.492200  0.405750  1.0
  C  C6116  1  0.772400  0.280200  0.405750  1.0
  C  C6117  1  0.507800  0.227600  0.405750  1.0
  C  C6118  1  0.227600  0.507800  0.094250  1.0
  C  C6119  1  0.492200  0.719800  0.094250  1.0
  C  C6120  1  0.280200  0.772400  0.094250  1.0
  C  C6121  1  0.053133  0.158867  0.072417  1.0
  C  C6122  1  0.105733  0.946867  0.072417  1.0
  C  C6123  1  0.841133  0.894267  0.072417  1.0
  C  C6124  1  0.560933  0.174467  0.760917  1.0
  C  C6125  1  0.825533  0.386467  0.760917  1.0
  C  C6126  1  0.613533  0.439067  0.760917  1.0
  C  C6127  1  0.386467  0.825533  0.739083  1.0
  C  C6128  1  0.439067  0.613533  0.739083  1.0
  C  C6129  1  0.174467  0.560933  0.739083  1.0
  C  C6130  1  0.894267  0.841133  0.427583  1.0
  C  C6131  1  0.158867  0.053133  0.427583  1.0
  C  C6132  1  0.946867  0.105733  0.427583  1.0
  C  C6133  1  0.303500  0.491900  0.590910  1.0
  C  C6134  1  0.188400  0.696500  0.590910  1.0
  C  C6135  1  0.508100  0.811600  0.590910  1.0
  C  C6136  1  0.811600  0.508100  0.909090  1.0
  C  C6137  1  0.491900  0.303500  0.909090  1.0
  C  C6138  1  0.696500  0.188400  0.909090  1.0
  C  C6139  1  0.636833  0.158567  0.257577  1.0
  C  C6140  1  0.521733  0.363167  0.257577  1.0
  C  C6141  1  0.841433  0.478267  0.257577  1.0
  C  C6142  1  0.144933  0.174767  0.575757  1.0
  C  C6143  1  0.825233  0.970167  0.575757  1.0
  C  C6144  1  0.029833  0.855067  0.575757  1.0
  C  C6145  1  0.970167  0.825233  0.924243  1.0
  C  C6146  1  0.855067  0.029833  0.924243  1.0
  C  C6147  1  0.174767  0.144933  0.924243  1.0
  C  C6148  1  0.478267  0.841433  0.242423  1.0
  C  C6149  1  0.158567  0.636833  0.242423  1.0
  C  C6150  1  0.363167  0.521733  0.242423  1.0
  C  C6151  1  0.696500  0.508100  0.409090  1.0
  C  C6152  1  0.811600  0.303500  0.409090  1.0
  C  C6153  1  0.491900  0.188400  0.409090  1.0
  C  C6154  1  0.188400  0.491900  0.090910  1.0
  C  C6155  1  0.508100  0.696500  0.090910  1.0
  C  C6156  1  0.303500  0.811600  0.090910  1.0
  C  C6157  1  0.029833  0.174767  0.075757  1.0
  C  C6158  1  0.144933  0.970167  0.075757  1.0
  C  C6159  1  0.825233  0.855067  0.075757  1.0
  C  C6160  1  0.521733  0.158567  0.757577  1.0
  C  C6161  1  0.841433  0.363167  0.757577  1.0
  C  C6162  1  0.636833  0.478267  0.757577  1.0
  C  C6163  1  0.363167  0.841433  0.742423  1.0
  C  C6164  1  0.478267  0.636833  0.742423  1.0
  C  C6165  1  0.158567  0.521733  0.742423  1.0
  C  C6166  1  0.855067  0.825233  0.424243  1.0
  C  C6167  1  0.174767  0.029833  0.424243  1.0
  C  C6168  1  0.970167  0.144933  0.424243  1.0
  C  C6169  1  0.341800  0.501500  0.595240  1.0
  C  C6170  1  0.159700  0.658200  0.595240  1.0
  C  C6171  1  0.498500  0.840300  0.595240  1.0
  C  C6172  1  0.840300  0.498500  0.904760  1.0
  C  C6173  1  0.501500  0.341800  0.904760  1.0
  C  C6174  1  0.658200  0.159700  0.904760  1.0
  C  C6175  1  0.675133  0.168167  0.261907  1.0
  C  C6176  1  0.493033  0.324867  0.261907  1.0
  C  C6177  1  0.831833  0.506967  0.261907  1.0
  C  C6178  1  0.173633  0.165167  0.571427  1.0
  C  C6179  1  0.834833  0.008467  0.571427  1.0
  C  C6180  1  0.991533  0.826367  0.571427  1.0
  C  C6181  1  0.008467  0.834833  0.928573  1.0
  C  C6182  1  0.826367  0.991533  0.928573  1.0
  C  C6183  1  0.165167  0.173633  0.928573  1.0
  C  C6184  1  0.506967  0.831833  0.238093  1.0
  C  C6185  1  0.168167  0.675133  0.238093  1.0
  C  C6186  1  0.324867  0.493033  0.238093  1.0
  C  C6187  1  0.658200  0.498500  0.404760  1.0
  C  C6188  1  0.840300  0.341800  0.404760  1.0
  C  C6189  1  0.501500  0.159700  0.404760  1.0
  C  C6190  1  0.159700  0.501500  0.095240  1.0
  C  C6191  1  0.498500  0.658200  0.095240  1.0
  C  C6192  1  0.341800  0.840300  0.095240  1.0
  C  C6193  1  0.991533  0.165167  0.071427  1.0
  C  C6194  1  0.173633  0.008467  0.071427  1.0
  C  C6195  1  0.834833  0.826367  0.071427  1.0
  C  C6196  1  0.493033  0.168167  0.761907  1.0
  C  C6197  1  0.831833  0.324867  0.761907  1.0
  C  C6198  1  0.675133  0.506967  0.761907  1.0
  C  C6199  1  0.324867  0.831833  0.738093  1.0
  C  C6200  1  0.506967  0.675133  0.738093  1.0
  C  C6201  1  0.168167  0.493033  0.738093  1.0
  C  C6202  1  0.826367  0.834833  0.428573  1.0
  C  C6203  1  0.165167  0.991533  0.428573  1.0
  C  C6204  1  0.008467  0.173633  0.428573  1.0
  C  C6205  1  0.349600  0.473300  0.591260  1.0
  C  C6206  1  0.123700  0.650400  0.591260  1.0
  C  C6207  1  0.526700  0.876300  0.591260  1.0
  C  C6208  1  0.876300  0.526700  0.908740  1.0
  C  C6209  1  0.473300  0.349600  0.908740  1.0
  C  C6210  1  0.650400  0.123700  0.908740  1.0
  C  C6211  1  0.682933  0.139967  0.257927  1.0
  C  C6212  1  0.457033  0.317067  0.257927  1.0
  C  C6213  1  0.860033  0.542967  0.257927  1.0
  C  C6214  1  0.209633  0.193367  0.575407  1.0
  C  C6215  1  0.806633  0.016267  0.575407  1.0
  C  C6216  1  0.983733  0.790367  0.575407  1.0
  C  C6217  1  0.016267  0.806633  0.924593  1.0
  C  C6218  1  0.790367  0.983733  0.924593  1.0
  C  C6219  1  0.193367  0.209633  0.924593  1.0
  C  C6220  1  0.542967  0.860033  0.242073  1.0
  C  C6221  1  0.139967  0.682933  0.242073  1.0
  C  C6222  1  0.317067  0.457033  0.242073  1.0
  C  C6223  1  0.650400  0.526700  0.408740  1.0
  C  C6224  1  0.876300  0.349600  0.408740  1.0
  C  C6225  1  0.473300  0.123700  0.408740  1.0
  C  C6226  1  0.123700  0.473300  0.091260  1.0
  C  C6227  1  0.526700  0.650400  0.091260  1.0
  C  C6228  1  0.349600  0.876300  0.091260  1.0
  C  C6229  1  0.983733  0.193367  0.075407  1.0
  C  C6230  1  0.209633  0.016267  0.075407  1.0
  C  C6231  1  0.806633  0.790367  0.075407  1.0
  C  C6232  1  0.457033  0.139967  0.757927  1.0
  C  C6233  1  0.860033  0.317067  0.757927  1.0
  C  C6234  1  0.682933  0.542967  0.757927  1.0
  C  C6235  1  0.317067  0.860033  0.742073  1.0
  C  C6236  1  0.542967  0.682933  0.742073  1.0
  C  C6237  1  0.139967  0.457033  0.742073  1.0
  C  C6238  1  0.790367  0.806633  0.424593  1.0
  C  C6239  1  0.193367  0.983733  0.424593  1.0
  C  C6240  1  0.016267  0.209633  0.424593  1.0
  C  C6241  1  0.317800  0.449000  0.582940  1.0
  C  C6242  1  0.131200  0.682200  0.582940  1.0
  C  C6243  1  0.551000  0.868800  0.582940  1.0
  C  C6244  1  0.868800  0.551000  0.917060  1.0
  C  C6245  1  0.449000  0.317800  0.917060  1.0
  C  C6246  1  0.682200  0.131200  0.917060  1.0
  C  C6247  1  0.651133  0.115667  0.249607  1.0
  C  C6248  1  0.464533  0.348867  0.249607  1.0
  C  C6249  1  0.884333  0.535467  0.249607  1.0
  C  C6250  1  0.202133  0.217667  0.583727  1.0
  C  C6251  1  0.782333  0.984467  0.583727  1.0
  C  C6252  1  0.015533  0.797867  0.583727  1.0
  C  C6253  1  0.984467  0.782333  0.916273  1.0
  C  C6254  1  0.797867  0.015533  0.916273  1.0
  C  C6255  1  0.217667  0.202133  0.916273  1.0
  C  C6256  1  0.535467  0.884333  0.250393  1.0
  C  C6257  1  0.115667  0.651133  0.250393  1.0
  C  C6258  1  0.348867  0.464533  0.250393  1.0
  C  C6259  1  0.682200  0.551000  0.417060  1.0
  C  C6260  1  0.868800  0.317800  0.417060  1.0
  C  C6261  1  0.449000  0.131200  0.417060  1.0
  C  C6262  1  0.131200  0.449000  0.082940  1.0
  C  C6263  1  0.551000  0.682200  0.082940  1.0
  C  C6264  1  0.317800  0.868800  0.082940  1.0
  C  C6265  1  0.015533  0.217667  0.083727  1.0
  C  C6266  1  0.202133  0.984467  0.083727  1.0
  C  C6267  1  0.782333  0.797867  0.083727  1.0
  C  C6268  1  0.464533  0.115667  0.749607  1.0
  C  C6269  1  0.884333  0.348867  0.749607  1.0
  C  C6270  1  0.651133  0.535467  0.749607  1.0
  C  C6271  1  0.348867  0.884333  0.750393  1.0
  C  C6272  1  0.535467  0.651133  0.750393  1.0
  C  C6273  1  0.115667  0.464533  0.750393  1.0
  C  C6274  1  0.797867  0.782333  0.416273  1.0
  C  C6275  1  0.217667  0.015533  0.416273  1.0
  C  C6276  1  0.984467  0.202133  0.416273  1.0
  C  C6277  1  0.318800  0.422000  0.575260  1.0
  C  C6278  1  0.103200  0.681200  0.575260  1.0
  C  C6279  1  0.578000  0.896800  0.575260  1.0
  C  C6280  1  0.896800  0.578000  0.924740  1.0
  C  C6281  1  0.422000  0.318800  0.924740  1.0
  C  C6282  1  0.681200  0.103200  0.924740  1.0
  C  C6283  1  0.652133  0.088667  0.241927  1.0
  C  C6284  1  0.436533  0.347867  0.241927  1.0
  C  C6285  1  0.911333  0.563467  0.241927  1.0
  C  C6286  1  0.230133  0.244667  0.591407  1.0
  C  C6287  1  0.755333  0.985467  0.591407  1.0
  C  C6288  1  0.014533  0.769867  0.591407  1.0
  C  C6289  1  0.985467  0.755333  0.908593  1.0
  C  C6290  1  0.769867  0.014533  0.908593  1.0
  C  C6291  1  0.244667  0.230133  0.908593  1.0
  C  C6292  1  0.563467  0.911333  0.258073  1.0
  C  C6293  1  0.088667  0.652133  0.258073  1.0
  C  C6294  1  0.347867  0.436533  0.258073  1.0
  C  C6295  1  0.681200  0.578000  0.424740  1.0
  C  C6296  1  0.896800  0.318800  0.424740  1.0
  C  C6297  1  0.422000  0.103200  0.424740  1.0
  C  C6298  1  0.103200  0.422000  0.075260  1.0
  C  C6299  1  0.578000  0.681200  0.075260  1.0
  C  C6300  1  0.318800  0.896800  0.075260  1.0
  C  C6301  1  0.014533  0.244667  0.091407  1.0
  C  C6302  1  0.230133  0.985467  0.091407  1.0
  C  C6303  1  0.755333  0.769867  0.091407  1.0
  C  C6304  1  0.436533  0.088667  0.741927  1.0
  C  C6305  1  0.911333  0.347867  0.741927  1.0
  C  C6306  1  0.652133  0.563467  0.741927  1.0
  C  C6307  1  0.347867  0.911333  0.758073  1.0
  C  C6308  1  0.563467  0.652133  0.758073  1.0
  C  C6309  1  0.088667  0.436533  0.758073  1.0
  C  C6310  1  0.769867  0.755333  0.408593  1.0
  C  C6311  1  0.244667  0.014533  0.408593  1.0
  C  C6312  1  0.985467  0.230133  0.408593  1.0
  C  C6313  1  0.295500  0.408000  0.564820  1.0
  C  C6314  1  0.112500  0.704500  0.564820  1.0
  C  C6315  1  0.592000  0.887500  0.564820  1.0
  C  C6316  1  0.887500  0.592000  0.935180  1.0
  C  C6317  1  0.408000  0.295500  0.935180  1.0
  C  C6318  1  0.704500  0.112500  0.935180  1.0
  C  C6319  1  0.628833  0.074667  0.231487  1.0
  C  C6320  1  0.445833  0.371167  0.231487  1.0
  C  C6321  1  0.925333  0.554167  0.231487  1.0
  C  C6322  1  0.220833  0.258667  0.601847  1.0
  C  C6323  1  0.741333  0.962167  0.601847  1.0
  C  C6324  1  0.037833  0.779167  0.601847  1.0
  C  C6325  1  0.962167  0.741333  0.898153  1.0
  C  C6326  1  0.779167  0.037833  0.898153  1.0
  C  C6327  1  0.258667  0.220833  0.898153  1.0
  C  C6328  1  0.554167  0.925333  0.268513  1.0
  C  C6329  1  0.074667  0.628833  0.268513  1.0
  C  C6330  1  0.371167  0.445833  0.268513  1.0
  C  C6331  1  0.704500  0.592000  0.435180  1.0
  C  C6332  1  0.887500  0.295500  0.435180  1.0
  C  C6333  1  0.408000  0.112500  0.435180  1.0
  C  C6334  1  0.112500  0.408000  0.064820  1.0
  C  C6335  1  0.592000  0.704500  0.064820  1.0
  C  C6336  1  0.295500  0.887500  0.064820  1.0
  C  C6337  1  0.037833  0.258667  0.101847  1.0
  C  C6338  1  0.220833  0.962167  0.101847  1.0
  C  C6339  1  0.741333  0.779167  0.101847  1.0
  C  C6340  1  0.445833  0.074667  0.731487  1.0
  C  C6341  1  0.925333  0.371167  0.731487  1.0
  C  C6342  1  0.628833  0.554167  0.731487  1.0
  C  C6343  1  0.371167  0.925333  0.768513  1.0
  C  C6344  1  0.554167  0.628833  0.768513  1.0
  C  C6345  1  0.074667  0.445833  0.768513  1.0
  C  C6346  1  0.779167  0.741333  0.398153  1.0
  C  C6347  1  0.258667  0.037833  0.398153  1.0
  C  C6348  1  0.962167  0.220833  0.398153  1.0
  C  C6349  1  0.303200  0.390300  0.554530  1.0
  C  C6350  1  0.087100  0.696800  0.554530  1.0
  C  C6351  1  0.609700  0.912900  0.554530  1.0
  C  C6352  1  0.912900  0.609700  0.945470  1.0
  C  C6353  1  0.390300  0.303200  0.945470  1.0
  C  C6354  1  0.696800  0.087100  0.945470  1.0
  C  C6355  1  0.636533  0.056967  0.221197  1.0
  C  C6356  1  0.420433  0.363467  0.221197  1.0
  C  C6357  1  0.943033  0.579567  0.221197  1.0
  C  C6358  1  0.246233  0.276367  0.612137  1.0
  C  C6359  1  0.723633  0.969867  0.612137  1.0
  C  C6360  1  0.030133  0.753767  0.612137  1.0
  C  C6361  1  0.969867  0.723633  0.887863  1.0
  C  C6362  1  0.753767  0.030133  0.887863  1.0
  C  C6363  1  0.276367  0.246233  0.887863  1.0
  C  C6364  1  0.579567  0.943033  0.278803  1.0
  C  C6365  1  0.056967  0.636533  0.278803  1.0
  C  C6366  1  0.363467  0.420433  0.278803  1.0
  C  C6367  1  0.696800  0.609700  0.445470  1.0
  C  C6368  1  0.912900  0.303200  0.445470  1.0
  C  C6369  1  0.390300  0.087100  0.445470  1.0
  C  C6370  1  0.087100  0.390300  0.054530  1.0
  C  C6371  1  0.609700  0.696800  0.054530  1.0
  C  C6372  1  0.303200  0.912900  0.054530  1.0
  C  C6373  1  0.030133  0.276367  0.112137  1.0
  C  C6374  1  0.246233  0.969867  0.112137  1.0
  C  C6375  1  0.723633  0.753767  0.112137  1.0
  C  C6376  1  0.420433  0.056967  0.721197  1.0
  C  C6377  1  0.943033  0.363467  0.721197  1.0
  C  C6378  1  0.636533  0.579567  0.721197  1.0
  C  C6379  1  0.363467  0.943033  0.778803  1.0
  C  C6380  1  0.579567  0.636533  0.778803  1.0
  C  C6381  1  0.056967  0.420433  0.778803  1.0
  C  C6382  1  0.753767  0.723633  0.387863  1.0
  C  C6383  1  0.276367  0.030133  0.387863  1.0
  C  C6384  1  0.969867  0.246233  0.387863  1.0
  C  C6385  1  0.276900  0.385900  0.546010  1.0
  C  C6386  1  0.109000  0.723100  0.546010  1.0
  C  C6387  1  0.614100  0.891000  0.546010  1.0
  C  C6388  1  0.891000  0.614100  0.953990  1.0
  C  C6389  1  0.385900  0.276900  0.953990  1.0
  C  C6390  1  0.723100  0.109000  0.953990  1.0
  C  C6391  1  0.610233  0.052567  0.212677  1.0
  C  C6392  1  0.442333  0.389767  0.212677  1.0
  C  C6393  1  0.947433  0.557667  0.212677  1.0
  C  C6394  1  0.224333  0.280767  0.620657  1.0
  C  C6395  1  0.719233  0.943567  0.620657  1.0
  C  C6396  1  0.056433  0.775667  0.620657  1.0
  C  C6397  1  0.943567  0.719233  0.879343  1.0
  C  C6398  1  0.775667  0.056433  0.879343  1.0
  C  C6399  1  0.280767  0.224333  0.879343  1.0
  C  C6400  1  0.557667  0.947433  0.287323  1.0
  C  C6401  1  0.052567  0.610233  0.287323  1.0
  C  C6402  1  0.389767  0.442333  0.287323  1.0
  C  C6403  1  0.723100  0.614100  0.453990  1.0
  C  C6404  1  0.891000  0.276900  0.453990  1.0
  C  C6405  1  0.385900  0.109000  0.453990  1.0
  C  C6406  1  0.109000  0.385900  0.046010  1.0
  C  C6407  1  0.614100  0.723100  0.046010  1.0
  C  C6408  1  0.276900  0.891000  0.046010  1.0
  C  C6409  1  0.056433  0.280767  0.120657  1.0
  C  C6410  1  0.224333  0.943567  0.120657  1.0
  C  C6411  1  0.719233  0.775667  0.120657  1.0
  C  C6412  1  0.442333  0.052567  0.712677  1.0
  C  C6413  1  0.947433  0.389767  0.712677  1.0
  C  C6414  1  0.610233  0.557667  0.712677  1.0
  C  C6415  1  0.389767  0.947433  0.787323  1.0
  C  C6416  1  0.557667  0.610233  0.787323  1.0
  C  C6417  1  0.052567  0.442333  0.787323  1.0
  C  C6418  1  0.775667  0.719233  0.379343  1.0
  C  C6419  1  0.280767  0.056433  0.379343  1.0
  C  C6420  1  0.943567  0.224333  0.379343  1.0
  C  C6421  1  0.249800  0.395900  0.551210  1.0
  C  C6422  1  0.146100  0.750200  0.551210  1.0
  C  C6423  1  0.604100  0.853900  0.551210  1.0
  C  C6424  1  0.853900  0.604100  0.948790  1.0
  C  C6425  1  0.395900  0.249800  0.948790  1.0
  C  C6426  1  0.750200  0.146100  0.948790  1.0
  C  C6427  1  0.583133  0.062567  0.217877  1.0
  C  C6428  1  0.479433  0.416867  0.217877  1.0
  C  C6429  1  0.937433  0.520567  0.217877  1.0
  C  C6430  1  0.187233  0.270767  0.615457  1.0
  C  C6431  1  0.729233  0.916467  0.615457  1.0
  C  C6432  1  0.083533  0.812767  0.615457  1.0
  C  C6433  1  0.916467  0.729233  0.884543  1.0
  C  C6434  1  0.812767  0.083533  0.884543  1.0
  C  C6435  1  0.270767  0.187233  0.884543  1.0
  C  C6436  1  0.520567  0.937433  0.282123  1.0
  C  C6437  1  0.062567  0.583133  0.282123  1.0
  C  C6438  1  0.416867  0.479433  0.282123  1.0
  C  C6439  1  0.750200  0.604100  0.448790  1.0
  C  C6440  1  0.853900  0.249800  0.448790  1.0
  C  C6441  1  0.395900  0.146100  0.448790  1.0
  C  C6442  1  0.146100  0.395900  0.051210  1.0
  C  C6443  1  0.604100  0.750200  0.051210  1.0
  C  C6444  1  0.249800  0.853900  0.051210  1.0
  C  C6445  1  0.083533  0.270767  0.115457  1.0
  C  C6446  1  0.187233  0.916467  0.115457  1.0
  C  C6447  1  0.729233  0.812767  0.115457  1.0
  C  C6448  1  0.479433  0.062567  0.717877  1.0
  C  C6449  1  0.937433  0.416867  0.717877  1.0
  C  C6450  1  0.583133  0.520567  0.717877  1.0
  C  C6451  1  0.416867  0.937433  0.782123  1.0
  C  C6452  1  0.520567  0.583133  0.782123  1.0
  C  C6453  1  0.062567  0.479433  0.782123  1.0
  C  C6454  1  0.812767  0.729233  0.384543  1.0
  C  C6455  1  0.270767  0.083533  0.384543  1.0
  C  C6456  1  0.916467  0.187233  0.384543  1.0
  C  C6457  1  0.300500  0.543100  0.602480  1.0
  C  C6458  1  0.242600  0.699500  0.602480  1.0
  C  C6459  1  0.456900  0.757400  0.602480  1.0
  C  C6460  1  0.757400  0.456900  0.897520  1.0
  C  C6461  1  0.543100  0.300500  0.897520  1.0
  C  C6462  1  0.699500  0.242600  0.897520  1.0
  C  C6463  1  0.633833  0.209767  0.269147  1.0
  C  C6464  1  0.575933  0.366167  0.269147  1.0
  C  C6465  1  0.790233  0.424067  0.269147  1.0
  C  C6466  1  0.090733  0.123567  0.564187  1.0
  C  C6467  1  0.876433  0.967167  0.564187  1.0
  C  C6468  1  0.032833  0.909267  0.564187  1.0
  C  C6469  1  0.967167  0.876433  0.935813  1.0
  C  C6470  1  0.909267  0.032833  0.935813  1.0
  C  C6471  1  0.123567  0.090733  0.935813  1.0
  C  C6472  1  0.424067  0.790233  0.230853  1.0
  C  C6473  1  0.209767  0.633833  0.230853  1.0
  C  C6474  1  0.366167  0.575933  0.230853  1.0
  C  C6475  1  0.699500  0.456900  0.397520  1.0
  C  C6476  1  0.757400  0.300500  0.397520  1.0
  C  C6477  1  0.543100  0.242600  0.397520  1.0
  C  C6478  1  0.242600  0.543100  0.102480  1.0
  C  C6479  1  0.456900  0.699500  0.102480  1.0
  C  C6480  1  0.300500  0.757400  0.102480  1.0
  C  C6481  1  0.032833  0.123567  0.064187  1.0
  C  C6482  1  0.090733  0.967167  0.064187  1.0
  C  C6483  1  0.876433  0.909267  0.064187  1.0
  C  C6484  1  0.575933  0.209767  0.769147  1.0
  C  C6485  1  0.790233  0.366167  0.769147  1.0
  C  C6486  1  0.633833  0.424067  0.769147  1.0
  C  C6487  1  0.366167  0.790233  0.730853  1.0
  C  C6488  1  0.424067  0.633833  0.730853  1.0
  C  C6489  1  0.209767  0.575933  0.730853  1.0
  C  C6490  1  0.909267  0.876433  0.435813  1.0
  C  C6491  1  0.123567  0.032833  0.435813  1.0
  C  C6492  1  0.967167  0.090733  0.435813  1.0
  C  C6493  1  0.319100  0.582400  0.598450  1.0
  C  C6494  1  0.263300  0.680900  0.598450  1.0
  C  C6495  1  0.417600  0.736700  0.598450  1.0
  C  C6496  1  0.736700  0.417600  0.901550  1.0
  C  C6497  1  0.582400  0.319100  0.901550  1.0
  C  C6498  1  0.680900  0.263300  0.901550  1.0
  C  C6499  1  0.652433  0.249067  0.265117  1.0
  C  C6500  1  0.596633  0.347567  0.265117  1.0
  C  C6501  1  0.750933  0.403367  0.265117  1.0
  C  C6502  1  0.070033  0.084267  0.568217  1.0
  C  C6503  1  0.915733  0.985767  0.568217  1.0
  C  C6504  1  0.014233  0.929967  0.568217  1.0
  C  C6505  1  0.985767  0.915733  0.931783  1.0
  C  C6506  1  0.929967  0.014233  0.931783  1.0
  C  C6507  1  0.084267  0.070033  0.931783  1.0
  C  C6508  1  0.403367  0.750933  0.234883  1.0
  C  C6509  1  0.249067  0.652433  0.234883  1.0
  C  C6510  1  0.347567  0.596633  0.234883  1.0
  C  C6511  1  0.680900  0.417600  0.401550  1.0
  C  C6512  1  0.736700  0.319100  0.401550  1.0
  C  C6513  1  0.582400  0.263300  0.401550  1.0
  C  C6514  1  0.263300  0.582400  0.098450  1.0
  C  C6515  1  0.417600  0.680900  0.098450  1.0
  C  C6516  1  0.319100  0.736700  0.098450  1.0
  C  C6517  1  0.014233  0.084267  0.068217  1.0
  C  C6518  1  0.070033  0.985767  0.068217  1.0
  C  C6519  1  0.915733  0.929967  0.068217  1.0
  C  C6520  1  0.596633  0.249067  0.765117  1.0
  C  C6521  1  0.750933  0.347567  0.765117  1.0
  C  C6522  1  0.652433  0.403367  0.765117  1.0
  C  C6523  1  0.347567  0.750933  0.734883  1.0
  C  C6524  1  0.403367  0.652433  0.734883  1.0
  C  C6525  1  0.249067  0.596633  0.734883  1.0
  C  C6526  1  0.929967  0.915733  0.431783  1.0
  C  C6527  1  0.084267  0.014233  0.431783  1.0
  C  C6528  1  0.985767  0.070033  0.431783  1.0
  C  C6529  1  0.339100  0.614900  0.606030  1.0
  C  C6530  1  0.275800  0.660900  0.606030  1.0
  C  C6531  1  0.385100  0.724200  0.606030  1.0
  C  C6532  1  0.724200  0.385100  0.893970  1.0
  C  C6533  1  0.614900  0.339100  0.893970  1.0
  C  C6534  1  0.660900  0.275800  0.893970  1.0
  C  C6535  1  0.672433  0.281567  0.272697  1.0
  C  C6536  1  0.609133  0.327567  0.272697  1.0
  C  C6537  1  0.718433  0.390867  0.272697  1.0
  C  C6538  1  0.057533  0.051767  0.560637  1.0
  C  C6539  1  0.948233  0.005767  0.560637  1.0
  C  C6540  1  0.994233  0.942467  0.560637  1.0
  C  C6541  1  0.005767  0.948233  0.939363  1.0
  C  C6542  1  0.942467  0.994233  0.939363  1.0
  C  C6543  1  0.051767  0.057533  0.939363  1.0
  C  C6544  1  0.390867  0.718433  0.227303  1.0
  C  C6545  1  0.281567  0.672433  0.227303  1.0
  C  C6546  1  0.327567  0.609133  0.227303  1.0
  C  C6547  1  0.660900  0.385100  0.393970  1.0
  C  C6548  1  0.724200  0.339100  0.393970  1.0
  C  C6549  1  0.614900  0.275800  0.393970  1.0
  C  C6550  1  0.275800  0.614900  0.106030  1.0
  C  C6551  1  0.385100  0.660900  0.106030  1.0
  C  C6552  1  0.339100  0.724200  0.106030  1.0
  C  C6553  1  0.994233  0.051767  0.060637  1.0
  C  C6554  1  0.057533  0.005767  0.060637  1.0
  C  C6555  1  0.948233  0.942467  0.060637  1.0
  C  C6556  1  0.609133  0.281567  0.772697  1.0
  C  C6557  1  0.718433  0.327567  0.772697  1.0
  C  C6558  1  0.672433  0.390867  0.772697  1.0
  C  C6559  1  0.327567  0.718433  0.727303  1.0
  C  C6560  1  0.390867  0.672433  0.727303  1.0
  C  C6561  1  0.281567  0.609133  0.727303  1.0
  C  C6562  1  0.942467  0.948233  0.439363  1.0
  C  C6563  1  0.051767  0.994233  0.439363  1.0
  C  C6564  1  0.005767  0.057533  0.439363  1.0
  C  C6565  1  0.338500  0.608300  0.618080  1.0
  C  C6566  1  0.269800  0.661500  0.618080  1.0
  C  C6567  1  0.391700  0.730200  0.618080  1.0
  C  C6568  1  0.730200  0.391700  0.881920  1.0
  C  C6569  1  0.608300  0.338500  0.881920  1.0
  C  C6570  1  0.661500  0.269800  0.881920  1.0
  C  C6571  1  0.671833  0.274967  0.284747  1.0
  C  C6572  1  0.603133  0.328167  0.284747  1.0
  C  C6573  1  0.725033  0.396867  0.284747  1.0
  C  C6574  1  0.063533  0.058367  0.548587  1.0
  C  C6575  1  0.941633  0.005167  0.548587  1.0
  C  C6576  1  0.994833  0.936467  0.548587  1.0
  C  C6577  1  0.005167  0.941633  0.951413  1.0
  C  C6578  1  0.936467  0.994833  0.951413  1.0
  C  C6579  1  0.058367  0.063533  0.951413  1.0
  C  C6580  1  0.396867  0.725033  0.215253  1.0
  C  C6581  1  0.274967  0.671833  0.215253  1.0
  C  C6582  1  0.328167  0.603133  0.215253  1.0
  C  C6583  1  0.661500  0.391700  0.381920  1.0
  C  C6584  1  0.730200  0.338500  0.381920  1.0
  C  C6585  1  0.608300  0.269800  0.381920  1.0
  C  C6586  1  0.269800  0.608300  0.118080  1.0
  C  C6587  1  0.391700  0.661500  0.118080  1.0
  C  C6588  1  0.338500  0.730200  0.118080  1.0
  C  C6589  1  0.994833  0.058367  0.048587  1.0
  C  C6590  1  0.063533  0.005167  0.048587  1.0
  C  C6591  1  0.941633  0.936467  0.048587  1.0
  C  C6592  1  0.603133  0.274967  0.784747  1.0
  C  C6593  1  0.725033  0.328167  0.784747  1.0
  C  C6594  1  0.671833  0.396867  0.784747  1.0
  C  C6595  1  0.328167  0.725033  0.715253  1.0
  C  C6596  1  0.396867  0.671833  0.715253  1.0
  C  C6597  1  0.274967  0.603133  0.715253  1.0
  C  C6598  1  0.936467  0.941633  0.451413  1.0
  C  C6599  1  0.058367  0.994833  0.451413  1.0
  C  C6600  1  0.005167  0.063533  0.451413  1.0
  C  C6601  1  0.319100  0.568900  0.622830  1.0
  C  C6602  1  0.249800  0.680900  0.622830  1.0
  C  C6603  1  0.431100  0.750200  0.622830  1.0
  C  C6604  1  0.750200  0.431100  0.877170  1.0
  C  C6605  1  0.568900  0.319100  0.877170  1.0
  C  C6606  1  0.680900  0.249800  0.877170  1.0
  C  C6607  1  0.652433  0.235567  0.289497  1.0
  C  C6608  1  0.583133  0.347567  0.289497  1.0
  C  C6609  1  0.764433  0.416867  0.289497  1.0
  C  C6610  1  0.083533  0.097767  0.543837  1.0
  C  C6611  1  0.902233  0.985767  0.543837  1.0
  C  C6612  1  0.014233  0.916467  0.543837  1.0
  C  C6613  1  0.985767  0.902233  0.956163  1.0
  C  C6614  1  0.916467  0.014233  0.956163  1.0
  C  C6615  1  0.097767  0.083533  0.956163  1.0
  C  C6616  1  0.416867  0.764433  0.210503  1.0
  C  C6617  1  0.235567  0.652433  0.210503  1.0
  C  C6618  1  0.347567  0.583133  0.210503  1.0
  C  C6619  1  0.680900  0.431100  0.377170  1.0
  C  C6620  1  0.750200  0.319100  0.377170  1.0
  C  C6621  1  0.568900  0.249800  0.377170  1.0
  C  C6622  1  0.249800  0.568900  0.122830  1.0
  C  C6623  1  0.431100  0.680900  0.122830  1.0
  C  C6624  1  0.319100  0.750200  0.122830  1.0
  C  C6625  1  0.014233  0.097767  0.043837  1.0
  C  C6626  1  0.083533  0.985767  0.043837  1.0
  C  C6627  1  0.902233  0.916467  0.043837  1.0
  C  C6628  1  0.583133  0.235567  0.789497  1.0
  C  C6629  1  0.764433  0.347567  0.789497  1.0
  C  C6630  1  0.652433  0.416867  0.789497  1.0
  C  C6631  1  0.347567  0.764433  0.710503  1.0
  C  C6632  1  0.416867  0.652433  0.710503  1.0
  C  C6633  1  0.235567  0.583133  0.710503  1.0
  C  C6634  1  0.916467  0.902233  0.456163  1.0
  C  C6635  1  0.097767  0.014233  0.456163  1.0
  C  C6636  1  0.985767  0.083533  0.456163  1.0
  C  C6637  1  0.300200  0.537200  0.614880  1.0
  C  C6638  1  0.237000  0.699800  0.614880  1.0
  C  C6639  1  0.462800  0.763000  0.614880  1.0
  C  C6640  1  0.763000  0.462800  0.885120  1.0
  C  C6641  1  0.537200  0.300200  0.885120  1.0
  C  C6642  1  0.699800  0.237000  0.885120  1.0
  C  C6643  1  0.633533  0.203867  0.281547  1.0
  C  C6644  1  0.570333  0.366467  0.281547  1.0
  C  C6645  1  0.796133  0.429667  0.281547  1.0
  C  C6646  1  0.096333  0.129467  0.551787  1.0
  C  C6647  1  0.870533  0.966867  0.551787  1.0
  C  C6648  1  0.033133  0.903667  0.551787  1.0
  C  C6649  1  0.966867  0.870533  0.948213  1.0
  C  C6650  1  0.903667  0.033133  0.948213  1.0
  C  C6651  1  0.129467  0.096333  0.948213  1.0
  C  C6652  1  0.429667  0.796133  0.218453  1.0
  C  C6653  1  0.203867  0.633533  0.218453  1.0
  C  C6654  1  0.366467  0.570333  0.218453  1.0
  C  C6655  1  0.699800  0.462800  0.385120  1.0
  C  C6656  1  0.763000  0.300200  0.385120  1.0
  C  C6657  1  0.537200  0.237000  0.385120  1.0
  C  C6658  1  0.237000  0.537200  0.114880  1.0
  C  C6659  1  0.462800  0.699800  0.114880  1.0
  C  C6660  1  0.300200  0.763000  0.114880  1.0
  C  C6661  1  0.033133  0.129467  0.051787  1.0
  C  C6662  1  0.096333  0.966867  0.051787  1.0
  C  C6663  1  0.870533  0.903667  0.051787  1.0
  C  C6664  1  0.570333  0.203867  0.781547  1.0
  C  C6665  1  0.796133  0.366467  0.781547  1.0
  C  C6666  1  0.633533  0.429667  0.781547  1.0
  C  C6667  1  0.366467  0.796133  0.718453  1.0
  C  C6668  1  0.429667  0.633533  0.718453  1.0
  C  C6669  1  0.203867  0.570333  0.718453  1.0
  C  C6670  1  0.903667  0.870533  0.448213  1.0
  C  C6671  1  0.129467  0.033133  0.448213  1.0
  C  C6672  1  0.966867  0.096333  0.448213  1.0
  C  C6673  1  0.392500  0.646700  0.630900  1.0
  C  C6674  1  0.254200  0.607500  0.630900  1.0
  C  C6675  1  0.353300  0.745800  0.630900  1.0
  C  C6676  1  0.745800  0.353300  0.869100  1.0
  C  C6677  1  0.646700  0.392500  0.869100  1.0
  C  C6678  1  0.607500  0.254200  0.869100  1.0
  C  C6679  1  0.725833  0.313367  0.297567  1.0
  C  C6680  1  0.587533  0.274167  0.297567  1.0
  C  C6681  1  0.686633  0.412467  0.297567  1.0
  C  C6682  1  0.079133  0.019967  0.535767  1.0
  C  C6683  1  0.980033  0.059167  0.535767  1.0
  C  C6684  1  0.940833  0.920867  0.535767  1.0
  C  C6685  1  0.059167  0.980033  0.964233  1.0
  C  C6686  1  0.920867  0.940833  0.964233  1.0
  C  C6687  1  0.019967  0.079133  0.964233  1.0
  C  C6688  1  0.412467  0.686633  0.202433  1.0
  C  C6689  1  0.313367  0.725833  0.202433  1.0
  C  C6690  1  0.274167  0.587533  0.202433  1.0
  C  C6691  1  0.607500  0.353300  0.369100  1.0
  C  C6692  1  0.745800  0.392500  0.369100  1.0
  C  C6693  1  0.646700  0.254200  0.369100  1.0
  C  C6694  1  0.254200  0.646700  0.130900  1.0
  C  C6695  1  0.353300  0.607500  0.130900  1.0
  C  C6696  1  0.392500  0.745800  0.130900  1.0
  C  C6697  1  0.940833  0.019967  0.035767  1.0
  C  C6698  1  0.079133  0.059167  0.035767  1.0
  C  C6699  1  0.980033  0.920867  0.035767  1.0
  C  C6700  1  0.587533  0.313367  0.797567  1.0
  C  C6701  1  0.686633  0.274167  0.797567  1.0
  C  C6702  1  0.725833  0.412467  0.797567  1.0
  C  C6703  1  0.274167  0.686633  0.702433  1.0
  C  C6704  1  0.412467  0.725833  0.702433  1.0
  C  C6705  1  0.313367  0.587533  0.702433  1.0
  C  C6706  1  0.920867  0.980033  0.464233  1.0
  C  C6707  1  0.019967  0.940833  0.464233  1.0
  C  C6708  1  0.059167  0.079133  0.464233  1.0
  C  C6709  1  0.409400  0.675600  0.640600  1.0
  C  C6710  1  0.266200  0.590600  0.640600  1.0
  C  C6711  1  0.324400  0.733800  0.640600  1.0
  C  C6712  1  0.733800  0.324400  0.859400  1.0
  C  C6713  1  0.675600  0.409400  0.859400  1.0
  C  C6714  1  0.590600  0.266200  0.859400  1.0
  C  C6715  1  0.742733  0.342267  0.307267  1.0
  C  C6716  1  0.599533  0.257267  0.307267  1.0
  C  C6717  1  0.657733  0.400467  0.307267  1.0
  C  C6718  1  0.067133  0.991067  0.526067  1.0
  C  C6719  1  0.008933  0.076067  0.526067  1.0
  C  C6720  1  0.923933  0.932867  0.526067  1.0
  C  C6721  1  0.076067  0.008933  0.973933  1.0
  C  C6722  1  0.932867  0.923933  0.973933  1.0
  C  C6723  1  0.991067  0.067133  0.973933  1.0
  C  C6724  1  0.400467  0.657733  0.192733  1.0
  C  C6725  1  0.342267  0.742733  0.192733  1.0
  C  C6726  1  0.257267  0.599533  0.192733  1.0
  C  C6727  1  0.590600  0.324400  0.359400  1.0
  C  C6728  1  0.733800  0.409400  0.359400  1.0
  C  C6729  1  0.675600  0.266200  0.359400  1.0
  C  C6730  1  0.266200  0.675600  0.140600  1.0
  C  C6731  1  0.324400  0.590600  0.140600  1.0
  C  C6732  1  0.409400  0.733800  0.140600  1.0
  C  C6733  1  0.923933  0.991067  0.026067  1.0
  C  C6734  1  0.067133  0.076067  0.026067  1.0
  C  C6735  1  0.008933  0.932867  0.026067  1.0
  C  C6736  1  0.599533  0.342267  0.807267  1.0
  C  C6737  1  0.657733  0.257267  0.807267  1.0
  C  C6738  1  0.742733  0.400467  0.807267  1.0
  C  C6739  1  0.257267  0.657733  0.692733  1.0
  C  C6740  1  0.400467  0.742733  0.692733  1.0
  C  C6741  1  0.342267  0.599533  0.692733  1.0
  C  C6742  1  0.932867  0.008933  0.473933  1.0
  C  C6743  1  0.991067  0.923933  0.473933  1.0
  C  C6744  1  0.076067  0.067133  0.473933  1.0
  C  C6745  1  0.447000  0.687700  0.645170  1.0
  C  C6746  1  0.240700  0.553000  0.645170  1.0
  C  C6747  1  0.312300  0.759300  0.645170  1.0
  C  C6748  1  0.759300  0.312300  0.854830  1.0
  C  C6749  1  0.687700  0.447000  0.854830  1.0
  C  C6750  1  0.553000  0.240700  0.854830  1.0
  C  C6751  1  0.780333  0.354367  0.311837  1.0
  C  C6752  1  0.574033  0.219667  0.311837  1.0
  C  C6753  1  0.645633  0.425967  0.311837  1.0
  C  C6754  1  0.092633  0.978967  0.521497  1.0
  C  C6755  1  0.021033  0.113667  0.521497  1.0
  C  C6756  1  0.886333  0.907367  0.521497  1.0
  C  C6757  1  0.113667  0.021033  0.978503  1.0
  C  C6758  1  0.907367  0.886333  0.978503  1.0
  C  C6759  1  0.978967  0.092633  0.978503  1.0
  C  C6760  1  0.425967  0.645633  0.188163  1.0
  C  C6761  1  0.354367  0.780333  0.188163  1.0
  C  C6762  1  0.219667  0.574033  0.188163  1.0
  C  C6763  1  0.553000  0.312300  0.354830  1.0
  C  C6764  1  0.759300  0.447000  0.354830  1.0
  C  C6765  1  0.687700  0.240700  0.354830  1.0
  C  C6766  1  0.240700  0.687700  0.145170  1.0
  C  C6767  1  0.312300  0.553000  0.145170  1.0
  C  C6768  1  0.447000  0.759300  0.145170  1.0
  C  C6769  1  0.886333  0.978967  0.021497  1.0
  C  C6770  1  0.092633  0.113667  0.021497  1.0
  C  C6771  1  0.021033  0.907367  0.021497  1.0
  C  C6772  1  0.574033  0.354367  0.811837  1.0
  C  C6773  1  0.645633  0.219667  0.811837  1.0
  C  C6774  1  0.780333  0.425967  0.811837  1.0
  C  C6775  1  0.219667  0.645633  0.688163  1.0
  C  C6776  1  0.425967  0.780333  0.688163  1.0
  C  C6777  1  0.354367  0.574033  0.688163  1.0
  C  C6778  1  0.907367  0.021033  0.478503  1.0
  C  C6779  1  0.978967  0.886333  0.478503  1.0
  C  C6780  1  0.113667  0.092633  0.478503  1.0
  C  C6781  1  0.458700  0.713800  0.654830  1.0
  C  C6782  1  0.255100  0.541300  0.654830  1.0
  C  C6783  1  0.286200  0.744900  0.654830  1.0
  C  C6784  1  0.744900  0.286200  0.845170  1.0
  C  C6785  1  0.713800  0.458700  0.845170  1.0
  C  C6786  1  0.541300  0.255100  0.845170  1.0
  C  C6787  1  0.792033  0.380467  0.321497  1.0
  C  C6788  1  0.588433  0.207967  0.321497  1.0
  C  C6789  1  0.619533  0.411567  0.321497  1.0
  C  C6790  1  0.078233  0.952867  0.511837  1.0
  C  C6791  1  0.047133  0.125367  0.511837  1.0
  C  C6792  1  0.874633  0.921767  0.511837  1.0
  C  C6793  1  0.125367  0.047133  0.988163  1.0
  C  C6794  1  0.921767  0.874633  0.988163  1.0
  C  C6795  1  0.952867  0.078233  0.988163  1.0
  C  C6796  1  0.411567  0.619533  0.178503  1.0
  C  C6797  1  0.380467  0.792033  0.178503  1.0
  C  C6798  1  0.207967  0.588433  0.178503  1.0
  C  C6799  1  0.541300  0.286200  0.345170  1.0
  C  C6800  1  0.744900  0.458700  0.345170  1.0
  C  C6801  1  0.713800  0.255100  0.345170  1.0
  C  C6802  1  0.255100  0.713800  0.154830  1.0
  C  C6803  1  0.286200  0.541300  0.154830  1.0
  C  C6804  1  0.458700  0.744900  0.154830  1.0
  C  C6805  1  0.874633  0.952867  0.011837  1.0
  C  C6806  1  0.078233  0.125367  0.011837  1.0
  C  C6807  1  0.047133  0.921767  0.011837  1.0
  C  C6808  1  0.588433  0.380467  0.821497  1.0
  C  C6809  1  0.619533  0.207967  0.821497  1.0
  C  C6810  1  0.792033  0.411567  0.821497  1.0
  C  C6811  1  0.207967  0.619533  0.678503  1.0
  C  C6812  1  0.411567  0.792033  0.678503  1.0
  C  C6813  1  0.380467  0.588433  0.678503  1.0
  C  C6814  1  0.921767  0.047133  0.488163  1.0
  C  C6815  1  0.952867  0.874633  0.488163  1.0
  C  C6816  1  0.125367  0.078233  0.488163  1.0
  C  C6817  1  0.434700  0.727300  0.658870  1.0
  C  C6818  1  0.292600  0.565300  0.658870  1.0
  C  C6819  1  0.272700  0.707400  0.658870  1.0
  C  C6820  1  0.707400  0.272700  0.841130  1.0
  C  C6821  1  0.727300  0.434700  0.841130  1.0
  C  C6822  1  0.565300  0.292600  0.841130  1.0
  C  C6823  1  0.768033  0.393967  0.325537  1.0
  C  C6824  1  0.625933  0.231967  0.325537  1.0
  C  C6825  1  0.606033  0.374067  0.325537  1.0
  C  C6826  1  0.040733  0.939367  0.507797  1.0
  C  C6827  1  0.060633  0.101367  0.507797  1.0
  C  C6828  1  0.898633  0.959267  0.507797  1.0
  C  C6829  1  0.101367  0.060633  0.992203  1.0
  C  C6830  1  0.959267  0.898633  0.992203  1.0
  C  C6831  1  0.939367  0.040733  0.992203  1.0
  C  C6832  1  0.374067  0.606033  0.174463  1.0
  C  C6833  1  0.393967  0.768033  0.174463  1.0
  C  C6834  1  0.231967  0.625933  0.174463  1.0
  C  C6835  1  0.565300  0.272700  0.341130  1.0
  C  C6836  1  0.707400  0.434700  0.341130  1.0
  C  C6837  1  0.727300  0.292600  0.341130  1.0
  C  C6838  1  0.292600  0.727300  0.158870  1.0
  C  C6839  1  0.272700  0.565300  0.158870  1.0
  C  C6840  1  0.434700  0.707400  0.158870  1.0
  C  C6841  1  0.898633  0.939367  0.007797  1.0
  C  C6842  1  0.040733  0.101367  0.007797  1.0
  C  C6843  1  0.060633  0.959267  0.007797  1.0
  C  C6844  1  0.625933  0.393967  0.825537  1.0
  C  C6845  1  0.606033  0.231967  0.825537  1.0
  C  C6846  1  0.768033  0.374067  0.825537  1.0
  C  C6847  1  0.231967  0.606033  0.674463  1.0
  C  C6848  1  0.374067  0.768033  0.674463  1.0
  C  C6849  1  0.393967  0.625933  0.674463  1.0
  C  C6850  1  0.959267  0.060633  0.492203  1.0
  C  C6851  1  0.939367  0.898633  0.492203  1.0
  C  C6852  1  0.101367  0.040733  0.492203  1.0
  C  C6853  1  0.396700  0.712200  0.654110  1.0
  C  C6854  1  0.315500  0.603300  0.654110  1.0
  C  C6855  1  0.287800  0.684500  0.654110  1.0
  C  C6856  1  0.684500  0.287800  0.845890  1.0
  C  C6857  1  0.712200  0.396700  0.845890  1.0
  C  C6858  1  0.603300  0.315500  0.845890  1.0
  C  C6859  1  0.730033  0.378867  0.320777  1.0
  C  C6860  1  0.648833  0.269967  0.320777  1.0
  C  C6861  1  0.621133  0.351167  0.320777  1.0
  C  C6862  1  0.017833  0.954467  0.512557  1.0
  C  C6863  1  0.045533  0.063367  0.512557  1.0
  C  C6864  1  0.936633  0.982167  0.512557  1.0
  C  C6865  1  0.063367  0.045533  0.987443  1.0
  C  C6866  1  0.982167  0.936633  0.987443  1.0
  C  C6867  1  0.954467  0.017833  0.987443  1.0
  C  C6868  1  0.351167  0.621133  0.179223  1.0
  C  C6869  1  0.378867  0.730033  0.179223  1.0
  C  C6870  1  0.269967  0.648833  0.179223  1.0
  C  C6871  1  0.603300  0.287800  0.345890  1.0
  C  C6872  1  0.684500  0.396700  0.345890  1.0
  C  C6873  1  0.712200  0.315500  0.345890  1.0
  C  C6874  1  0.315500  0.712200  0.154110  1.0
  C  C6875  1  0.287800  0.603300  0.154110  1.0
  C  C6876  1  0.396700  0.684500  0.154110  1.0
  C  C6877  1  0.936633  0.954467  0.012557  1.0
  C  C6878  1  0.017833  0.063367  0.012557  1.0
  C  C6879  1  0.045533  0.982167  0.012557  1.0
  C  C6880  1  0.648833  0.378867  0.820777  1.0
  C  C6881  1  0.621133  0.269967  0.820777  1.0
  C  C6882  1  0.730033  0.351167  0.820777  1.0
  C  C6883  1  0.269967  0.621133  0.679223  1.0
  C  C6884  1  0.351167  0.730033  0.679223  1.0
  C  C6885  1  0.378867  0.648833  0.679223  1.0
  C  C6886  1  0.982167  0.045533  0.487443  1.0
  C  C6887  1  0.954467  0.936633  0.487443  1.0
  C  C6888  1  0.063367  0.017833  0.487443  1.0
  C  C6889  1  0.117300  0.352700  0.539230  1.0
  C  C6890  1  0.235400  0.882700  0.539230  1.0
  C  C6891  1  0.647300  0.764600  0.539230  1.0
  C  C6892  1  0.764600  0.647300  0.960770  1.0
  C  C6893  1  0.352700  0.117300  0.960770  1.0
  C  C6894  1  0.882700  0.235400  0.960770  1.0
  C  C6895  1  0.450633  0.019367  0.205897  1.0
  C  C6896  1  0.568733  0.549367  0.205897  1.0
  C  C6897  1  0.980633  0.431267  0.205897  1.0
  C  C6898  1  0.097933  0.313967  0.627437  1.0
  C  C6899  1  0.686033  0.783967  0.627437  1.0
  C  C6900  1  0.216033  0.902067  0.627437  1.0
  C  C6901  1  0.783967  0.686033  0.872563  1.0
  C  C6902  1  0.902067  0.216033  0.872563  1.0
  C  C6903  1  0.313967  0.097933  0.872563  1.0
  C  C6904  1  0.431267  0.980633  0.294103  1.0
  C  C6905  1  0.019367  0.450633  0.294103  1.0
  C  C6906  1  0.549367  0.568733  0.294103  1.0
  C  C6907  1  0.882700  0.647300  0.460770  1.0
  C  C6908  1  0.764600  0.117300  0.460770  1.0
  C  C6909  1  0.352700  0.235400  0.460770  1.0
  C  C6910  1  0.235400  0.352700  0.039230  1.0
  C  C6911  1  0.647300  0.882700  0.039230  1.0
  C  C6912  1  0.117300  0.764600  0.039230  1.0
  C  C6913  1  0.216033  0.313967  0.127437  1.0
  C  C6914  1  0.097933  0.783967  0.127437  1.0
  C  C6915  1  0.686033  0.902067  0.127437  1.0
  C  C6916  1  0.568733  0.019367  0.705897  1.0
  C  C6917  1  0.980633  0.549367  0.705897  1.0
  C  C6918  1  0.450633  0.431267  0.705897  1.0
  C  C6919  1  0.549367  0.980633  0.794103  1.0
  C  C6920  1  0.431267  0.450633  0.794103  1.0
  C  C6921  1  0.019367  0.568733  0.794103  1.0
  C  C6922  1  0.902067  0.686033  0.372563  1.0
  C  C6923  1  0.313967  0.216033  0.372563  1.0
  C  C6924  1  0.783967  0.097933  0.372563  1.0
  C  C6925  1  0.079400  0.364100  0.562400  1.0
  C  C6926  1  0.284700  0.920600  0.562400  1.0
  C  C6927  1  0.635900  0.715300  0.562400  1.0
  C  C6928  1  0.715300  0.635900  0.937600  1.0
  C  C6929  1  0.364100  0.079400  0.937600  1.0
  C  C6930  1  0.920600  0.284700  0.937600  1.0
  C  C6931  1  0.412733  0.030767  0.229067  1.0
  C  C6932  1  0.618033  0.587267  0.229067  1.0
  C  C6933  1  0.969233  0.381967  0.229067  1.0
  C  C6934  1  0.048633  0.302567  0.604267  1.0
  C  C6935  1  0.697433  0.746067  0.604267  1.0
  C  C6936  1  0.253933  0.951367  0.604267  1.0
  C  C6937  1  0.746067  0.697433  0.895733  1.0
  C  C6938  1  0.951367  0.253933  0.895733  1.0
  C  C6939  1  0.302567  0.048633  0.895733  1.0
  C  C6940  1  0.381967  0.969233  0.270933  1.0
  C  C6941  1  0.030767  0.412733  0.270933  1.0
  C  C6942  1  0.587267  0.618033  0.270933  1.0
  C  C6943  1  0.920600  0.635900  0.437600  1.0
  C  C6944  1  0.715300  0.079400  0.437600  1.0
  C  C6945  1  0.364100  0.284700  0.437600  1.0
  C  C6946  1  0.284700  0.364100  0.062400  1.0
  C  C6947  1  0.635900  0.920600  0.062400  1.0
  C  C6948  1  0.079400  0.715300  0.062400  1.0
  C  C6949  1  0.253933  0.302567  0.104267  1.0
  C  C6950  1  0.048633  0.746067  0.104267  1.0
  C  C6951  1  0.697433  0.951367  0.104267  1.0
  C  C6952  1  0.618033  0.030767  0.729067  1.0
  C  C6953  1  0.969233  0.587267  0.729067  1.0
  C  C6954  1  0.412733  0.381967  0.729067  1.0
  C  C6955  1  0.587267  0.969233  0.770933  1.0
  C  C6956  1  0.381967  0.412733  0.770933  1.0
  C  C6957  1  0.030767  0.618033  0.770933  1.0
  C  C6958  1  0.951367  0.697433  0.395733  1.0
  C  C6959  1  0.302567  0.253933  0.395733  1.0
  C  C6960  1  0.746067  0.048633  0.395733  1.0
  C  C6961  1  0.059300  0.318500  0.564700  1.0
  C  C6962  1  0.259200  0.940700  0.564700  1.0
  C  C6963  1  0.681500  0.740800  0.564700  1.0
  C  C6964  1  0.740800  0.681500  0.935300  1.0
  C  C6965  1  0.318500  0.059300  0.935300  1.0
  C  C6966  1  0.940700  0.259200  0.935300  1.0
  C  C6967  1  0.392633  0.985167  0.231367  1.0
  C  C6968  1  0.592533  0.607367  0.231367  1.0
  C  C6969  1  0.014833  0.407467  0.231367  1.0
  C  C6970  1  0.074133  0.348167  0.601967  1.0
  C  C6971  1  0.651833  0.725967  0.601967  1.0
  C  C6972  1  0.274033  0.925867  0.601967  1.0
  C  C6973  1  0.725967  0.651833  0.898033  1.0
  C  C6974  1  0.925867  0.274033  0.898033  1.0
  C  C6975  1  0.348167  0.074133  0.898033  1.0
  C  C6976  1  0.407467  0.014833  0.268633  1.0
  C  C6977  1  0.985167  0.392633  0.268633  1.0
  C  C6978  1  0.607367  0.592533  0.268633  1.0
  C  C6979  1  0.940700  0.681500  0.435300  1.0
  C  C6980  1  0.740800  0.059300  0.435300  1.0
  C  C6981  1  0.318500  0.259200  0.435300  1.0
  C  C6982  1  0.259200  0.318500  0.064700  1.0
  C  C6983  1  0.681500  0.940700  0.064700  1.0
  C  C6984  1  0.059300  0.740800  0.064700  1.0
  C  C6985  1  0.274033  0.348167  0.101967  1.0
  C  C6986  1  0.074133  0.725967  0.101967  1.0
  C  C6987  1  0.651833  0.925867  0.101967  1.0
  C  C6988  1  0.592533  0.985167  0.731367  1.0
  C  C6989  1  0.014833  0.607367  0.731367  1.0
  C  C6990  1  0.392633  0.407467  0.731367  1.0
  C  C6991  1  0.607367  0.014833  0.768633  1.0
  C  C6992  1  0.407467  0.392633  0.768633  1.0
  C  C6993  1  0.985167  0.592533  0.768633  1.0
  C  C6994  1  0.925867  0.651833  0.398033  1.0
  C  C6995  1  0.348167  0.274033  0.398033  1.0
  C  C6996  1  0.725967  0.074133  0.398033  1.0
  C  C6997  1  0.135000  0.464000  0.599400  1.0
  C  C6998  1  0.329000  0.865000  0.599400  1.0
  C  C6999  1  0.536000  0.671000  0.599400  1.0
  C  C7000  1  0.671000  0.536000  0.900600  1.0
  C  C7001  1  0.464000  0.135000  0.900600  1.0
  C  C7002  1  0.865000  0.329000  0.900600  1.0
  C  C7003  1  0.468333  0.130667  0.266067  1.0
  C  C7004  1  0.662333  0.531667  0.266067  1.0
  C  C7005  1  0.869333  0.337667  0.266067  1.0
  C  C7006  1  0.004333  0.202667  0.567267  1.0
  C  C7007  1  0.797333  0.801667  0.567267  1.0
  C  C7008  1  0.198333  0.995667  0.567267  1.0
  C  C7009  1  0.801667  0.797333  0.932733  1.0
  C  C7010  1  0.995667  0.198333  0.932733  1.0
  C  C7011  1  0.202667  0.004333  0.932733  1.0
  C  C7012  1  0.337667  0.869333  0.233933  1.0
  C  C7013  1  0.130667  0.468333  0.233933  1.0
  C  C7014  1  0.531667  0.662333  0.233933  1.0
  C  C7015  1  0.865000  0.536000  0.400600  1.0
  C  C7016  1  0.671000  0.135000  0.400600  1.0
  C  C7017  1  0.464000  0.329000  0.400600  1.0
  C  C7018  1  0.329000  0.464000  0.099400  1.0
  C  C7019  1  0.536000  0.865000  0.099400  1.0
  C  C7020  1  0.135000  0.671000  0.099400  1.0
  C  C7021  1  0.198333  0.202667  0.067267  1.0
  C  C7022  1  0.004333  0.801667  0.067267  1.0
  C  C7023  1  0.797333  0.995667  0.067267  1.0
  C  C7024  1  0.662333  0.130667  0.766067  1.0
  C  C7025  1  0.869333  0.531667  0.766067  1.0
  C  C7026  1  0.468333  0.337667  0.766067  1.0
  C  C7027  1  0.531667  0.869333  0.733933  1.0
  C  C7028  1  0.337667  0.468333  0.733933  1.0
  C  C7029  1  0.130667  0.662333  0.733933  1.0
  C  C7030  1  0.995667  0.797333  0.432733  1.0
  C  C7031  1  0.202667  0.198333  0.432733  1.0
  C  C7032  1  0.801667  0.004333  0.432733  1.0
  C  C7033  1  0.220300  0.534000  0.606600  1.0
  C  C7034  1  0.313700  0.779700  0.606600  1.0
  C  C7035  1  0.466000  0.686300  0.606600  1.0
  C  C7036  1  0.686300  0.466000  0.893400  1.0
  C  C7037  1  0.534000  0.220300  0.893400  1.0
  C  C7038  1  0.779700  0.313700  0.893400  1.0
  C  C7039  1  0.553633  0.200667  0.273267  1.0
  C  C7040  1  0.647033  0.446367  0.273267  1.0
  C  C7041  1  0.799333  0.352967  0.273267  1.0
  C  C7042  1  0.019633  0.132667  0.560067  1.0
  C  C7043  1  0.867333  0.886967  0.560067  1.0
  C  C7044  1  0.113033  0.980367  0.560067  1.0
  C  C7045  1  0.886967  0.867333  0.939933  1.0
  C  C7046  1  0.980367  0.113033  0.939933  1.0
  C  C7047  1  0.132667  0.019633  0.939933  1.0
  C  C7048  1  0.352967  0.799333  0.226733  1.0
  C  C7049  1  0.200667  0.553633  0.226733  1.0
  C  C7050  1  0.446367  0.647033  0.226733  1.0
  C  C7051  1  0.779700  0.466000  0.393400  1.0
  C  C7052  1  0.686300  0.220300  0.393400  1.0
  C  C7053  1  0.534000  0.313700  0.393400  1.0
  C  C7054  1  0.313700  0.534000  0.106600  1.0
  C  C7055  1  0.466000  0.779700  0.106600  1.0
  C  C7056  1  0.220300  0.686300  0.106600  1.0
  C  C7057  1  0.113033  0.132667  0.060067  1.0
  C  C7058  1  0.019633  0.886967  0.060067  1.0
  C  C7059  1  0.867333  0.980367  0.060067  1.0
  C  C7060  1  0.647033  0.200667  0.773267  1.0
  C  C7061  1  0.799333  0.446367  0.773267  1.0
  C  C7062  1  0.553633  0.352967  0.773267  1.0
  C  C7063  1  0.446367  0.799333  0.726733  1.0
  C  C7064  1  0.352967  0.553633  0.726733  1.0
  C  C7065  1  0.200667  0.647033  0.726733  1.0
  C  C7066  1  0.980367  0.867333  0.439933  1.0
  C  C7067  1  0.132667  0.113033  0.439933  1.0
  C  C7068  1  0.886967  0.019633  0.439933  1.0
  C  C7069  1  0.372100  0.536000  0.603110  1.0
  C  C7070  1  0.163900  0.627900  0.603110  1.0
  C  C7071  1  0.464000  0.836100  0.603110  1.0
  C  C7072  1  0.836100  0.464000  0.896890  1.0
  C  C7073  1  0.536000  0.372100  0.896890  1.0
  C  C7074  1  0.627900  0.163900  0.896890  1.0
  C  C7075  1  0.705433  0.202667  0.269777  1.0
  C  C7076  1  0.497233  0.294567  0.269777  1.0
  C  C7077  1  0.797333  0.502767  0.269777  1.0
  C  C7078  1  0.169433  0.130667  0.563557  1.0
  C  C7079  1  0.869333  0.038767  0.563557  1.0
  C  C7080  1  0.961233  0.830567  0.563557  1.0
  C  C7081  1  0.038767  0.869333  0.936443  1.0
  C  C7082  1  0.830567  0.961233  0.936443  1.0
  C  C7083  1  0.130667  0.169433  0.936443  1.0
  C  C7084  1  0.502767  0.797333  0.230223  1.0
  C  C7085  1  0.202667  0.705433  0.230223  1.0
  C  C7086  1  0.294567  0.497233  0.230223  1.0
  C  C7087  1  0.627900  0.464000  0.396890  1.0
  C  C7088  1  0.836100  0.372100  0.396890  1.0
  C  C7089  1  0.536000  0.163900  0.396890  1.0
  C  C7090  1  0.163900  0.536000  0.103110  1.0
  C  C7091  1  0.464000  0.627900  0.103110  1.0
  C  C7092  1  0.372100  0.836100  0.103110  1.0
  C  C7093  1  0.961233  0.130667  0.063557  1.0
  C  C7094  1  0.169433  0.038767  0.063557  1.0
  C  C7095  1  0.869333  0.830567  0.063557  1.0
  C  C7096  1  0.497233  0.202667  0.769777  1.0
  C  C7097  1  0.797333  0.294567  0.769777  1.0
  C  C7098  1  0.705433  0.502767  0.769777  1.0
  C  C7099  1  0.294567  0.797333  0.730223  1.0
  C  C7100  1  0.502767  0.705433  0.730223  1.0
  C  C7101  1  0.202667  0.497233  0.730223  1.0
  C  C7102  1  0.830567  0.869333  0.436443  1.0
  C  C7103  1  0.130667  0.961233  0.436443  1.0
  C  C7104  1  0.038767  0.169433  0.436443  1.0
  C  C7105  1  0.386700  0.471200  0.593300  1.0
  C  C7106  1  0.084500  0.613300  0.593300  1.0
  C  C7107  1  0.528800  0.915500  0.593300  1.0
  C  C7108  1  0.915500  0.528800  0.906700  1.0
  C  C7109  1  0.471200  0.386700  0.906700  1.0
  C  C7110  1  0.613300  0.084500  0.906700  1.0
  C  C7111  1  0.720033  0.137867  0.259967  1.0
  C  C7112  1  0.417833  0.279967  0.259967  1.0
  C  C7113  1  0.862133  0.582167  0.259967  1.0
  C  C7114  1  0.248833  0.195467  0.573367  1.0
  C  C7115  1  0.804533  0.053367  0.573367  1.0
  C  C7116  1  0.946633  0.751167  0.573367  1.0
  C  C7117  1  0.053367  0.804533  0.926633  1.0
  C  C7118  1  0.751167  0.946633  0.926633  1.0
  C  C7119  1  0.195467  0.248833  0.926633  1.0
  C  C7120  1  0.582167  0.862133  0.240033  1.0
  C  C7121  1  0.137867  0.720033  0.240033  1.0
  C  C7122  1  0.279967  0.417833  0.240033  1.0
  C  C7123  1  0.613300  0.528800  0.406700  1.0
  C  C7124  1  0.915500  0.386700  0.406700  1.0
  C  C7125  1  0.471200  0.084500  0.406700  1.0
  C  C7126  1  0.084500  0.471200  0.093300  1.0
  C  C7127  1  0.528800  0.613300  0.093300  1.0
  C  C7128  1  0.386700  0.915500  0.093300  1.0
  C  C7129  1  0.946633  0.195467  0.073367  1.0
  C  C7130  1  0.248833  0.053367  0.073367  1.0
  C  C7131  1  0.804533  0.751167  0.073367  1.0
  C  C7132  1  0.417833  0.137867  0.759967  1.0
  C  C7133  1  0.862133  0.279967  0.759967  1.0
  C  C7134  1  0.720033  0.582167  0.759967  1.0
  C  C7135  1  0.279967  0.862133  0.740033  1.0
  C  C7136  1  0.582167  0.720033  0.740033  1.0
  C  C7137  1  0.137867  0.417833  0.740033  1.0
  C  C7138  1  0.751167  0.804533  0.426633  1.0
  C  C7139  1  0.195467  0.946633  0.426633  1.0
  C  C7140  1  0.053367  0.248833  0.426633  1.0
  C  C7141  1  0.420200  0.501800  0.584800  1.0
  C  C7142  1  0.081600  0.579800  0.584800  1.0
  C  C7143  1  0.498200  0.918400  0.584800  1.0
  C  C7144  1  0.918400  0.498200  0.915200  1.0
  C  C7145  1  0.501800  0.420200  0.915200  1.0
  C  C7146  1  0.579800  0.081600  0.915200  1.0
  C  C7147  1  0.753533  0.168467  0.251467  1.0
  C  C7148  1  0.414933  0.246467  0.251467  1.0
  C  C7149  1  0.831533  0.585067  0.251467  1.0
  C  C7150  1  0.251733  0.164867  0.581867  1.0
  C  C7151  1  0.835133  0.086867  0.581867  1.0
  C  C7152  1  0.913133  0.748267  0.581867  1.0
  C  C7153  1  0.086867  0.835133  0.918133  1.0
  C  C7154  1  0.748267  0.913133  0.918133  1.0
  C  C7155  1  0.164867  0.251733  0.918133  1.0
  C  C7156  1  0.585067  0.831533  0.248533  1.0
  C  C7157  1  0.168467  0.753533  0.248533  1.0
  C  C7158  1  0.246467  0.414933  0.248533  1.0
  C  C7159  1  0.579800  0.498200  0.415200  1.0
  C  C7160  1  0.918400  0.420200  0.415200  1.0
  C  C7161  1  0.501800  0.081600  0.415200  1.0
  C  C7162  1  0.081600  0.501800  0.084800  1.0
  C  C7163  1  0.498200  0.579800  0.084800  1.0
  C  C7164  1  0.420200  0.918400  0.084800  1.0
  C  C7165  1  0.913133  0.164867  0.081867  1.0
  C  C7166  1  0.251733  0.086867  0.081867  1.0
  C  C7167  1  0.835133  0.748267  0.081867  1.0
  C  C7168  1  0.414933  0.168467  0.751467  1.0
  C  C7169  1  0.831533  0.246467  0.751467  1.0
  C  C7170  1  0.753533  0.585067  0.751467  1.0
  C  C7171  1  0.246467  0.831533  0.748533  1.0
  C  C7172  1  0.585067  0.753533  0.748533  1.0
  C  C7173  1  0.168467  0.414933  0.748533  1.0
  C  C7174  1  0.748267  0.835133  0.418133  1.0
  C  C7175  1  0.164867  0.913133  0.418133  1.0
  C  C7176  1  0.086867  0.251733  0.418133  1.0
  C  C7177  1  0.338200  0.383800  0.554300  1.0
  C  C7178  1  0.045600  0.661800  0.554300  1.0
  C  C7179  1  0.616200  0.954400  0.554300  1.0
  C  C7180  1  0.954400  0.616200  0.945700  1.0
  C  C7181  1  0.383800  0.338200  0.945700  1.0
  C  C7182  1  0.661800  0.045600  0.945700  1.0
  C  C7183  1  0.671533  0.050467  0.220967  1.0
  C  C7184  1  0.378933  0.328467  0.220967  1.0
  C  C7185  1  0.949533  0.621067  0.220967  1.0
  C  C7186  1  0.287733  0.282867  0.612367  1.0
  C  C7187  1  0.717133  0.004867  0.612367  1.0
  C  C7188  1  0.995133  0.712267  0.612367  1.0
  C  C7189  1  0.004867  0.717133  0.887633  1.0
  C  C7190  1  0.712267  0.995133  0.887633  1.0
  C  C7191  1  0.282867  0.287733  0.887633  1.0
  C  C7192  1  0.621067  0.949533  0.279033  1.0
  C  C7193  1  0.050467  0.671533  0.279033  1.0
  C  C7194  1  0.328467  0.378933  0.279033  1.0
  C  C7195  1  0.661800  0.616200  0.445700  1.0
  C  C7196  1  0.954400  0.338200  0.445700  1.0
  C  C7197  1  0.383800  0.045600  0.445700  1.0
  C  C7198  1  0.045600  0.383800  0.054300  1.0
  C  C7199  1  0.616200  0.661800  0.054300  1.0
  C  C7200  1  0.338200  0.954400  0.054300  1.0
  C  C7201  1  0.995133  0.282867  0.112367  1.0
  C  C7202  1  0.287733  0.004867  0.112367  1.0
  C  C7203  1  0.717133  0.712267  0.112367  1.0
  C  C7204  1  0.378933  0.050467  0.720967  1.0
  C  C7205  1  0.949533  0.328467  0.720967  1.0
  C  C7206  1  0.671533  0.621067  0.720967  1.0
  C  C7207  1  0.328467  0.949533  0.779033  1.0
  C  C7208  1  0.621067  0.671533  0.779033  1.0
  C  C7209  1  0.050467  0.378933  0.779033  1.0
  C  C7210  1  0.712267  0.717133  0.387633  1.0
  C  C7211  1  0.282867  0.995133  0.387633  1.0
  C  C7212  1  0.004867  0.287733  0.387633  1.0
  C  C7213  1  0.375100  0.421800  0.549400  1.0
  C  C7214  1  0.046700  0.624900  0.549400  1.0
  C  C7215  1  0.578200  0.953300  0.549400  1.0
  C  C7216  1  0.953300  0.578200  0.950600  1.0
  C  C7217  1  0.421800  0.375100  0.950600  1.0
  C  C7218  1  0.624900  0.046700  0.950600  1.0
  C  C7219  1  0.708433  0.088467  0.216067  1.0
  C  C7220  1  0.380033  0.291567  0.216067  1.0
  C  C7221  1  0.911533  0.619967  0.216067  1.0
  C  C7222  1  0.286633  0.244867  0.617267  1.0
  C  C7223  1  0.755133  0.041767  0.617267  1.0
  C  C7224  1  0.958233  0.713367  0.617267  1.0
  C  C7225  1  0.041767  0.755133  0.882733  1.0
  C  C7226  1  0.713367  0.958233  0.882733  1.0
  C  C7227  1  0.244867  0.286633  0.882733  1.0
  C  C7228  1  0.619967  0.911533  0.283933  1.0
  C  C7229  1  0.088467  0.708433  0.283933  1.0
  C  C7230  1  0.291567  0.380033  0.283933  1.0
  C  C7231  1  0.624900  0.578200  0.450600  1.0
  C  C7232  1  0.953300  0.375100  0.450600  1.0
  C  C7233  1  0.421800  0.046700  0.450600  1.0
  C  C7234  1  0.046700  0.421800  0.049400  1.0
  C  C7235  1  0.578200  0.624900  0.049400  1.0
  C  C7236  1  0.375100  0.953300  0.049400  1.0
  C  C7237  1  0.958233  0.244867  0.117267  1.0
  C  C7238  1  0.286633  0.041767  0.117267  1.0
  C  C7239  1  0.755133  0.713367  0.117267  1.0
  C  C7240  1  0.380033  0.088467  0.716067  1.0
  C  C7241  1  0.911533  0.291567  0.716067  1.0
  C  C7242  1  0.708433  0.619967  0.716067  1.0
  C  C7243  1  0.291567  0.911533  0.783933  1.0
  C  C7244  1  0.619967  0.708433  0.783933  1.0
  C  C7245  1  0.088467  0.380033  0.783933  1.0
  C  C7246  1  0.713367  0.755133  0.382733  1.0
  C  C7247  1  0.244867  0.958233  0.382733  1.0
  C  C7248  1  0.041767  0.286633  0.382733  1.0
  C  C7249  1  0.277700  0.371600  0.533180  1.0
  C  C7250  1  0.093900  0.722300  0.533180  1.0
  C  C7251  1  0.628400  0.906100  0.533180  1.0
  C  C7252  1  0.906100  0.628400  0.966820  1.0
  C  C7253  1  0.371600  0.277700  0.966820  1.0
  C  C7254  1  0.722300  0.093900  0.966820  1.0
  C  C7255  1  0.611033  0.038267  0.199847  1.0
  C  C7256  1  0.427233  0.388967  0.199847  1.0
  C  C7257  1  0.961733  0.572767  0.199847  1.0
  C  C7258  1  0.239433  0.295067  0.633487  1.0
  C  C7259  1  0.704933  0.944367  0.633487  1.0
  C  C7260  1  0.055633  0.760567  0.633487  1.0
  C  C7261  1  0.944367  0.704933  0.866513  1.0
  C  C7262  1  0.760567  0.055633  0.866513  1.0
  C  C7263  1  0.295067  0.239433  0.866513  1.0
  C  C7264  1  0.572767  0.961733  0.300153  1.0
  C  C7265  1  0.038267  0.611033  0.300153  1.0
  C  C7266  1  0.388967  0.427233  0.300153  1.0
  C  C7267  1  0.722300  0.628400  0.466820  1.0
  C  C7268  1  0.906100  0.277700  0.466820  1.0
  C  C7269  1  0.371600  0.093900  0.466820  1.0
  C  C7270  1  0.093900  0.371600  0.033180  1.0
  C  C7271  1  0.628400  0.722300  0.033180  1.0
  C  C7272  1  0.277700  0.906100  0.033180  1.0
  C  C7273  1  0.055633  0.295067  0.133487  1.0
  C  C7274  1  0.239433  0.944367  0.133487  1.0
  C  C7275  1  0.704933  0.760567  0.133487  1.0
  C  C7276  1  0.427233  0.038267  0.699847  1.0
  C  C7277  1  0.961733  0.388967  0.699847  1.0
  C  C7278  1  0.611033  0.572767  0.699847  1.0
  C  C7279  1  0.388967  0.961733  0.800153  1.0
  C  C7280  1  0.572767  0.611033  0.800153  1.0
  C  C7281  1  0.038267  0.427233  0.800153  1.0
  C  C7282  1  0.760567  0.704933  0.366513  1.0
  C  C7283  1  0.295067  0.055633  0.366513  1.0
  C  C7284  1  0.944367  0.239433  0.366513  1.0
  C  C7285  1  0.247300  0.279300  0.474940  1.0
  C  C7286  1  0.032000  0.752700  0.474940  1.0
  C  C7287  1  0.720700  0.968000  0.474940  1.0
  C  C7288  1  0.968000  0.720700  0.025060  1.0
  C  C7289  1  0.279300  0.247300  0.025060  1.0
  C  C7290  1  0.752700  0.032000  0.025060  1.0
  C  C7291  1  0.580633  0.945967  0.141607  1.0
  C  C7292  1  0.365333  0.419367  0.141607  1.0
  C  C7293  1  0.054033  0.634667  0.141607  1.0
  C  C7294  1  0.301333  0.387367  0.691727  1.0
  C  C7295  1  0.612633  0.913967  0.691727  1.0
  C  C7296  1  0.086033  0.698667  0.691727  1.0
  C  C7297  1  0.913967  0.612633  0.808273  1.0
  C  C7298  1  0.698667  0.086033  0.808273  1.0
  C  C7299  1  0.387367  0.301333  0.808273  1.0
  C  C7300  1  0.634667  0.054033  0.358393  1.0
  C  C7301  1  0.945967  0.580633  0.358393  1.0
  C  C7302  1  0.419367  0.365333  0.358393  1.0
  C  C7303  1  0.752700  0.720700  0.525060  1.0
  C  C7304  1  0.968000  0.247300  0.525060  1.0
  C  C7305  1  0.279300  0.032000  0.525060  1.0
  C  C7306  1  0.032000  0.279300  0.974940  1.0
  C  C7307  1  0.720700  0.752700  0.974940  1.0
  C  C7308  1  0.247300  0.968000  0.974940  1.0
  C  C7309  1  0.086033  0.387367  0.191727  1.0
  C  C7310  1  0.301333  0.913967  0.191727  1.0
  C  C7311  1  0.612633  0.698667  0.191727  1.0
  C  C7312  1  0.365333  0.945967  0.641607  1.0
  C  C7313  1  0.054033  0.419367  0.641607  1.0
  C  C7314  1  0.580633  0.634667  0.641607  1.0
  C  C7315  1  0.419367  0.054033  0.858393  1.0
  C  C7316  1  0.634667  0.580633  0.858393  1.0
  C  C7317  1  0.945967  0.365333  0.858393  1.0
  C  C7318  1  0.698667  0.612633  0.308273  1.0
  C  C7319  1  0.387367  0.086033  0.308273  1.0
  C  C7320  1  0.913967  0.301333  0.308273  1.0
  C  C7321  1  0.273100  0.278200  0.466950  1.0
  C  C7322  1  0.005100  0.726900  0.466950  1.0
  C  C7323  1  0.721800  0.994900  0.466950  1.0
  C  C7324  1  0.994900  0.721800  0.033050  1.0
  C  C7325  1  0.278200  0.273100  0.033050  1.0
  C  C7326  1  0.726900  0.005100  0.033050  1.0
  C  C7327  1  0.606433  0.944867  0.133617  1.0
  C  C7328  1  0.338433  0.393567  0.133617  1.0
  C  C7329  1  0.055133  0.661567  0.133617  1.0
  C  C7330  1  0.328233  0.388467  0.699717  1.0
  C  C7331  1  0.611533  0.939767  0.699717  1.0
  C  C7332  1  0.060233  0.671767  0.699717  1.0
  C  C7333  1  0.939767  0.611533  0.800283  1.0
  C  C7334  1  0.671767  0.060233  0.800283  1.0
  C  C7335  1  0.388467  0.328233  0.800283  1.0
  C  C7336  1  0.661567  0.055133  0.366383  1.0
  C  C7337  1  0.944867  0.606433  0.366383  1.0
  C  C7338  1  0.393567  0.338433  0.366383  1.0
  C  C7339  1  0.726900  0.721800  0.533050  1.0
  C  C7340  1  0.994900  0.273100  0.533050  1.0
  C  C7341  1  0.278200  0.005100  0.533050  1.0
  C  C7342  1  0.005100  0.278200  0.966950  1.0
  C  C7343  1  0.721800  0.726900  0.966950  1.0
  C  C7344  1  0.273100  0.994900  0.966950  1.0
  C  C7345  1  0.060233  0.388467  0.199717  1.0
  C  C7346  1  0.328233  0.939767  0.199717  1.0
  C  C7347  1  0.611533  0.671767  0.199717  1.0
  C  C7348  1  0.338433  0.944867  0.633617  1.0
  C  C7349  1  0.055133  0.393567  0.633617  1.0
  C  C7350  1  0.606433  0.661567  0.633617  1.0
  C  C7351  1  0.393567  0.055133  0.866383  1.0
  C  C7352  1  0.661567  0.606433  0.866383  1.0
  C  C7353  1  0.944867  0.338433  0.866383  1.0
  C  C7354  1  0.671767  0.611533  0.300283  1.0
  C  C7355  1  0.388467  0.060233  0.300283  1.0
  C  C7356  1  0.939767  0.328233  0.300283  1.0
  C  C7357  1  0.286700  0.305400  0.458300  1.0
  C  C7358  1  0.018700  0.713300  0.458300  1.0
  C  C7359  1  0.694600  0.981300  0.458300  1.0
  C  C7360  1  0.981300  0.694600  0.041700  1.0
  C  C7361  1  0.305400  0.286700  0.041700  1.0
  C  C7362  1  0.713300  0.018700  0.041700  1.0
  C  C7363  1  0.620033  0.972067  0.124967  1.0
  C  C7364  1  0.352033  0.379967  0.124967  1.0
  C  C7365  1  0.027933  0.647967  0.124967  1.0
  C  C7366  1  0.314633  0.361267  0.708367  1.0
  C  C7367  1  0.638733  0.953367  0.708367  1.0
  C  C7368  1  0.046633  0.685367  0.708367  1.0
  C  C7369  1  0.953367  0.638733  0.791633  1.0
  C  C7370  1  0.685367  0.046633  0.791633  1.0
  C  C7371  1  0.361267  0.314633  0.791633  1.0
  C  C7372  1  0.647967  0.027933  0.375033  1.0
  C  C7373  1  0.972067  0.620033  0.375033  1.0
  C  C7374  1  0.379967  0.352033  0.375033  1.0
  C  C7375  1  0.713300  0.694600  0.541700  1.0
  C  C7376  1  0.981300  0.286700  0.541700  1.0
  C  C7377  1  0.305400  0.018700  0.541700  1.0
  C  C7378  1  0.018700  0.305400  0.958300  1.0
  C  C7379  1  0.694600  0.713300  0.958300  1.0
  C  C7380  1  0.286700  0.981300  0.958300  1.0
  C  C7381  1  0.046633  0.361267  0.208367  1.0
  C  C7382  1  0.314633  0.953367  0.208367  1.0
  C  C7383  1  0.638733  0.685367  0.208367  1.0
  C  C7384  1  0.352033  0.972067  0.624967  1.0
  C  C7385  1  0.027933  0.379967  0.624967  1.0
  C  C7386  1  0.620033  0.647967  0.624967  1.0
  C  C7387  1  0.379967  0.027933  0.875033  1.0
  C  C7388  1  0.647967  0.620033  0.875033  1.0
  C  C7389  1  0.972067  0.352033  0.875033  1.0
  C  C7390  1  0.685367  0.638733  0.291633  1.0
  C  C7391  1  0.361267  0.046633  0.291633  1.0
  C  C7392  1  0.953367  0.314633  0.291633  1.0
  C  C7393  1  0.277100  0.336200  0.457520  1.0
  C  C7394  1  0.059100  0.722900  0.457520  1.0
  C  C7395  1  0.663800  0.940900  0.457520  1.0
  C  C7396  1  0.940900  0.663800  0.042480  1.0
  C  C7397  1  0.336200  0.277100  0.042480  1.0
  C  C7398  1  0.722900  0.059100  0.042480  1.0
  C  C7399  1  0.610433  0.002867  0.124187  1.0
  C  C7400  1  0.392433  0.389567  0.124187  1.0
  C  C7401  1  0.997133  0.607567  0.124187  1.0
  C  C7402  1  0.274233  0.330467  0.709147  1.0
  C  C7403  1  0.669533  0.943767  0.709147  1.0
  C  C7404  1  0.056233  0.725767  0.709147  1.0
  C  C7405  1  0.943767  0.669533  0.790853  1.0
  C  C7406  1  0.725767  0.056233  0.790853  1.0
  C  C7407  1  0.330467  0.274233  0.790853  1.0
  C  C7408  1  0.607567  0.997133  0.375813  1.0
  C  C7409  1  0.002867  0.610433  0.375813  1.0
  C  C7410  1  0.389567  0.392433  0.375813  1.0
  C  C7411  1  0.722900  0.663800  0.542480  1.0
  C  C7412  1  0.940900  0.277100  0.542480  1.0
  C  C7413  1  0.336200  0.059100  0.542480  1.0
  C  C7414  1  0.059100  0.336200  0.957520  1.0
  C  C7415  1  0.663800  0.722900  0.957520  1.0
  C  C7416  1  0.277100  0.940900  0.957520  1.0
  C  C7417  1  0.056233  0.330467  0.209147  1.0
  C  C7418  1  0.274233  0.943767  0.209147  1.0
  C  C7419  1  0.669533  0.725767  0.209147  1.0
  C  C7420  1  0.392433  0.002867  0.624187  1.0
  C  C7421  1  0.997133  0.389567  0.624187  1.0
  C  C7422  1  0.610433  0.607567  0.624187  1.0
  C  C7423  1  0.389567  0.997133  0.875813  1.0
  C  C7424  1  0.607567  0.610433  0.875813  1.0
  C  C7425  1  0.002867  0.392433  0.875813  1.0
  C  C7426  1  0.725767  0.669533  0.290853  1.0
  C  C7427  1  0.330467  0.056233  0.290853  1.0
  C  C7428  1  0.943767  0.274233  0.290853  1.0
  C  C7429  1  0.251500  0.335600  0.466510  1.0
  C  C7430  1  0.084100  0.748500  0.466510  1.0
  C  C7431  1  0.664400  0.915900  0.466510  1.0
  C  C7432  1  0.915900  0.664400  0.033490  1.0
  C  C7433  1  0.335600  0.251500  0.033490  1.0
  C  C7434  1  0.748500  0.084100  0.033490  1.0
  C  C7435  1  0.584833  0.002267  0.133177  1.0
  C  C7436  1  0.417433  0.415167  0.133177  1.0
  C  C7437  1  0.997733  0.582567  0.133177  1.0
  C  C7438  1  0.249233  0.331067  0.700157  1.0
  C  C7439  1  0.668933  0.918167  0.700157  1.0
  C  C7440  1  0.081833  0.750767  0.700157  1.0
  C  C7441  1  0.918167  0.668933  0.799843  1.0
  C  C7442  1  0.750767  0.081833  0.799843  1.0
  C  C7443  1  0.331067  0.249233  0.799843  1.0
  C  C7444  1  0.582567  0.997733  0.366823  1.0
  C  C7445  1  0.002267  0.584833  0.366823  1.0
  C  C7446  1  0.415167  0.417433  0.366823  1.0
  C  C7447  1  0.748500  0.664400  0.533490  1.0
  C  C7448  1  0.915900  0.251500  0.533490  1.0
  C  C7449  1  0.335600  0.084100  0.533490  1.0
  C  C7450  1  0.084100  0.335600  0.966510  1.0
  C  C7451  1  0.664400  0.748500  0.966510  1.0
  C  C7452  1  0.251500  0.915900  0.966510  1.0
  C  C7453  1  0.081833  0.331067  0.200157  1.0
  C  C7454  1  0.249233  0.918167  0.200157  1.0
  C  C7455  1  0.668933  0.750767  0.200157  1.0
  C  C7456  1  0.417433  0.002267  0.633177  1.0
  C  C7457  1  0.997733  0.415167  0.633177  1.0
  C  C7458  1  0.584833  0.582567  0.633177  1.0
  C  C7459  1  0.415167  0.997733  0.866823  1.0
  C  C7460  1  0.582567  0.584833  0.866823  1.0
  C  C7461  1  0.002267  0.417433  0.866823  1.0
  C  C7462  1  0.750767  0.668933  0.299843  1.0
  C  C7463  1  0.331067  0.081833  0.299843  1.0
  C  C7464  1  0.918167  0.249233  0.299843  1.0
  C  C7465  1  0.238000  0.364900  0.467450  1.0
  C  C7466  1  0.126900  0.762000  0.467450  1.0
  C  C7467  1  0.635100  0.873100  0.467450  1.0
  C  C7468  1  0.873100  0.635100  0.032550  1.0
  C  C7469  1  0.364900  0.238000  0.032550  1.0
  C  C7470  1  0.762000  0.126900  0.032550  1.0
  C  C7471  1  0.571333  0.031567  0.134117  1.0
  C  C7472  1  0.460233  0.428667  0.134117  1.0
  C  C7473  1  0.968433  0.539767  0.134117  1.0
  C  C7474  1  0.206433  0.301767  0.699217  1.0
  C  C7475  1  0.698233  0.904667  0.699217  1.0
  C  C7476  1  0.095333  0.793567  0.699217  1.0
  C  C7477  1  0.904667  0.698233  0.800783  1.0
  C  C7478  1  0.793567  0.095333  0.800783  1.0
  C  C7479  1  0.301767  0.206433  0.800783  1.0
  C  C7480  1  0.539767  0.968433  0.365883  1.0
  C  C7481  1  0.031567  0.571333  0.365883  1.0
  C  C7482  1  0.428667  0.460233  0.365883  1.0
  C  C7483  1  0.762000  0.635100  0.532550  1.0
  C  C7484  1  0.873100  0.238000  0.532550  1.0
  C  C7485  1  0.364900  0.126900  0.532550  1.0
  C  C7486  1  0.126900  0.364900  0.967450  1.0
  C  C7487  1  0.635100  0.762000  0.967450  1.0
  C  C7488  1  0.238000  0.873100  0.967450  1.0
  C  C7489  1  0.095333  0.301767  0.199217  1.0
  C  C7490  1  0.206433  0.904667  0.199217  1.0
  C  C7491  1  0.698233  0.793567  0.199217  1.0
  C  C7492  1  0.460233  0.031567  0.634117  1.0
  C  C7493  1  0.968433  0.428667  0.634117  1.0
  C  C7494  1  0.571333  0.539767  0.634117  1.0
  C  C7495  1  0.428667  0.968433  0.865883  1.0
  C  C7496  1  0.539767  0.571333  0.865883  1.0
  C  C7497  1  0.031567  0.460233  0.865883  1.0
  C  C7498  1  0.793567  0.698233  0.300783  1.0
  C  C7499  1  0.301767  0.095333  0.300783  1.0
  C  C7500  1  0.904667  0.206433  0.300783  1.0
  C  C7501  1  0.201700  0.389200  0.477170  1.0
  C  C7502  1  0.187500  0.798300  0.477170  1.0
  C  C7503  1  0.610800  0.812500  0.477170  1.0
  C  C7504  1  0.812500  0.610800  0.022830  1.0
  C  C7505  1  0.389200  0.201700  0.022830  1.0
  C  C7506  1  0.798300  0.187500  0.022830  1.0
  C  C7507  1  0.535033  0.055867  0.143837  1.0
  C  C7508  1  0.520833  0.464967  0.143837  1.0
  C  C7509  1  0.944133  0.479167  0.143837  1.0
  C  C7510  1  0.145833  0.277467  0.689497  1.0
  C  C7511  1  0.722533  0.868367  0.689497  1.0
  C  C7512  1  0.131633  0.854167  0.689497  1.0
  C  C7513  1  0.868367  0.722533  0.810503  1.0
  C  C7514  1  0.854167  0.131633  0.810503  1.0
  C  C7515  1  0.277467  0.145833  0.810503  1.0
  C  C7516  1  0.479167  0.944133  0.356163  1.0
  C  C7517  1  0.055867  0.535033  0.356163  1.0
  C  C7518  1  0.464967  0.520833  0.356163  1.0
  C  C7519  1  0.798300  0.610800  0.522830  1.0
  C  C7520  1  0.812500  0.201700  0.522830  1.0
  C  C7521  1  0.389200  0.187500  0.522830  1.0
  C  C7522  1  0.187500  0.389200  0.977170  1.0
  C  C7523  1  0.610800  0.798300  0.977170  1.0
  C  C7524  1  0.201700  0.812500  0.977170  1.0
  C  C7525  1  0.131633  0.277467  0.189497  1.0
  C  C7526  1  0.145833  0.868367  0.189497  1.0
  C  C7527  1  0.722533  0.854167  0.189497  1.0
  C  C7528  1  0.520833  0.055867  0.643837  1.0
  C  C7529  1  0.944133  0.464967  0.643837  1.0
  C  C7530  1  0.535033  0.479167  0.643837  1.0
  C  C7531  1  0.464967  0.944133  0.856163  1.0
  C  C7532  1  0.479167  0.535033  0.856163  1.0
  C  C7533  1  0.055867  0.520833  0.856163  1.0
  C  C7534  1  0.854167  0.722533  0.310503  1.0
  C  C7535  1  0.277467  0.131633  0.310503  1.0
  C  C7536  1  0.868367  0.145833  0.310503  1.0
  C  C7537  1  0.166000  0.378000  0.471950  1.0
  C  C7538  1  0.212000  0.834000  0.471950  1.0
  C  C7539  1  0.622000  0.788000  0.471950  1.0
  C  C7540  1  0.788000  0.622000  0.028050  1.0
  C  C7541  1  0.378000  0.166000  0.028050  1.0
  C  C7542  1  0.834000  0.212000  0.028050  1.0
  C  C7543  1  0.499333  0.044667  0.138617  1.0
  C  C7544  1  0.545333  0.500667  0.138617  1.0
  C  C7545  1  0.955333  0.454667  0.138617  1.0
  C  C7546  1  0.121333  0.288667  0.694717  1.0
  C  C7547  1  0.711333  0.832667  0.694717  1.0
  C  C7548  1  0.167333  0.878667  0.694717  1.0
  C  C7549  1  0.832667  0.711333  0.805283  1.0
  C  C7550  1  0.878667  0.167333  0.805283  1.0
  C  C7551  1  0.288667  0.121333  0.805283  1.0
  C  C7552  1  0.454667  0.955333  0.361383  1.0
  C  C7553  1  0.044667  0.499333  0.361383  1.0
  C  C7554  1  0.500667  0.545333  0.361383  1.0
  C  C7555  1  0.834000  0.622000  0.528050  1.0
  C  C7556  1  0.788000  0.166000  0.528050  1.0
  C  C7557  1  0.378000  0.212000  0.528050  1.0
  C  C7558  1  0.212000  0.378000  0.971950  1.0
  C  C7559  1  0.622000  0.834000  0.971950  1.0
  C  C7560  1  0.166000  0.788000  0.971950  1.0
  C  C7561  1  0.167333  0.288667  0.194717  1.0
  C  C7562  1  0.121333  0.832667  0.194717  1.0
  C  C7563  1  0.711333  0.878667  0.194717  1.0
  C  C7564  1  0.545333  0.044667  0.638617  1.0
  C  C7565  1  0.955333  0.500667  0.638617  1.0
  C  C7566  1  0.499333  0.454667  0.638617  1.0
  C  C7567  1  0.500667  0.955333  0.861383  1.0
  C  C7568  1  0.454667  0.499333  0.861383  1.0
  C  C7569  1  0.044667  0.545333  0.861383  1.0
  C  C7570  1  0.878667  0.711333  0.305283  1.0
  C  C7571  1  0.288667  0.167333  0.305283  1.0
  C  C7572  1  0.832667  0.121333  0.305283  1.0
  C  C7573  1  0.149600  0.402500  0.473130  1.0
  C  C7574  1  0.252900  0.850400  0.473130  1.0
  C  C7575  1  0.597500  0.747100  0.473130  1.0
  C  C7576  1  0.747100  0.597500  0.026870  1.0
  C  C7577  1  0.402500  0.149600  0.026870  1.0
  C  C7578  1  0.850400  0.252900  0.026870  1.0
  C  C7579  1  0.482933  0.069167  0.139797  1.0
  C  C7580  1  0.586233  0.517067  0.139797  1.0
  C  C7581  1  0.930833  0.413767  0.139797  1.0
  C  C7582  1  0.080433  0.264167  0.693537  1.0
  C  C7583  1  0.735833  0.816267  0.693537  1.0
  C  C7584  1  0.183733  0.919567  0.693537  1.0
  C  C7585  1  0.816267  0.735833  0.806463  1.0
  C  C7586  1  0.919567  0.183733  0.806463  1.0
  C  C7587  1  0.264167  0.080433  0.806463  1.0
  C  C7588  1  0.413767  0.930833  0.360203  1.0
  C  C7589  1  0.069167  0.482933  0.360203  1.0
  C  C7590  1  0.517067  0.586233  0.360203  1.0
  C  C7591  1  0.850400  0.597500  0.526870  1.0
  C  C7592  1  0.747100  0.149600  0.526870  1.0
  C  C7593  1  0.402500  0.252900  0.526870  1.0
  C  C7594  1  0.252900  0.402500  0.973130  1.0
  C  C7595  1  0.597500  0.850400  0.973130  1.0
  C  C7596  1  0.149600  0.747100  0.973130  1.0
  C  C7597  1  0.183733  0.264167  0.193537  1.0
  C  C7598  1  0.080433  0.816267  0.193537  1.0
  C  C7599  1  0.735833  0.919567  0.193537  1.0
  C  C7600  1  0.586233  0.069167  0.639797  1.0
  C  C7601  1  0.930833  0.517067  0.639797  1.0
  C  C7602  1  0.482933  0.413767  0.639797  1.0
  C  C7603  1  0.517067  0.930833  0.860203  1.0
  C  C7604  1  0.413767  0.482933  0.860203  1.0
  C  C7605  1  0.069167  0.586233  0.860203  1.0
  C  C7606  1  0.919567  0.735833  0.306463  1.0
  C  C7607  1  0.264167  0.183733  0.306463  1.0
  C  C7608  1  0.816267  0.080433  0.306463  1.0
  C  C7609  1  0.168700  0.438100  0.479120  1.0
  C  C7610  1  0.269400  0.831300  0.479120  1.0
  C  C7611  1  0.561900  0.730600  0.479120  1.0
  C  C7612  1  0.730600  0.561900  0.020880  1.0
  C  C7613  1  0.438100  0.168700  0.020880  1.0
  C  C7614  1  0.831300  0.269400  0.020880  1.0
  C  C7615  1  0.502033  0.104767  0.145787  1.0
  C  C7616  1  0.602733  0.497967  0.145787  1.0
  C  C7617  1  0.895233  0.397267  0.145787  1.0
  C  C7618  1  0.063933  0.228567  0.687547  1.0
  C  C7619  1  0.771433  0.835367  0.687547  1.0
  C  C7620  1  0.164633  0.936067  0.687547  1.0
  C  C7621  1  0.835367  0.771433  0.812453  1.0
  C  C7622  1  0.936067  0.164633  0.812453  1.0
  C  C7623  1  0.228567  0.063933  0.812453  1.0
  C  C7624  1  0.397267  0.895233  0.354213  1.0
  C  C7625  1  0.104767  0.502033  0.354213  1.0
  C  C7626  1  0.497967  0.602733  0.354213  1.0
  C  C7627  1  0.831300  0.561900  0.520880  1.0
  C  C7628  1  0.730600  0.168700  0.520880  1.0
  C  C7629  1  0.438100  0.269400  0.520880  1.0
  C  C7630  1  0.269400  0.438100  0.979120  1.0
  C  C7631  1  0.561900  0.831300  0.979120  1.0
  C  C7632  1  0.168700  0.730600  0.979120  1.0
  C  C7633  1  0.164633  0.228567  0.187547  1.0
  C  C7634  1  0.063933  0.835367  0.187547  1.0
  C  C7635  1  0.771433  0.936067  0.187547  1.0
  C  C7636  1  0.602733  0.104767  0.645787  1.0
  C  C7637  1  0.895233  0.497967  0.645787  1.0
  C  C7638  1  0.502033  0.397267  0.645787  1.0
  C  C7639  1  0.497967  0.895233  0.854213  1.0
  C  C7640  1  0.397267  0.502033  0.854213  1.0
  C  C7641  1  0.104767  0.602733  0.854213  1.0
  C  C7642  1  0.936067  0.771433  0.312453  1.0
  C  C7643  1  0.228567  0.164633  0.312453  1.0
  C  C7644  1  0.835367  0.063933  0.312453  1.0
  C  C7645  1  0.205200  0.449300  0.484630  1.0
  C  C7646  1  0.244100  0.794800  0.484630  1.0
  C  C7647  1  0.550700  0.755900  0.484630  1.0
  C  C7648  1  0.755900  0.550700  0.015370  1.0
  C  C7649  1  0.449300  0.205200  0.015370  1.0
  C  C7650  1  0.794800  0.244100  0.015370  1.0
  C  C7651  1  0.538533  0.115967  0.151297  1.0
  C  C7652  1  0.577433  0.461467  0.151297  1.0
  C  C7653  1  0.884033  0.422567  0.151297  1.0
  C  C7654  1  0.089233  0.217367  0.682037  1.0
  C  C7655  1  0.782633  0.871867  0.682037  1.0
  C  C7656  1  0.128133  0.910767  0.682037  1.0
  C  C7657  1  0.871867  0.782633  0.817963  1.0
  C  C7658  1  0.910767  0.128133  0.817963  1.0
  C  C7659  1  0.217367  0.089233  0.817963  1.0
  C  C7660  1  0.422567  0.884033  0.348703  1.0
  C  C7661  1  0.115967  0.538533  0.348703  1.0
  C  C7662  1  0.461467  0.577433  0.348703  1.0
  C  C7663  1  0.794800  0.550700  0.515370  1.0
  C  C7664  1  0.755900  0.205200  0.515370  1.0
  C  C7665  1  0.449300  0.244100  0.515370  1.0
  C  C7666  1  0.244100  0.449300  0.984630  1.0
  C  C7667  1  0.550700  0.794800  0.984630  1.0
  C  C7668  1  0.205200  0.755900  0.984630  1.0
  C  C7669  1  0.128133  0.217367  0.182037  1.0
  C  C7670  1  0.089233  0.871867  0.182037  1.0
  C  C7671  1  0.782633  0.910767  0.182037  1.0
  C  C7672  1  0.577433  0.115967  0.651297  1.0
  C  C7673  1  0.884033  0.461467  0.651297  1.0
  C  C7674  1  0.538533  0.422567  0.651297  1.0
  C  C7675  1  0.461467  0.884033  0.848703  1.0
  C  C7676  1  0.422567  0.538533  0.848703  1.0
  C  C7677  1  0.115967  0.577433  0.848703  1.0
  C  C7678  1  0.910767  0.782633  0.317963  1.0
  C  C7679  1  0.217367  0.128133  0.317963  1.0
  C  C7680  1  0.871867  0.089233  0.317963  1.0
  C  C7681  1  0.221900  0.424800  0.484010  1.0
  C  C7682  1  0.202900  0.778100  0.484010  1.0
  C  C7683  1  0.575200  0.797100  0.484010  1.0
  C  C7684  1  0.797100  0.575200  0.015990  1.0
  C  C7685  1  0.424800  0.221900  0.015990  1.0
  C  C7686  1  0.778100  0.202900  0.015990  1.0
  C  C7687  1  0.555233  0.091467  0.150677  1.0
  C  C7688  1  0.536233  0.444767  0.150677  1.0
  C  C7689  1  0.908533  0.463767  0.150677  1.0
  C  C7690  1  0.130433  0.241867  0.682657  1.0
  C  C7691  1  0.758133  0.888567  0.682657  1.0
  C  C7692  1  0.111433  0.869567  0.682657  1.0
  C  C7693  1  0.888567  0.758133  0.817343  1.0
  C  C7694  1  0.869567  0.111433  0.817343  1.0
  C  C7695  1  0.241867  0.130433  0.817343  1.0
  C  C7696  1  0.463767  0.908533  0.349323  1.0
  C  C7697  1  0.091467  0.555233  0.349323  1.0
  C  C7698  1  0.444767  0.536233  0.349323  1.0
  C  C7699  1  0.778100  0.575200  0.515990  1.0
  C  C7700  1  0.797100  0.221900  0.515990  1.0
  C  C7701  1  0.424800  0.202900  0.515990  1.0
  C  C7702  1  0.202900  0.424800  0.984010  1.0
  C  C7703  1  0.575200  0.778100  0.984010  1.0
  C  C7704  1  0.221900  0.797100  0.984010  1.0
  C  C7705  1  0.111433  0.241867  0.182657  1.0
  C  C7706  1  0.130433  0.888567  0.182657  1.0
  C  C7707  1  0.758133  0.869567  0.182657  1.0
  C  C7708  1  0.536233  0.091467  0.650677  1.0
  C  C7709  1  0.908533  0.444767  0.650677  1.0
  C  C7710  1  0.555233  0.463767  0.650677  1.0
  C  C7711  1  0.444767  0.908533  0.849323  1.0
  C  C7712  1  0.463767  0.555233  0.849323  1.0
  C  C7713  1  0.091467  0.536233  0.849323  1.0
  C  C7714  1  0.869567  0.758133  0.317343  1.0
  C  C7715  1  0.241867  0.111433  0.317343  1.0
  C  C7716  1  0.888567  0.130433  0.317343  1.0
  C  C7717  1  0.150800  0.465000  0.479220  1.0
  C  C7718  1  0.314200  0.849200  0.479220  1.0
  C  C7719  1  0.535000  0.685800  0.479220  1.0
  C  C7720  1  0.685800  0.535000  0.020780  1.0
  C  C7721  1  0.465000  0.150800  0.020780  1.0
  C  C7722  1  0.849200  0.314200  0.020780  1.0
  C  C7723  1  0.484133  0.131667  0.145887  1.0
  C  C7724  1  0.647533  0.515867  0.145887  1.0
  C  C7725  1  0.868333  0.352467  0.145887  1.0
  C  C7726  1  0.019133  0.201667  0.687447  1.0
  C  C7727  1  0.798333  0.817467  0.687447  1.0
  C  C7728  1  0.182533  0.980867  0.687447  1.0
  C  C7729  1  0.817467  0.798333  0.812553  1.0
  C  C7730  1  0.980867  0.182533  0.812553  1.0
  C  C7731  1  0.201667  0.019133  0.812553  1.0
  C  C7732  1  0.352467  0.868333  0.354113  1.0
  C  C7733  1  0.131667  0.484133  0.354113  1.0
  C  C7734  1  0.515867  0.647533  0.354113  1.0
  C  C7735  1  0.849200  0.535000  0.520780  1.0
  C  C7736  1  0.685800  0.150800  0.520780  1.0
  C  C7737  1  0.465000  0.314200  0.520780  1.0
  C  C7738  1  0.314200  0.465000  0.979220  1.0
  C  C7739  1  0.535000  0.849200  0.979220  1.0
  C  C7740  1  0.150800  0.685800  0.979220  1.0
  C  C7741  1  0.182533  0.201667  0.187447  1.0
  C  C7742  1  0.019133  0.817467  0.187447  1.0
  C  C7743  1  0.798333  0.980867  0.187447  1.0
  C  C7744  1  0.647533  0.131667  0.645887  1.0
  C  C7745  1  0.868333  0.515867  0.645887  1.0
  C  C7746  1  0.484133  0.352467  0.645887  1.0
  C  C7747  1  0.515867  0.868333  0.854113  1.0
  C  C7748  1  0.352467  0.484133  0.854113  1.0
  C  C7749  1  0.131667  0.647533  0.854113  1.0
  C  C7750  1  0.980867  0.798333  0.312553  1.0
  C  C7751  1  0.201667  0.182533  0.312553  1.0
  C  C7752  1  0.817467  0.019133  0.312553  1.0
  C  C7753  1  0.157600  0.490500  0.469710  1.0
  C  C7754  1  0.332900  0.842400  0.469710  1.0
  C  C7755  1  0.509500  0.667100  0.469710  1.0
  C  C7756  1  0.667100  0.509500  0.030290  1.0
  C  C7757  1  0.490500  0.157600  0.030290  1.0
  C  C7758  1  0.842400  0.332900  0.030290  1.0
  C  C7759  1  0.490933  0.157167  0.136377  1.0
  C  C7760  1  0.666233  0.509067  0.136377  1.0
  C  C7761  1  0.842833  0.333767  0.136377  1.0
  C  C7762  1  0.000433  0.176167  0.696957  1.0
  C  C7763  1  0.823833  0.824267  0.696957  1.0
  C  C7764  1  0.175733  0.999567  0.696957  1.0
  C  C7765  1  0.824267  0.823833  0.803043  1.0
  C  C7766  1  0.999567  0.175733  0.803043  1.0
  C  C7767  1  0.176167  0.000433  0.803043  1.0
  C  C7768  1  0.333767  0.842833  0.363623  1.0
  C  C7769  1  0.157167  0.490933  0.363623  1.0
  C  C7770  1  0.509067  0.666233  0.363623  1.0
  C  C7771  1  0.842400  0.509500  0.530290  1.0
  C  C7772  1  0.667100  0.157600  0.530290  1.0
  C  C7773  1  0.490500  0.332900  0.530290  1.0
  C  C7774  1  0.332900  0.490500  0.969710  1.0
  C  C7775  1  0.509500  0.842400  0.969710  1.0
  C  C7776  1  0.157600  0.667100  0.969710  1.0
  C  C7777  1  0.175733  0.176167  0.196957  1.0
  C  C7778  1  0.000433  0.824267  0.196957  1.0
  C  C7779  1  0.823833  0.999567  0.196957  1.0
  C  C7780  1  0.666233  0.157167  0.636377  1.0
  C  C7781  1  0.842833  0.509067  0.636377  1.0
  C  C7782  1  0.490933  0.333767  0.636377  1.0
  C  C7783  1  0.509067  0.842833  0.863623  1.0
  C  C7784  1  0.333767  0.490933  0.863623  1.0
  C  C7785  1  0.157167  0.666233  0.863623  1.0
  C  C7786  1  0.999567  0.823833  0.303043  1.0
  C  C7787  1  0.176167  0.175733  0.303043  1.0
  C  C7788  1  0.824267  0.000433  0.303043  1.0
  C  C7789  1  0.178500  0.491100  0.459050  1.0
  C  C7790  1  0.312600  0.821500  0.459050  1.0
  C  C7791  1  0.508900  0.687400  0.459050  1.0
  C  C7792  1  0.687400  0.508900  0.040950  1.0
  C  C7793  1  0.491100  0.178500  0.040950  1.0
  C  C7794  1  0.821500  0.312600  0.040950  1.0
  C  C7795  1  0.511833  0.157767  0.125717  1.0
  C  C7796  1  0.645933  0.488167  0.125717  1.0
  C  C7797  1  0.842233  0.354067  0.125717  1.0
  C  C7798  1  0.020733  0.175567  0.707617  1.0
  C  C7799  1  0.824433  0.845167  0.707617  1.0
  C  C7800  1  0.154833  0.979267  0.707617  1.0
  C  C7801  1  0.845167  0.824433  0.792383  1.0
  C  C7802  1  0.979267  0.154833  0.792383  1.0
  C  C7803  1  0.175567  0.020733  0.792383  1.0
  C  C7804  1  0.354067  0.842233  0.374283  1.0
  C  C7805  1  0.157767  0.511833  0.374283  1.0
  C  C7806  1  0.488167  0.645933  0.374283  1.0
  C  C7807  1  0.821500  0.508900  0.540950  1.0
  C  C7808  1  0.687400  0.178500  0.540950  1.0
  C  C7809  1  0.491100  0.312600  0.540950  1.0
  C  C7810  1  0.312600  0.491100  0.959050  1.0
  C  C7811  1  0.508900  0.821500  0.959050  1.0
  C  C7812  1  0.178500  0.687400  0.959050  1.0
  C  C7813  1  0.154833  0.175567  0.207617  1.0
  C  C7814  1  0.020733  0.845167  0.207617  1.0
  C  C7815  1  0.824433  0.979267  0.207617  1.0
  C  C7816  1  0.645933  0.157767  0.625717  1.0
  C  C7817  1  0.842233  0.488167  0.625717  1.0
  C  C7818  1  0.511833  0.354067  0.625717  1.0
  C  C7819  1  0.488167  0.842233  0.874283  1.0
  C  C7820  1  0.354067  0.511833  0.874283  1.0
  C  C7821  1  0.157767  0.645933  0.874283  1.0
  C  C7822  1  0.979267  0.824433  0.292383  1.0
  C  C7823  1  0.175567  0.154833  0.292383  1.0
  C  C7824  1  0.845167  0.020733  0.292383  1.0
  C  C7825  1  0.174000  0.516100  0.451280  1.0
  C  C7826  1  0.342100  0.826000  0.451280  1.0
  C  C7827  1  0.483900  0.657900  0.451280  1.0
  C  C7828  1  0.657900  0.483900  0.048720  1.0
  C  C7829  1  0.516100  0.174000  0.048720  1.0
  C  C7830  1  0.826000  0.342100  0.048720  1.0
  C  C7831  1  0.507333  0.182767  0.117947  1.0
  C  C7832  1  0.675433  0.492667  0.117947  1.0
  C  C7833  1  0.817233  0.324567  0.117947  1.0
  C  C7834  1  0.991233  0.150567  0.715387  1.0
  C  C7835  1  0.849433  0.840667  0.715387  1.0
  C  C7836  1  0.159333  0.008767  0.715387  1.0
  C  C7837  1  0.840667  0.849433  0.784613  1.0
  C  C7838  1  0.008767  0.159333  0.784613  1.0
  C  C7839  1  0.150567  0.991233  0.784613  1.0
  C  C7840  1  0.324567  0.817233  0.382053  1.0
  C  C7841  1  0.182767  0.507333  0.382053  1.0
  C  C7842  1  0.492667  0.675433  0.382053  1.0
  C  C7843  1  0.826000  0.483900  0.548720  1.0
  C  C7844  1  0.657900  0.174000  0.548720  1.0
  C  C7845  1  0.516100  0.342100  0.548720  1.0
  C  C7846  1  0.342100  0.516100  0.951280  1.0
  C  C7847  1  0.483900  0.826000  0.951280  1.0
  C  C7848  1  0.174000  0.657900  0.951280  1.0
  C  C7849  1  0.159333  0.150567  0.215387  1.0
  C  C7850  1  0.991233  0.840667  0.215387  1.0
  C  C7851  1  0.849433  0.008767  0.215387  1.0
  C  C7852  1  0.675433  0.182767  0.617947  1.0
  C  C7853  1  0.817233  0.492667  0.617947  1.0
  C  C7854  1  0.507333  0.324567  0.617947  1.0
  C  C7855  1  0.492667  0.817233  0.882053  1.0
  C  C7856  1  0.324567  0.507333  0.882053  1.0
  C  C7857  1  0.182767  0.675433  0.882053  1.0
  C  C7858  1  0.008767  0.849433  0.284613  1.0
  C  C7859  1  0.150567  0.159333  0.284613  1.0
  C  C7860  1  0.840667  0.991233  0.284613  1.0
  C  C7861  1  0.153100  0.532400  0.457720  1.0
  C  C7862  1  0.379300  0.846900  0.457720  1.0
  C  C7863  1  0.467600  0.620700  0.457720  1.0
  C  C7864  1  0.620700  0.467600  0.042280  1.0
  C  C7865  1  0.532400  0.153100  0.042280  1.0
  C  C7866  1  0.846900  0.379300  0.042280  1.0
  C  C7867  1  0.486433  0.199067  0.124387  1.0
  C  C7868  1  0.712633  0.513567  0.124387  1.0
  C  C7869  1  0.800933  0.287367  0.124387  1.0
  C  C7870  1  0.954033  0.134267  0.708947  1.0
  C  C7871  1  0.865733  0.819767  0.708947  1.0
  C  C7872  1  0.180233  0.045967  0.708947  1.0
  C  C7873  1  0.819767  0.865733  0.791053  1.0
  C  C7874  1  0.045967  0.180233  0.791053  1.0
  C  C7875  1  0.134267  0.954033  0.791053  1.0
  C  C7876  1  0.287367  0.800933  0.375613  1.0
  C  C7877  1  0.199067  0.486433  0.375613  1.0
  C  C7878  1  0.513567  0.712633  0.375613  1.0
  C  C7879  1  0.846900  0.467600  0.542280  1.0
  C  C7880  1  0.620700  0.153100  0.542280  1.0
  C  C7881  1  0.532400  0.379300  0.542280  1.0
  C  C7882  1  0.379300  0.532400  0.957720  1.0
  C  C7883  1  0.467600  0.846900  0.957720  1.0
  C  C7884  1  0.153100  0.620700  0.957720  1.0
  C  C7885  1  0.180233  0.134267  0.208947  1.0
  C  C7886  1  0.954033  0.819767  0.208947  1.0
  C  C7887  1  0.865733  0.045967  0.208947  1.0
  C  C7888  1  0.712633  0.199067  0.624387  1.0
  C  C7889  1  0.800933  0.513567  0.624387  1.0
  C  C7890  1  0.486433  0.287367  0.624387  1.0
  C  C7891  1  0.513567  0.800933  0.875613  1.0
  C  C7892  1  0.287367  0.486433  0.875613  1.0
  C  C7893  1  0.199067  0.712633  0.875613  1.0
  C  C7894  1  0.045967  0.865733  0.291053  1.0
  C  C7895  1  0.134267  0.180233  0.291053  1.0
  C  C7896  1  0.819767  0.954033  0.291053  1.0
  C  C7897  1  0.150000  0.565100  0.453630  1.0
  C  C7898  1  0.415100  0.850000  0.453630  1.0
  C  C7899  1  0.434900  0.584900  0.453630  1.0
  C  C7900  1  0.584900  0.434900  0.046370  1.0
  C  C7901  1  0.565100  0.150000  0.046370  1.0
  C  C7902  1  0.850000  0.415100  0.046370  1.0
  C  C7903  1  0.483333  0.231767  0.120297  1.0
  C  C7904  1  0.748433  0.516667  0.120297  1.0
  C  C7905  1  0.768233  0.251567  0.120297  1.0
  C  C7906  1  0.918233  0.101567  0.713037  1.0
  C  C7907  1  0.898433  0.816667  0.713037  1.0
  C  C7908  1  0.183333  0.081767  0.713037  1.0
  C  C7909  1  0.816667  0.898433  0.786963  1.0
  C  C7910  1  0.081767  0.183333  0.786963  1.0
  C  C7911  1  0.101567  0.918233  0.786963  1.0
  C  C7912  1  0.251567  0.768233  0.379703  1.0
  C  C7913  1  0.231767  0.483333  0.379703  1.0
  C  C7914  1  0.516667  0.748433  0.379703  1.0
  C  C7915  1  0.850000  0.434900  0.546370  1.0
  C  C7916  1  0.584900  0.150000  0.546370  1.0
  C  C7917  1  0.565100  0.415100  0.546370  1.0
  C  C7918  1  0.415100  0.565100  0.953630  1.0
  C  C7919  1  0.434900  0.850000  0.953630  1.0
  C  C7920  1  0.150000  0.584900  0.953630  1.0
  C  C7921  1  0.183333  0.101567  0.213037  1.0
  C  C7922  1  0.918233  0.816667  0.213037  1.0
  C  C7923  1  0.898433  0.081767  0.213037  1.0
  C  C7924  1  0.748433  0.231767  0.620297  1.0
  C  C7925  1  0.768233  0.516667  0.620297  1.0
  C  C7926  1  0.483333  0.251567  0.620297  1.0
  C  C7927  1  0.516667  0.768233  0.879703  1.0
  C  C7928  1  0.251567  0.483333  0.879703  1.0
  C  C7929  1  0.231767  0.748433  0.879703  1.0
  C  C7930  1  0.081767  0.898433  0.286963  1.0
  C  C7931  1  0.101567  0.183333  0.286963  1.0
  C  C7932  1  0.816667  0.918233  0.286963  1.0
  C  C7933  1  0.139600  0.586700  0.460990  1.0
  C  C7934  1  0.447100  0.860400  0.460990  1.0
  C  C7935  1  0.413300  0.552900  0.460990  1.0
  C  C7936  1  0.552900  0.413300  0.039010  1.0
  C  C7937  1  0.586700  0.139600  0.039010  1.0
  C  C7938  1  0.860400  0.447100  0.039010  1.0
  C  C7939  1  0.472933  0.253367  0.127657  1.0
  C  C7940  1  0.780433  0.527067  0.127657  1.0
  C  C7941  1  0.746633  0.219567  0.127657  1.0
  C  C7942  1  0.886233  0.079967  0.705677  1.0
  C  C7943  1  0.920033  0.806267  0.705677  1.0
  C  C7944  1  0.193733  0.113767  0.705677  1.0
  C  C7945  1  0.806267  0.920033  0.794323  1.0
  C  C7946  1  0.113767  0.193733  0.794323  1.0
  C  C7947  1  0.079967  0.886233  0.794323  1.0
  C  C7948  1  0.219567  0.746633  0.372343  1.0
  C  C7949  1  0.253367  0.472933  0.372343  1.0
  C  C7950  1  0.527067  0.780433  0.372343  1.0
  C  C7951  1  0.860400  0.413300  0.539010  1.0
  C  C7952  1  0.552900  0.139600  0.539010  1.0
  C  C7953  1  0.586700  0.447100  0.539010  1.0
  C  C7954  1  0.447100  0.586700  0.960990  1.0
  C  C7955  1  0.413300  0.860400  0.960990  1.0
  C  C7956  1  0.139600  0.552900  0.960990  1.0
  C  C7957  1  0.193733  0.079967  0.205677  1.0
  C  C7958  1  0.886233  0.806267  0.205677  1.0
  C  C7959  1  0.920033  0.113767  0.205677  1.0
  C  C7960  1  0.780433  0.253367  0.627657  1.0
  C  C7961  1  0.746633  0.527067  0.627657  1.0
  C  C7962  1  0.472933  0.219567  0.627657  1.0
  C  C7963  1  0.527067  0.746633  0.872343  1.0
  C  C7964  1  0.219567  0.472933  0.872343  1.0
  C  C7965  1  0.253367  0.780433  0.872343  1.0
  C  C7966  1  0.113767  0.920033  0.294323  1.0
  C  C7967  1  0.079967  0.193733  0.294323  1.0
  C  C7968  1  0.806267  0.886233  0.294323  1.0
  C  C7969  1  0.147100  0.625400  0.457710  1.0
  C  C7970  1  0.478300  0.852900  0.457710  1.0
  C  C7971  1  0.374600  0.521700  0.457710  1.0
  C  C7972  1  0.521700  0.374600  0.042290  1.0
  C  C7973  1  0.625400  0.147100  0.042290  1.0
  C  C7974  1  0.852900  0.478300  0.042290  1.0
  C  C7975  1  0.480433  0.292067  0.124377  1.0
  C  C7976  1  0.811633  0.519567  0.124377  1.0
  C  C7977  1  0.707933  0.188367  0.124377  1.0
  C  C7978  1  0.855033  0.041267  0.708957  1.0
  C  C7979  1  0.958733  0.813767  0.708957  1.0
  C  C7980  1  0.186233  0.144967  0.708957  1.0
  C  C7981  1  0.813767  0.958733  0.791043  1.0
  C  C7982  1  0.144967  0.186233  0.791043  1.0
  C  C7983  1  0.041267  0.855033  0.791043  1.0
  C  C7984  1  0.188367  0.707933  0.375623  1.0
  C  C7985  1  0.292067  0.480433  0.375623  1.0
  C  C7986  1  0.519567  0.811633  0.375623  1.0
  C  C7987  1  0.852900  0.374600  0.542290  1.0
  C  C7988  1  0.521700  0.147100  0.542290  1.0
  C  C7989  1  0.625400  0.478300  0.542290  1.0
  C  C7990  1  0.478300  0.625400  0.957710  1.0
  C  C7991  1  0.374600  0.852900  0.957710  1.0
  C  C7992  1  0.147100  0.521700  0.957710  1.0
  C  C7993  1  0.186233  0.041267  0.208957  1.0
  C  C7994  1  0.855033  0.813767  0.208957  1.0
  C  C7995  1  0.958733  0.144967  0.208957  1.0
  C  C7996  1  0.811633  0.292067  0.624377  1.0
  C  C7997  1  0.707933  0.519567  0.624377  1.0
  C  C7998  1  0.480433  0.188367  0.624377  1.0
  C  C7999  1  0.519567  0.707933  0.875623  1.0
  C  C8000  1  0.188367  0.480433  0.875623  1.0
  C  C8001  1  0.292067  0.811633  0.875623  1.0
  C  C8002  1  0.144967  0.958733  0.291043  1.0
  C  C8003  1  0.041267  0.186233  0.291043  1.0
  C  C8004  1  0.813767  0.855033  0.291043  1.0
  C  C8005  1  0.138400  0.640200  0.467480  1.0
  C  C8006  1  0.501800  0.861600  0.467480  1.0
  C  C8007  1  0.359800  0.498200  0.467480  1.0
  C  C8008  1  0.498200  0.359800  0.032520  1.0
  C  C8009  1  0.640200  0.138400  0.032520  1.0
  C  C8010  1  0.861600  0.501800  0.032520  1.0
  C  C8011  1  0.471733  0.306867  0.134147  1.0
  C  C8012  1  0.835133  0.528267  0.134147  1.0
  C  C8013  1  0.693133  0.164867  0.134147  1.0
  C  C8014  1  0.831533  0.026467  0.699187  1.0
  C  C8015  1  0.973533  0.805067  0.699187  1.0
  C  C8016  1  0.194933  0.168467  0.699187  1.0
  C  C8017  1  0.805067  0.973533  0.800813  1.0
  C  C8018  1  0.168467  0.194933  0.800813  1.0
  C  C8019  1  0.026467  0.831533  0.800813  1.0
  C  C8020  1  0.164867  0.693133  0.365853  1.0
  C  C8021  1  0.306867  0.471733  0.365853  1.0
  C  C8022  1  0.528267  0.835133  0.365853  1.0
  C  C8023  1  0.861600  0.359800  0.532520  1.0
  C  C8024  1  0.498200  0.138400  0.532520  1.0
  C  C8025  1  0.640200  0.501800  0.532520  1.0
  C  C8026  1  0.501800  0.640200  0.967480  1.0
  C  C8027  1  0.359800  0.861600  0.967480  1.0
  C  C8028  1  0.138400  0.498200  0.967480  1.0
  C  C8029  1  0.194933  0.026467  0.199187  1.0
  C  C8030  1  0.831533  0.805067  0.199187  1.0
  C  C8031  1  0.973533  0.168467  0.199187  1.0
  C  C8032  1  0.835133  0.306867  0.634147  1.0
  C  C8033  1  0.693133  0.528267  0.634147  1.0
  C  C8034  1  0.471733  0.164867  0.634147  1.0
  C  C8035  1  0.528267  0.693133  0.865853  1.0
  C  C8036  1  0.164867  0.471733  0.865853  1.0
  C  C8037  1  0.306867  0.835133  0.865853  1.0
  C  C8038  1  0.168467  0.973533  0.300813  1.0
  C  C8039  1  0.026467  0.194933  0.300813  1.0
  C  C8040  1  0.805067  0.831533  0.300813  1.0
  C  C8041  1  0.121600  0.608700  0.476820  1.0
  C  C8042  1  0.487100  0.878400  0.476820  1.0
  C  C8043  1  0.391300  0.512900  0.476820  1.0
  C  C8044  1  0.512900  0.391300  0.023180  1.0
  C  C8045  1  0.608700  0.121600  0.023180  1.0
  C  C8046  1  0.878400  0.487100  0.023180  1.0
  C  C8047  1  0.454933  0.275367  0.143487  1.0
  C  C8048  1  0.820433  0.545067  0.143487  1.0
  C  C8049  1  0.724633  0.179567  0.143487  1.0
  C  C8050  1  0.846233  0.057967  0.689847  1.0
  C  C8051  1  0.942033  0.788267  0.689847  1.0
  C  C8052  1  0.211733  0.153767  0.689847  1.0
  C  C8053  1  0.788267  0.942033  0.810153  1.0
  C  C8054  1  0.153767  0.211733  0.810153  1.0
  C  C8055  1  0.057967  0.846233  0.810153  1.0
  C  C8056  1  0.179567  0.724633  0.356513  1.0
  C  C8057  1  0.275367  0.454933  0.356513  1.0
  C  C8058  1  0.545067  0.820433  0.356513  1.0
  C  C8059  1  0.878400  0.391300  0.523180  1.0
  C  C8060  1  0.512900  0.121600  0.523180  1.0
  C  C8061  1  0.608700  0.487100  0.523180  1.0
  C  C8062  1  0.487100  0.608700  0.976820  1.0
  C  C8063  1  0.391300  0.878400  0.976820  1.0
  C  C8064  1  0.121600  0.512900  0.976820  1.0
  C  C8065  1  0.211733  0.057967  0.189847  1.0
  C  C8066  1  0.846233  0.788267  0.189847  1.0
  C  C8067  1  0.942033  0.153767  0.189847  1.0
  C  C8068  1  0.820433  0.275367  0.643487  1.0
  C  C8069  1  0.724633  0.545067  0.643487  1.0
  C  C8070  1  0.454933  0.179567  0.643487  1.0
  C  C8071  1  0.545067  0.724633  0.856513  1.0
  C  C8072  1  0.179567  0.454933  0.856513  1.0
  C  C8073  1  0.275367  0.820433  0.856513  1.0
  C  C8074  1  0.153767  0.942033  0.310153  1.0
  C  C8075  1  0.057967  0.211733  0.310153  1.0
  C  C8076  1  0.788267  0.846233  0.310153  1.0
  C  C8077  1  0.104000  0.609100  0.487250  1.0
  C  C8078  1  0.505100  0.896000  0.487250  1.0
  C  C8079  1  0.390900  0.494900  0.487250  1.0
  C  C8080  1  0.494900  0.390900  0.012750  1.0
  C  C8081  1  0.609100  0.104000  0.012750  1.0
  C  C8082  1  0.896000  0.505100  0.012750  1.0
  C  C8083  1  0.437333  0.275767  0.153917  1.0
  C  C8084  1  0.838433  0.562667  0.153917  1.0
  C  C8085  1  0.724233  0.161567  0.153917  1.0
  C  C8086  1  0.828233  0.057567  0.679417  1.0
  C  C8087  1  0.942433  0.770667  0.679417  1.0
  C  C8088  1  0.229333  0.171767  0.679417  1.0
  C  C8089  1  0.770667  0.942433  0.820583  1.0
  C  C8090  1  0.171767  0.229333  0.820583  1.0
  C  C8091  1  0.057567  0.828233  0.820583  1.0
  C  C8092  1  0.161567  0.724233  0.346083  1.0
  C  C8093  1  0.275767  0.437333  0.346083  1.0
  C  C8094  1  0.562667  0.838433  0.346083  1.0
  C  C8095  1  0.896000  0.390900  0.512750  1.0
  C  C8096  1  0.494900  0.104000  0.512750  1.0
  C  C8097  1  0.609100  0.505100  0.512750  1.0
  C  C8098  1  0.505100  0.609100  0.987250  1.0
  C  C8099  1  0.390900  0.896000  0.987250  1.0
  C  C8100  1  0.104000  0.494900  0.987250  1.0
  C  C8101  1  0.229333  0.057567  0.179417  1.0
  C  C8102  1  0.828233  0.770667  0.179417  1.0
  C  C8103  1  0.942433  0.171767  0.179417  1.0
  C  C8104  1  0.838433  0.275767  0.653917  1.0
  C  C8105  1  0.724233  0.562667  0.653917  1.0
  C  C8106  1  0.437333  0.161567  0.653917  1.0
  C  C8107  1  0.562667  0.724233  0.846083  1.0
  C  C8108  1  0.161567  0.437333  0.846083  1.0
  C  C8109  1  0.275767  0.838433  0.846083  1.0
  C  C8110  1  0.171767  0.942433  0.320583  1.0
  C  C8111  1  0.057567  0.229333  0.320583  1.0
  C  C8112  1  0.770667  0.828233  0.320583  1.0
  C  C8113  1  0.085700  0.577300  0.495260  1.0
  C  C8114  1  0.491600  0.914300  0.495260  1.0
  C  C8115  1  0.422700  0.508400  0.495260  1.0
  C  C8116  1  0.508400  0.422700  0.004740  1.0
  C  C8117  1  0.577300  0.085700  0.004740  1.0
  C  C8118  1  0.914300  0.491600  0.004740  1.0
  C  C8119  1  0.419033  0.243967  0.161927  1.0
  C  C8120  1  0.824933  0.580967  0.161927  1.0
  C  C8121  1  0.756033  0.175067  0.161927  1.0
  C  C8122  1  0.841733  0.089367  0.671407  1.0
  C  C8123  1  0.910633  0.752367  0.671407  1.0
  C  C8124  1  0.247633  0.158267  0.671407  1.0
  C  C8125  1  0.752367  0.910633  0.828593  1.0
  C  C8126  1  0.158267  0.247633  0.828593  1.0
  C  C8127  1  0.089367  0.841733  0.828593  1.0
  C  C8128  1  0.175067  0.756033  0.338073  1.0
  C  C8129  1  0.243967  0.419033  0.338073  1.0
  C  C8130  1  0.580967  0.824933  0.338073  1.0
  C  C8131  1  0.914300  0.422700  0.504740  1.0
  C  C8132  1  0.508400  0.085700  0.504740  1.0
  C  C8133  1  0.577300  0.491600  0.504740  1.0
  C  C8134  1  0.491600  0.577300  0.995260  1.0
  C  C8135  1  0.422700  0.914300  0.995260  1.0
  C  C8136  1  0.085700  0.508400  0.995260  1.0
  C  C8137  1  0.247633  0.089367  0.171407  1.0
  C  C8138  1  0.841733  0.752367  0.171407  1.0
  C  C8139  1  0.910633  0.158267  0.171407  1.0
  C  C8140  1  0.824933  0.243967  0.661927  1.0
  C  C8141  1  0.756033  0.580967  0.661927  1.0
  C  C8142  1  0.419033  0.175067  0.661927  1.0
  C  C8143  1  0.580967  0.756033  0.838073  1.0
  C  C8144  1  0.175067  0.419033  0.838073  1.0
  C  C8145  1  0.243967  0.824933  0.838073  1.0
  C  C8146  1  0.158267  0.910633  0.328593  1.0
  C  C8147  1  0.089367  0.247633  0.328593  1.0
  C  C8148  1  0.752367  0.841733  0.328593  1.0
  C  C8149  1  0.059900  0.571700  0.505110  1.0
  C  C8150  1  0.511800  0.940100  0.505110  1.0
  C  C8151  1  0.428300  0.488200  0.505110  1.0
  C  C8152  1  0.488200  0.428300  0.994890  1.0
  C  C8153  1  0.571700  0.059900  0.994890  1.0
  C  C8154  1  0.940100  0.511800  0.994890  1.0
  C  C8155  1  0.393233  0.238367  0.171777  1.0
  C  C8156  1  0.845133  0.606767  0.171777  1.0
  C  C8157  1  0.761633  0.154867  0.171777  1.0
  C  C8158  1  0.821533  0.094967  0.661557  1.0
  C  C8159  1  0.905033  0.726567  0.661557  1.0
  C  C8160  1  0.273433  0.178467  0.661557  1.0
  C  C8161  1  0.726567  0.905033  0.838443  1.0
  C  C8162  1  0.178467  0.273433  0.838443  1.0
  C  C8163  1  0.094967  0.821533  0.838443  1.0
  C  C8164  1  0.154867  0.761633  0.328223  1.0
  C  C8165  1  0.238367  0.393233  0.328223  1.0
  C  C8166  1  0.606767  0.845133  0.328223  1.0
  C  C8167  1  0.940100  0.428300  0.494890  1.0
  C  C8168  1  0.488200  0.059900  0.494890  1.0
  C  C8169  1  0.571700  0.511800  0.494890  1.0
  C  C8170  1  0.511800  0.571700  0.005110  1.0
  C  C8171  1  0.428300  0.940100  0.005110  1.0
  C  C8172  1  0.059900  0.488200  0.005110  1.0
  C  C8173  1  0.273433  0.094967  0.161557  1.0
  C  C8174  1  0.821533  0.726567  0.161557  1.0
  C  C8175  1  0.905033  0.178467  0.161557  1.0
  C  C8176  1  0.845133  0.238367  0.671777  1.0
  C  C8177  1  0.761633  0.606767  0.671777  1.0
  C  C8178  1  0.393233  0.154867  0.671777  1.0
  C  C8179  1  0.606767  0.761633  0.828223  1.0
  C  C8180  1  0.154867  0.393233  0.828223  1.0
  C  C8181  1  0.238367  0.845133  0.828223  1.0
  C  C8182  1  0.178467  0.905033  0.338443  1.0
  C  C8183  1  0.094967  0.273433  0.338443  1.0
  C  C8184  1  0.726567  0.821533  0.338443  1.0
  C  C8185  1  0.042500  0.533000  0.508820  1.0
  C  C8186  1  0.490500  0.957500  0.508820  1.0
  C  C8187  1  0.467000  0.509500  0.508820  1.0
  C  C8188  1  0.509500  0.467000  0.991180  1.0
  C  C8189  1  0.533000  0.042500  0.991180  1.0
  C  C8190  1  0.957500  0.490500  0.991180  1.0
  C  C8191  1  0.375833  0.199667  0.175487  1.0
  C  C8192  1  0.823833  0.624167  0.175487  1.0
  C  C8193  1  0.800333  0.176167  0.175487  1.0
  C  C8194  1  0.842833  0.133667  0.657847  1.0
  C  C8195  1  0.866333  0.709167  0.657847  1.0
  C  C8196  1  0.290833  0.157167  0.657847  1.0
  C  C8197  1  0.709167  0.866333  0.842153  1.0
  C  C8198  1  0.157167  0.290833  0.842153  1.0
  C  C8199  1  0.133667  0.842833  0.842153  1.0
  C  C8200  1  0.176167  0.800333  0.324513  1.0
  C  C8201  1  0.199667  0.375833  0.324513  1.0
  C  C8202  1  0.624167  0.823833  0.324513  1.0
  C  C8203  1  0.957500  0.467000  0.491180  1.0
  C  C8204  1  0.509500  0.042500  0.491180  1.0
  C  C8205  1  0.533000  0.490500  0.491180  1.0
  C  C8206  1  0.490500  0.533000  0.008820  1.0
  C  C8207  1  0.467000  0.957500  0.008820  1.0
  C  C8208  1  0.042500  0.509500  0.008820  1.0
  C  C8209  1  0.290833  0.133667  0.157847  1.0
  C  C8210  1  0.842833  0.709167  0.157847  1.0
  C  C8211  1  0.866333  0.157167  0.157847  1.0
  C  C8212  1  0.823833  0.199667  0.675487  1.0
  C  C8213  1  0.800333  0.624167  0.675487  1.0
  C  C8214  1  0.375833  0.176167  0.675487  1.0
  C  C8215  1  0.624167  0.800333  0.824513  1.0
  C  C8216  1  0.176167  0.375833  0.824513  1.0
  C  C8217  1  0.199667  0.823833  0.824513  1.0
  C  C8218  1  0.157167  0.866333  0.342153  1.0
  C  C8219  1  0.133667  0.290833  0.342153  1.0
  C  C8220  1  0.709167  0.842833  0.342153  1.0
  C  C8221  1  0.061600  0.515800  0.501610  1.0
  C  C8222  1  0.454200  0.938400  0.501610  1.0
  C  C8223  1  0.484200  0.545800  0.501610  1.0
  C  C8224  1  0.545800  0.484200  0.998390  1.0
  C  C8225  1  0.515800  0.061600  0.998390  1.0
  C  C8226  1  0.938400  0.454200  0.998390  1.0
  C  C8227  1  0.394933  0.182467  0.168277  1.0
  C  C8228  1  0.787533  0.605067  0.168277  1.0
  C  C8229  1  0.817533  0.212467  0.168277  1.0
  C  C8230  1  0.879133  0.150867  0.665057  1.0
  C  C8231  1  0.849133  0.728267  0.665057  1.0
  C  C8232  1  0.271733  0.120867  0.665057  1.0
  C  C8233  1  0.728267  0.849133  0.834943  1.0
  C  C8234  1  0.120867  0.271733  0.834943  1.0
  C  C8235  1  0.150867  0.879133  0.834943  1.0
  C  C8236  1  0.212467  0.817533  0.331723  1.0
  C  C8237  1  0.182467  0.394933  0.331723  1.0
  C  C8238  1  0.605067  0.787533  0.331723  1.0
  C  C8239  1  0.938400  0.484200  0.498390  1.0
  C  C8240  1  0.545800  0.061600  0.498390  1.0
  C  C8241  1  0.515800  0.454200  0.498390  1.0
  C  C8242  1  0.454200  0.515800  0.001610  1.0
  C  C8243  1  0.484200  0.938400  0.001610  1.0
  C  C8244  1  0.061600  0.545800  0.001610  1.0
  C  C8245  1  0.271733  0.150867  0.165057  1.0
  C  C8246  1  0.879133  0.728267  0.165057  1.0
  C  C8247  1  0.849133  0.120867  0.165057  1.0
  C  C8248  1  0.787533  0.182467  0.668277  1.0
  C  C8249  1  0.817533  0.605067  0.668277  1.0
  C  C8250  1  0.394933  0.212467  0.668277  1.0
  C  C8251  1  0.605067  0.817533  0.831723  1.0
  C  C8252  1  0.212467  0.394933  0.831723  1.0
  C  C8253  1  0.182467  0.787533  0.831723  1.0
  C  C8254  1  0.120867  0.849133  0.334943  1.0
  C  C8255  1  0.150867  0.271733  0.334943  1.0
  C  C8256  1  0.728267  0.879133  0.334943  1.0
  C  C8257  1  0.054700  0.478200  0.503300  1.0
  C  C8258  1  0.423500  0.945300  0.503300  1.0
  C  C8259  1  0.521800  0.576500  0.503300  1.0
  C  C8260  1  0.576500  0.521800  0.996700  1.0
  C  C8261  1  0.478200  0.054700  0.996700  1.0
  C  C8262  1  0.945300  0.423500  0.996700  1.0
  C  C8263  1  0.388033  0.144867  0.169967  1.0
  C  C8264  1  0.756833  0.611967  0.169967  1.0
  C  C8265  1  0.855133  0.243167  0.169967  1.0
  C  C8266  1  0.909833  0.188467  0.663367  1.0
  C  C8267  1  0.811533  0.721367  0.663367  1.0
  C  C8268  1  0.278633  0.090167  0.663367  1.0
  C  C8269  1  0.721367  0.811533  0.836633  1.0
  C  C8270  1  0.090167  0.278633  0.836633  1.0
  C  C8271  1  0.188467  0.909833  0.836633  1.0
  C  C8272  1  0.243167  0.855133  0.330033  1.0
  C  C8273  1  0.144867  0.388033  0.330033  1.0
  C  C8274  1  0.611967  0.756833  0.330033  1.0
  C  C8275  1  0.945300  0.521800  0.496700  1.0
  C  C8276  1  0.576500  0.054700  0.496700  1.0
  C  C8277  1  0.478200  0.423500  0.496700  1.0
  C  C8278  1  0.423500  0.478200  0.003300  1.0
  C  C8279  1  0.521800  0.945300  0.003300  1.0
  C  C8280  1  0.054700  0.576500  0.003300  1.0
  C  C8281  1  0.278633  0.188467  0.163367  1.0
  C  C8282  1  0.909833  0.721367  0.163367  1.0
  C  C8283  1  0.811533  0.090167  0.163367  1.0
  C  C8284  1  0.756833  0.144867  0.669967  1.0
  C  C8285  1  0.855133  0.611967  0.669967  1.0
  C  C8286  1  0.388033  0.243167  0.669967  1.0
  C  C8287  1  0.611967  0.855133  0.830033  1.0
  C  C8288  1  0.243167  0.388033  0.830033  1.0
  C  C8289  1  0.144867  0.756833  0.830033  1.0
  C  C8290  1  0.090167  0.811533  0.336633  1.0
  C  C8291  1  0.188467  0.278633  0.336633  1.0
  C  C8292  1  0.721367  0.909833  0.336633  1.0
  C  C8293  1  0.078700  0.463700  0.498900  1.0
  C  C8294  1  0.385000  0.921300  0.498900  1.0
  C  C8295  1  0.536300  0.615000  0.498900  1.0
  C  C8296  1  0.615000  0.536300  0.001100  1.0
  C  C8297  1  0.463700  0.078700  0.001100  1.0
  C  C8298  1  0.921300  0.385000  0.001100  1.0
  C  C8299  1  0.412033  0.130367  0.165567  1.0
  C  C8300  1  0.718333  0.587967  0.165567  1.0
  C  C8301  1  0.869633  0.281667  0.165567  1.0
  C  C8302  1  0.948333  0.202967  0.667767  1.0
  C  C8303  1  0.797033  0.745367  0.667767  1.0
  C  C8304  1  0.254633  0.051667  0.667767  1.0
  C  C8305  1  0.745367  0.797033  0.832233  1.0
  C  C8306  1  0.051667  0.254633  0.832233  1.0
  C  C8307  1  0.202967  0.948333  0.832233  1.0
  C  C8308  1  0.281667  0.869633  0.334433  1.0
  C  C8309  1  0.130367  0.412033  0.334433  1.0
  C  C8310  1  0.587967  0.718333  0.334433  1.0
  C  C8311  1  0.921300  0.536300  0.501100  1.0
  C  C8312  1  0.615000  0.078700  0.501100  1.0
  C  C8313  1  0.463700  0.385000  0.501100  1.0
  C  C8314  1  0.385000  0.463700  0.998900  1.0
  C  C8315  1  0.536300  0.921300  0.998900  1.0
  C  C8316  1  0.078700  0.615000  0.998900  1.0
  C  C8317  1  0.254633  0.202967  0.167767  1.0
  C  C8318  1  0.948333  0.745367  0.167767  1.0
  C  C8319  1  0.797033  0.051667  0.167767  1.0
  C  C8320  1  0.718333  0.130367  0.665567  1.0
  C  C8321  1  0.869633  0.587967  0.665567  1.0
  C  C8322  1  0.412033  0.281667  0.665567  1.0
  C  C8323  1  0.587967  0.869633  0.834433  1.0
  C  C8324  1  0.281667  0.412033  0.834433  1.0
  C  C8325  1  0.130367  0.718333  0.834433  1.0
  C  C8326  1  0.051667  0.797033  0.332233  1.0
  C  C8327  1  0.202967  0.254633  0.332233  1.0
  C  C8328  1  0.745367  0.948333  0.332233  1.0
  C  C8329  1  0.076400  0.426700  0.501870  1.0
  C  C8330  1  0.350300  0.923600  0.501870  1.0
  C  C8331  1  0.573300  0.649700  0.501870  1.0
  C  C8332  1  0.649700  0.573300  0.998130  1.0
  C  C8333  1  0.426700  0.076400  0.998130  1.0
  C  C8334  1  0.923600  0.350300  0.998130  1.0
  C  C8335  1  0.409733  0.093367  0.168537  1.0
  C  C8336  1  0.683633  0.590267  0.168537  1.0
  C  C8337  1  0.906633  0.316367  0.168537  1.0
  C  C8338  1  0.983033  0.239967  0.664797  1.0
  C  C8339  1  0.760033  0.743067  0.664797  1.0
  C  C8340  1  0.256933  0.016967  0.664797  1.0
  C  C8341  1  0.743067  0.760033  0.835203  1.0
  C  C8342  1  0.016967  0.256933  0.835203  1.0
  C  C8343  1  0.239967  0.983033  0.835203  1.0
  C  C8344  1  0.316367  0.906633  0.331463  1.0
  C  C8345  1  0.093367  0.409733  0.331463  1.0
  C  C8346  1  0.590267  0.683633  0.331463  1.0
  C  C8347  1  0.923600  0.573300  0.498130  1.0
  C  C8348  1  0.649700  0.076400  0.498130  1.0
  C  C8349  1  0.426700  0.350300  0.498130  1.0
  C  C8350  1  0.350300  0.426700  0.001870  1.0
  C  C8351  1  0.573300  0.923600  0.001870  1.0
  C  C8352  1  0.076400  0.649700  0.001870  1.0
  C  C8353  1  0.256933  0.239967  0.164797  1.0
  C  C8354  1  0.983033  0.743067  0.164797  1.0
  C  C8355  1  0.760033  0.016967  0.164797  1.0
  C  C8356  1  0.683633  0.093367  0.668537  1.0
  C  C8357  1  0.906633  0.590267  0.668537  1.0
  C  C8358  1  0.409733  0.316367  0.668537  1.0
  C  C8359  1  0.590267  0.906633  0.831463  1.0
  C  C8360  1  0.316367  0.409733  0.831463  1.0
  C  C8361  1  0.093367  0.683633  0.831463  1.0
  C  C8362  1  0.016967  0.760033  0.335203  1.0
  C  C8363  1  0.239967  0.256933  0.335203  1.0
  C  C8364  1  0.743067  0.983033  0.335203  1.0
  C  C8365  1  0.108300  0.427300  0.497000  1.0
  C  C8366  1  0.319000  0.891700  0.497000  1.0
  C  C8367  1  0.572700  0.681000  0.497000  1.0
  C  C8368  1  0.681000  0.572700  0.003000  1.0
  C  C8369  1  0.427300  0.108300  0.003000  1.0
  C  C8370  1  0.891700  0.319000  0.003000  1.0
  C  C8371  1  0.441633  0.093967  0.163667  1.0
  C  C8372  1  0.652333  0.558367  0.163667  1.0
  C  C8373  1  0.906033  0.347667  0.163667  1.0
  C  C8374  1  0.014333  0.239367  0.669667  1.0
  C  C8375  1  0.760633  0.774967  0.669667  1.0
  C  C8376  1  0.225033  0.985667  0.669667  1.0
  C  C8377  1  0.774967  0.760633  0.830333  1.0
  C  C8378  1  0.985667  0.225033  0.830333  1.0
  C  C8379  1  0.239367  0.014333  0.830333  1.0
  C  C8380  1  0.347667  0.906033  0.336333  1.0
  C  C8381  1  0.093967  0.441633  0.336333  1.0
  C  C8382  1  0.558367  0.652333  0.336333  1.0
  C  C8383  1  0.891700  0.572700  0.503000  1.0
  C  C8384  1  0.681000  0.108300  0.503000  1.0
  C  C8385  1  0.427300  0.319000  0.503000  1.0
  C  C8386  1  0.319000  0.427300  0.997000  1.0
  C  C8387  1  0.572700  0.891700  0.997000  1.0
  C  C8388  1  0.108300  0.681000  0.997000  1.0
  C  C8389  1  0.225033  0.239367  0.169667  1.0
  C  C8390  1  0.014333  0.774967  0.169667  1.0
  C  C8391  1  0.760633  0.985667  0.169667  1.0
  C  C8392  1  0.652333  0.093967  0.663667  1.0
  C  C8393  1  0.906033  0.558367  0.663667  1.0
  C  C8394  1  0.441633  0.347667  0.663667  1.0
  C  C8395  1  0.558367  0.906033  0.836333  1.0
  C  C8396  1  0.347667  0.441633  0.836333  1.0
  C  C8397  1  0.093967  0.652333  0.836333  1.0
  C  C8398  1  0.985667  0.760633  0.330333  1.0
  C  C8399  1  0.239367  0.225033  0.330333  1.0
  C  C8400  1  0.774967  0.014333  0.330333  1.0
  C  C8401  1  0.124200  0.459400  0.488790  1.0
  C  C8402  1  0.335200  0.875800  0.488790  1.0
  C  C8403  1  0.540600  0.664800  0.488790  1.0
  C  C8404  1  0.664800  0.540600  0.011210  1.0
  C  C8405  1  0.459400  0.124200  0.011210  1.0
  C  C8406  1  0.875800  0.335200  0.011210  1.0
  C  C8407  1  0.457533  0.126067  0.155457  1.0
  C  C8408  1  0.668533  0.542467  0.155457  1.0
  C  C8409  1  0.873933  0.331467  0.155457  1.0
  C  C8410  1  0.998133  0.207267  0.677877  1.0
  C  C8411  1  0.792733  0.790867  0.677877  1.0
  C  C8412  1  0.209133  0.001867  0.677877  1.0
  C  C8413  1  0.790867  0.792733  0.822123  1.0
  C  C8414  1  0.001867  0.209133  0.822123  1.0
  C  C8415  1  0.207267  0.998133  0.822123  1.0
  C  C8416  1  0.331467  0.873933  0.344543  1.0
  C  C8417  1  0.126067  0.457533  0.344543  1.0
  C  C8418  1  0.542467  0.668533  0.344543  1.0
  C  C8419  1  0.875800  0.540600  0.511210  1.0
  C  C8420  1  0.664800  0.124200  0.511210  1.0
  C  C8421  1  0.459400  0.335200  0.511210  1.0
  C  C8422  1  0.335200  0.459400  0.988790  1.0
  C  C8423  1  0.540600  0.875800  0.988790  1.0
  C  C8424  1  0.124200  0.664800  0.988790  1.0
  C  C8425  1  0.209133  0.207267  0.177877  1.0
  C  C8426  1  0.998133  0.790867  0.177877  1.0
  C  C8427  1  0.792733  0.001867  0.177877  1.0
  C  C8428  1  0.668533  0.126067  0.655457  1.0
  C  C8429  1  0.873933  0.542467  0.655457  1.0
  C  C8430  1  0.457533  0.331467  0.655457  1.0
  C  C8431  1  0.542467  0.873933  0.844543  1.0
  C  C8432  1  0.331467  0.457533  0.844543  1.0
  C  C8433  1  0.126067  0.668533  0.844543  1.0
  C  C8434  1  0.001867  0.792733  0.322123  1.0
  C  C8435  1  0.207267  0.209133  0.322123  1.0
  C  C8436  1  0.790867  0.998133  0.322123  1.0
  C  C8437  1  0.100600  0.644700  0.490380  1.0
  C  C8438  1  0.544100  0.899400  0.490380  1.0
  C  C8439  1  0.355300  0.455900  0.490380  1.0
  C  C8440  1  0.455900  0.355300  0.009620  1.0
  C  C8441  1  0.644700  0.100600  0.009620  1.0
  C  C8442  1  0.899400  0.544100  0.009620  1.0
  C  C8443  1  0.433933  0.311367  0.157047  1.0
  C  C8444  1  0.877433  0.566067  0.157047  1.0
  C  C8445  1  0.688633  0.122567  0.157047  1.0
  C  C8446  1  0.789233  0.021967  0.676287  1.0
  C  C8447  1  0.978033  0.767267  0.676287  1.0
  C  C8448  1  0.232733  0.210767  0.676287  1.0
  C  C8449  1  0.767267  0.978033  0.823713  1.0
  C  C8450  1  0.210767  0.232733  0.823713  1.0
  C  C8451  1  0.021967  0.789233  0.823713  1.0
  C  C8452  1  0.122567  0.688633  0.342953  1.0
  C  C8453  1  0.311367  0.433933  0.342953  1.0
  C  C8454  1  0.566067  0.877433  0.342953  1.0
  C  C8455  1  0.899400  0.355300  0.509620  1.0
  C  C8456  1  0.455900  0.100600  0.509620  1.0
  C  C8457  1  0.644700  0.544100  0.509620  1.0
  C  C8458  1  0.544100  0.644700  0.990380  1.0
  C  C8459  1  0.355300  0.899400  0.990380  1.0
  C  C8460  1  0.100600  0.455900  0.990380  1.0
  C  C8461  1  0.232733  0.021967  0.176287  1.0
  C  C8462  1  0.789233  0.767267  0.176287  1.0
  C  C8463  1  0.978033  0.210767  0.176287  1.0
  C  C8464  1  0.877433  0.311367  0.657047  1.0
  C  C8465  1  0.688633  0.566067  0.657047  1.0
  C  C8466  1  0.433933  0.122567  0.657047  1.0
  C  C8467  1  0.566067  0.688633  0.842953  1.0
  C  C8468  1  0.122567  0.433933  0.842953  1.0
  C  C8469  1  0.311367  0.877433  0.842953  1.0
  C  C8470  1  0.210767  0.978033  0.323713  1.0
  C  C8471  1  0.021967  0.232733  0.323713  1.0
  C  C8472  1  0.767267  0.789233  0.323713  1.0
  C  C8473  1  0.126100  0.674800  0.498190  1.0
  C  C8474  1  0.548700  0.873900  0.498190  1.0
  C  C8475  1  0.325200  0.451300  0.498190  1.0
  C  C8476  1  0.451300  0.325200  0.001810  1.0
  C  C8477  1  0.674800  0.126100  0.001810  1.0
  C  C8478  1  0.873900  0.548700  0.001810  1.0
  C  C8479  1  0.459433  0.341467  0.164857  1.0
  C  C8480  1  0.882033  0.540567  0.164857  1.0
  C  C8481  1  0.658533  0.117967  0.164857  1.0
  C  C8482  1  0.784633  0.991867  0.668477  1.0
  C  C8483  1  0.008133  0.792767  0.668477  1.0
  C  C8484  1  0.207233  0.215367  0.668477  1.0
  C  C8485  1  0.792767  0.008133  0.831523  1.0
  C  C8486  1  0.215367  0.207233  0.831523  1.0
  C  C8487  1  0.991867  0.784633  0.831523  1.0
  C  C8488  1  0.117967  0.658533  0.335143  1.0
  C  C8489  1  0.341467  0.459433  0.335143  1.0
  C  C8490  1  0.540567  0.882033  0.335143  1.0
  C  C8491  1  0.873900  0.325200  0.501810  1.0
  C  C8492  1  0.451300  0.126100  0.501810  1.0
  C  C8493  1  0.674800  0.548700  0.501810  1.0
  C  C8494  1  0.548700  0.674800  0.998190  1.0
  C  C8495  1  0.325200  0.873900  0.998190  1.0
  C  C8496  1  0.126100  0.451300  0.998190  1.0
  C  C8497  1  0.207233  0.991867  0.168477  1.0
  C  C8498  1  0.784633  0.792767  0.168477  1.0
  C  C8499  1  0.008133  0.215367  0.168477  1.0
  C  C8500  1  0.882033  0.341467  0.664857  1.0
  C  C8501  1  0.658533  0.540567  0.664857  1.0
  C  C8502  1  0.459433  0.117967  0.664857  1.0
  C  C8503  1  0.540567  0.658533  0.835143  1.0
  C  C8504  1  0.117967  0.459433  0.835143  1.0
  C  C8505  1  0.341467  0.882033  0.835143  1.0
  C  C8506  1  0.215367  0.008133  0.331523  1.0
  C  C8507  1  0.991867  0.207233  0.331523  1.0
  C  C8508  1  0.792767  0.784633  0.331523  1.0
  C  C8509  1  0.123400  0.708900  0.500450  1.0
  C  C8510  1  0.585500  0.876600  0.500450  1.0
  C  C8511  1  0.291100  0.414500  0.500450  1.0
  C  C8512  1  0.414500  0.291100  0.999550  1.0
  C  C8513  1  0.708900  0.123400  0.999550  1.0
  C  C8514  1  0.876600  0.585500  0.999550  1.0
  C  C8515  1  0.456733  0.375567  0.167117  1.0
  C  C8516  1  0.918833  0.543267  0.167117  1.0
  C  C8517  1  0.624433  0.081167  0.167117  1.0
  C  C8518  1  0.747833  0.957767  0.666217  1.0
  C  C8519  1  0.042233  0.790067  0.666217  1.0
  C  C8520  1  0.209933  0.252167  0.666217  1.0
  C  C8521  1  0.790067  0.042233  0.833783  1.0
  C  C8522  1  0.252167  0.209933  0.833783  1.0
  C  C8523  1  0.957767  0.747833  0.833783  1.0
  C  C8524  1  0.081167  0.624433  0.332883  1.0
  C  C8525  1  0.375567  0.456733  0.332883  1.0
  C  C8526  1  0.543267  0.918833  0.332883  1.0
  C  C8527  1  0.876600  0.291100  0.499550  1.0
  C  C8528  1  0.414500  0.123400  0.499550  1.0
  C  C8529  1  0.708900  0.585500  0.499550  1.0
  C  C8530  1  0.585500  0.708900  0.000450  1.0
  C  C8531  1  0.291100  0.876600  0.000450  1.0
  C  C8532  1  0.123400  0.414500  0.000450  1.0
  C  C8533  1  0.209933  0.957767  0.166217  1.0
  C  C8534  1  0.747833  0.790067  0.166217  1.0
  C  C8535  1  0.042233  0.252167  0.166217  1.0
  C  C8536  1  0.918833  0.375567  0.667117  1.0
  C  C8537  1  0.624433  0.543267  0.667117  1.0
  C  C8538  1  0.456733  0.081167  0.667117  1.0
  C  C8539  1  0.543267  0.624433  0.832883  1.0
  C  C8540  1  0.081167  0.456733  0.832883  1.0
  C  C8541  1  0.375567  0.918833  0.832883  1.0
  C  C8542  1  0.252167  0.042233  0.333783  1.0
  C  C8543  1  0.957767  0.209933  0.333783  1.0
  C  C8544  1  0.790067  0.747833  0.333783  1.0
  C  C8545  1  0.093400  0.712500  0.495420  1.0
  C  C8546  1  0.619100  0.906600  0.495420  1.0
  C  C8547  1  0.287500  0.380900  0.495420  1.0
  C  C8548  1  0.380900  0.287500  0.004580  1.0
  C  C8549  1  0.712500  0.093400  0.004580  1.0
  C  C8550  1  0.906600  0.619100  0.004580  1.0
  C  C8551  1  0.426733  0.379167  0.162087  1.0
  C  C8552  1  0.952433  0.573267  0.162087  1.0
  C  C8553  1  0.620833  0.047567  0.162087  1.0
  C  C8554  1  0.714233  0.954167  0.671247  1.0
  C  C8555  1  0.045833  0.760067  0.671247  1.0
  C  C8556  1  0.239933  0.285767  0.671247  1.0
  C  C8557  1  0.760067  0.045833  0.828753  1.0
  C  C8558  1  0.285767  0.239933  0.828753  1.0
  C  C8559  1  0.954167  0.714233  0.828753  1.0
  C  C8560  1  0.047567  0.620833  0.337913  1.0
  C  C8561  1  0.379167  0.426733  0.337913  1.0
  C  C8562  1  0.573267  0.952433  0.337913  1.0
  C  C8563  1  0.906600  0.287500  0.504580  1.0
  C  C8564  1  0.380900  0.093400  0.504580  1.0
  C  C8565  1  0.712500  0.619100  0.504580  1.0
  C  C8566  1  0.619100  0.712500  0.995420  1.0
  C  C8567  1  0.287500  0.906600  0.995420  1.0
  C  C8568  1  0.093400  0.380900  0.995420  1.0
  C  C8569  1  0.239933  0.954167  0.171247  1.0
  C  C8570  1  0.714233  0.760067  0.171247  1.0
  C  C8571  1  0.045833  0.285767  0.171247  1.0
  C  C8572  1  0.952433  0.379167  0.662087  1.0
  C  C8573  1  0.620833  0.573267  0.662087  1.0
  C  C8574  1  0.426733  0.047567  0.662087  1.0
  C  C8575  1  0.573267  0.620833  0.837913  1.0
  C  C8576  1  0.047567  0.426733  0.837913  1.0
  C  C8577  1  0.379167  0.952433  0.837913  1.0
  C  C8578  1  0.285767  0.045833  0.328753  1.0
  C  C8579  1  0.954167  0.239933  0.328753  1.0
  C  C8580  1  0.760067  0.714233  0.328753  1.0
  C  C8581  1  0.065700  0.681500  0.487690  1.0
  C  C8582  1  0.615800  0.934300  0.487690  1.0
  C  C8583  1  0.318500  0.384200  0.487690  1.0
  C  C8584  1  0.384200  0.318500  0.012310  1.0
  C  C8585  1  0.681500  0.065700  0.012310  1.0
  C  C8586  1  0.934300  0.615800  0.012310  1.0
  C  C8587  1  0.399033  0.348167  0.154357  1.0
  C  C8588  1  0.949133  0.600967  0.154357  1.0
  C  C8589  1  0.651833  0.050867  0.154357  1.0
  C  C8590  1  0.717533  0.985167  0.678977  1.0
  C  C8591  1  0.014833  0.732367  0.678977  1.0
  C  C8592  1  0.267633  0.282467  0.678977  1.0
  C  C8593  1  0.732367  0.014833  0.821023  1.0
  C  C8594  1  0.282467  0.267633  0.821023  1.0
  C  C8595  1  0.985167  0.717533  0.821023  1.0
  C  C8596  1  0.050867  0.651833  0.345643  1.0
  C  C8597  1  0.348167  0.399033  0.345643  1.0
  C  C8598  1  0.600967  0.949133  0.345643  1.0
  C  C8599  1  0.934300  0.318500  0.512310  1.0
  C  C8600  1  0.384200  0.065700  0.512310  1.0
  C  C8601  1  0.681500  0.615800  0.512310  1.0
  C  C8602  1  0.615800  0.681500  0.987690  1.0
  C  C8603  1  0.318500  0.934300  0.987690  1.0
  C  C8604  1  0.065700  0.384200  0.987690  1.0
  C  C8605  1  0.267633  0.985167  0.178977  1.0
  C  C8606  1  0.717533  0.732367  0.178977  1.0
  C  C8607  1  0.014833  0.282467  0.178977  1.0
  C  C8608  1  0.949133  0.348167  0.654357  1.0
  C  C8609  1  0.651833  0.600967  0.654357  1.0
  C  C8610  1  0.399033  0.050867  0.654357  1.0
  C  C8611  1  0.600967  0.651833  0.845643  1.0
  C  C8612  1  0.050867  0.399033  0.845643  1.0
  C  C8613  1  0.348167  0.949133  0.845643  1.0
  C  C8614  1  0.282467  0.014833  0.321023  1.0
  C  C8615  1  0.985167  0.267633  0.321023  1.0
  C  C8616  1  0.732367  0.717533  0.321023  1.0
  C  C8617  1  0.069700  0.648200  0.485430  1.0
  C  C8618  1  0.578500  0.930300  0.485430  1.0
  C  C8619  1  0.351800  0.421500  0.485430  1.0
  C  C8620  1  0.421500  0.351800  0.014570  1.0
  C  C8621  1  0.648200  0.069700  0.014570  1.0
  C  C8622  1  0.930300  0.578500  0.014570  1.0
  C  C8623  1  0.403033  0.314867  0.152097  1.0
  C  C8624  1  0.911833  0.596967  0.152097  1.0
  C  C8625  1  0.685133  0.088167  0.152097  1.0
  C  C8626  1  0.754833  0.018467  0.681237  1.0
  C  C8627  1  0.981533  0.736367  0.681237  1.0
  C  C8628  1  0.263633  0.245167  0.681237  1.0
  C  C8629  1  0.736367  0.981533  0.818763  1.0
  C  C8630  1  0.245167  0.263633  0.818763  1.0
  C  C8631  1  0.018467  0.754833  0.818763  1.0
  C  C8632  1  0.088167  0.685133  0.347903  1.0
  C  C8633  1  0.314867  0.403033  0.347903  1.0
  C  C8634  1  0.596967  0.911833  0.347903  1.0
  C  C8635  1  0.930300  0.351800  0.514570  1.0
  C  C8636  1  0.421500  0.069700  0.514570  1.0
  C  C8637  1  0.648200  0.578500  0.514570  1.0
  C  C8638  1  0.578500  0.648200  0.985430  1.0
  C  C8639  1  0.351800  0.930300  0.985430  1.0
  C  C8640  1  0.069700  0.421500  0.985430  1.0
  C  C8641  1  0.263633  0.018467  0.181237  1.0
  C  C8642  1  0.754833  0.736367  0.181237  1.0
  C  C8643  1  0.981533  0.245167  0.181237  1.0
  C  C8644  1  0.911833  0.314867  0.652097  1.0
  C  C8645  1  0.685133  0.596967  0.652097  1.0
  C  C8646  1  0.403033  0.088167  0.652097  1.0
  C  C8647  1  0.596967  0.685133  0.847903  1.0
  C  C8648  1  0.088167  0.403033  0.847903  1.0
  C  C8649  1  0.314867  0.911833  0.847903  1.0
  C  C8650  1  0.245167  0.981533  0.318763  1.0
  C  C8651  1  0.018467  0.263633  0.318763  1.0
  C  C8652  1  0.736367  0.754833  0.318763  1.0
  C  C8653  1  0.063800  0.744200  0.505350  1.0
  C  C8654  1  0.680400  0.936200  0.505350  1.0
  C  C8655  1  0.255800  0.319600  0.505350  1.0
  C  C8656  1  0.319600  0.255800  0.994650  1.0
  C  C8657  1  0.744200  0.063800  0.994650  1.0
  C  C8658  1  0.936200  0.680400  0.994650  1.0
  C  C8659  1  0.397133  0.410867  0.172017  1.0
  C  C8660  1  0.013733  0.602867  0.172017  1.0
  C  C8661  1  0.589133  0.986267  0.172017  1.0
  C  C8662  1  0.652933  0.922467  0.661317  1.0
  C  C8663  1  0.077533  0.730467  0.661317  1.0
  C  C8664  1  0.269533  0.347067  0.661317  1.0
  C  C8665  1  0.730467  0.077533  0.838683  1.0
  C  C8666  1  0.347067  0.269533  0.838683  1.0
  C  C8667  1  0.922467  0.652933  0.838683  1.0
  C  C8668  1  0.986267  0.589133  0.327983  1.0
  C  C8669  1  0.410867  0.397133  0.327983  1.0
  C  C8670  1  0.602867  0.013733  0.327983  1.0
  C  C8671  1  0.936200  0.255800  0.494650  1.0
  C  C8672  1  0.319600  0.063800  0.494650  1.0
  C  C8673  1  0.744200  0.680400  0.494650  1.0
  C  C8674  1  0.680400  0.744200  0.005350  1.0
  C  C8675  1  0.255800  0.936200  0.005350  1.0
  C  C8676  1  0.063800  0.319600  0.005350  1.0
  C  C8677  1  0.269533  0.922467  0.161317  1.0
  C  C8678  1  0.652933  0.730467  0.161317  1.0
  C  C8679  1  0.077533  0.347067  0.161317  1.0
  C  C8680  1  0.013733  0.410867  0.672017  1.0
  C  C8681  1  0.589133  0.602867  0.672017  1.0
  C  C8682  1  0.397133  0.986267  0.672017  1.0
  C  C8683  1  0.602867  0.589133  0.827983  1.0
  C  C8684  1  0.986267  0.397133  0.827983  1.0
  C  C8685  1  0.410867  0.013733  0.827983  1.0
  C  C8686  1  0.347067  0.077533  0.338683  1.0
  C  C8687  1  0.922467  0.269533  0.338683  1.0
  C  C8688  1  0.730467  0.652933  0.338683  1.0
  C  C8689  1  0.056600  0.777800  0.506310  1.0
  C  C8690  1  0.721200  0.943400  0.506310  1.0
  C  C8691  1  0.222200  0.278800  0.506310  1.0
  C  C8692  1  0.278800  0.222200  0.993690  1.0
  C  C8693  1  0.777800  0.056600  0.993690  1.0
  C  C8694  1  0.943400  0.721200  0.993690  1.0
  C  C8695  1  0.389933  0.444467  0.172977  1.0
  C  C8696  1  0.054533  0.610067  0.172977  1.0
  C  C8697  1  0.555533  0.945467  0.172977  1.0
  C  C8698  1  0.612133  0.888867  0.660357  1.0
  C  C8699  1  0.111133  0.723267  0.660357  1.0
  C  C8700  1  0.276733  0.387867  0.660357  1.0
  C  C8701  1  0.723267  0.111133  0.839643  1.0
  C  C8702  1  0.387867  0.276733  0.839643  1.0
  C  C8703  1  0.888867  0.612133  0.839643  1.0
  C  C8704  1  0.945467  0.555533  0.327023  1.0
  C  C8705  1  0.444467  0.389933  0.327023  1.0
  C  C8706  1  0.610067  0.054533  0.327023  1.0
  C  C8707  1  0.943400  0.222200  0.493690  1.0
  C  C8708  1  0.278800  0.056600  0.493690  1.0
  C  C8709  1  0.777800  0.721200  0.493690  1.0
  C  C8710  1  0.721200  0.777800  0.006310  1.0
  C  C8711  1  0.222200  0.943400  0.006310  1.0
  C  C8712  1  0.056600  0.278800  0.006310  1.0
  C  C8713  1  0.276733  0.888867  0.160357  1.0
  C  C8714  1  0.612133  0.723267  0.160357  1.0
  C  C8715  1  0.111133  0.387867  0.160357  1.0
  C  C8716  1  0.054533  0.444467  0.672977  1.0
  C  C8717  1  0.555533  0.610067  0.672977  1.0
  C  C8718  1  0.389933  0.945467  0.672977  1.0
  C  C8719  1  0.610067  0.555533  0.827023  1.0
  C  C8720  1  0.945467  0.389933  0.827023  1.0
  C  C8721  1  0.444467  0.054533  0.827023  1.0
  C  C8722  1  0.387867  0.111133  0.339643  1.0
  C  C8723  1  0.888867  0.276733  0.339643  1.0
  C  C8724  1  0.723267  0.612133  0.339643  1.0
  C  C8725  1  0.031600  0.779600  0.514780  1.0
  C  C8726  1  0.748000  0.968400  0.514780  1.0
  C  C8727  1  0.220400  0.252000  0.514780  1.0
  C  C8728  1  0.252000  0.220400  0.985220  1.0
  C  C8729  1  0.779600  0.031600  0.985220  1.0
  C  C8730  1  0.968400  0.748000  0.985220  1.0
  C  C8731  1  0.364933  0.446267  0.181447  1.0
  C  C8732  1  0.081333  0.635067  0.181447  1.0
  C  C8733  1  0.553733  0.918667  0.181447  1.0
  C  C8734  1  0.585333  0.887067  0.651887  1.0
  C  C8735  1  0.112933  0.698267  0.651887  1.0
  C  C8736  1  0.301733  0.414667  0.651887  1.0
  C  C8737  1  0.698267  0.112933  0.848113  1.0
  C  C8738  1  0.414667  0.301733  0.848113  1.0
  C  C8739  1  0.887067  0.585333  0.848113  1.0
  C  C8740  1  0.918667  0.553733  0.318553  1.0
  C  C8741  1  0.446267  0.364933  0.318553  1.0
  C  C8742  1  0.635067  0.081333  0.318553  1.0
  C  C8743  1  0.968400  0.220400  0.485220  1.0
  C  C8744  1  0.252000  0.031600  0.485220  1.0
  C  C8745  1  0.779600  0.748000  0.485220  1.0
  C  C8746  1  0.748000  0.779600  0.014780  1.0
  C  C8747  1  0.220400  0.968400  0.014780  1.0
  C  C8748  1  0.031600  0.252000  0.014780  1.0
  C  C8749  1  0.301733  0.887067  0.151887  1.0
  C  C8750  1  0.585333  0.698267  0.151887  1.0
  C  C8751  1  0.112933  0.414667  0.151887  1.0
  C  C8752  1  0.081333  0.446267  0.681447  1.0
  C  C8753  1  0.553733  0.635067  0.681447  1.0
  C  C8754  1  0.364933  0.918667  0.681447  1.0
  C  C8755  1  0.635067  0.553733  0.818553  1.0
  C  C8756  1  0.918667  0.364933  0.818553  1.0
  C  C8757  1  0.446267  0.081333  0.818553  1.0
  C  C8758  1  0.414667  0.112933  0.348113  1.0
  C  C8759  1  0.887067  0.301733  0.348113  1.0
  C  C8760  1  0.698267  0.585333  0.348113  1.0
  C  C8761  1  0.027000  0.812600  0.514810  1.0
  C  C8762  1  0.785600  0.973000  0.514810  1.0
  C  C8763  1  0.187400  0.214400  0.514810  1.0
  C  C8764  1  0.214400  0.187400  0.985190  1.0
  C  C8765  1  0.812600  0.027000  0.985190  1.0
  C  C8766  1  0.973000  0.785600  0.985190  1.0
  C  C8767  1  0.360333  0.479267  0.181477  1.0
  C  C8768  1  0.118933  0.639667  0.181477  1.0
  C  C8769  1  0.520733  0.881067  0.181477  1.0
  C  C8770  1  0.547733  0.854067  0.651857  1.0
  C  C8771  1  0.145933  0.693667  0.651857  1.0
  C  C8772  1  0.306333  0.452267  0.651857  1.0
  C  C8773  1  0.693667  0.145933  0.848143  1.0
  C  C8774  1  0.452267  0.306333  0.848143  1.0
  C  C8775  1  0.854067  0.547733  0.848143  1.0
  C  C8776  1  0.881067  0.520733  0.318523  1.0
  C  C8777  1  0.479267  0.360333  0.318523  1.0
  C  C8778  1  0.639667  0.118933  0.318523  1.0
  C  C8779  1  0.973000  0.187400  0.485190  1.0
  C  C8780  1  0.214400  0.027000  0.485190  1.0
  C  C8781  1  0.812600  0.785600  0.485190  1.0
  C  C8782  1  0.785600  0.812600  0.014810  1.0
  C  C8783  1  0.187400  0.973000  0.014810  1.0
  C  C8784  1  0.027000  0.214400  0.014810  1.0
  C  C8785  1  0.306333  0.854067  0.151857  1.0
  C  C8786  1  0.547733  0.693667  0.151857  1.0
  C  C8787  1  0.145933  0.452267  0.151857  1.0
  C  C8788  1  0.118933  0.479267  0.681477  1.0
  C  C8789  1  0.520733  0.639667  0.681477  1.0
  C  C8790  1  0.360333  0.881067  0.681477  1.0
  C  C8791  1  0.639667  0.520733  0.818523  1.0
  C  C8792  1  0.881067  0.360333  0.818523  1.0
  C  C8793  1  0.479267  0.118933  0.818523  1.0
  C  C8794  1  0.452267  0.145933  0.348143  1.0
  C  C8795  1  0.854067  0.306333  0.348143  1.0
  C  C8796  1  0.693667  0.547733  0.348143  1.0
  C  C8797  1  0.044400  0.840500  0.505840  1.0
  C  C8798  1  0.796100  0.955600  0.505840  1.0
  C  C8799  1  0.159500  0.203900  0.505840  1.0
  C  C8800  1  0.203900  0.159500  0.994160  1.0
  C  C8801  1  0.840500  0.044400  0.994160  1.0
  C  C8802  1  0.955600  0.796100  0.994160  1.0
  C  C8803  1  0.377733  0.507167  0.172507  1.0
  C  C8804  1  0.129433  0.622267  0.172507  1.0
  C  C8805  1  0.492833  0.870567  0.172507  1.0
  C  C8806  1  0.537233  0.826167  0.660827  1.0
  C  C8807  1  0.173833  0.711067  0.660827  1.0
  C  C8808  1  0.288933  0.462767  0.660827  1.0
  C  C8809  1  0.711067  0.173833  0.839173  1.0
  C  C8810  1  0.462767  0.288933  0.839173  1.0
  C  C8811  1  0.826167  0.537233  0.839173  1.0
  C  C8812  1  0.870567  0.492833  0.327493  1.0
  C  C8813  1  0.507167  0.377733  0.327493  1.0
  C  C8814  1  0.622267  0.129433  0.327493  1.0
  C  C8815  1  0.955600  0.159500  0.494160  1.0
  C  C8816  1  0.203900  0.044400  0.494160  1.0
  C  C8817  1  0.840500  0.796100  0.494160  1.0
  C  C8818  1  0.796100  0.840500  0.005840  1.0
  C  C8819  1  0.159500  0.955600  0.005840  1.0
  C  C8820  1  0.044400  0.203900  0.005840  1.0
  C  C8821  1  0.288933  0.826167  0.160827  1.0
  C  C8822  1  0.537233  0.711067  0.160827  1.0
  C  C8823  1  0.173833  0.462767  0.160827  1.0
  C  C8824  1  0.129433  0.507167  0.672507  1.0
  C  C8825  1  0.492833  0.622267  0.672507  1.0
  C  C8826  1  0.377733  0.870567  0.672507  1.0
  C  C8827  1  0.622267  0.492833  0.827493  1.0
  C  C8828  1  0.870567  0.377733  0.827493  1.0
  C  C8829  1  0.507167  0.129433  0.827493  1.0
  C  C8830  1  0.462767  0.173833  0.339173  1.0
  C  C8831  1  0.826167  0.288933  0.339173  1.0
  C  C8832  1  0.711067  0.537233  0.339173  1.0
  C  C8833  1  0.068800  0.836400  0.497510  1.0
  C  C8834  1  0.767600  0.931200  0.497510  1.0
  C  C8835  1  0.163600  0.232400  0.497510  1.0
  C  C8836  1  0.232400  0.163600  0.002490  1.0
  C  C8837  1  0.836400  0.068800  0.002490  1.0
  C  C8838  1  0.931200  0.767600  0.002490  1.0
  C  C8839  1  0.402133  0.503067  0.164177  1.0
  C  C8840  1  0.100933  0.597867  0.164177  1.0
  C  C8841  1  0.496933  0.899067  0.164177  1.0
  C  C8842  1  0.565733  0.830267  0.669157  1.0
  C  C8843  1  0.169733  0.735467  0.669157  1.0
  C  C8844  1  0.264533  0.434267  0.669157  1.0
  C  C8845  1  0.735467  0.169733  0.830843  1.0
  C  C8846  1  0.434267  0.264533  0.830843  1.0
  C  C8847  1  0.830267  0.565733  0.830843  1.0
  C  C8848  1  0.899067  0.496933  0.335823  1.0
  C  C8849  1  0.503067  0.402133  0.335823  1.0
  C  C8850  1  0.597867  0.100933  0.335823  1.0
  C  C8851  1  0.931200  0.163600  0.502490  1.0
  C  C8852  1  0.232400  0.068800  0.502490  1.0
  C  C8853  1  0.836400  0.767600  0.502490  1.0
  C  C8854  1  0.767600  0.836400  0.997510  1.0
  C  C8855  1  0.163600  0.931200  0.997510  1.0
  C  C8856  1  0.068800  0.232400  0.997510  1.0
  C  C8857  1  0.264533  0.830267  0.169157  1.0
  C  C8858  1  0.565733  0.735467  0.169157  1.0
  C  C8859  1  0.169733  0.434267  0.169157  1.0
  C  C8860  1  0.100933  0.503067  0.664177  1.0
  C  C8861  1  0.496933  0.597867  0.664177  1.0
  C  C8862  1  0.402133  0.899067  0.664177  1.0
  C  C8863  1  0.597867  0.496933  0.835823  1.0
  C  C8864  1  0.899067  0.402133  0.835823  1.0
  C  C8865  1  0.503067  0.100933  0.835823  1.0
  C  C8866  1  0.434267  0.169733  0.330843  1.0
  C  C8867  1  0.830267  0.264533  0.330843  1.0
  C  C8868  1  0.735467  0.565733  0.330843  1.0
  C  C8869  1  0.201900  0.470800  0.455300  1.0
  C  C8870  1  0.268900  0.798100  0.455300  1.0
  C  C8871  1  0.529200  0.731100  0.455300  1.0
  C  C8872  1  0.731100  0.529200  0.044700  1.0
  C  C8873  1  0.470800  0.201900  0.044700  1.0
  C  C8874  1  0.798100  0.268900  0.044700  1.0
  C  C8875  1  0.535233  0.137467  0.121967  1.0
  C  C8876  1  0.602233  0.464767  0.121967  1.0
  C  C8877  1  0.862533  0.397767  0.121967  1.0
  C  C8878  1  0.064433  0.195867  0.711367  1.0
  C  C8879  1  0.804133  0.868567  0.711367  1.0
  C  C8880  1  0.131433  0.935567  0.711367  1.0
  C  C8881  1  0.868567  0.804133  0.788633  1.0
  C  C8882  1  0.935567  0.131433  0.788633  1.0
  C  C8883  1  0.195867  0.064433  0.788633  1.0
  C  C8884  1  0.397767  0.862533  0.378033  1.0
  C  C8885  1  0.137467  0.535233  0.378033  1.0
  C  C8886  1  0.464767  0.602233  0.378033  1.0
  C  C8887  1  0.798100  0.529200  0.544700  1.0
  C  C8888  1  0.731100  0.201900  0.544700  1.0
  C  C8889  1  0.470800  0.268900  0.544700  1.0
  C  C8890  1  0.268900  0.470800  0.955300  1.0
  C  C8891  1  0.529200  0.798100  0.955300  1.0
  C  C8892  1  0.201900  0.731100  0.955300  1.0
  C  C8893  1  0.131433  0.195867  0.211367  1.0
  C  C8894  1  0.064433  0.868567  0.211367  1.0
  C  C8895  1  0.804133  0.935567  0.211367  1.0
  C  C8896  1  0.602233  0.137467  0.621967  1.0
  C  C8897  1  0.862533  0.464767  0.621967  1.0
  C  C8898  1  0.535233  0.397767  0.621967  1.0
  C  C8899  1  0.464767  0.862533  0.878033  1.0
  C  C8900  1  0.397767  0.535233  0.878033  1.0
  C  C8901  1  0.137467  0.602233  0.878033  1.0
  C  C8902  1  0.935567  0.804133  0.288633  1.0
  C  C8903  1  0.195867  0.131433  0.288633  1.0
  C  C8904  1  0.868567  0.064433  0.288633  1.0
  C  C8905  1  0.184500  0.523900  0.437900  1.0
  C  C8906  1  0.339400  0.815500  0.437900  1.0
  C  C8907  1  0.476100  0.660600  0.437900  1.0
  C  C8908  1  0.660600  0.476100  0.062100  1.0
  C  C8909  1  0.523900  0.184500  0.062100  1.0
  C  C8910  1  0.815500  0.339400  0.062100  1.0
  C  C8911  1  0.517833  0.190567  0.104567  1.0
  C  C8912  1  0.672733  0.482167  0.104567  1.0
  C  C8913  1  0.809433  0.327267  0.104567  1.0
  C  C8914  1  0.993933  0.142767  0.728767  1.0
  C  C8915  1  0.857233  0.851167  0.728767  1.0
  C  C8916  1  0.148833  0.006067  0.728767  1.0
  C  C8917  1  0.851167  0.857233  0.771233  1.0
  C  C8918  1  0.006067  0.148833  0.771233  1.0
  C  C8919  1  0.142767  0.993933  0.771233  1.0
  C  C8920  1  0.327267  0.809433  0.395433  1.0
  C  C8921  1  0.190567  0.517833  0.395433  1.0
  C  C8922  1  0.482167  0.672733  0.395433  1.0
  C  C8923  1  0.815500  0.476100  0.562100  1.0
  C  C8924  1  0.660600  0.184500  0.562100  1.0
  C  C8925  1  0.523900  0.339400  0.562100  1.0
  C  C8926  1  0.339400  0.523900  0.937900  1.0
  C  C8927  1  0.476100  0.815500  0.937900  1.0
  C  C8928  1  0.184500  0.660600  0.937900  1.0
  C  C8929  1  0.148833  0.142767  0.228767  1.0
  C  C8930  1  0.993933  0.851167  0.228767  1.0
  C  C8931  1  0.857233  0.006067  0.228767  1.0
  C  C8932  1  0.672733  0.190567  0.604567  1.0
  C  C8933  1  0.809433  0.482167  0.604567  1.0
  C  C8934  1  0.517833  0.327267  0.604567  1.0
  C  C8935  1  0.482167  0.809433  0.895433  1.0
  C  C8936  1  0.327267  0.517833  0.895433  1.0
  C  C8937  1  0.190567  0.672733  0.895433  1.0
  C  C8938  1  0.006067  0.857233  0.271233  1.0
  C  C8939  1  0.142767  0.148833  0.271233  1.0
  C  C8940  1  0.851167  0.993933  0.271233  1.0
  C  C8941  1  0.160700  0.644100  0.445260  1.0
  C  C8942  1  0.483400  0.839300  0.445260  1.0
  C  C8943  1  0.355900  0.516600  0.445260  1.0
  C  C8944  1  0.516600  0.355900  0.054740  1.0
  C  C8945  1  0.644100  0.160700  0.054740  1.0
  C  C8946  1  0.839300  0.483400  0.054740  1.0
  C  C8947  1  0.494033  0.310767  0.111927  1.0
  C  C8948  1  0.816733  0.505967  0.111927  1.0
  C  C8949  1  0.689233  0.183267  0.111927  1.0
  C  C8950  1  0.849933  0.022567  0.721407  1.0
  C  C8951  1  0.977433  0.827367  0.721407  1.0
  C  C8952  1  0.172633  0.150067  0.721407  1.0
  C  C8953  1  0.827367  0.977433  0.778593  1.0
  C  C8954  1  0.150067  0.172633  0.778593  1.0
  C  C8955  1  0.022567  0.849933  0.778593  1.0
  C  C8956  1  0.183267  0.689233  0.388073  1.0
  C  C8957  1  0.310767  0.494033  0.388073  1.0
  C  C8958  1  0.505967  0.816733  0.388073  1.0
  C  C8959  1  0.839300  0.355900  0.554740  1.0
  C  C8960  1  0.516600  0.160700  0.554740  1.0
  C  C8961  1  0.644100  0.483400  0.554740  1.0
  C  C8962  1  0.483400  0.644100  0.945260  1.0
  C  C8963  1  0.355900  0.839300  0.945260  1.0
  C  C8964  1  0.160700  0.516600  0.945260  1.0
  C  C8965  1  0.172633  0.022567  0.221407  1.0
  C  C8966  1  0.849933  0.827367  0.221407  1.0
  C  C8967  1  0.977433  0.150067  0.221407  1.0
  C  C8968  1  0.816733  0.310767  0.611927  1.0
  C  C8969  1  0.689233  0.505967  0.611927  1.0
  C  C8970  1  0.494033  0.183267  0.611927  1.0
  C  C8971  1  0.505967  0.689233  0.888073  1.0
  C  C8972  1  0.183267  0.494033  0.888073  1.0
  C  C8973  1  0.310767  0.816733  0.888073  1.0
  C  C8974  1  0.150067  0.977433  0.278593  1.0
  C  C8975  1  0.022567  0.172633  0.278593  1.0
  C  C8976  1  0.827367  0.849933  0.278593  1.0
  C  C8977  1  0.145800  0.682600  0.468300  1.0
  C  C8978  1  0.536800  0.854200  0.468300  1.0
  C  C8979  1  0.317400  0.463200  0.468300  1.0
  C  C8980  1  0.463200  0.317400  0.031700  1.0
  C  C8981  1  0.682600  0.145800  0.031700  1.0
  C  C8982  1  0.854200  0.536800  0.031700  1.0
  C  C8983  1  0.479133  0.349267  0.134967  1.0
  C  C8984  1  0.870133  0.520867  0.134967  1.0
  C  C8985  1  0.650733  0.129867  0.134967  1.0
  C  C8986  1  0.796533  0.984067  0.698367  1.0
  C  C8987  1  0.015933  0.812467  0.698367  1.0
  C  C8988  1  0.187533  0.203467  0.698367  1.0
  C  C8989  1  0.812467  0.015933  0.801633  1.0
  C  C8990  1  0.203467  0.187533  0.801633  1.0
  C  C8991  1  0.984067  0.796533  0.801633  1.0
  C  C8992  1  0.129867  0.650733  0.365033  1.0
  C  C8993  1  0.349267  0.479133  0.365033  1.0
  C  C8994  1  0.520867  0.870133  0.365033  1.0
  C  C8995  1  0.854200  0.317400  0.531700  1.0
  C  C8996  1  0.463200  0.145800  0.531700  1.0
  C  C8997  1  0.682600  0.536800  0.531700  1.0
  C  C8998  1  0.536800  0.682600  0.968300  1.0
  C  C8999  1  0.317400  0.854200  0.968300  1.0
  C  C9000  1  0.145800  0.463200  0.968300  1.0
  C  C9001  1  0.187533  0.984067  0.198367  1.0
  C  C9002  1  0.796533  0.812467  0.198367  1.0
  C  C9003  1  0.015933  0.203467  0.198367  1.0
  C  C9004  1  0.870133  0.349267  0.634967  1.0
  C  C9005  1  0.650733  0.520867  0.634967  1.0
  C  C9006  1  0.479133  0.129867  0.634967  1.0
  C  C9007  1  0.520867  0.650733  0.865033  1.0
  C  C9008  1  0.129867  0.479133  0.865033  1.0
  C  C9009  1  0.349267  0.870133  0.865033  1.0
  C  C9010  1  0.203467  0.015933  0.301633  1.0
  C  C9011  1  0.984067  0.187533  0.301633  1.0
  C  C9012  1  0.812467  0.796533  0.301633  1.0
  C  C9013  1  0.053300  0.602400  0.511810  1.0
  C  C9014  1  0.549100  0.946700  0.511810  1.0
  C  C9015  1  0.397600  0.450900  0.511810  1.0
  C  C9016  1  0.450900  0.397600  0.988190  1.0
  C  C9017  1  0.602400  0.053300  0.988190  1.0
  C  C9018  1  0.946700  0.549100  0.988190  1.0
  C  C9019  1  0.386633  0.269067  0.178477  1.0
  C  C9020  1  0.882433  0.613367  0.178477  1.0
  C  C9021  1  0.730933  0.117567  0.178477  1.0
  C  C9022  1  0.784233  0.064267  0.654857  1.0
  C  C9023  1  0.935733  0.719967  0.654857  1.0
  C  C9024  1  0.280033  0.215767  0.654857  1.0
  C  C9025  1  0.719967  0.935733  0.845143  1.0
  C  C9026  1  0.215767  0.280033  0.845143  1.0
  C  C9027  1  0.064267  0.784233  0.845143  1.0
  C  C9028  1  0.117567  0.730933  0.321523  1.0
  C  C9029  1  0.269067  0.386633  0.321523  1.0
  C  C9030  1  0.613367  0.882433  0.321523  1.0
  C  C9031  1  0.946700  0.397600  0.488190  1.0
  C  C9032  1  0.450900  0.053300  0.488190  1.0
  C  C9033  1  0.602400  0.549100  0.488190  1.0
  C  C9034  1  0.549100  0.602400  0.011810  1.0
  C  C9035  1  0.397600  0.946700  0.011810  1.0
  C  C9036  1  0.053300  0.450900  0.011810  1.0
  C  C9037  1  0.280033  0.064267  0.154857  1.0
  C  C9038  1  0.784233  0.719967  0.154857  1.0
  C  C9039  1  0.935733  0.215767  0.154857  1.0
  C  C9040  1  0.882433  0.269067  0.678477  1.0
  C  C9041  1  0.730933  0.613367  0.678477  1.0
  C  C9042  1  0.386633  0.117567  0.678477  1.0
  C  C9043  1  0.613367  0.730933  0.821523  1.0
  C  C9044  1  0.117567  0.386633  0.821523  1.0
  C  C9045  1  0.269067  0.882433  0.821523  1.0
  C  C9046  1  0.215767  0.935733  0.345143  1.0
  C  C9047  1  0.064267  0.280033  0.345143  1.0
  C  C9048  1  0.719967  0.784233  0.345143  1.0
  C  C9049  1  0.015500  0.514100  0.519460  1.0
  C  C9050  1  0.498600  0.984500  0.519460  1.0
  C  C9051  1  0.485900  0.501400  0.519460  1.0
  C  C9052  1  0.501400  0.485900  0.980540  1.0
  C  C9053  1  0.514100  0.015500  0.980540  1.0
  C  C9054  1  0.984500  0.498600  0.980540  1.0
  C  C9055  1  0.348833  0.180767  0.186127  1.0
  C  C9056  1  0.831933  0.651167  0.186127  1.0
  C  C9057  1  0.819233  0.168067  0.186127  1.0
  C  C9058  1  0.834733  0.152567  0.647207  1.0
  C  C9059  1  0.847433  0.682167  0.647207  1.0
  C  C9060  1  0.317833  0.165267  0.647207  1.0
  C  C9061  1  0.682167  0.847433  0.852793  1.0
  C  C9062  1  0.165267  0.317833  0.852793  1.0
  C  C9063  1  0.152567  0.834733  0.852793  1.0
  C  C9064  1  0.168067  0.819233  0.313873  1.0
  C  C9065  1  0.180767  0.348833  0.313873  1.0
  C  C9066  1  0.651167  0.831933  0.313873  1.0
  C  C9067  1  0.984500  0.485900  0.480540  1.0
  C  C9068  1  0.501400  0.015500  0.480540  1.0
  C  C9069  1  0.514100  0.498600  0.480540  1.0
  C  C9070  1  0.498600  0.514100  0.019460  1.0
  C  C9071  1  0.485900  0.984500  0.019460  1.0
  C  C9072  1  0.015500  0.501400  0.019460  1.0
  C  C9073  1  0.317833  0.152567  0.147207  1.0
  C  C9074  1  0.834733  0.682167  0.147207  1.0
  C  C9075  1  0.847433  0.165267  0.147207  1.0
  C  C9076  1  0.831933  0.180767  0.686127  1.0
  C  C9077  1  0.819233  0.651167  0.686127  1.0
  C  C9078  1  0.348833  0.168067  0.686127  1.0
  C  C9079  1  0.651167  0.819233  0.813873  1.0
  C  C9080  1  0.168067  0.348833  0.813873  1.0
  C  C9081  1  0.180767  0.831933  0.813873  1.0
  C  C9082  1  0.165267  0.847433  0.352793  1.0
  C  C9083  1  0.152567  0.317833  0.352793  1.0
  C  C9084  1  0.682167  0.834733  0.352793  1.0
  C  C9085  1  0.041700  0.522800  0.530960  1.0
  C  C9086  1  0.481100  0.958300  0.530960  1.0
  C  C9087  1  0.477200  0.518900  0.530960  1.0
  C  C9088  1  0.518900  0.477200  0.969040  1.0
  C  C9089  1  0.522800  0.041700  0.969040  1.0
  C  C9090  1  0.958300  0.481100  0.969040  1.0
  C  C9091  1  0.375033  0.189467  0.197627  1.0
  C  C9092  1  0.814433  0.624967  0.197627  1.0
  C  C9093  1  0.810533  0.185567  0.197627  1.0
  C  C9094  1  0.852233  0.143867  0.635707  1.0
  C  C9095  1  0.856133  0.708367  0.635707  1.0
  C  C9096  1  0.291633  0.147767  0.635707  1.0
  C  C9097  1  0.708367  0.856133  0.864293  1.0
  C  C9098  1  0.147767  0.291633  0.864293  1.0
  C  C9099  1  0.143867  0.852233  0.864293  1.0
  C  C9100  1  0.185567  0.810533  0.302373  1.0
  C  C9101  1  0.189467  0.375033  0.302373  1.0
  C  C9102  1  0.624967  0.814433  0.302373  1.0
  C  C9103  1  0.958300  0.477200  0.469040  1.0
  C  C9104  1  0.518900  0.041700  0.469040  1.0
  C  C9105  1  0.522800  0.481100  0.469040  1.0
  C  C9106  1  0.481100  0.522800  0.030960  1.0
  C  C9107  1  0.477200  0.958300  0.030960  1.0
  C  C9108  1  0.041700  0.518900  0.030960  1.0
  C  C9109  1  0.291633  0.143867  0.135707  1.0
  C  C9110  1  0.852233  0.708367  0.135707  1.0
  C  C9111  1  0.856133  0.147767  0.135707  1.0
  C  C9112  1  0.814433  0.189467  0.697627  1.0
  C  C9113  1  0.810533  0.624967  0.697627  1.0
  C  C9114  1  0.375033  0.185567  0.697627  1.0
  C  C9115  1  0.624967  0.810533  0.802373  1.0
  C  C9116  1  0.185567  0.375033  0.802373  1.0
  C  C9117  1  0.189467  0.814433  0.802373  1.0
  C  C9118  1  0.147767  0.856133  0.364293  1.0
  C  C9119  1  0.143867  0.291633  0.364293  1.0
  C  C9120  1  0.708367  0.852233  0.364293  1.0
  C  C9121  1  0.046100  0.395900  0.510300  1.0
  C  C9122  1  0.349800  0.953900  0.510300  1.0
  C  C9123  1  0.604100  0.650200  0.510300  1.0
  C  C9124  1  0.650200  0.604100  0.989700  1.0
  C  C9125  1  0.395900  0.046100  0.989700  1.0
  C  C9126  1  0.953900  0.349800  0.989700  1.0
  C  C9127  1  0.379433  0.062567  0.176967  1.0
  C  C9128  1  0.683133  0.620567  0.176967  1.0
  C  C9129  1  0.937433  0.316867  0.176967  1.0
  C  C9130  1  0.983533  0.270767  0.656367  1.0
  C  C9131  1  0.729233  0.712767  0.656367  1.0
  C  C9132  1  0.287233  0.016467  0.656367  1.0
  C  C9133  1  0.712767  0.729233  0.843633  1.0
  C  C9134  1  0.016467  0.287233  0.843633  1.0
  C  C9135  1  0.270767  0.983533  0.843633  1.0
  C  C9136  1  0.316867  0.937433  0.323033  1.0
  C  C9137  1  0.062567  0.379433  0.323033  1.0
  C  C9138  1  0.620567  0.683133  0.323033  1.0
  C  C9139  1  0.953900  0.604100  0.489700  1.0
  C  C9140  1  0.650200  0.046100  0.489700  1.0
  C  C9141  1  0.395900  0.349800  0.489700  1.0
  C  C9142  1  0.349800  0.395900  0.010300  1.0
  C  C9143  1  0.604100  0.953900  0.010300  1.0
  C  C9144  1  0.046100  0.650200  0.010300  1.0
  C  C9145  1  0.287233  0.270767  0.156367  1.0
  C  C9146  1  0.983533  0.712767  0.156367  1.0
  C  C9147  1  0.729233  0.016467  0.156367  1.0
  C  C9148  1  0.683133  0.062567  0.676967  1.0
  C  C9149  1  0.937433  0.620567  0.676967  1.0
  C  C9150  1  0.379433  0.316867  0.676967  1.0
  C  C9151  1  0.620567  0.937433  0.823033  1.0
  C  C9152  1  0.316867  0.379433  0.823033  1.0
  C  C9153  1  0.062567  0.683133  0.823033  1.0
  C  C9154  1  0.016467  0.729233  0.343633  1.0
  C  C9155  1  0.270767  0.287233  0.343633  1.0
  C  C9156  1  0.712767  0.983533  0.343633  1.0
  C  C9157  1  0.061000  0.411500  0.523400  1.0
  C  C9158  1  0.350500  0.939000  0.523400  1.0
  C  C9159  1  0.588500  0.649500  0.523400  1.0
  C  C9160  1  0.649500  0.588500  0.976600  1.0
  C  C9161  1  0.411500  0.061000  0.976600  1.0
  C  C9162  1  0.939000  0.350500  0.976600  1.0
  C  C9163  1  0.394333  0.078167  0.190067  1.0
  C  C9164  1  0.683833  0.605667  0.190067  1.0
  C  C9165  1  0.921833  0.316167  0.190067  1.0
  C  C9166  1  0.982833  0.255167  0.643267  1.0
  C  C9167  1  0.744833  0.727667  0.643267  1.0
  C  C9168  1  0.272333  0.017167  0.643267  1.0
  C  C9169  1  0.727667  0.744833  0.856733  1.0
  C  C9170  1  0.017167  0.272333  0.856733  1.0
  C  C9171  1  0.255167  0.982833  0.856733  1.0
  C  C9172  1  0.316167  0.921833  0.309933  1.0
  C  C9173  1  0.078167  0.394333  0.309933  1.0
  C  C9174  1  0.605667  0.683833  0.309933  1.0
  C  C9175  1  0.939000  0.588500  0.476600  1.0
  C  C9176  1  0.649500  0.061000  0.476600  1.0
  C  C9177  1  0.411500  0.350500  0.476600  1.0
  C  C9178  1  0.350500  0.411500  0.023400  1.0
  C  C9179  1  0.588500  0.939000  0.023400  1.0
  C  C9180  1  0.061000  0.649500  0.023400  1.0
  C  C9181  1  0.272333  0.255167  0.143267  1.0
  C  C9182  1  0.982833  0.727667  0.143267  1.0
  C  C9183  1  0.744833  0.017167  0.143267  1.0
  C  C9184  1  0.683833  0.078167  0.690067  1.0
  C  C9185  1  0.921833  0.605667  0.690067  1.0
  C  C9186  1  0.394333  0.316167  0.690067  1.0
  C  C9187  1  0.605667  0.921833  0.809933  1.0
  C  C9188  1  0.316167  0.394333  0.809933  1.0
  C  C9189  1  0.078167  0.683833  0.809933  1.0
  C  C9190  1  0.017167  0.744833  0.356733  1.0
  C  C9191  1  0.255167  0.272333  0.356733  1.0
  C  C9192  1  0.727667  0.982833  0.356733  1.0
  C  C9193  1  0.120100  0.395500  0.499400  1.0
  C  C9194  1  0.275400  0.879900  0.499400  1.0
  C  C9195  1  0.604500  0.724600  0.499400  1.0
  C  C9196  1  0.724600  0.604500  0.000600  1.0
  C  C9197  1  0.395500  0.120100  0.000600  1.0
  C  C9198  1  0.879900  0.275400  0.000600  1.0
  C  C9199  1  0.453433  0.062167  0.166067  1.0
  C  C9200  1  0.608733  0.546567  0.166067  1.0
  C  C9201  1  0.937833  0.391267  0.166067  1.0
  C  C9202  1  0.057933  0.271167  0.667267  1.0
  C  C9203  1  0.728833  0.786767  0.667267  1.0
  C  C9204  1  0.213233  0.942067  0.667267  1.0
  C  C9205  1  0.786767  0.728833  0.832733  1.0
  C  C9206  1  0.942067  0.213233  0.832733  1.0
  C  C9207  1  0.271167  0.057933  0.832733  1.0
  C  C9208  1  0.391267  0.937833  0.333933  1.0
  C  C9209  1  0.062167  0.453433  0.333933  1.0
  C  C9210  1  0.546567  0.608733  0.333933  1.0
  C  C9211  1  0.879900  0.604500  0.500600  1.0
  C  C9212  1  0.724600  0.120100  0.500600  1.0
  C  C9213  1  0.395500  0.275400  0.500600  1.0
  C  C9214  1  0.275400  0.395500  0.999400  1.0
  C  C9215  1  0.604500  0.879900  0.999400  1.0
  C  C9216  1  0.120100  0.724600  0.999400  1.0
  C  C9217  1  0.213233  0.271167  0.167267  1.0
  C  C9218  1  0.057933  0.786767  0.167267  1.0
  C  C9219  1  0.728833  0.942067  0.167267  1.0
  C  C9220  1  0.608733  0.062167  0.666067  1.0
  C  C9221  1  0.937833  0.546567  0.666067  1.0
  C  C9222  1  0.453433  0.391267  0.666067  1.0
  C  C9223  1  0.546567  0.937833  0.833933  1.0
  C  C9224  1  0.391267  0.453433  0.833933  1.0
  C  C9225  1  0.062167  0.608733  0.833933  1.0
  C  C9226  1  0.942067  0.728833  0.332733  1.0
  C  C9227  1  0.271167  0.213233  0.332733  1.0
  C  C9228  1  0.786767  0.057933  0.332733  1.0
  C  C9229  1  0.307200  0.564400  0.484030  0.3333
  C  C9230  1  0.257200  0.692800  0.484030  0.3333
  C  C9231  1  0.435600  0.742800  0.484030  0.3333
  C  C9232  1  0.742800  0.435600  0.015970  0.3333
  C  C9233  1  0.564400  0.307200  0.015970  0.3333
  C  C9234  1  0.692800  0.257200  0.015970  0.3333
  C  C9235  1  0.640533  0.231067  0.150697  0.3333
  C  C9236  1  0.590533  0.359467  0.150697  0.3333
  C  C9237  1  0.768933  0.409467  0.150697  0.3333
  C  C9238  1  0.076133  0.102267  0.682637  0.3333
  C  C9239  1  0.897733  0.973867  0.682637  0.3333
  C  C9240  1  0.026133  0.923867  0.682637  0.3333
  C  C9241  1  0.973867  0.897733  0.817363  0.3333
  C  C9242  1  0.923867  0.026133  0.817363  0.3333
  C  C9243  1  0.102267  0.076133  0.817363  0.3333
  C  C9244  1  0.409467  0.768933  0.349303  0.3333
  C  C9245  1  0.231067  0.640533  0.349303  0.3333
  C  C9246  1  0.359467  0.590533  0.349303  0.3333
  C  C9247  1  0.692800  0.435600  0.515970  0.3333
  C  C9248  1  0.742800  0.307200  0.515970  0.3333
  C  C9249  1  0.564400  0.257200  0.515970  0.3333
  C  C9250  1  0.257200  0.564400  0.984030  0.3333
  C  C9251  1  0.435600  0.692800  0.984030  0.3333
  C  C9252  1  0.307200  0.742800  0.984030  0.3333
  C  C9253  1  0.026133  0.102267  0.182637  0.3333
  C  C9254  1  0.076133  0.973867  0.182637  0.3333
  C  C9255  1  0.897733  0.923867  0.182637  0.3333
  C  C9256  1  0.590533  0.231067  0.650697  0.3333
  C  C9257  1  0.768933  0.359467  0.650697  0.3333
  C  C9258  1  0.640533  0.409467  0.650697  0.3333
  C  C9259  1  0.359467  0.768933  0.849303  0.3333
  C  C9260  1  0.409467  0.640533  0.849303  0.3333
  C  C9261  1  0.231067  0.590533  0.849303  0.3333
  C  C9262  1  0.923867  0.897733  0.317363  0.3333
  C  C9263  1  0.102267  0.026133  0.317363  0.3333
  C  C9264  1  0.973867  0.076133  0.317363  0.3333
  C  C9265  1  0.330300  0.576700  0.473290  0.3333
  C  C9266  1  0.246400  0.669700  0.473290  0.3333
  C  C9267  1  0.423300  0.753600  0.473290  0.3333
  C  C9268  1  0.753600  0.423300  0.026710  0.3333
  C  C9269  1  0.576700  0.330300  0.026710  0.3333
  C  C9270  1  0.669700  0.246400  0.026710  0.3333
  C  C9271  1  0.663633  0.243367  0.139957  0.3333
  C  C9272  1  0.579733  0.336367  0.139957  0.3333
  C  C9273  1  0.756633  0.420267  0.139957  0.3333
  C  C9274  1  0.086933  0.089967  0.693377  0.3333
  C  C9275  1  0.910033  0.996967  0.693377  0.3333
  C  C9276  1  0.003033  0.913067  0.693377  0.3333
  C  C9277  1  0.996967  0.910033  0.806623  0.3333
  C  C9278  1  0.913067  0.003033  0.806623  0.3333
  C  C9279  1  0.089967  0.086933  0.806623  0.3333
  C  C9280  1  0.420267  0.756633  0.360043  0.3333
  C  C9281  1  0.243367  0.663633  0.360043  0.3333
  C  C9282  1  0.336367  0.579733  0.360043  0.3333
  C  C9283  1  0.669700  0.423300  0.526710  0.3333
  C  C9284  1  0.753600  0.330300  0.526710  0.3333
  C  C9285  1  0.576700  0.246400  0.526710  0.3333
  C  C9286  1  0.246400  0.576700  0.973290  0.3333
  C  C9287  1  0.423300  0.669700  0.973290  0.3333
  C  C9288  1  0.330300  0.753600  0.973290  0.3333
  C  C9289  1  0.003033  0.089967  0.193377  0.3333
  C  C9290  1  0.086933  0.996967  0.193377  0.3333
  C  C9291  1  0.910033  0.913067  0.193377  0.3333
  C  C9292  1  0.579733  0.243367  0.639957  0.3333
  C  C9293  1  0.756633  0.336367  0.639957  0.3333
  C  C9294  1  0.663633  0.420267  0.639957  0.3333
  C  C9295  1  0.336367  0.756633  0.860043  0.3333
  C  C9296  1  0.420267  0.663633  0.860043  0.3333
  C  C9297  1  0.243367  0.579733  0.860043  0.3333
  C  C9298  1  0.913067  0.910033  0.306623  0.3333
  C  C9299  1  0.089967  0.003033  0.306623  0.3333
  C  C9300  1  0.996967  0.086933  0.306623  0.3333
  C  C9301  1  0.314900  0.584900  0.462430  0.3333
  C  C9302  1  0.270000  0.685100  0.462430  0.3333
  C  C9303  1  0.415100  0.730000  0.462430  0.3333
  C  C9304  1  0.730000  0.415100  0.037570  0.3333
  C  C9305  1  0.584900  0.314900  0.037570  0.3333
  C  C9306  1  0.685100  0.270000  0.037570  0.3333
  C  C9307  1  0.648233  0.251567  0.129097  0.3333
  C  C9308  1  0.603333  0.351767  0.129097  0.3333
  C  C9309  1  0.748433  0.396667  0.129097  0.3333
  C  C9310  1  0.063333  0.081767  0.704237  0.3333
  C  C9311  1  0.918233  0.981567  0.704237  0.3333
  C  C9312  1  0.018433  0.936667  0.704237  0.3333
  C  C9313  1  0.981567  0.918233  0.795763  0.3333
  C  C9314  1  0.936667  0.018433  0.795763  0.3333
  C  C9315  1  0.081767  0.063333  0.795763  0.3333
  C  C9316  1  0.396667  0.748433  0.370903  0.3333
  C  C9317  1  0.251567  0.648233  0.370903  0.3333
  C  C9318  1  0.351767  0.603333  0.370903  0.3333
  C  C9319  1  0.685100  0.415100  0.537570  0.3333
  C  C9320  1  0.730000  0.314900  0.537570  0.3333
  C  C9321  1  0.584900  0.270000  0.537570  0.3333
  C  C9322  1  0.270000  0.584900  0.962430  0.3333
  C  C9323  1  0.415100  0.685100  0.962430  0.3333
  C  C9324  1  0.314900  0.730000  0.962430  0.3333
  C  C9325  1  0.018433  0.081767  0.204237  0.3333
  C  C9326  1  0.063333  0.981567  0.204237  0.3333
  C  C9327  1  0.918233  0.936667  0.204237  0.3333
  C  C9328  1  0.603333  0.251567  0.629097  0.3333
  C  C9329  1  0.748433  0.351767  0.629097  0.3333
  C  C9330  1  0.648233  0.396667  0.629097  0.3333
  C  C9331  1  0.351767  0.748433  0.870903  0.3333
  C  C9332  1  0.396667  0.648233  0.870903  0.3333
  C  C9333  1  0.251567  0.603333  0.870903  0.3333
  C  C9334  1  0.936667  0.918233  0.295763  0.3333
  C  C9335  1  0.081767  0.018433  0.295763  0.3333
  C  C9336  1  0.981567  0.063333  0.295763  0.3333
  C  C9337  1  0.276600  0.580500  0.462770  0.3333
  C  C9338  1  0.303900  0.723400  0.462770  0.3333
  C  C9339  1  0.419500  0.696100  0.462770  0.3333
  C  C9340  1  0.696100  0.419500  0.037230  0.3333
  C  C9341  1  0.580500  0.276600  0.037230  0.3333
  C  C9342  1  0.723400  0.303900  0.037230  0.3333
  C  C9343  1  0.609933  0.247167  0.129437  0.3333
  C  C9344  1  0.637233  0.390067  0.129437  0.3333
  C  C9345  1  0.752833  0.362767  0.129437  0.3333
  C  C9346  1  0.029433  0.086167  0.703897  0.3333
  C  C9347  1  0.913833  0.943267  0.703897  0.3333
  C  C9348  1  0.056733  0.970567  0.703897  0.3333
  C  C9349  1  0.943267  0.913833  0.796103  0.3333
  C  C9350  1  0.970567  0.056733  0.796103  0.3333
  C  C9351  1  0.086167  0.029433  0.796103  0.3333
  C  C9352  1  0.362767  0.752833  0.370563  0.3333
  C  C9353  1  0.247167  0.609933  0.370563  0.3333
  C  C9354  1  0.390067  0.637233  0.370563  0.3333
  C  C9355  1  0.723400  0.419500  0.537230  0.3333
  C  C9356  1  0.696100  0.276600  0.537230  0.3333
  C  C9357  1  0.580500  0.303900  0.537230  0.3333
  C  C9358  1  0.303900  0.580500  0.962770  0.3333
  C  C9359  1  0.419500  0.723400  0.962770  0.3333
  C  C9360  1  0.276600  0.696100  0.962770  0.3333
  C  C9361  1  0.056733  0.086167  0.203897  0.3333
  C  C9362  1  0.029433  0.943267  0.203897  0.3333
  C  C9363  1  0.913833  0.970567  0.203897  0.3333
  C  C9364  1  0.637233  0.247167  0.629437  0.3333
  C  C9365  1  0.752833  0.390067  0.629437  0.3333
  C  C9366  1  0.609933  0.362767  0.629437  0.3333
  C  C9367  1  0.390067  0.752833  0.870563  0.3333
  C  C9368  1  0.362767  0.609933  0.870563  0.3333
  C  C9369  1  0.247167  0.637233  0.870563  0.3333
  C  C9370  1  0.970567  0.913833  0.296103  0.3333
  C  C9371  1  0.086167  0.056733  0.296103  0.3333
  C  C9372  1  0.943267  0.029433  0.296103  0.3333
  C  C9373  1  0.253300  0.568500  0.473950  0.3333
  C  C9374  1  0.315200  0.746700  0.473950  0.3333
  C  C9375  1  0.431500  0.684800  0.473950  0.3333
  C  C9376  1  0.684800  0.431500  0.026050  0.3333
  C  C9377  1  0.568500  0.253300  0.026050  0.3333
  C  C9378  1  0.746700  0.315200  0.026050  0.3333
  C  C9379  1  0.586633  0.235167  0.140617  0.3333
  C  C9380  1  0.648533  0.413367  0.140617  0.3333
  C  C9381  1  0.764833  0.351467  0.140617  0.3333
  C  C9382  1  0.018133  0.098167  0.692717  0.3333
  C  C9383  1  0.901833  0.919967  0.692717  0.3333
  C  C9384  1  0.080033  0.981867  0.692717  0.3333
  C  C9385  1  0.919967  0.901833  0.807283  0.3333
  C  C9386  1  0.981867  0.080033  0.807283  0.3333
  C  C9387  1  0.098167  0.018133  0.807283  0.3333
  C  C9388  1  0.351467  0.764833  0.359383  0.3333
  C  C9389  1  0.235167  0.586633  0.359383  0.3333
  C  C9390  1  0.413367  0.648533  0.359383  0.3333
  C  C9391  1  0.746700  0.431500  0.526050  0.3333
  C  C9392  1  0.684800  0.253300  0.526050  0.3333
  C  C9393  1  0.568500  0.315200  0.526050  0.3333
  C  C9394  1  0.315200  0.568500  0.973950  0.3333
  C  C9395  1  0.431500  0.746700  0.973950  0.3333
  C  C9396  1  0.253300  0.684800  0.973950  0.3333
  C  C9397  1  0.080033  0.098167  0.192717  0.3333
  C  C9398  1  0.018133  0.919967  0.192717  0.3333
  C  C9399  1  0.901833  0.981867  0.192717  0.3333
  C  C9400  1  0.648533  0.235167  0.640617  0.3333
  C  C9401  1  0.764833  0.413367  0.640617  0.3333
  C  C9402  1  0.586633  0.351467  0.640617  0.3333
  C  C9403  1  0.413367  0.764833  0.859383  0.3333
  C  C9404  1  0.351467  0.586633  0.859383  0.3333
  C  C9405  1  0.235167  0.648533  0.859383  0.3333
  C  C9406  1  0.981867  0.901833  0.307283  0.3333
  C  C9407  1  0.098167  0.080033  0.307283  0.3333
  C  C9408  1  0.919967  0.018133  0.307283  0.3333
  C  C9409  1  0.268500  0.561300  0.484120  0.3333
  C  C9410  1  0.292800  0.731500  0.484120  0.3333
  C  C9411  1  0.438700  0.707200  0.484120  0.3333
  C  C9412  1  0.707200  0.438700  0.015880  0.3333
  C  C9413  1  0.561300  0.268500  0.015880  0.3333
  C  C9414  1  0.731500  0.292800  0.015880  0.3333
  C  C9415  1  0.601833  0.227967  0.150787  0.3333
  C  C9416  1  0.626133  0.398167  0.150787  0.3333
  C  C9417  1  0.772033  0.373867  0.150787  0.3333
  C  C9418  1  0.040533  0.105367  0.682547  0.3333
  C  C9419  1  0.894633  0.935167  0.682547  0.3333
  C  C9420  1  0.064833  0.959467  0.682547  0.3333
  C  C9421  1  0.935167  0.894633  0.817453  0.3333
  C  C9422  1  0.959467  0.064833  0.817453  0.3333
  C  C9423  1  0.105367  0.040533  0.817453  0.3333
  C  C9424  1  0.373867  0.772033  0.349213  0.3333
  C  C9425  1  0.227967  0.601833  0.349213  0.3333
  C  C9426  1  0.398167  0.626133  0.349213  0.3333
  C  C9427  1  0.731500  0.438700  0.515880  0.3333
  C  C9428  1  0.707200  0.268500  0.515880  0.3333
  C  C9429  1  0.561300  0.292800  0.515880  0.3333
  C  C9430  1  0.292800  0.561300  0.984120  0.3333
  C  C9431  1  0.438700  0.731500  0.984120  0.3333
  C  C9432  1  0.268500  0.707200  0.984120  0.3333
  C  C9433  1  0.064833  0.105367  0.182547  0.3333
  C  C9434  1  0.040533  0.935167  0.182547  0.3333
  C  C9435  1  0.894633  0.959467  0.182547  0.3333
  C  C9436  1  0.626133  0.227967  0.650787  0.3333
  C  C9437  1  0.772033  0.398167  0.650787  0.3333
  C  C9438  1  0.601833  0.373867  0.650787  0.3333
  C  C9439  1  0.398167  0.772033  0.849213  0.3333
  C  C9440  1  0.373867  0.601833  0.849213  0.3333
  C  C9441  1  0.227967  0.626133  0.849213  0.3333
  C  C9442  1  0.959467  0.894633  0.317453  0.3333
  C  C9443  1  0.105367  0.064833  0.317453  0.3333
  C  C9444  1  0.935167  0.040533  0.317453  0.3333
  C  C9445  1  0.386600  0.751200  0.499520  0.3333
  C  C9446  1  0.364600  0.613400  0.499520  0.3333
  C  C9447  1  0.248800  0.635400  0.499520  0.3333
  C  C9448  1  0.635400  0.248800  0.000480  0.3333
  C  C9449  1  0.751200  0.386600  0.000480  0.3333
  C  C9450  1  0.613400  0.364600  0.000480  0.3333
  C  C9451  1  0.719933  0.417867  0.166187  0.3333
  C  C9452  1  0.697933  0.280067  0.166187  0.3333
  C  C9453  1  0.582133  0.302067  0.166187  0.3333
  C  C9454  1  0.968733  0.915467  0.667147  0.3333
  C  C9455  1  0.084533  0.053267  0.667147  0.3333
  C  C9456  1  0.946733  0.031267  0.667147  0.3333
  C  C9457  1  0.053267  0.084533  0.832853  0.3333
  C  C9458  1  0.031267  0.946733  0.832853  0.3333
  C  C9459  1  0.915467  0.968733  0.832853  0.3333
  C  C9460  1  0.302067  0.582133  0.333813  0.3333
  C  C9461  1  0.417867  0.719933  0.333813  0.3333
  C  C9462  1  0.280067  0.697933  0.333813  0.3333
  C  C9463  1  0.613400  0.248800  0.500480  0.3333
  C  C9464  1  0.635400  0.386600  0.500480  0.3333
  C  C9465  1  0.751200  0.364600  0.500480  0.3333
  C  C9466  1  0.364600  0.751200  0.999520  0.3333
  C  C9467  1  0.248800  0.613400  0.999520  0.3333
  C  C9468  1  0.386600  0.635400  0.999520  0.3333
  C  C9469  1  0.946733  0.915467  0.167147  0.3333
  C  C9470  1  0.968733  0.053267  0.167147  0.3333
  C  C9471  1  0.084533  0.031267  0.167147  0.3333
  C  C9472  1  0.697933  0.417867  0.666187  0.3333
  C  C9473  1  0.582133  0.280067  0.666187  0.3333
  C  C9474  1  0.719933  0.302067  0.666187  0.3333
  C  C9475  1  0.280067  0.582133  0.833813  0.3333
  C  C9476  1  0.302067  0.719933  0.833813  0.3333
  C  C9477  1  0.417867  0.697933  0.833813  0.3333
  C  C9478  1  0.031267  0.084533  0.332853  0.3333
  C  C9479  1  0.915467  0.946733  0.332853  0.3333
  C  C9480  1  0.053267  0.968733  0.332853  0.3333
  C  C9481  1  0.409900  0.762500  0.488980  0.3333
  C  C9482  1  0.352600  0.590100  0.488980  0.3333
  C  C9483  1  0.237500  0.647400  0.488980  0.3333
  C  C9484  1  0.647400  0.237500  0.011020  0.3333
  C  C9485  1  0.762500  0.409900  0.011020  0.3333
  C  C9486  1  0.590100  0.352600  0.011020  0.3333
  C  C9487  1  0.743233  0.429167  0.155647  0.3333
  C  C9488  1  0.685933  0.256767  0.155647  0.3333
  C  C9489  1  0.570833  0.314067  0.155647  0.3333
  C  C9490  1  0.980733  0.904167  0.677687  0.3333
  C  C9491  1  0.095833  0.076567  0.677687  0.3333
  C  C9492  1  0.923433  0.019267  0.677687  0.3333
  C  C9493  1  0.076567  0.095833  0.822313  0.3333
  C  C9494  1  0.019267  0.923433  0.822313  0.3333
  C  C9495  1  0.904167  0.980733  0.822313  0.3333
  C  C9496  1  0.314067  0.570833  0.344353  0.3333
  C  C9497  1  0.429167  0.743233  0.344353  0.3333
  C  C9498  1  0.256767  0.685933  0.344353  0.3333
  C  C9499  1  0.590100  0.237500  0.511020  0.3333
  C  C9500  1  0.647400  0.409900  0.511020  0.3333
  C  C9501  1  0.762500  0.352600  0.511020  0.3333
  C  C9502  1  0.352600  0.762500  0.988980  0.3333
  C  C9503  1  0.237500  0.590100  0.988980  0.3333
  C  C9504  1  0.409900  0.647400  0.988980  0.3333
  C  C9505  1  0.923433  0.904167  0.177687  0.3333
  C  C9506  1  0.980733  0.076567  0.177687  0.3333
  C  C9507  1  0.095833  0.019267  0.177687  0.3333
  C  C9508  1  0.685933  0.429167  0.655647  0.3333
  C  C9509  1  0.570833  0.256767  0.655647  0.3333
  C  C9510  1  0.743233  0.314067  0.655647  0.3333
  C  C9511  1  0.256767  0.570833  0.844353  0.3333
  C  C9512  1  0.314067  0.743233  0.844353  0.3333
  C  C9513  1  0.429167  0.685933  0.844353  0.3333
  C  C9514  1  0.019267  0.095833  0.322313  0.3333
  C  C9515  1  0.904167  0.923433  0.322313  0.3333
  C  C9516  1  0.076567  0.980733  0.322313  0.3333
  C  C9517  1  0.394800  0.770500  0.478630  0.3333
  C  C9518  1  0.375700  0.605200  0.478630  0.3333
  C  C9519  1  0.229500  0.624300  0.478630  0.3333
  C  C9520  1  0.624300  0.229500  0.021370  0.3333
  C  C9521  1  0.770500  0.394800  0.021370  0.3333
  C  C9522  1  0.605200  0.375700  0.021370  0.3333
  C  C9523  1  0.728133  0.437167  0.145297  0.3333
  C  C9524  1  0.709033  0.271867  0.145297  0.3333
  C  C9525  1  0.562833  0.290967  0.145297  0.3333
  C  C9526  1  0.957633  0.896167  0.688037  0.3333
  C  C9527  1  0.103833  0.061467  0.688037  0.3333
  C  C9528  1  0.938533  0.042367  0.688037  0.3333
  C  C9529  1  0.061467  0.103833  0.811963  0.3333
  C  C9530  1  0.042367  0.938533  0.811963  0.3333
  C  C9531  1  0.896167  0.957633  0.811963  0.3333
  C  C9532  1  0.290967  0.562833  0.354703  0.3333
  C  C9533  1  0.437167  0.728133  0.354703  0.3333
  C  C9534  1  0.271867  0.709033  0.354703  0.3333
  C  C9535  1  0.605200  0.229500  0.521370  0.3333
  C  C9536  1  0.624300  0.394800  0.521370  0.3333
  C  C9537  1  0.770500  0.375700  0.521370  0.3333
  C  C9538  1  0.375700  0.770500  0.978630  0.3333
  C  C9539  1  0.229500  0.605200  0.978630  0.3333
  C  C9540  1  0.394800  0.624300  0.978630  0.3333
  C  C9541  1  0.938533  0.896167  0.188037  0.3333
  C  C9542  1  0.957633  0.061467  0.188037  0.3333
  C  C9543  1  0.103833  0.042367  0.188037  0.3333
  C  C9544  1  0.709033  0.437167  0.645297  0.3333
  C  C9545  1  0.562833  0.271867  0.645297  0.3333
  C  C9546  1  0.728133  0.290967  0.645297  0.3333
  C  C9547  1  0.271867  0.562833  0.854703  0.3333
  C  C9548  1  0.290967  0.728133  0.854703  0.3333
  C  C9549  1  0.437167  0.709033  0.854703  0.3333
  C  C9550  1  0.042367  0.103833  0.311963  0.3333
  C  C9551  1  0.896167  0.938533  0.311963  0.3333
  C  C9552  1  0.061467  0.957633  0.311963  0.3333
  C  C9553  1  0.355300  0.766500  0.478900  0.3333
  C  C9554  1  0.411200  0.644700  0.478900  0.3333
  C  C9555  1  0.233500  0.588800  0.478900  0.3333
  C  C9556  1  0.588800  0.233500  0.021100  0.3333
  C  C9557  1  0.766500  0.355300  0.021100  0.3333
  C  C9558  1  0.644700  0.411200  0.021100  0.3333
  C  C9559  1  0.688633  0.433167  0.145567  0.3333
  C  C9560  1  0.744533  0.311367  0.145567  0.3333
  C  C9561  1  0.566833  0.255467  0.145567  0.3333
  C  C9562  1  0.922133  0.900167  0.687767  0.3333
  C  C9563  1  0.099833  0.021967  0.687767  0.3333
  C  C9564  1  0.978033  0.077867  0.687767  0.3333
  C  C9565  1  0.021967  0.099833  0.812233  0.3333
  C  C9566  1  0.077867  0.978033  0.812233  0.3333
  C  C9567  1  0.900167  0.922133  0.812233  0.3333
  C  C9568  1  0.255467  0.566833  0.354433  0.3333
  C  C9569  1  0.433167  0.688633  0.354433  0.3333
  C  C9570  1  0.311367  0.744533  0.354433  0.3333
  C  C9571  1  0.644700  0.233500  0.521100  0.3333
  C  C9572  1  0.588800  0.355300  0.521100  0.3333
  C  C9573  1  0.766500  0.411200  0.521100  0.3333
  C  C9574  1  0.411200  0.766500  0.978900  0.3333
  C  C9575  1  0.233500  0.644700  0.978900  0.3333
  C  C9576  1  0.355300  0.588800  0.978900  0.3333
  C  C9577  1  0.978033  0.900167  0.187767  0.3333
  C  C9578  1  0.922133  0.021967  0.187767  0.3333
  C  C9579  1  0.099833  0.077867  0.187767  0.3333
  C  C9580  1  0.744533  0.433167  0.645567  0.3333
  C  C9581  1  0.566833  0.311367  0.645567  0.3333
  C  C9582  1  0.688633  0.255467  0.645567  0.3333
  C  C9583  1  0.311367  0.566833  0.854433  0.3333
  C  C9584  1  0.255467  0.688633  0.854433  0.3333
  C  C9585  1  0.433167  0.744533  0.854433  0.3333
  C  C9586  1  0.077867  0.099833  0.312233  0.3333
  C  C9587  1  0.900167  0.978033  0.312233  0.3333
  C  C9588  1  0.021967  0.922133  0.312233  0.3333
  C  C9589  1  0.332500  0.755200  0.489280  0.3333
  C  C9590  1  0.422700  0.667500  0.489280  0.3333
  C  C9591  1  0.244800  0.577300  0.489280  0.3333
  C  C9592  1  0.577300  0.244800  0.010720  0.3333
  C  C9593  1  0.755200  0.332500  0.010720  0.3333
  C  C9594  1  0.667500  0.422700  0.010720  0.3333
  C  C9595  1  0.665833  0.421867  0.155947  0.3333
  C  C9596  1  0.756033  0.334167  0.155947  0.3333
  C  C9597  1  0.578133  0.243967  0.155947  0.3333
  C  C9598  1  0.910633  0.911467  0.677387  0.3333
  C  C9599  1  0.088533  0.999167  0.677387  0.3333
  C  C9600  1  0.000833  0.089367  0.677387  0.3333
  C  C9601  1  0.999167  0.088533  0.822613  0.3333
  C  C9602  1  0.089367  0.000833  0.822613  0.3333
  C  C9603  1  0.911467  0.910633  0.822613  0.3333
  C  C9604  1  0.243967  0.578133  0.344053  0.3333
  C  C9605  1  0.421867  0.665833  0.344053  0.3333
  C  C9606  1  0.334167  0.756033  0.344053  0.3333
  C  C9607  1  0.667500  0.244800  0.510720  0.3333
  C  C9608  1  0.577300  0.332500  0.510720  0.3333
  C  C9609  1  0.755200  0.422700  0.510720  0.3333
  C  C9610  1  0.422700  0.755200  0.989280  0.3333
  C  C9611  1  0.244800  0.667500  0.989280  0.3333
  C  C9612  1  0.332500  0.577300  0.989280  0.3333
  C  C9613  1  0.000833  0.911467  0.177387  0.3333
  C  C9614  1  0.910633  0.999167  0.177387  0.3333
  C  C9615  1  0.088533  0.089367  0.177387  0.3333
  C  C9616  1  0.756033  0.421867  0.655947  0.3333
  C  C9617  1  0.578133  0.334167  0.655947  0.3333
  C  C9618  1  0.665833  0.243967  0.655947  0.3333
  C  C9619  1  0.334167  0.578133  0.844053  0.3333
  C  C9620  1  0.243967  0.665833  0.844053  0.3333
  C  C9621  1  0.421867  0.756033  0.844053  0.3333
  C  C9622  1  0.089367  0.088533  0.322613  0.3333
  C  C9623  1  0.911467  0.000833  0.322613  0.3333
  C  C9624  1  0.999167  0.910633  0.322613  0.3333
  C  C9625  1  0.349100  0.747400  0.500020  0.3333
  C  C9626  1  0.398300  0.650900  0.500020  0.3333
  C  C9627  1  0.252600  0.601700  0.500020  0.3333
  C  C9628  1  0.601700  0.252600  0.999980  0.3333
  C  C9629  1  0.747400  0.349100  0.999980  0.3333
  C  C9630  1  0.650900  0.398300  0.999980  0.3333
  C  C9631  1  0.682433  0.414067  0.166687  0.3333
  C  C9632  1  0.731633  0.317567  0.166687  0.3333
  C  C9633  1  0.585933  0.268367  0.166687  0.3333
  C  C9634  1  0.935033  0.919267  0.666647  0.3333
  C  C9635  1  0.080733  0.015767  0.666647  0.3333
  C  C9636  1  0.984233  0.064967  0.666647  0.3333
  C  C9637  1  0.015767  0.080733  0.833353  0.3333
  C  C9638  1  0.064967  0.984233  0.833353  0.3333
  C  C9639  1  0.919267  0.935033  0.833353  0.3333
  C  C9640  1  0.268367  0.585933  0.333313  0.3333
  C  C9641  1  0.414067  0.682433  0.333313  0.3333
  C  C9642  1  0.317567  0.731633  0.333313  0.3333
  C  C9643  1  0.650900  0.252600  0.499980  0.3333
  C  C9644  1  0.601700  0.349100  0.499980  0.3333
  C  C9645  1  0.747400  0.398300  0.499980  0.3333
  C  C9646  1  0.398300  0.747400  0.000020  0.3333
  C  C9647  1  0.252600  0.650900  0.000020  0.3333
  C  C9648  1  0.349100  0.601700  0.000020  0.3333
  C  C9649  1  0.984233  0.919267  0.166647  0.3333
  C  C9650  1  0.935033  0.015767  0.166647  0.3333
  C  C9651  1  0.080733  0.064967  0.166647  0.3333
  C  C9652  1  0.731633  0.414067  0.666687  0.3333
  C  C9653  1  0.585933  0.317567  0.666687  0.3333
  C  C9654  1  0.682433  0.268367  0.666687  0.3333
  C  C9655  1  0.317567  0.585933  0.833313  0.3333
  C  C9656  1  0.268367  0.682433  0.833313  0.3333
  C  C9657  1  0.414067  0.731633  0.833313  0.3333
  C  C9658  1  0.064967  0.080733  0.333353  0.3333
  C  C9659  1  0.919267  0.984233  0.333353  0.3333
  C  C9660  1  0.015767  0.935033  0.333353  0.3333
  C  C9661  1  0.301200  0.642600  0.450890  0.3333
  C  C9662  1  0.341400  0.698800  0.450890  0.3333
  C  C9663  1  0.357400  0.658600  0.450890  0.3333
  C  C9664  1  0.658600  0.357400  0.049110  0.3333
  C  C9665  1  0.642600  0.301200  0.049110  0.3333
  C  C9666  1  0.698800  0.341400  0.049110  0.3333
  C  C9667  1  0.634533  0.309267  0.117557  0.3333
  C  C9668  1  0.674733  0.365467  0.117557  0.3333
  C  C9669  1  0.690733  0.325267  0.117557  0.3333
  C  C9670  1  0.991933  0.024067  0.715777  0.3333
  C  C9671  1  0.975933  0.967867  0.715777  0.3333
  C  C9672  1  0.032133  0.008067  0.715777  0.3333
  C  C9673  1  0.967867  0.975933  0.784223  0.3333
  C  C9674  1  0.008067  0.032133  0.784223  0.3333
  C  C9675  1  0.024067  0.991933  0.784223  0.3333
  C  C9676  1  0.325267  0.690733  0.382443  0.3333
  C  C9677  1  0.309267  0.634533  0.382443  0.3333
  C  C9678  1  0.365467  0.674733  0.382443  0.3333
  C  C9679  1  0.698800  0.357400  0.549110  0.3333
  C  C9680  1  0.658600  0.301200  0.549110  0.3333
  C  C9681  1  0.642600  0.341400  0.549110  0.3333
  C  C9682  1  0.341400  0.642600  0.950890  0.3333
  C  C9683  1  0.357400  0.698800  0.950890  0.3333
  C  C9684  1  0.301200  0.658600  0.950890  0.3333
  C  C9685  1  0.032133  0.024067  0.215777  0.3333
  C  C9686  1  0.991933  0.967867  0.215777  0.3333
  C  C9687  1  0.975933  0.008067  0.215777  0.3333
  C  C9688  1  0.674733  0.309267  0.617557  0.3333
  C  C9689  1  0.690733  0.365467  0.617557  0.3333
  C  C9690  1  0.634533  0.325267  0.617557  0.3333
  C  C9691  1  0.365467  0.690733  0.882443  0.3333
  C  C9692  1  0.325267  0.634533  0.882443  0.3333
  C  C9693  1  0.309267  0.674733  0.882443  0.3333
  C  C9694  1  0.008067  0.975933  0.284223  0.3333
  C  C9695  1  0.024067  0.032133  0.284223  0.3333
  C  C9696  1  0.967867  0.991933  0.284223  0.3333
  C  C9697  1  0.290200  0.727100  0.488710  0.3333
  C  C9698  1  0.436900  0.709800  0.488710  0.3333
  C  C9699  1  0.272900  0.563100  0.488710  0.3333
  C  C9700  1  0.563100  0.272900  0.011290  0.3333
  C  C9701  1  0.727100  0.290200  0.011290  0.3333
  C  C9702  1  0.709800  0.436900  0.011290  0.3333
  C  C9703  1  0.623533  0.393767  0.155377  0.3333
  C  C9704  1  0.770233  0.376467  0.155377  0.3333
  C  C9705  1  0.606233  0.229767  0.155377  0.3333
  C  C9706  1  0.896433  0.939567  0.677957  0.3333
  C  C9707  1  0.060433  0.956867  0.677957  0.3333
  C  C9708  1  0.043133  0.103567  0.677957  0.3333
  C  C9709  1  0.956867  0.060433  0.822043  0.3333
  C  C9710  1  0.103567  0.043133  0.822043  0.3333
  C  C9711  1  0.939567  0.896433  0.822043  0.3333
  C  C9712  1  0.229767  0.606233  0.344623  0.3333
  C  C9713  1  0.393767  0.623533  0.344623  0.3333
  C  C9714  1  0.376467  0.770233  0.344623  0.3333
  C  C9715  1  0.709800  0.272900  0.511290  0.3333
  C  C9716  1  0.563100  0.290200  0.511290  0.3333
  C  C9717  1  0.727100  0.436900  0.511290  0.3333
  C  C9718  1  0.436900  0.727100  0.988710  0.3333
  C  C9719  1  0.272900  0.709800  0.988710  0.3333
  C  C9720  1  0.290200  0.563100  0.988710  0.3333
  C  C9721  1  0.043133  0.939567  0.177957  0.3333
  C  C9722  1  0.896433  0.956867  0.177957  0.3333
  C  C9723  1  0.060433  0.103567  0.177957  0.3333
  C  C9724  1  0.770233  0.393767  0.655377  0.3333
  C  C9725  1  0.606233  0.376467  0.655377  0.3333
  C  C9726  1  0.623533  0.229767  0.655377  0.3333
  C  C9727  1  0.376467  0.606233  0.844623  0.3333
  C  C9728  1  0.229767  0.623533  0.844623  0.3333
  C  C9729  1  0.393767  0.770233  0.844623  0.3333
  C  C9730  1  0.103567  0.060433  0.322043  0.3333
  C  C9731  1  0.939567  0.043133  0.322043  0.3333
  C  C9732  1  0.956867  0.896433  0.322043  0.3333
  C  C9733  1  0.243100  0.596000  0.496530  0.3333
  C  C9734  1  0.352900  0.756900  0.496530  0.3333
  C  C9735  1  0.404000  0.647100  0.496530  0.3333
  C  C9736  1  0.647100  0.404000  0.003470  0.3333
  C  C9737  1  0.596000  0.243100  0.003470  0.3333
  C  C9738  1  0.756900  0.352900  0.003470  0.3333
  C  C9739  1  0.576433  0.262667  0.163197  0.3333
  C  C9740  1  0.686233  0.423567  0.163197  0.3333
  C  C9741  1  0.737333  0.313767  0.163197  0.3333
  C  C9742  1  0.980433  0.070667  0.670137  0.3333
  C  C9743  1  0.929333  0.909767  0.670137  0.3333
  C  C9744  1  0.090233  0.019567  0.670137  0.3333
  C  C9745  1  0.909767  0.929333  0.829863  0.3333
  C  C9746  1  0.019567  0.090233  0.829863  0.3333
  C  C9747  1  0.070667  0.980433  0.829863  0.3333
  C  C9748  1  0.313767  0.737333  0.336803  0.3333
  C  C9749  1  0.262667  0.576433  0.336803  0.3333
  C  C9750  1  0.423567  0.686233  0.336803  0.3333
  C  C9751  1  0.756900  0.404000  0.503470  0.3333
  C  C9752  1  0.647100  0.243100  0.503470  0.3333
  C  C9753  1  0.596000  0.352900  0.503470  0.3333
  C  C9754  1  0.352900  0.596000  0.996530  0.3333
  C  C9755  1  0.404000  0.756900  0.996530  0.3333
  C  C9756  1  0.243100  0.647100  0.996530  0.3333
  C  C9757  1  0.090233  0.070667  0.170137  0.3333
  C  C9758  1  0.980433  0.909767  0.170137  0.3333
  C  C9759  1  0.929333  0.019567  0.170137  0.3333
  C  C9760  1  0.686233  0.262667  0.663197  0.3333
  C  C9761  1  0.737333  0.423567  0.663197  0.3333
  C  C9762  1  0.576433  0.313767  0.663197  0.3333
  C  C9763  1  0.423567  0.737333  0.836803  0.3333
  C  C9764  1  0.313767  0.576433  0.836803  0.3333
  C  C9765  1  0.262667  0.686233  0.836803  0.3333
  C  C9766  1  0.019567  0.929333  0.329863  0.3333
  C  C9767  1  0.070667  0.090233  0.329863  0.3333
  C  C9768  1  0.909767  0.980433  0.329863  0.3333
  C  C9769  1  0.382800  0.629900  0.463470  0.3333
  C  C9770  1  0.247100  0.617200  0.463470  0.3333
  C  C9771  1  0.370100  0.752900  0.463470  0.3333
  C  C9772  1  0.752900  0.370100  0.036530  0.3333
  C  C9773  1  0.629900  0.382800  0.036530  0.3333
  C  C9774  1  0.617200  0.247100  0.036530  0.3333
  C  C9775  1  0.716133  0.296567  0.130137  0.3333
  C  C9776  1  0.580433  0.283867  0.130137  0.3333
  C  C9777  1  0.703433  0.419567  0.130137  0.3333
  C  C9778  1  0.086233  0.036767  0.703197  0.3333
  C  C9779  1  0.963233  0.049467  0.703197  0.3333
  C  C9780  1  0.950533  0.913767  0.703197  0.3333
  C  C9781  1  0.049467  0.963233  0.796803  0.3333
  C  C9782  1  0.913767  0.950533  0.796803  0.3333
  C  C9783  1  0.036767  0.086233  0.796803  0.3333
  C  C9784  1  0.419567  0.703433  0.369863  0.3333
  C  C9785  1  0.296567  0.716133  0.369863  0.3333
  C  C9786  1  0.283867  0.580433  0.369863  0.3333
  C  C9787  1  0.617200  0.370100  0.536530  0.3333
  C  C9788  1  0.752900  0.382800  0.536530  0.3333
  C  C9789  1  0.629900  0.247100  0.536530  0.3333
  C  C9790  1  0.247100  0.629900  0.963470  0.3333
  C  C9791  1  0.370100  0.617200  0.963470  0.3333
  C  C9792  1  0.382800  0.752900  0.963470  0.3333
  C  C9793  1  0.950533  0.036767  0.203197  0.3333
  C  C9794  1  0.086233  0.049467  0.203197  0.3333
  C  C9795  1  0.963233  0.913767  0.203197  0.3333
  C  C9796  1  0.580433  0.296567  0.630137  0.3333
  C  C9797  1  0.703433  0.283867  0.630137  0.3333
  C  C9798  1  0.716133  0.419567  0.630137  0.3333
  C  C9799  1  0.283867  0.703433  0.869863  0.3333
  C  C9800  1  0.419567  0.716133  0.869863  0.3333
  C  C9801  1  0.296567  0.580433  0.869863  0.3333
  C  C9802  1  0.913767  0.963233  0.296803  0.3333
  C  C9803  1  0.036767  0.950533  0.296803  0.3333
  C  C9804  1  0.049467  0.086233  0.296803  0.3333
  C  C9805  1  0.372600  0.605200  0.473750  0.3333
  C  C9806  1  0.232600  0.627400  0.473750  0.3333
  C  C9807  1  0.394800  0.767400  0.473750  0.3333
  C  C9808  1  0.767400  0.394800  0.026250  0.3333
  C  C9809  1  0.605200  0.372600  0.026250  0.3333
  C  C9810  1  0.627400  0.232600  0.026250  0.3333
  C  C9811  1  0.705933  0.271867  0.140417  0.3333
  C  C9812  1  0.565933  0.294067  0.140417  0.3333
  C  C9813  1  0.728133  0.434067  0.140417  0.3333
  C  C9814  1  0.100733  0.061467  0.692917  0.3333
  C  C9815  1  0.938533  0.039267  0.692917  0.3333
  C  C9816  1  0.960733  0.899267  0.692917  0.3333
  C  C9817  1  0.039267  0.938533  0.807083  0.3333
  C  C9818  1  0.899267  0.960733  0.807083  0.3333
  C  C9819  1  0.061467  0.100733  0.807083  0.3333
  C  C9820  1  0.434067  0.728133  0.359583  0.3333
  C  C9821  1  0.271867  0.705933  0.359583  0.3333
  C  C9822  1  0.294067  0.565933  0.359583  0.3333
  C  C9823  1  0.627400  0.394800  0.526250  0.3333
  C  C9824  1  0.767400  0.372600  0.526250  0.3333
  C  C9825  1  0.605200  0.232600  0.526250  0.3333
  C  C9826  1  0.232600  0.605200  0.973750  0.3333
  C  C9827  1  0.394800  0.627400  0.973750  0.3333
  C  C9828  1  0.372600  0.767400  0.973750  0.3333
  C  C9829  1  0.960733  0.061467  0.192917  0.3333
  C  C9830  1  0.100733  0.039267  0.192917  0.3333
  C  C9831  1  0.938533  0.899267  0.192917  0.3333
  C  C9832  1  0.565933  0.271867  0.640417  0.3333
  C  C9833  1  0.728133  0.294067  0.640417  0.3333
  C  C9834  1  0.705933  0.434067  0.640417  0.3333
  C  C9835  1  0.294067  0.728133  0.859583  0.3333
  C  C9836  1  0.434067  0.705933  0.859583  0.3333
  C  C9837  1  0.271867  0.565933  0.859583  0.3333
  C  C9838  1  0.899267  0.938533  0.307083  0.3333
  C  C9839  1  0.061467  0.960733  0.307083  0.3333
  C  C9840  1  0.039267  0.100733  0.307083  0.3333
  C  C9841  1  0.419600  0.734300  0.465960  0.3333
  C  C9842  1  0.314700  0.580400  0.465960  0.3333
  C  C9843  1  0.265700  0.685300  0.465960  0.3333
  C  C9844  1  0.685300  0.265700  0.034040  0.3333
  C  C9845  1  0.734300  0.419600  0.034040  0.3333
  C  C9846  1  0.580400  0.314700  0.034040  0.3333
  C  C9847  1  0.752933  0.400967  0.132627  0.3333
  C  C9848  1  0.648033  0.247067  0.132627  0.3333
  C  C9849  1  0.599033  0.351967  0.132627  0.3333
  C  C9850  1  0.018633  0.932367  0.700707  0.3333
  C  C9851  1  0.067633  0.086267  0.700707  0.3333
  C  C9852  1  0.913733  0.981367  0.700707  0.3333
  C  C9853  1  0.086267  0.067633  0.799293  0.3333
  C  C9854  1  0.981367  0.913733  0.799293  0.3333
  C  C9855  1  0.932367  0.018633  0.799293  0.3333
  C  C9856  1  0.351967  0.599033  0.367373  0.3333
  C  C9857  1  0.400967  0.752933  0.367373  0.3333
  C  C9858  1  0.247067  0.648033  0.367373  0.3333
  C  C9859  1  0.580400  0.265700  0.534040  0.3333
  C  C9860  1  0.685300  0.419600  0.534040  0.3333
  C  C9861  1  0.734300  0.314700  0.534040  0.3333
  C  C9862  1  0.314700  0.734300  0.965960  0.3333
  C  C9863  1  0.265700  0.580400  0.965960  0.3333
  C  C9864  1  0.419600  0.685300  0.965960  0.3333
  C  C9865  1  0.913733  0.932367  0.200707  0.3333
  C  C9866  1  0.018633  0.086267  0.200707  0.3333
  C  C9867  1  0.067633  0.981367  0.200707  0.3333
  C  C9868  1  0.648033  0.400967  0.632627  0.3333
  C  C9869  1  0.599033  0.247067  0.632627  0.3333
  C  C9870  1  0.752933  0.351967  0.632627  0.3333
  C  C9871  1  0.247067  0.599033  0.867373  0.3333
  C  C9872  1  0.351967  0.752933  0.867373  0.3333
  C  C9873  1  0.400967  0.648033  0.867373  0.3333
  C  C9874  1  0.981367  0.067633  0.299293  0.3333
  C  C9875  1  0.932367  0.913733  0.299293  0.3333
  C  C9876  1  0.086267  0.018633  0.299293  0.3333
  C  C9877  1  0.382700  0.643300  0.503760  0.3333
  C  C9878  1  0.260600  0.617300  0.503760  0.3333
  C  C9879  1  0.356700  0.739400  0.503760  0.3333
  C  C9880  1  0.739400  0.356700  0.996240  0.3333
  C  C9881  1  0.643300  0.382700  0.996240  0.3333
  C  C9882  1  0.617300  0.260600  0.996240  0.3333
  C  C9883  1  0.716033  0.309967  0.170427  0.3333
  C  C9884  1  0.593933  0.283967  0.170427  0.3333
  C  C9885  1  0.690033  0.406067  0.170427  0.3333
  C  C9886  1  0.072733  0.023367  0.662907  0.3333
  C  C9887  1  0.976633  0.049367  0.662907  0.3333
  C  C9888  1  0.950633  0.927267  0.662907  0.3333
  C  C9889  1  0.049367  0.976633  0.837093  0.3333
  C  C9890  1  0.927267  0.950633  0.837093  0.3333
  C  C9891  1  0.023367  0.072733  0.837093  0.3333
  C  C9892  1  0.406067  0.690033  0.329573  0.3333
  C  C9893  1  0.309967  0.716033  0.329573  0.3333
  C  C9894  1  0.283967  0.593933  0.329573  0.3333
  C  C9895  1  0.617300  0.356700  0.496240  0.3333
  C  C9896  1  0.739400  0.382700  0.496240  0.3333
  C  C9897  1  0.643300  0.260600  0.496240  0.3333
  C  C9898  1  0.260600  0.643300  0.003760  0.3333
  C  C9899  1  0.356700  0.617300  0.003760  0.3333
  C  C9900  1  0.382700  0.739400  0.003760  0.3333
  C  C9901  1  0.950633  0.023367  0.162907  0.3333
  C  C9902  1  0.072733  0.049367  0.162907  0.3333
  C  C9903  1  0.976633  0.927267  0.162907  0.3333
  C  C9904  1  0.593933  0.309967  0.670427  0.3333
  C  C9905  1  0.690033  0.283967  0.670427  0.3333
  C  C9906  1  0.716033  0.406067  0.670427  0.3333
  C  C9907  1  0.283967  0.690033  0.829573  0.3333
  C  C9908  1  0.406067  0.716033  0.829573  0.3333
  C  C9909  1  0.309967  0.593933  0.829573  0.3333
  C  C9910  1  0.927267  0.976633  0.337093  0.3333
  C  C9911  1  0.023367  0.950633  0.337093  0.3333
  C  C9912  1  0.049367  0.072733  0.337093  0.3333
  C  C9913  1  0.430200  0.687200  0.475830  0.3333
  C  C9914  1  0.257000  0.569800  0.475830  0.3333
  C  C9915  1  0.312800  0.743000  0.475830  0.3333
  C  C9916  1  0.743000  0.312800  0.024170  0.3333
  C  C9917  1  0.687200  0.430200  0.024170  0.3333
  C  C9918  1  0.569800  0.257000  0.024170  0.3333
  C  C9919  1  0.763533  0.353867  0.142497  0.3333
  C  C9920  1  0.590333  0.236467  0.142497  0.3333
  C  C9921  1  0.646133  0.409667  0.142497  0.3333
  C  C9922  1  0.076333  0.979467  0.690837  0.3333
  C  C9923  1  0.020533  0.096867  0.690837  0.3333
  C  C9924  1  0.903133  0.923667  0.690837  0.3333
  C  C9925  1  0.096867  0.020533  0.809163  0.3333
  C  C9926  1  0.923667  0.903133  0.809163  0.3333
  C  C9927  1  0.979467  0.076333  0.809163  0.3333
  C  C9928  1  0.409667  0.646133  0.357503  0.3333
  C  C9929  1  0.353867  0.763533  0.357503  0.3333
  C  C9930  1  0.236467  0.590333  0.357503  0.3333
  C  C9931  1  0.569800  0.312800  0.524170  0.3333
  C  C9932  1  0.743000  0.430200  0.524170  0.3333
  C  C9933  1  0.687200  0.257000  0.524170  0.3333
  C  C9934  1  0.257000  0.687200  0.975830  0.3333
  C  C9935  1  0.312800  0.569800  0.975830  0.3333
  C  C9936  1  0.430200  0.743000  0.975830  0.3333
  C  C9937  1  0.903133  0.979467  0.190837  0.3333
  C  C9938  1  0.076333  0.096867  0.190837  0.3333
  C  C9939  1  0.020533  0.923667  0.190837  0.3333
  C  C9940  1  0.590333  0.353867  0.642497  0.3333
  C  C9941  1  0.646133  0.236467  0.642497  0.3333
  C  C9942  1  0.763533  0.409667  0.642497  0.3333
  C  C9943  1  0.236467  0.646133  0.857503  0.3333
  C  C9944  1  0.409667  0.763533  0.857503  0.3333
  C  C9945  1  0.353867  0.590333  0.857503  0.3333
  C  C9946  1  0.923667  0.020533  0.309163  0.3333
  C  C9947  1  0.979467  0.903133  0.309163  0.3333
  C  C9948  1  0.096867  0.076333  0.309163  0.3333
  C  C9949  1  0.299000  0.587900  0.502540  0.3333
  C  C9950  1  0.288900  0.701000  0.502540  0.3333
  C  C9951  1  0.412100  0.711100  0.502540  0.3333
  C  C9952  1  0.711100  0.412100  0.997460  0.3333
  C  C9953  1  0.587900  0.299000  0.997460  0.3333
  C  C9954  1  0.701000  0.288900  0.997460  0.3333
  C  C9955  1  0.632333  0.254567  0.169207  0.3333
  C  C9956  1  0.622233  0.367667  0.169207  0.3333
  C  C9957  1  0.745433  0.377767  0.169207  0.3333
  C  C9958  1  0.044433  0.078767  0.664127  0.3333
  C  C9959  1  0.921233  0.965667  0.664127  0.3333
  C  C9960  1  0.034333  0.955567  0.664127  0.3333
  C  C9961  1  0.965667  0.921233  0.835873  0.3333
  C  C9962  1  0.955567  0.034333  0.835873  0.3333
  C  C9963  1  0.078767  0.044433  0.835873  0.3333
  C  C9964  1  0.377767  0.745433  0.330793  0.3333
  C  C9965  1  0.254567  0.632333  0.330793  0.3333
  C  C9966  1  0.367667  0.622233  0.330793  0.3333
  C  C9967  1  0.701000  0.412100  0.497460  0.3333
  C  C9968  1  0.711100  0.299000  0.497460  0.3333
  C  C9969  1  0.587900  0.288900  0.497460  0.3333
  C  C9970  1  0.288900  0.587900  0.002540  0.3333
  C  C9971  1  0.412100  0.701000  0.002540  0.3333
  C  C9972  1  0.299000  0.711100  0.002540  0.3333
  C  C9973  1  0.034333  0.078767  0.164127  0.3333
  C  C9974  1  0.044433  0.965667  0.164127  0.3333
  C  C9975  1  0.921233  0.955567  0.164127  0.3333
  C  C9976  1  0.622233  0.254567  0.669207  0.3333
  C  C9977  1  0.745433  0.367667  0.669207  0.3333
  C  C9978  1  0.632333  0.377767  0.669207  0.3333
  C  C9979  1  0.367667  0.745433  0.830793  0.3333
  C  C9980  1  0.377767  0.632333  0.830793  0.3333
  C  C9981  1  0.254567  0.622233  0.830793  0.3333
  C  C9982  1  0.955567  0.921233  0.335873  0.3333
  C  C9983  1  0.078767  0.034333  0.335873  0.3333
  C  C9984  1  0.965667  0.044433  0.335873  0.3333
  C  C9985  1  0.280800  0.688400  0.458940  0.3333
  C  C9986  1  0.407600  0.719200  0.458940  0.3333
  C  C9987  1  0.311600  0.592400  0.458940  0.3333
  C  C9988  1  0.592400  0.311600  0.041060  0.3333
  C  C9989  1  0.688400  0.280800  0.041060  0.3333
  C  C9990  1  0.719200  0.407600  0.041060  0.3333
  C  C9991  1  0.614133  0.355067  0.125607  0.3333
  C  C9992  1  0.740933  0.385867  0.125607  0.3333
  C  C9993  1  0.644933  0.259067  0.125607  0.3333
  C  C9994  1  0.925733  0.978267  0.707727  0.3333
  C  C9995  1  0.021733  0.947467  0.707727  0.3333
  C  C9996  1  0.052533  0.074267  0.707727  0.3333
  C  C9997  1  0.947467  0.021733  0.792273  0.3333
  C  C9998  1  0.074267  0.052533  0.792273  0.3333
  C  C9999  1  0.978267  0.925733  0.792273  0.3333
  C  C10000  1  0.259067  0.644933  0.374393  0.3333
  C  C10001  1  0.355067  0.614133  0.374393  0.3333
  C  C10002  1  0.385867  0.740933  0.374393  0.3333
  C  C10003  1  0.719200  0.311600  0.541060  0.3333
  C  C10004  1  0.592400  0.280800  0.541060  0.3333
  C  C10005  1  0.688400  0.407600  0.541060  0.3333
  C  C10006  1  0.407600  0.688400  0.958940  0.3333
  C  C10007  1  0.311600  0.719200  0.958940  0.3333
  C  C10008  1  0.280800  0.592400  0.958940  0.3333
  C  C10009  1  0.052533  0.978267  0.207727  0.3333
  C  C10010  1  0.925733  0.947467  0.207727  0.3333
  C  C10011  1  0.021733  0.074267  0.207727  0.3333
  C  C10012  1  0.740933  0.355067  0.625607  0.3333
  C  C10013  1  0.644933  0.385867  0.625607  0.3333
  C  C10014  1  0.614133  0.259067  0.625607  0.3333
  C  C10015  1  0.385867  0.644933  0.874393  0.3333
  C  C10016  1  0.259067  0.614133  0.874393  0.3333
  C  C10017  1  0.355067  0.740933  0.874393  0.3333
  C  C10018  1  0.074267  0.021733  0.292273  0.3333
  C  C10019  1  0.978267  0.052533  0.292273  0.3333
  C  C10020  1  0.947467  0.925733  0.292273  0.3333
  C  C10021  1  0.279300  0.700600  0.499310  0.3333
  C  C10022  1  0.421300  0.720700  0.499310  0.3333
  C  C10023  1  0.299400  0.578700  0.499310  0.3333
  C  C10024  1  0.578700  0.299400  0.000690  0.3333
  C  C10025  1  0.700600  0.279300  0.000690  0.3333
  C  C10026  1  0.720700  0.421300  0.000690  0.3333
  C  C10027  1  0.612633  0.367267  0.165977  0.3333
  C  C10028  1  0.754633  0.387367  0.165977  0.3333
  C  C10029  1  0.632733  0.245367  0.165977  0.3333
  C  C10030  1  0.912033  0.966067  0.667357  0.3333
  C  C10031  1  0.033933  0.945967  0.667357  0.3333
  C  C10032  1  0.054033  0.087967  0.667357  0.3333
  C  C10033  1  0.945967  0.033933  0.832643  0.3333
  C  C10034  1  0.087967  0.054033  0.832643  0.3333
  C  C10035  1  0.966067  0.912033  0.832643  0.3333
  C  C10036  1  0.245367  0.632733  0.334023  0.3333
  C  C10037  1  0.367267  0.612633  0.334023  0.3333
  C  C10038  1  0.387367  0.754633  0.334023  0.3333
  C  C10039  1  0.720700  0.299400  0.500690  0.3333
  C  C10040  1  0.578700  0.279300  0.500690  0.3333
  C  C10041  1  0.700600  0.421300  0.500690  0.3333
  C  C10042  1  0.421300  0.700600  0.999310  0.3333
  C  C10043  1  0.299400  0.720700  0.999310  0.3333
  C  C10044  1  0.279300  0.578700  0.999310  0.3333
  C  C10045  1  0.054033  0.966067  0.167357  0.3333
  C  C10046  1  0.912033  0.945967  0.167357  0.3333
  C  C10047  1  0.033933  0.087967  0.167357  0.3333
  C  C10048  1  0.754633  0.367267  0.665977  0.3333
  C  C10049  1  0.632733  0.387367  0.665977  0.3333
  C  C10050  1  0.612633  0.245367  0.665977  0.3333
  C  C10051  1  0.387367  0.632733  0.834023  0.3333
  C  C10052  1  0.245367  0.612633  0.834023  0.3333
  C  C10053  1  0.367267  0.754633  0.834023  0.3333
  C  C10054  1  0.087967  0.033933  0.332643  0.3333
  C  C10055  1  0.966067  0.054033  0.332643  0.3333
  C  C10056  1  0.945967  0.912033  0.332643  0.3333
  C  C10057  1  0.232300  0.644500  0.486950  0.3333
  C  C10058  1  0.412200  0.767700  0.486950  0.3333
  C  C10059  1  0.355500  0.587800  0.486950  0.3333
  C  C10060  1  0.587800  0.355500  0.013050  0.3333
  C  C10061  1  0.644500  0.232300  0.013050  0.3333
  C  C10062  1  0.767700  0.412200  0.013050  0.3333
  C  C10063  1  0.565633  0.311167  0.153617  0.3333
  C  C10064  1  0.745533  0.434367  0.153617  0.3333
  C  C10065  1  0.688833  0.254467  0.153617  0.3333
  C  C10066  1  0.921133  0.022167  0.679717  0.3333
  C  C10067  1  0.977833  0.898967  0.679717  0.3333
  C  C10068  1  0.101033  0.078867  0.679717  0.3333
  C  C10069  1  0.898967  0.977833  0.820283  0.3333
  C  C10070  1  0.078867  0.101033  0.820283  0.3333
  C  C10071  1  0.022167  0.921133  0.820283  0.3333
  C  C10072  1  0.254467  0.688833  0.346383  0.3333
  C  C10073  1  0.311167  0.565633  0.346383  0.3333
  C  C10074  1  0.434367  0.745533  0.346383  0.3333
  C  C10075  1  0.767700  0.355500  0.513050  0.3333
  C  C10076  1  0.587800  0.232300  0.513050  0.3333
  C  C10077  1  0.644500  0.412200  0.513050  0.3333
  C  C10078  1  0.412200  0.644500  0.986950  0.3333
  C  C10079  1  0.355500  0.767700  0.986950  0.3333
  C  C10080  1  0.232300  0.587800  0.986950  0.3333
  C  C10081  1  0.101033  0.022167  0.179717  0.3333
  C  C10082  1  0.921133  0.898967  0.179717  0.3333
  C  C10083  1  0.977833  0.078867  0.179717  0.3333
  C  C10084  1  0.745533  0.311167  0.653617  0.3333
  C  C10085  1  0.688833  0.434367  0.653617  0.3333
  C  C10086  1  0.565633  0.254467  0.653617  0.3333
  C  C10087  1  0.434367  0.688833  0.846383  0.3333
  C  C10088  1  0.254467  0.565633  0.846383  0.3333
  C  C10089  1  0.311167  0.745533  0.846383  0.3333
  C  C10090  1  0.078867  0.977833  0.320283  0.3333
  C  C10091  1  0.022167  0.101033  0.320283  0.3333
  C  C10092  1  0.898967  0.921133  0.320283  0.3333
  C  C10093  1  0.390800  0.620300  0.484790  0.3333
  C  C10094  1  0.229500  0.609200  0.484790  0.3333
  C  C10095  1  0.379700  0.770500  0.484790  0.3333
  C  C10096  1  0.770500  0.379700  0.015210  0.3333
  C  C10097  1  0.620300  0.390800  0.015210  0.3333
  C  C10098  1  0.609200  0.229500  0.015210  0.3333
  C  C10099  1  0.724133  0.286967  0.151457  0.3333
  C  C10100  1  0.562833  0.275867  0.151457  0.3333
  C  C10101  1  0.713033  0.437167  0.151457  0.3333
  C  C10102  1  0.103833  0.046367  0.681877  0.3333
  C  C10103  1  0.953633  0.057467  0.681877  0.3333
  C  C10104  1  0.942533  0.896167  0.681877  0.3333
  C  C10105  1  0.057467  0.953633  0.818123  0.3333
  C  C10106  1  0.896167  0.942533  0.818123  0.3333
  C  C10107  1  0.046367  0.103833  0.818123  0.3333
  C  C10108  1  0.437167  0.713033  0.348543  0.3333
  C  C10109  1  0.286967  0.724133  0.348543  0.3333
  C  C10110  1  0.275867  0.562833  0.348543  0.3333
  C  C10111  1  0.609200  0.379700  0.515210  0.3333
  C  C10112  1  0.770500  0.390800  0.515210  0.3333
  C  C10113  1  0.620300  0.229500  0.515210  0.3333
  C  C10114  1  0.229500  0.620300  0.984790  0.3333
  C  C10115  1  0.379700  0.609200  0.984790  0.3333
  C  C10116  1  0.390800  0.770500  0.984790  0.3333
  C  C10117  1  0.942533  0.046367  0.181877  0.3333
  C  C10118  1  0.103833  0.057467  0.181877  0.3333
  C  C10119  1  0.953633  0.896167  0.181877  0.3333
  C  C10120  1  0.562833  0.286967  0.651457  0.3333
  C  C10121  1  0.713033  0.275867  0.651457  0.3333
  C  C10122  1  0.724133  0.437167  0.651457  0.3333
  C  C10123  1  0.275867  0.713033  0.848543  0.3333
  C  C10124  1  0.437167  0.724133  0.848543  0.3333
  C  C10125  1  0.286967  0.562833  0.848543  0.3333
  C  C10126  1  0.896167  0.953633  0.318123  0.3333
  C  C10127  1  0.046367  0.942533  0.318123  0.3333
  C  C10128  1  0.057467  0.103833  0.318123  0.3333
  C  C10129  1  0.404900  0.701200  0.458540  0.3333
  C  C10130  1  0.296300  0.595100  0.458540  0.3333
  C  C10131  1  0.298800  0.703700  0.458540  0.3333
  C  C10132  1  0.703700  0.298800  0.041460  0.3333
  C  C10133  1  0.701200  0.404900  0.041460  0.3333
  C  C10134  1  0.595100  0.296300  0.041460  0.3333
  C  C10135  1  0.738233  0.367867  0.125207  0.3333
  C  C10136  1  0.629633  0.261767  0.125207  0.3333
  C  C10137  1  0.632133  0.370367  0.125207  0.3333
  C  C10138  1  0.037033  0.965467  0.708127  0.3333
  C  C10139  1  0.034533  0.071567  0.708127  0.3333
  C  C10140  1  0.928433  0.962967  0.708127  0.3333
  C  C10141  1  0.071567  0.034533  0.791873  0.3333
  C  C10142  1  0.962967  0.928433  0.791873  0.3333
  C  C10143  1  0.965467  0.037033  0.791873  0.3333
  C  C10144  1  0.370367  0.632133  0.374793  0.3333
  C  C10145  1  0.367867  0.738233  0.374793  0.3333
  C  C10146  1  0.261767  0.629633  0.374793  0.3333
  C  C10147  1  0.595100  0.298800  0.541460  0.3333
  C  C10148  1  0.703700  0.404900  0.541460  0.3333
  C  C10149  1  0.701200  0.296300  0.541460  0.3333
  C  C10150  1  0.296300  0.701200  0.958540  0.3333
  C  C10151  1  0.298800  0.595100  0.958540  0.3333
  C  C10152  1  0.404900  0.703700  0.958540  0.3333
  C  C10153  1  0.928433  0.965467  0.208127  0.3333
  C  C10154  1  0.037033  0.071567  0.208127  0.3333
  C  C10155  1  0.034533  0.962967  0.208127  0.3333
  C  C10156  1  0.629633  0.367867  0.625207  0.3333
  C  C10157  1  0.632133  0.261767  0.625207  0.3333
  C  C10158  1  0.738233  0.370367  0.625207  0.3333
  C  C10159  1  0.261767  0.632133  0.874793  0.3333
  C  C10160  1  0.370367  0.738233  0.874793  0.3333
  C  C10161  1  0.367867  0.629633  0.874793  0.3333
  C  C10162  1  0.962967  0.034533  0.291873  0.3333
  C  C10163  1  0.965467  0.928433  0.291873  0.3333
  C  C10164  1  0.071567  0.037033  0.291873  0.3333
  C  C10165  1  0.420600  0.662900  0.485840  0.3333
  C  C10166  1  0.242300  0.579400  0.485840  0.3333
  C  C10167  1  0.337100  0.757700  0.485840  0.3333
  C  C10168  1  0.757700  0.337100  0.014160  0.3333
  C  C10169  1  0.662900  0.420600  0.014160  0.3333
  C  C10170  1  0.579400  0.242300  0.014160  0.3333
  C  C10171  1  0.753933  0.329567  0.152507  0.3333
  C  C10172  1  0.575633  0.246067  0.152507  0.3333
  C  C10173  1  0.670433  0.424367  0.152507  0.3333
  C  C10174  1  0.091033  0.003767  0.680827  0.3333
  C  C10175  1  0.996233  0.087267  0.680827  0.3333
  C  C10176  1  0.912733  0.908967  0.680827  0.3333
  C  C10177  1  0.087267  0.996233  0.819173  0.3333
  C  C10178  1  0.908967  0.912733  0.819173  0.3333
  C  C10179  1  0.003767  0.091033  0.819173  0.3333
  C  C10180  1  0.424367  0.670433  0.347493  0.3333
  C  C10181  1  0.329567  0.753933  0.347493  0.3333
  C  C10182  1  0.246067  0.575633  0.347493  0.3333
  C  C10183  1  0.579400  0.337100  0.514160  0.3333
  C  C10184  1  0.757700  0.420600  0.514160  0.3333
  C  C10185  1  0.662900  0.242300  0.514160  0.3333
  C  C10186  1  0.242300  0.662900  0.985840  0.3333
  C  C10187  1  0.337100  0.579400  0.985840  0.3333
  C  C10188  1  0.420600  0.757700  0.985840  0.3333
  C  C10189  1  0.912733  0.003767  0.180827  0.3333
  C  C10190  1  0.091033  0.087267  0.180827  0.3333
  C  C10191  1  0.996233  0.908967  0.180827  0.3333
  C  C10192  1  0.575633  0.329567  0.652507  0.3333
  C  C10193  1  0.670433  0.246067  0.652507  0.3333
  C  C10194  1  0.753933  0.424367  0.652507  0.3333
  C  C10195  1  0.246067  0.670433  0.847493  0.3333
  C  C10196  1  0.424367  0.753933  0.847493  0.3333
  C  C10197  1  0.329567  0.575633  0.847493  0.3333
  C  C10198  1  0.908967  0.996233  0.319173  0.3333
  C  C10199  1  0.003767  0.912733  0.319173  0.3333
  C  C10200  1  0.087267  0.091033  0.319173  0.3333
  C  C10201  1  0.363900  0.744400  0.459930  0.3333
  C  C10202  1  0.380500  0.636100  0.459930  0.3333
  C  C10203  1  0.255600  0.619500  0.459930  0.3333
  C  C10204  1  0.619500  0.255600  0.040070  0.3333
  C  C10205  1  0.744400  0.363900  0.040070  0.3333
  C  C10206  1  0.636100  0.380500  0.040070  0.3333
  C  C10207  1  0.697233  0.411067  0.126597  0.3333
  C  C10208  1  0.713833  0.302767  0.126597  0.3333
  C  C10209  1  0.588933  0.286167  0.126597  0.3333
  C  C10210  1  0.952833  0.922267  0.706737  0.3333
  C  C10211  1  0.077733  0.030567  0.706737  0.3333
  C  C10212  1  0.969433  0.047167  0.706737  0.3333
  C  C10213  1  0.030567  0.077733  0.793263  0.3333
  C  C10214  1  0.047167  0.969433  0.793263  0.3333
  C  C10215  1  0.922267  0.952833  0.793263  0.3333
  C  C10216  1  0.286167  0.588933  0.373403  0.3333
  C  C10217  1  0.411067  0.697233  0.373403  0.3333
  C  C10218  1  0.302767  0.713833  0.373403  0.3333
  C  C10219  1  0.636100  0.255600  0.540070  0.3333
  C  C10220  1  0.619500  0.363900  0.540070  0.3333
  C  C10221  1  0.744400  0.380500  0.540070  0.3333
  C  C10222  1  0.380500  0.744400  0.959930  0.3333
  C  C10223  1  0.255600  0.636100  0.959930  0.3333
  C  C10224  1  0.363900  0.619500  0.959930  0.3333
  C  C10225  1  0.969433  0.922267  0.206737  0.3333
  C  C10226  1  0.952833  0.030567  0.206737  0.3333
  C  C10227  1  0.077733  0.047167  0.206737  0.3333
  C  C10228  1  0.713833  0.411067  0.626597  0.3333
  C  C10229  1  0.588933  0.302767  0.626597  0.3333
  C  C10230  1  0.697233  0.286167  0.626597  0.3333
  C  C10231  1  0.302767  0.588933  0.873403  0.3333
  C  C10232  1  0.286167  0.697233  0.873403  0.3333
  C  C10233  1  0.411067  0.713833  0.873403  0.3333
  C  C10234  1  0.047167  0.077733  0.293263  0.3333
  C  C10235  1  0.922267  0.969433  0.293263  0.3333
  C  C10236  1  0.030567  0.952833  0.293263  0.3333
  C  C10237  1  0.340300  0.646200  0.450670  0.3333
  C  C10238  1  0.305900  0.659700  0.450670  0.3333
  C  C10239  1  0.353800  0.694100  0.450670  0.3333
  C  C10240  1  0.694100  0.353800  0.049330  0.3333
  C  C10241  1  0.646200  0.340300  0.049330  0.3333
  C  C10242  1  0.659700  0.305900  0.049330  0.3333
  C  C10243  1  0.673633  0.312867  0.117337  0.3333
  C  C10244  1  0.639233  0.326367  0.117337  0.3333
  C  C10245  1  0.687133  0.360767  0.117337  0.3333
  C  C10246  1  0.027433  0.020467  0.715997  0.3333
  C  C10247  1  0.979533  0.006967  0.715997  0.3333
  C  C10248  1  0.993033  0.972567  0.715997  0.3333
  C  C10249  1  0.006967  0.979533  0.784003  0.3333
  C  C10250  1  0.972567  0.993033  0.784003  0.3333
  C  C10251  1  0.020467  0.027433  0.784003  0.3333
  C  C10252  1  0.360767  0.687133  0.382663  0.3333
  C  C10253  1  0.312867  0.673633  0.382663  0.3333
  C  C10254  1  0.326367  0.639233  0.382663  0.3333
  C  C10255  1  0.659700  0.353800  0.549330  0.3333
  C  C10256  1  0.694100  0.340300  0.549330  0.3333
  C  C10257  1  0.646200  0.305900  0.549330  0.3333
  C  C10258  1  0.305900  0.646200  0.950670  0.3333
  C  C10259  1  0.353800  0.659700  0.950670  0.3333
  C  C10260  1  0.340300  0.694100  0.950670  0.3333
  C  C10261  1  0.993033  0.020467  0.215997  0.3333
  C  C10262  1  0.027433  0.006967  0.215997  0.3333
  C  C10263  1  0.979533  0.972567  0.215997  0.3333
  C  C10264  1  0.639233  0.312867  0.617337  0.3333
  C  C10265  1  0.687133  0.326367  0.617337  0.3333
  C  C10266  1  0.673633  0.360767  0.617337  0.3333
  C  C10267  1  0.326367  0.687133  0.882663  0.3333
  C  C10268  1  0.360767  0.673633  0.882663  0.3333
  C  C10269  1  0.312867  0.639233  0.882663  0.3333
  C  C10270  1  0.972567  0.979533  0.284003  0.3333
  C  C10271  1  0.020467  0.993033  0.284003  0.3333
  C  C10272  1  0.006967  0.027433  0.284003  0.3333
  C  C10273  1  0.292500  0.643300  0.510910  0.3333
  C  C10274  1  0.350800  0.707500  0.510910  0.3333
  C  C10275  1  0.356700  0.649200  0.510910  0.3333
  C  C10276  1  0.649200  0.356700  0.989090  0.3333
  C  C10277  1  0.643300  0.292500  0.989090  0.3333
  C  C10278  1  0.707500  0.350800  0.989090  0.3333
  C  C10279  1  0.625833  0.309967  0.177577  0.3333
  C  C10280  1  0.684133  0.374167  0.177577  0.3333
  C  C10281  1  0.690033  0.315867  0.177577  0.3333
  C  C10282  1  0.982533  0.023367  0.655757  0.3333
  C  C10283  1  0.976633  0.959167  0.655757  0.3333
  C  C10284  1  0.040833  0.017467  0.655757  0.3333
  C  C10285  1  0.959167  0.976633  0.844243  0.3333
  C  C10286  1  0.017467  0.040833  0.844243  0.3333
  C  C10287  1  0.023367  0.982533  0.844243  0.3333
  C  C10288  1  0.315867  0.690033  0.322423  0.3333
  C  C10289  1  0.309967  0.625833  0.322423  0.3333
  C  C10290  1  0.374167  0.684133  0.322423  0.3333
  C  C10291  1  0.707500  0.356700  0.489090  0.3333
  C  C10292  1  0.649200  0.292500  0.489090  0.3333
  C  C10293  1  0.643300  0.350800  0.489090  0.3333
  C  C10294  1  0.350800  0.643300  0.010910  0.3333
  C  C10295  1  0.356700  0.707500  0.010910  0.3333
  C  C10296  1  0.292500  0.649200  0.010910  0.3333
  C  C10297  1  0.040833  0.023367  0.155757  0.3333
  C  C10298  1  0.982533  0.959167  0.155757  0.3333
  C  C10299  1  0.976633  0.017467  0.155757  0.3333
  C  C10300  1  0.684133  0.309967  0.677577  0.3333
  C  C10301  1  0.690033  0.374167  0.677577  0.3333
  C  C10302  1  0.625833  0.315867  0.677577  0.3333
  C  C10303  1  0.374167  0.690033  0.822423  0.3333
  C  C10304  1  0.315867  0.625833  0.822423  0.3333
  C  C10305  1  0.309967  0.684133  0.822423  0.3333
  C  C10306  1  0.017467  0.976633  0.344243  0.3333
  C  C10307  1  0.023367  0.040833  0.344243  0.3333
  C  C10308  1  0.959167  0.982533  0.344243  0.3333
  C  C10309  1  0.315800  0.714000  0.506230  0.3333
  C  C10310  1  0.398200  0.684200  0.506230  0.3333
  C  C10311  1  0.286000  0.601800  0.506230  0.3333
  C  C10312  1  0.601800  0.286000  0.993770  0.3333
  C  C10313  1  0.714000  0.315800  0.993770  0.3333
  C  C10314  1  0.684200  0.398200  0.993770  0.3333
  C  C10315  1  0.649133  0.380667  0.172897  0.3333
  C  C10316  1  0.731533  0.350867  0.172897  0.3333
  C  C10317  1  0.619333  0.268467  0.172897  0.3333
  C  C10318  1  0.935133  0.952667  0.660437  0.3333
  C  C10319  1  0.047333  0.982467  0.660437  0.3333
  C  C10320  1  0.017533  0.064867  0.660437  0.3333
  C  C10321  1  0.982467  0.047333  0.839563  0.3333
  C  C10322  1  0.064867  0.017533  0.839563  0.3333
  C  C10323  1  0.952667  0.935133  0.839563  0.3333
  C  C10324  1  0.268467  0.619333  0.327103  0.3333
  C  C10325  1  0.380667  0.649133  0.327103  0.3333
  C  C10326  1  0.350867  0.731533  0.327103  0.3333
  C  C10327  1  0.684200  0.286000  0.493770  0.3333
  C  C10328  1  0.601800  0.315800  0.493770  0.3333
  C  C10329  1  0.714000  0.398200  0.493770  0.3333
  C  C10330  1  0.398200  0.714000  0.006230  0.3333
  C  C10331  1  0.286000  0.684200  0.006230  0.3333
  C  C10332  1  0.315800  0.601800  0.006230  0.3333
  C  C10333  1  0.017533  0.952667  0.160437  0.3333
  C  C10334  1  0.935133  0.982467  0.160437  0.3333
  C  C10335  1  0.047333  0.064867  0.160437  0.3333
  C  C10336  1  0.731533  0.380667  0.672897  0.3333
  C  C10337  1  0.619333  0.350867  0.672897  0.3333
  C  C10338  1  0.649133  0.268467  0.672897  0.3333
  C  C10339  1  0.350867  0.619333  0.827103  0.3333
  C  C10340  1  0.268467  0.649133  0.827103  0.3333
  C  C10341  1  0.380667  0.731533  0.827103  0.3333
  C  C10342  1  0.064867  0.047333  0.339563  0.3333
  C  C10343  1  0.952667  0.017533  0.339563  0.3333
  C  C10344  1  0.982467  0.935133  0.339563  0.3333
  C  C10345  1  0.326300  0.581100  0.495270  0.3333
  C  C10346  1  0.254800  0.673700  0.495270  0.3333
  C  C10347  1  0.418900  0.745200  0.495270  0.3333
  C  C10348  1  0.745200  0.418900  0.004730  0.3333
  C  C10349  1  0.581100  0.326300  0.004730  0.3333
  C  C10350  1  0.673700  0.254800  0.004730  0.3333
  C  C10351  1  0.659633  0.247767  0.161937  0.3333
  C  C10352  1  0.588133  0.340367  0.161937  0.3333
  C  C10353  1  0.752233  0.411867  0.161937  0.3333
  C  C10354  1  0.078533  0.085567  0.671397  0.3333
  C  C10355  1  0.914433  0.992967  0.671397  0.3333
  C  C10356  1  0.007033  0.921467  0.671397  0.3333
  C  C10357  1  0.992967  0.914433  0.828603  0.3333
  C  C10358  1  0.921467  0.007033  0.828603  0.3333
  C  C10359  1  0.085567  0.078533  0.828603  0.3333
  C  C10360  1  0.411867  0.752233  0.338063  0.3333
  C  C10361  1  0.247767  0.659633  0.338063  0.3333
  C  C10362  1  0.340367  0.588133  0.338063  0.3333
  C  C10363  1  0.673700  0.418900  0.504730  0.3333
  C  C10364  1  0.745200  0.326300  0.504730  0.3333
  C  C10365  1  0.581100  0.254800  0.504730  0.3333
  C  C10366  1  0.254800  0.581100  0.995270  0.3333
  C  C10367  1  0.418900  0.673700  0.995270  0.3333
  C  C10368  1  0.326300  0.745200  0.995270  0.3333
  C  C10369  1  0.007033  0.085567  0.171397  0.3333
  C  C10370  1  0.078533  0.992967  0.171397  0.3333
  C  C10371  1  0.914433  0.921467  0.171397  0.3333
  C  C10372  1  0.588133  0.247767  0.661937  0.3333
  C  C10373  1  0.752233  0.340367  0.661937  0.3333
  C  C10374  1  0.659633  0.411867  0.661937  0.3333
  C  C10375  1  0.340367  0.752233  0.838063  0.3333
  C  C10376  1  0.411867  0.659633  0.838063  0.3333
  C  C10377  1  0.247767  0.588133  0.838063  0.3333
  C  C10378  1  0.921467  0.914433  0.328603  0.3333
  C  C10379  1  0.085567  0.007033  0.328603  0.3333
  C  C10380  1  0.992967  0.078533  0.328603  0.3333
  C  C10381  1  0.336200  0.750600  0.467210  0.3333
  C  C10382  1  0.414400  0.663800  0.467210  0.3333
  C  C10383  1  0.249400  0.585600  0.467210  0.3333
  C  C10384  1  0.585600  0.249400  0.032790  0.3333
  C  C10385  1  0.750600  0.336200  0.032790  0.3333
  C  C10386  1  0.663800  0.414400  0.032790  0.3333
  C  C10387  1  0.669533  0.417267  0.133877  0.3333
  C  C10388  1  0.747733  0.330467  0.133877  0.3333
  C  C10389  1  0.582733  0.252267  0.133877  0.3333
  C  C10390  1  0.918933  0.916067  0.699457  0.3333
  C  C10391  1  0.083933  0.002867  0.699457  0.3333
  C  C10392  1  0.997133  0.081067  0.699457  0.3333
  C  C10393  1  0.002867  0.083933  0.800543  0.3333
  C  C10394  1  0.081067  0.997133  0.800543  0.3333
  C  C10395  1  0.916067  0.918933  0.800543  0.3333
  C  C10396  1  0.252267  0.582733  0.366123  0.3333
  C  C10397  1  0.417267  0.669533  0.366123  0.3333
  C  C10398  1  0.330467  0.747733  0.366123  0.3333
  C  C10399  1  0.663800  0.249400  0.532790  0.3333
  C  C10400  1  0.585600  0.336200  0.532790  0.3333
  C  C10401  1  0.750600  0.414400  0.532790  0.3333
  C  C10402  1  0.414400  0.750600  0.967210  0.3333
  C  C10403  1  0.249400  0.663800  0.967210  0.3333
  C  C10404  1  0.336200  0.585600  0.967210  0.3333
  C  C10405  1  0.997133  0.916067  0.199457  0.3333
  C  C10406  1  0.918933  0.002867  0.199457  0.3333
  C  C10407  1  0.083933  0.081067  0.199457  0.3333
  C  C10408  1  0.747733  0.417267  0.633877  0.3333
  C  C10409  1  0.582733  0.330467  0.633877  0.3333
  C  C10410  1  0.669533  0.252267  0.633877  0.3333
  C  C10411  1  0.330467  0.582733  0.866123  0.3333
  C  C10412  1  0.252267  0.669533  0.866123  0.3333
  C  C10413  1  0.417267  0.747733  0.866123  0.3333
  C  C10414  1  0.081067  0.083933  0.300543  0.3333
  C  C10415  1  0.916067  0.997133  0.300543  0.3333
  C  C10416  1  0.002867  0.918933  0.300543  0.3333
  C  C10417  1  0.321800  0.685400  0.511920  0.3333
  C  C10418  1  0.363600  0.678200  0.511920  0.3333
  C  C10419  1  0.314600  0.636400  0.511920  0.3333
  C  C10420  1  0.636400  0.314600  0.988080  0.3333
  C  C10421  1  0.685400  0.321800  0.988080  0.3333
  C  C10422  1  0.678200  0.363600  0.988080  0.3333
  C  C10423  1  0.655133  0.352067  0.178587  0.3333
  C  C10424  1  0.696933  0.344867  0.178587  0.3333
  C  C10425  1  0.647933  0.303067  0.178587  0.3333
  C  C10426  1  0.969733  0.981267  0.654747  0.3333
  C  C10427  1  0.018733  0.988467  0.654747  0.3333
  C  C10428  1  0.011533  0.030267  0.654747  0.3333
  C  C10429  1  0.988467  0.018733  0.845253  0.3333
  C  C10430  1  0.030267  0.011533  0.845253  0.3333
  C  C10431  1  0.981267  0.969733  0.845253  0.3333
  C  C10432  1  0.303067  0.647933  0.321413  0.3333
  C  C10433  1  0.352067  0.655133  0.321413  0.3333
  C  C10434  1  0.344867  0.696933  0.321413  0.3333
  C  C10435  1  0.678200  0.314600  0.488080  0.3333
  C  C10436  1  0.636400  0.321800  0.488080  0.3333
  C  C10437  1  0.685400  0.363600  0.488080  0.3333
  C  C10438  1  0.363600  0.685400  0.011920  0.3333
  C  C10439  1  0.314600  0.678200  0.011920  0.3333
  C  C10440  1  0.321800  0.636400  0.011920  0.3333
  C  C10441  1  0.011533  0.981267  0.154747  0.3333
  C  C10442  1  0.969733  0.988467  0.154747  0.3333
  C  C10443  1  0.018733  0.030267  0.154747  0.3333
  C  C10444  1  0.696933  0.352067  0.678587  0.3333
  C  C10445  1  0.647933  0.344867  0.678587  0.3333
  C  C10446  1  0.655133  0.303067  0.678587  0.3333
  C  C10447  1  0.344867  0.647933  0.821413  0.3333
  C  C10448  1  0.303067  0.655133  0.821413  0.3333
  C  C10449  1  0.352067  0.696933  0.821413  0.3333
  C  C10450  1  0.030267  0.018733  0.345253  0.3333
  C  C10451  1  0.981267  0.011533  0.345253  0.3333
  C  C10452  1  0.988467  0.969733  0.345253  0.3333
  C  C10453  1  0.415600  0.677000  0.497490  0.3333
  C  C10454  1  0.261400  0.584400  0.497490  0.3333
  C  C10455  1  0.323000  0.738600  0.497490  0.3333
  C  C10456  1  0.738600  0.323000  0.002510  0.3333
  C  C10457  1  0.677000  0.415600  0.002510  0.3333
  C  C10458  1  0.584400  0.261400  0.002510  0.3333
  C  C10459  1  0.748933  0.343667  0.164157  0.3333
  C  C10460  1  0.594733  0.251067  0.164157  0.3333
  C  C10461  1  0.656333  0.405267  0.164157  0.3333
  C  C10462  1  0.071933  0.989667  0.669177  0.3333
  C  C10463  1  0.010333  0.082267  0.669177  0.3333
  C  C10464  1  0.917733  0.928067  0.669177  0.3333
  C  C10465  1  0.082267  0.010333  0.830823  0.3333
  C  C10466  1  0.928067  0.917733  0.830823  0.3333
  C  C10467  1  0.989667  0.071933  0.830823  0.3333
  C  C10468  1  0.405267  0.656333  0.335843  0.3333
  C  C10469  1  0.343667  0.748933  0.335843  0.3333
  C  C10470  1  0.251067  0.594733  0.335843  0.3333
  C  C10471  1  0.584400  0.323000  0.502510  0.3333
  C  C10472  1  0.738600  0.415600  0.502510  0.3333
  C  C10473  1  0.677000  0.261400  0.502510  0.3333
  C  C10474  1  0.261400  0.677000  0.997490  0.3333
  C  C10475  1  0.323000  0.584400  0.997490  0.3333
  C  C10476  1  0.415600  0.738600  0.997490  0.3333
  C  C10477  1  0.917733  0.989667  0.169177  0.3333
  C  C10478  1  0.071933  0.082267  0.169177  0.3333
  C  C10479  1  0.010333  0.928067  0.169177  0.3333
  C  C10480  1  0.594733  0.343667  0.664157  0.3333
  C  C10481  1  0.656333  0.251067  0.664157  0.3333
  C  C10482  1  0.748933  0.405267  0.664157  0.3333
  C  C10483  1  0.251067  0.656333  0.835843  0.3333
  C  C10484  1  0.405267  0.748933  0.835843  0.3333
  C  C10485  1  0.343667  0.594733  0.835843  0.3333
  C  C10486  1  0.928067  0.010333  0.330823  0.3333
  C  C10487  1  0.989667  0.917733  0.330823  0.3333
  C  C10488  1  0.082267  0.071933  0.330823  0.3333
  C  C10489  1  0.370300  0.688300  0.451560  0.3333
  C  C10490  1  0.318000  0.629700  0.451560  0.3333
  C  C10491  1  0.311700  0.682000  0.451560  0.3333
  C  C10492  1  0.682000  0.311700  0.048440  0.3333
  C  C10493  1  0.688300  0.370300  0.048440  0.3333
  C  C10494  1  0.629700  0.318000  0.048440  0.3333
  C  C10495  1  0.703633  0.354967  0.118227  0.3333
  C  C10496  1  0.651333  0.296367  0.118227  0.3333
  C  C10497  1  0.645033  0.348667  0.118227  0.3333
  C  C10498  1  0.015333  0.978367  0.715107  0.3333
  C  C10499  1  0.021633  0.036967  0.715107  0.3333
  C  C10500  1  0.963033  0.984667  0.715107  0.3333
  C  C10501  1  0.036967  0.021633  0.784893  0.3333
  C  C10502  1  0.984667  0.963033  0.784893  0.3333
  C  C10503  1  0.978367  0.015333  0.784893  0.3333
  C  C10504  1  0.348667  0.645033  0.381773  0.3333
  C  C10505  1  0.354967  0.703633  0.381773  0.3333
  C  C10506  1  0.296367  0.651333  0.381773  0.3333
  C  C10507  1  0.629700  0.311700  0.548440  0.3333
  C  C10508  1  0.682000  0.370300  0.548440  0.3333
  C  C10509  1  0.688300  0.318000  0.548440  0.3333
  C  C10510  1  0.318000  0.688300  0.951560  0.3333
  C  C10511  1  0.311700  0.629700  0.951560  0.3333
  C  C10512  1  0.370300  0.682000  0.951560  0.3333
  C  C10513  1  0.963033  0.978367  0.215107  0.3333
  C  C10514  1  0.015333  0.036967  0.215107  0.3333
  C  C10515  1  0.021633  0.984667  0.215107  0.3333
  C  C10516  1  0.651333  0.354967  0.618227  0.3333
  C  C10517  1  0.645033  0.296367  0.618227  0.3333
  C  C10518  1  0.703633  0.348667  0.618227  0.3333
  C  C10519  1  0.296367  0.645033  0.881773  0.3333
  C  C10520  1  0.348667  0.703633  0.881773  0.3333
  C  C10521  1  0.354967  0.651333  0.881773  0.3333
  C  C10522  1  0.984667  0.021633  0.284893  0.3333
  C  C10523  1  0.978367  0.963033  0.284893  0.3333
  C  C10524  1  0.036967  0.015333  0.284893  0.3333
  C  C10525  1  0.242200  0.669300  0.476800  0.3333
  C  C10526  1  0.427100  0.757800  0.476800  0.3333
  C  C10527  1  0.330700  0.572900  0.476800  0.3333
  C  C10528  1  0.572900  0.330700  0.023200  0.3333
  C  C10529  1  0.669300  0.242200  0.023200  0.3333
  C  C10530  1  0.757800  0.427100  0.023200  0.3333
  C  C10531  1  0.575533  0.335967  0.143467  0.3333
  C  C10532  1  0.760433  0.424467  0.143467  0.3333
  C  C10533  1  0.664033  0.239567  0.143467  0.3333
  C  C10534  1  0.906233  0.997367  0.689867  0.3333
  C  C10535  1  0.002633  0.908867  0.689867  0.3333
  C  C10536  1  0.091133  0.093767  0.689867  0.3333
  C  C10537  1  0.908867  0.002633  0.810133  0.3333
  C  C10538  1  0.093767  0.091133  0.810133  0.3333
  C  C10539  1  0.997367  0.906233  0.810133  0.3333
  C  C10540  1  0.239567  0.664033  0.356533  0.3333
  C  C10541  1  0.335967  0.575533  0.356533  0.3333
  C  C10542  1  0.424467  0.760433  0.356533  0.3333
  C  C10543  1  0.757800  0.330700  0.523200  0.3333
  C  C10544  1  0.572900  0.242200  0.523200  0.3333
  C  C10545  1  0.669300  0.427100  0.523200  0.3333
  C  C10546  1  0.427100  0.669300  0.976800  0.3333
  C  C10547  1  0.330700  0.757800  0.976800  0.3333
  C  C10548  1  0.242200  0.572900  0.976800  0.3333
  C  C10549  1  0.091133  0.997367  0.189867  0.3333
  C  C10550  1  0.906233  0.908867  0.189867  0.3333
  C  C10551  1  0.002633  0.093767  0.189867  0.3333
  C  C10552  1  0.760433  0.335967  0.643467  0.3333
  C  C10553  1  0.664033  0.424467  0.643467  0.3333
  C  C10554  1  0.575533  0.239567  0.643467  0.3333
  C  C10555  1  0.424467  0.664033  0.856533  0.3333
  C  C10556  1  0.239567  0.575533  0.856533  0.3333
  C  C10557  1  0.335967  0.760433  0.856533  0.3333
  C  C10558  1  0.093767  0.002633  0.310133  0.3333
  C  C10559  1  0.997367  0.091133  0.310133  0.3333
  C  C10560  1  0.908867  0.906233  0.310133  0.3333
  C  C10561  1  0.258100  0.631300  0.504480  0.3333
  C  C10562  1  0.373200  0.741900  0.504480  0.3333
  C  C10563  1  0.368700  0.626800  0.504480  0.3333
  C  C10564  1  0.626800  0.368700  0.995520  0.3333
  C  C10565  1  0.631300  0.258100  0.995520  0.3333
  C  C10566  1  0.741900  0.373200  0.995520  0.3333
  C  C10567  1  0.591433  0.297967  0.171147  0.3333
  C  C10568  1  0.706533  0.408567  0.171147  0.3333
  C  C10569  1  0.702033  0.293467  0.171147  0.3333
  C  C10570  1  0.960133  0.035367  0.662187  0.3333
  C  C10571  1  0.964633  0.924767  0.662187  0.3333
  C  C10572  1  0.075233  0.039867  0.662187  0.3333
  C  C10573  1  0.924767  0.964633  0.837813  0.3333
  C  C10574  1  0.039867  0.075233  0.837813  0.3333
  C  C10575  1  0.035367  0.960133  0.837813  0.3333
  C  C10576  1  0.293467  0.702033  0.328853  0.3333
  C  C10577  1  0.297967  0.591433  0.328853  0.3333
  C  C10578  1  0.408567  0.706533  0.328853  0.3333
  C  C10579  1  0.741900  0.368700  0.495520  0.3333
  C  C10580  1  0.626800  0.258100  0.495520  0.3333
  C  C10581  1  0.631300  0.373200  0.495520  0.3333
  C  C10582  1  0.373200  0.631300  0.004480  0.3333
  C  C10583  1  0.368700  0.741900  0.004480  0.3333
  C  C10584  1  0.258100  0.626800  0.004480  0.3333
  C  C10585  1  0.075233  0.035367  0.162187  0.3333
  C  C10586  1  0.960133  0.924767  0.162187  0.3333
  C  C10587  1  0.964633  0.039867  0.162187  0.3333
  C  C10588  1  0.706533  0.297967  0.671147  0.3333
  C  C10589  1  0.702033  0.408567  0.671147  0.3333
  C  C10590  1  0.591433  0.293467  0.671147  0.3333
  C  C10591  1  0.408567  0.702033  0.828853  0.3333
  C  C10592  1  0.293467  0.591433  0.828853  0.3333
  C  C10593  1  0.297967  0.706533  0.828853  0.3333
  C  C10594  1  0.039867  0.964633  0.337813  0.3333
  C  C10595  1  0.035367  0.075233  0.337813  0.3333
  C  C10596  1  0.924767  0.960133  0.337813  0.3333
  C  C10597  1  0.271800  0.711100  0.477710  0.3333
  C  C10598  1  0.439300  0.728200  0.477710  0.3333
  C  C10599  1  0.288900  0.560700  0.477710  0.3333
  C  C10600  1  0.560700  0.288900  0.022290  0.3333
  C  C10601  1  0.711100  0.271800  0.022290  0.3333
  C  C10602  1  0.728200  0.439300  0.022290  0.3333
  C  C10603  1  0.605133  0.377767  0.144377  0.3333
  C  C10604  1  0.772633  0.394867  0.144377  0.3333
  C  C10605  1  0.622233  0.227367  0.144377  0.3333
  C  C10606  1  0.894033  0.955567  0.688957  0.3333
  C  C10607  1  0.044433  0.938467  0.688957  0.3333
  C  C10608  1  0.061533  0.105967  0.688957  0.3333
  C  C10609  1  0.938467  0.044433  0.811043  0.3333
  C  C10610  1  0.105967  0.061533  0.811043  0.3333
  C  C10611  1  0.955567  0.894033  0.811043  0.3333
  C  C10612  1  0.227367  0.622233  0.355623  0.3333
  C  C10613  1  0.377767  0.605133  0.355623  0.3333
  C  C10614  1  0.394867  0.772633  0.355623  0.3333
  C  C10615  1  0.728200  0.288900  0.522290  0.3333
  C  C10616  1  0.560700  0.271800  0.522290  0.3333
  C  C10617  1  0.711100  0.439300  0.522290  0.3333
  C  C10618  1  0.439300  0.711100  0.977710  0.3333
  C  C10619  1  0.288900  0.728200  0.977710  0.3333
  C  C10620  1  0.271800  0.560700  0.977710  0.3333
  C  C10621  1  0.061533  0.955567  0.188957  0.3333
  C  C10622  1  0.894033  0.938467  0.188957  0.3333
  C  C10623  1  0.044433  0.105967  0.188957  0.3333
  C  C10624  1  0.772633  0.377767  0.644377  0.3333
  C  C10625  1  0.622233  0.394867  0.644377  0.3333
  C  C10626  1  0.605133  0.227367  0.644377  0.3333
  C  C10627  1  0.394867  0.622233  0.855623  0.3333
  C  C10628  1  0.227367  0.605133  0.855623  0.3333
  C  C10629  1  0.377767  0.772633  0.855623  0.3333
  C  C10630  1  0.105967  0.044433  0.311043  0.3333
  C  C10631  1  0.955567  0.061533  0.311043  0.3333
  C  C10632  1  0.938467  0.894033  0.311043  0.3333
  C  C10633  1  0.346600  0.618000  0.456320  0.3333
  C  C10634  1  0.271400  0.653400  0.456320  0.3333
  C  C10635  1  0.382000  0.728600  0.456320  0.3333
  C  C10636  1  0.728600  0.382000  0.043680  0.3333
  C  C10637  1  0.618000  0.346600  0.043680  0.3333
  C  C10638  1  0.653400  0.271400  0.043680  0.3333
  C  C10639  1  0.679933  0.284667  0.122987  0.3333
  C  C10640  1  0.604733  0.320067  0.122987  0.3333
  C  C10641  1  0.715333  0.395267  0.122987  0.3333
  C  C10642  1  0.061933  0.048667  0.710347  0.3333
  C  C10643  1  0.951333  0.013267  0.710347  0.3333
  C  C10644  1  0.986733  0.938067  0.710347  0.3333
  C  C10645  1  0.013267  0.951333  0.789653  0.3333
  C  C10646  1  0.938067  0.986733  0.789653  0.3333
  C  C10647  1  0.048667  0.061933  0.789653  0.3333
  C  C10648  1  0.395267  0.715333  0.377013  0.3333
  C  C10649  1  0.284667  0.679933  0.377013  0.3333
  C  C10650  1  0.320067  0.604733  0.377013  0.3333
  C  C10651  1  0.653400  0.382000  0.543680  0.3333
  C  C10652  1  0.728600  0.346600  0.543680  0.3333
  C  C10653  1  0.618000  0.271400  0.543680  0.3333
  C  C10654  1  0.271400  0.618000  0.956320  0.3333
  C  C10655  1  0.382000  0.653400  0.956320  0.3333
  C  C10656  1  0.346600  0.728600  0.956320  0.3333
  C  C10657  1  0.986733  0.048667  0.210347  0.3333
  C  C10658  1  0.061933  0.013267  0.210347  0.3333
  C  C10659  1  0.951333  0.938067  0.210347  0.3333
  C  C10660  1  0.604733  0.284667  0.622987  0.3333
  C  C10661  1  0.715333  0.320067  0.622987  0.3333
  C  C10662  1  0.679933  0.395267  0.622987  0.3333
  C  C10663  1  0.320067  0.715333  0.877013  0.3333
  C  C10664  1  0.395267  0.679933  0.877013  0.3333
  C  C10665  1  0.284667  0.604733  0.877013  0.3333
  C  C10666  1  0.938067  0.951333  0.289653  0.3333
  C  C10667  1  0.048667  0.986733  0.289653  0.3333
  C  C10668  1  0.013267  0.061933  0.289653  0.3333
  C  C10669  1  0.247500  0.654700  0.465280  0.3333
  C  C10670  1  0.407200  0.752500  0.465280  0.3333
  C  C10671  1  0.345300  0.592800  0.465280  0.3333
  C  C10672  1  0.592800  0.345300  0.034720  0.3333
  C  C10673  1  0.654700  0.247500  0.034720  0.3333
  C  C10674  1  0.752500  0.407200  0.034720  0.3333
  C  C10675  1  0.580833  0.321367  0.131947  0.3333
  C  C10676  1  0.740533  0.419167  0.131947  0.3333
  C  C10677  1  0.678633  0.259467  0.131947  0.3333
  C  C10678  1  0.926133  0.011967  0.701387  0.3333
  C  C10679  1  0.988033  0.914167  0.701387  0.3333
  C  C10680  1  0.085833  0.073867  0.701387  0.3333
  C  C10681  1  0.914167  0.988033  0.798613  0.3333
  C  C10682  1  0.073867  0.085833  0.798613  0.3333
  C  C10683  1  0.011967  0.926133  0.798613  0.3333
  C  C10684  1  0.259467  0.678633  0.368053  0.3333
  C  C10685  1  0.321367  0.580833  0.368053  0.3333
  C  C10686  1  0.419167  0.740533  0.368053  0.3333
  C  C10687  1  0.752500  0.345300  0.534720  0.3333
  C  C10688  1  0.592800  0.247500  0.534720  0.3333
  C  C10689  1  0.654700  0.407200  0.534720  0.3333
  C  C10690  1  0.407200  0.654700  0.965280  0.3333
  C  C10691  1  0.345300  0.752500  0.965280  0.3333
  C  C10692  1  0.247500  0.592800  0.965280  0.3333
  C  C10693  1  0.085833  0.011967  0.201387  0.3333
  C  C10694  1  0.926133  0.914167  0.201387  0.3333
  C  C10695  1  0.988033  0.073867  0.201387  0.3333
  C  C10696  1  0.740533  0.321367  0.631947  0.3333
  C  C10697  1  0.678633  0.419167  0.631947  0.3333
  C  C10698  1  0.580833  0.259467  0.631947  0.3333
  C  C10699  1  0.419167  0.678633  0.868053  0.3333
  C  C10700  1  0.259467  0.580833  0.868053  0.3333
  C  C10701  1  0.321367  0.740533  0.868053  0.3333
  C  C10702  1  0.073867  0.988033  0.298613  0.3333
  C  C10703  1  0.011967  0.085833  0.298613  0.3333
  C  C10704  1  0.914167  0.926133  0.298613  0.3333
  C  C10705  1  0.232000  0.591300  0.474470  0.3333
  C  C10706  1  0.359300  0.768000  0.474470  0.3333
  C  C10707  1  0.408700  0.640700  0.474470  0.3333
  C  C10708  1  0.640700  0.408700  0.025530  0.3333
  C  C10709  1  0.591300  0.232000  0.025530  0.3333
  C  C10710  1  0.768000  0.359300  0.025530  0.3333
  C  C10711  1  0.565333  0.257967  0.141137  0.3333
  C  C10712  1  0.692633  0.434667  0.141137  0.3333
  C  C10713  1  0.742033  0.307367  0.141137  0.3333
  C  C10714  1  0.974033  0.075367  0.692197  0.3333
  C  C10715  1  0.924633  0.898667  0.692197  0.3333
  C  C10716  1  0.101333  0.025967  0.692197  0.3333
  C  C10717  1  0.898667  0.924633  0.807803  0.3333
  C  C10718  1  0.025967  0.101333  0.807803  0.3333
  C  C10719  1  0.075367  0.974033  0.807803  0.3333
  C  C10720  1  0.307367  0.742033  0.358863  0.3333
  C  C10721  1  0.257967  0.565333  0.358863  0.3333
  C  C10722  1  0.434667  0.692633  0.358863  0.3333
  C  C10723  1  0.768000  0.408700  0.525530  0.3333
  C  C10724  1  0.640700  0.232000  0.525530  0.3333
  C  C10725  1  0.591300  0.359300  0.525530  0.3333
  C  C10726  1  0.359300  0.591300  0.974470  0.3333
  C  C10727  1  0.408700  0.768000  0.974470  0.3333
  C  C10728  1  0.232000  0.640700  0.974470  0.3333
  C  C10729  1  0.101333  0.075367  0.192197  0.3333
  C  C10730  1  0.974033  0.898667  0.192197  0.3333
  C  C10731  1  0.924633  0.025967  0.192197  0.3333
  C  C10732  1  0.692633  0.257967  0.641137  0.3333
  C  C10733  1  0.742033  0.434667  0.641137  0.3333
  C  C10734  1  0.565333  0.307367  0.641137  0.3333
  C  C10735  1  0.434667  0.742033  0.858863  0.3333
  C  C10736  1  0.307367  0.565333  0.858863  0.3333
  C  C10737  1  0.257967  0.692633  0.858863  0.3333
  C  C10738  1  0.025967  0.924633  0.307803  0.3333
  C  C10739  1  0.075367  0.101333  0.307803  0.3333
  C  C10740  1  0.898667  0.974033  0.307803  0.3333
  C  C10741  1  0.227400  0.604700  0.485710  0.3333
  C  C10742  1  0.377300  0.772600  0.485710  0.3333
  C  C10743  1  0.395300  0.622700  0.485710  0.3333
  C  C10744  1  0.622700  0.395300  0.014290  0.3333
  C  C10745  1  0.604700  0.227400  0.014290  0.3333
  C  C10746  1  0.772600  0.377300  0.014290  0.3333
  C  C10747  1  0.560733  0.271367  0.152377  0.3333
  C  C10748  1  0.710633  0.439267  0.152377  0.3333
  C  C10749  1  0.728633  0.289367  0.152377  0.3333
  C  C10750  1  0.956033  0.061967  0.680957  0.3333
  C  C10751  1  0.938033  0.894067  0.680957  0.3333
  C  C10752  1  0.105933  0.043967  0.680957  0.3333
  C  C10753  1  0.894067  0.938033  0.819043  0.3333
  C  C10754  1  0.043967  0.105933  0.819043  0.3333
  C  C10755  1  0.061967  0.956033  0.819043  0.3333
  C  C10756  1  0.289367  0.728633  0.347623  0.3333
  C  C10757  1  0.271367  0.560733  0.347623  0.3333
  C  C10758  1  0.439267  0.710633  0.347623  0.3333
  C  C10759  1  0.772600  0.395300  0.514290  0.3333
  C  C10760  1  0.622700  0.227400  0.514290  0.3333
  C  C10761  1  0.604700  0.377300  0.514290  0.3333
  C  C10762  1  0.377300  0.604700  0.985710  0.3333
  C  C10763  1  0.395300  0.772600  0.985710  0.3333
  C  C10764  1  0.227400  0.622700  0.985710  0.3333
  C  C10765  1  0.105933  0.061967  0.180957  0.3333
  C  C10766  1  0.956033  0.894067  0.180957  0.3333
  C  C10767  1  0.938033  0.043967  0.180957  0.3333
  C  C10768  1  0.710633  0.271367  0.652377  0.3333
  C  C10769  1  0.728633  0.439267  0.652377  0.3333
  C  C10770  1  0.560733  0.289367  0.652377  0.3333
  C  C10771  1  0.439267  0.728633  0.847623  0.3333
  C  C10772  1  0.289367  0.560733  0.847623  0.3333
  C  C10773  1  0.271367  0.710633  0.847623  0.3333
  C  C10774  1  0.043967  0.938033  0.319043  0.3333
  C  C10775  1  0.061967  0.105933  0.319043  0.3333
  C  C10776  1  0.894067  0.956033  0.319043  0.3333
  C  C10777  1  0.431100  0.740400  0.487930  0.3333
  C  C10778  1  0.309300  0.568900  0.487930  0.3333
  C  C10779  1  0.259600  0.690700  0.487930  0.3333
  C  C10780  1  0.690700  0.259600  0.012070  0.3333
  C  C10781  1  0.740400  0.431100  0.012070  0.3333
  C  C10782  1  0.568900  0.309300  0.012070  0.3333
  C  C10783  1  0.764433  0.407067  0.154597  0.3333
  C  C10784  1  0.642633  0.235567  0.154597  0.3333
  C  C10785  1  0.592933  0.357367  0.154597  0.3333
  C  C10786  1  0.024033  0.926267  0.678737  0.3333
  C  C10787  1  0.073733  0.097767  0.678737  0.3333
  C  C10788  1  0.902233  0.975967  0.678737  0.3333
  C  C10789  1  0.097767  0.073733  0.821263  0.3333
  C  C10790  1  0.975967  0.902233  0.821263  0.3333
  C  C10791  1  0.926267  0.024033  0.821263  0.3333
  C  C10792  1  0.357367  0.592933  0.345403  0.3333
  C  C10793  1  0.407067  0.764433  0.345403  0.3333
  C  C10794  1  0.235567  0.642633  0.345403  0.3333
  C  C10795  1  0.568900  0.259600  0.512070  0.3333
  C  C10796  1  0.690700  0.431100  0.512070  0.3333
  C  C10797  1  0.740400  0.309300  0.512070  0.3333
  C  C10798  1  0.309300  0.740400  0.987930  0.3333
  C  C10799  1  0.259600  0.568900  0.987930  0.3333
  C  C10800  1  0.431100  0.690700  0.987930  0.3333
  C  C10801  1  0.902233  0.926267  0.178737  0.3333
  C  C10802  1  0.024033  0.097767  0.178737  0.3333
  C  C10803  1  0.073733  0.975967  0.178737  0.3333
  C  C10804  1  0.642633  0.407067  0.654597  0.3333
  C  C10805  1  0.592933  0.235567  0.654597  0.3333
  C  C10806  1  0.764433  0.357367  0.654597  0.3333
  C  C10807  1  0.235567  0.592933  0.845403  0.3333
  C  C10808  1  0.357367  0.764433  0.845403  0.3333
  C  C10809  1  0.407067  0.642633  0.845403  0.3333
  C  C10810  1  0.975967  0.073733  0.321263  0.3333
  C  C10811  1  0.926267  0.902233  0.321263  0.3333
  C  C10812  1  0.097767  0.024033  0.321263  0.3333
  C  C10813  1  0.436000  0.727100  0.477050  0.3333
  C  C10814  1  0.291100  0.564000  0.477050  0.3333
  C  C10815  1  0.272900  0.708900  0.477050  0.3333
  C  C10816  1  0.708900  0.272900  0.022950  0.3333
  C  C10817  1  0.727100  0.436000  0.022950  0.3333
  C  C10818  1  0.564000  0.291100  0.022950  0.3333
  C  C10819  1  0.769333  0.393767  0.143717  0.3333
  C  C10820  1  0.624433  0.230667  0.143717  0.3333
  C  C10821  1  0.606233  0.375567  0.143717  0.3333
  C  C10822  1  0.042233  0.939567  0.689617  0.3333
  C  C10823  1  0.060433  0.102667  0.689617  0.3333
  C  C10824  1  0.897333  0.957767  0.689617  0.3333
  C  C10825  1  0.102667  0.060433  0.810383  0.3333
  C  C10826  1  0.957767  0.897333  0.810383  0.3333
  C  C10827  1  0.939567  0.042233  0.810383  0.3333
  C  C10828  1  0.375567  0.606233  0.356283  0.3333
  C  C10829  1  0.393767  0.769333  0.356283  0.3333
  C  C10830  1  0.230667  0.624433  0.356283  0.3333
  C  C10831  1  0.564000  0.272900  0.522950  0.3333
  C  C10832  1  0.708900  0.436000  0.522950  0.3333
  C  C10833  1  0.727100  0.291100  0.522950  0.3333
  C  C10834  1  0.291100  0.727100  0.977050  0.3333
  C  C10835  1  0.272900  0.564000  0.977050  0.3333
  C  C10836  1  0.436000  0.708900  0.977050  0.3333
  C  C10837  1  0.897333  0.939567  0.189617  0.3333
  C  C10838  1  0.042233  0.102667  0.189617  0.3333
  C  C10839  1  0.060433  0.957767  0.189617  0.3333
  C  C10840  1  0.624433  0.393767  0.643717  0.3333
  C  C10841  1  0.606233  0.230667  0.643717  0.3333
  C  C10842  1  0.769333  0.375567  0.643717  0.3333
  C  C10843  1  0.230667  0.606233  0.856283  0.3333
  C  C10844  1  0.375567  0.769333  0.856283  0.3333
  C  C10845  1  0.393767  0.624433  0.856283  0.3333
  C  C10846  1  0.957767  0.060433  0.310383  0.3333
  C  C10847  1  0.939567  0.897333  0.310383  0.3333
  C  C10848  1  0.102667  0.042233  0.310383  0.3333
  C  C10849  1  0.367300  0.608100  0.495970  0.3333
  C  C10850  1  0.240800  0.632700  0.495970  0.3333
  C  C10851  1  0.391900  0.759200  0.495970  0.3333
  C  C10852  1  0.759200  0.391900  0.004030  0.3333
  C  C10853  1  0.608100  0.367300  0.004030  0.3333
  C  C10854  1  0.632700  0.240800  0.004030  0.3333
  C  C10855  1  0.700633  0.274767  0.162637  0.3333
  C  C10856  1  0.574133  0.299367  0.162637  0.3333
  C  C10857  1  0.725233  0.425867  0.162637  0.3333
  C  C10858  1  0.092533  0.058567  0.670697  0.3333
  C  C10859  1  0.941433  0.033967  0.670697  0.3333
  C  C10860  1  0.966033  0.907467  0.670697  0.3333
  C  C10861  1  0.033967  0.941433  0.829303  0.3333
  C  C10862  1  0.907467  0.966033  0.829303  0.3333
  C  C10863  1  0.058567  0.092533  0.829303  0.3333
  C  C10864  1  0.425867  0.725233  0.337363  0.3333
  C  C10865  1  0.274767  0.700633  0.337363  0.3333
  C  C10866  1  0.299367  0.574133  0.337363  0.3333
  C  C10867  1  0.632700  0.391900  0.504030  0.3333
  C  C10868  1  0.759200  0.367300  0.504030  0.3333
  C  C10869  1  0.608100  0.240800  0.504030  0.3333
  C  C10870  1  0.240800  0.608100  0.995970  0.3333
  C  C10871  1  0.391900  0.632700  0.995970  0.3333
  C  C10872  1  0.367300  0.759200  0.995970  0.3333
  C  C10873  1  0.966033  0.058567  0.170697  0.3333
  C  C10874  1  0.092533  0.033967  0.170697  0.3333
  C  C10875  1  0.941433  0.907467  0.170697  0.3333
  C  C10876  1  0.574133  0.274767  0.662637  0.3333
  C  C10877  1  0.725233  0.299367  0.662637  0.3333
  C  C10878  1  0.700633  0.425867  0.662637  0.3333
  C  C10879  1  0.299367  0.725233  0.837363  0.3333
  C  C10880  1  0.425867  0.700633  0.837363  0.3333
  C  C10881  1  0.274767  0.574133  0.837363  0.3333
  C  C10882  1  0.907467  0.941433  0.329303  0.3333
  C  C10883  1  0.058567  0.966033  0.329303  0.3333
  C  C10884  1  0.033967  0.092533  0.329303  0.3333
  C  C10885  1  0.251800  0.661100  0.498330  0.3333
  C  C10886  1  0.409300  0.748200  0.498330  0.3333
  C  C10887  1  0.338900  0.590700  0.498330  0.3333
  C  C10888  1  0.590700  0.338900  0.001670  0.3333
  C  C10889  1  0.661100  0.251800  0.001670  0.3333
  C  C10890  1  0.748200  0.409300  0.001670  0.3333
  C  C10891  1  0.585133  0.327767  0.164997  0.3333
  C  C10892  1  0.742633  0.414867  0.164997  0.3333
  C  C10893  1  0.672233  0.257367  0.164997  0.3333
  C  C10894  1  0.924033  0.005567  0.668337  0.3333
  C  C10895  1  0.994433  0.918467  0.668337  0.3333
  C  C10896  1  0.081533  0.075967  0.668337  0.3333
  C  C10897  1  0.918467  0.994433  0.831663  0.3333
  C  C10898  1  0.075967  0.081533  0.831663  0.3333
  C  C10899  1  0.005567  0.924033  0.831663  0.3333
  C  C10900  1  0.257367  0.672233  0.335003  0.3333
  C  C10901  1  0.327767  0.585133  0.335003  0.3333
  C  C10902  1  0.414867  0.742633  0.335003  0.3333
  C  C10903  1  0.748200  0.338900  0.501670  0.3333
  C  C10904  1  0.590700  0.251800  0.501670  0.3333
  C  C10905  1  0.661100  0.409300  0.501670  0.3333
  C  C10906  1  0.409300  0.661100  0.998330  0.3333
  C  C10907  1  0.338900  0.748200  0.998330  0.3333
  C  C10908  1  0.251800  0.590700  0.998330  0.3333
  C  C10909  1  0.081533  0.005567  0.168337  0.3333
  C  C10910  1  0.924033  0.918467  0.168337  0.3333
  C  C10911  1  0.994433  0.075967  0.168337  0.3333
  C  C10912  1  0.742633  0.327767  0.664997  0.3333
  C  C10913  1  0.672233  0.414867  0.664997  0.3333
  C  C10914  1  0.585133  0.257367  0.664997  0.3333
  C  C10915  1  0.414867  0.672233  0.835003  0.3333
  C  C10916  1  0.257367  0.585133  0.835003  0.3333
  C  C10917  1  0.327767  0.742633  0.835003  0.3333
  C  C10918  1  0.075967  0.994433  0.331663  0.3333
  C  C10919  1  0.005567  0.081533  0.331663  0.3333
  C  C10920  1  0.918467  0.924033  0.331663  0.3333
  C  C10921  1  0.411700  0.671200  0.464270  0.3333
  C  C10922  1  0.259500  0.588300  0.464270  0.3333
  C  C10923  1  0.328800  0.740500  0.464270  0.3333
  C  C10924  1  0.740500  0.328800  0.035730  0.3333
  C  C10925  1  0.671200  0.411700  0.035730  0.3333
  C  C10926  1  0.588300  0.259500  0.035730  0.3333
  C  C10927  1  0.745033  0.337867  0.130937  0.3333
  C  C10928  1  0.592833  0.254967  0.130937  0.3333
  C  C10929  1  0.662133  0.407167  0.130937  0.3333
  C  C10930  1  0.073833  0.995467  0.702397  0.3333
  C  C10931  1  0.004533  0.078367  0.702397  0.3333
  C  C10932  1  0.921633  0.926167  0.702397  0.3333
  C  C10933  1  0.078367  0.004533  0.797603  0.3333
  C  C10934  1  0.926167  0.921633  0.797603  0.3333
  C  C10935  1  0.995467  0.073833  0.797603  0.3333
  C  C10936  1  0.407167  0.662133  0.369063  0.3333
  C  C10937  1  0.337867  0.745033  0.369063  0.3333
  C  C10938  1  0.254967  0.592833  0.369063  0.3333
  C  C10939  1  0.588300  0.328800  0.535730  0.3333
  C  C10940  1  0.740500  0.411700  0.535730  0.3333
  C  C10941  1  0.671200  0.259500  0.535730  0.3333
  C  C10942  1  0.259500  0.671200  0.964270  0.3333
  C  C10943  1  0.328800  0.588300  0.964270  0.3333
  C  C10944  1  0.411700  0.740500  0.964270  0.3333
  C  C10945  1  0.921633  0.995467  0.202397  0.3333
  C  C10946  1  0.073833  0.078367  0.202397  0.3333
  C  C10947  1  0.004533  0.926167  0.202397  0.3333
  C  C10948  1  0.592833  0.337867  0.630937  0.3333
  C  C10949  1  0.662133  0.254967  0.630937  0.3333
  C  C10950  1  0.745033  0.407167  0.630937  0.3333
  C  C10951  1  0.254967  0.662133  0.869063  0.3333
  C  C10952  1  0.407167  0.745033  0.869063  0.3333
  C  C10953  1  0.337867  0.592833  0.869063  0.3333
  C  C10954  1  0.926167  0.004533  0.297603  0.3333
  C  C10955  1  0.995467  0.921633  0.297603  0.3333
  C  C10956  1  0.078367  0.073833  0.297603  0.3333
  C  C10957  1  0.263200  0.576000  0.495830  0.3333
  C  C10958  1  0.312800  0.736800  0.495830  0.3333
  C  C10959  1  0.424000  0.687200  0.495830  0.3333
  C  C10960  1  0.687200  0.424000  0.004170  0.3333
  C  C10961  1  0.576000  0.263200  0.004170  0.3333
  C  C10962  1  0.736800  0.312800  0.004170  0.3333
  C  C10963  1  0.596533  0.242667  0.162497  0.3333
  C  C10964  1  0.646133  0.403467  0.162497  0.3333
  C  C10965  1  0.757333  0.353867  0.162497  0.3333
  C  C10966  1  0.020533  0.090667  0.670837  0.3333
  C  C10967  1  0.909333  0.929867  0.670837  0.3333
  C  C10968  1  0.070133  0.979467  0.670837  0.3333
  C  C10969  1  0.929867  0.909333  0.829163  0.3333
  C  C10970  1  0.979467  0.070133  0.829163  0.3333
  C  C10971  1  0.090667  0.020533  0.829163  0.3333
  C  C10972  1  0.353867  0.757333  0.337503  0.3333
  C  C10973  1  0.242667  0.596533  0.337503  0.3333
  C  C10974  1  0.403467  0.646133  0.337503  0.3333
  C  C10975  1  0.736800  0.424000  0.504170  0.3333
  C  C10976  1  0.687200  0.263200  0.504170  0.3333
  C  C10977  1  0.576000  0.312800  0.504170  0.3333
  C  C10978  1  0.312800  0.576000  0.995830  0.3333
  C  C10979  1  0.424000  0.736800  0.995830  0.3333
  C  C10980  1  0.263200  0.687200  0.995830  0.3333
  C  C10981  1  0.070133  0.090667  0.170837  0.3333
  C  C10982  1  0.020533  0.929867  0.170837  0.3333
  C  C10983  1  0.909333  0.979467  0.170837  0.3333
  C  C10984  1  0.646133  0.242667  0.662497  0.3333
  C  C10985  1  0.757333  0.403467  0.662497  0.3333
  C  C10986  1  0.596533  0.353867  0.662497  0.3333
  C  C10987  1  0.403467  0.757333  0.837503  0.3333
  C  C10988  1  0.353867  0.596533  0.837503  0.3333
  C  C10989  1  0.242667  0.646133  0.837503  0.3333
  C  C10990  1  0.979467  0.909333  0.329163  0.3333
  C  C10991  1  0.090667  0.070133  0.329163  0.3333
  C  C10992  1  0.929867  0.020533  0.329163  0.3333
  C  C10993  1  0.295800  0.723400  0.466880  0.3333
  C  C10994  1  0.427600  0.704200  0.466880  0.3333
  C  C10995  1  0.276600  0.572400  0.466880  0.3333
  C  C10996  1  0.572400  0.276600  0.033120  0.3333
  C  C10997  1  0.723400  0.295800  0.033120  0.3333
  C  C10998  1  0.704200  0.427600  0.033120  0.3333
  C  C10999  1  0.629133  0.390067  0.133547  0.3333
  C  C11000  1  0.760933  0.370867  0.133547  0.3333
  C  C11001  1  0.609933  0.239067  0.133547  0.3333
  C  C11002  1  0.905733  0.943267  0.699787  0.3333
  C  C11003  1  0.056733  0.962467  0.699787  0.3333
  C  C11004  1  0.037533  0.094267  0.699787  0.3333
  C  C11005  1  0.962467  0.056733  0.800213  0.3333
  C  C11006  1  0.094267  0.037533  0.800213  0.3333
  C  C11007  1  0.943267  0.905733  0.800213  0.3333
  C  C11008  1  0.239067  0.609933  0.366453  0.3333
  C  C11009  1  0.390067  0.629133  0.366453  0.3333
  C  C11010  1  0.370867  0.760933  0.366453  0.3333
  C  C11011  1  0.704200  0.276600  0.533120  0.3333
  C  C11012  1  0.572400  0.295800  0.533120  0.3333
  C  C11013  1  0.723400  0.427600  0.533120  0.3333
  C  C11014  1  0.427600  0.723400  0.966880  0.3333
  C  C11015  1  0.276600  0.704200  0.966880  0.3333
  C  C11016  1  0.295800  0.572400  0.966880  0.3333
  C  C11017  1  0.037533  0.943267  0.199787  0.3333
  C  C11018  1  0.905733  0.962467  0.199787  0.3333
  C  C11019  1  0.056733  0.094267  0.199787  0.3333
  C  C11020  1  0.760933  0.390067  0.633547  0.3333
  C  C11021  1  0.609933  0.370867  0.633547  0.3333
  C  C11022  1  0.629133  0.239067  0.633547  0.3333
  C  C11023  1  0.370867  0.609933  0.866453  0.3333
  C  C11024  1  0.239067  0.629133  0.866453  0.3333
  C  C11025  1  0.390067  0.760933  0.866453  0.3333
  C  C11026  1  0.094267  0.056733  0.300213  0.3333
  C  C11027  1  0.943267  0.037533  0.300213  0.3333
  C  C11028  1  0.962467  0.905733  0.300213  0.3333
  C  C11029  1  0.270600  0.610700  0.456860  0.3333
  C  C11030  1  0.340100  0.729400  0.456860  0.3333
  C  C11031  1  0.389300  0.659900  0.456860  0.3333
  C  C11032  1  0.659900  0.389300  0.043140  0.3333
  C  C11033  1  0.610700  0.270600  0.043140  0.3333
  C  C11034  1  0.729400  0.340100  0.043140  0.3333
  C  C11035  1  0.603933  0.277367  0.123527  0.3333
  C  C11036  1  0.673433  0.396067  0.123527  0.3333
  C  C11037  1  0.722633  0.326567  0.123527  0.3333
  C  C11038  1  0.993233  0.055967  0.709807  0.3333
  C  C11039  1  0.944033  0.937267  0.709807  0.3333
  C  C11040  1  0.062733  0.006767  0.709807  0.3333
  C  C11041  1  0.937267  0.944033  0.790193  0.3333
  C  C11042  1  0.006767  0.062733  0.790193  0.3333
  C  C11043  1  0.055967  0.993233  0.790193  0.3333
  C  C11044  1  0.326567  0.722633  0.376473  0.3333
  C  C11045  1  0.277367  0.603933  0.376473  0.3333
  C  C11046  1  0.396067  0.673433  0.376473  0.3333
  C  C11047  1  0.729400  0.389300  0.543140  0.3333
  C  C11048  1  0.659900  0.270600  0.543140  0.3333
  C  C11049  1  0.610700  0.340100  0.543140  0.3333
  C  C11050  1  0.340100  0.610700  0.956860  0.3333
  C  C11051  1  0.389300  0.729400  0.956860  0.3333
  C  C11052  1  0.270600  0.659900  0.956860  0.3333
  C  C11053  1  0.062733  0.055967  0.209807  0.3333
  C  C11054  1  0.993233  0.937267  0.209807  0.3333
  C  C11055  1  0.944033  0.006767  0.209807  0.3333
  C  C11056  1  0.673433  0.277367  0.623527  0.3333
  C  C11057  1  0.722633  0.396067  0.623527  0.3333
  C  C11058  1  0.603933  0.326567  0.623527  0.3333
  C  C11059  1  0.396067  0.722633  0.876473  0.3333
  C  C11060  1  0.326567  0.603933  0.876473  0.3333
  C  C11061  1  0.277367  0.673433  0.876473  0.3333
  C  C11062  1  0.006767  0.944033  0.290193  0.3333
  C  C11063  1  0.055967  0.062733  0.290193  0.3333
  C  C11064  1  0.937267  0.993233  0.290193  0.3333
  C  C11065  1  0.400000  0.756500  0.466840  0.3333
  C  C11066  1  0.356500  0.600000  0.466840  0.3333
  C  C11067  1  0.243500  0.643500  0.466840  0.3333
  C  C11068  1  0.643500  0.243500  0.033160  0.3333
  C  C11069  1  0.756500  0.400000  0.033160  0.3333
  C  C11070  1  0.600000  0.356500  0.033160  0.3333
  C  C11071  1  0.733333  0.423167  0.133507  0.3333
  C  C11072  1  0.689833  0.266667  0.133507  0.3333
  C  C11073  1  0.576833  0.310167  0.133507  0.3333
  C  C11074  1  0.976833  0.910167  0.699827  0.3333
  C  C11075  1  0.089833  0.066667  0.699827  0.3333
  C  C11076  1  0.933333  0.023167  0.699827  0.3333
  C  C11077  1  0.066667  0.089833  0.800173  0.3333
  C  C11078  1  0.023167  0.933333  0.800173  0.3333
  C  C11079  1  0.910167  0.976833  0.800173  0.3333
  C  C11080  1  0.310167  0.576833  0.366493  0.3333
  C  C11081  1  0.423167  0.733333  0.366493  0.3333
  C  C11082  1  0.266667  0.689833  0.366493  0.3333
  C  C11083  1  0.600000  0.243500  0.533160  0.3333
  C  C11084  1  0.643500  0.400000  0.533160  0.3333
  C  C11085  1  0.756500  0.356500  0.533160  0.3333
  C  C11086  1  0.356500  0.756500  0.966840  0.3333
  C  C11087  1  0.243500  0.600000  0.966840  0.3333
  C  C11088  1  0.400000  0.643500  0.966840  0.3333
  C  C11089  1  0.933333  0.910167  0.199827  0.3333
  C  C11090  1  0.976833  0.066667  0.199827  0.3333
  C  C11091  1  0.089833  0.023167  0.199827  0.3333
  C  C11092  1  0.689833  0.423167  0.633507  0.3333
  C  C11093  1  0.576833  0.266667  0.633507  0.3333
  C  C11094  1  0.733333  0.310167  0.633507  0.3333
  C  C11095  1  0.266667  0.576833  0.866493  0.3333
  C  C11096  1  0.310167  0.733333  0.866493  0.3333
  C  C11097  1  0.423167  0.689833  0.866493  0.3333
  C  C11098  1  0.023167  0.089833  0.300173  0.3333
  C  C11099  1  0.910167  0.933333  0.300173  0.3333
  C  C11100  1  0.066667  0.976833  0.300173  0.3333
  C  C11101  1  0.393300  0.721300  0.505750  0.3333
  C  C11102  1  0.328000  0.606700  0.505750  0.3333
  C  C11103  1  0.278700  0.672000  0.505750  0.3333
  C  C11104  1  0.672000  0.278700  0.994250  0.3333
  C  C11105  1  0.721300  0.393300  0.994250  0.3333
  C  C11106  1  0.606700  0.328000  0.994250  0.3333
  C  C11107  1  0.726633  0.387967  0.172417  0.3333
  C  C11108  1  0.661333  0.273367  0.172417  0.3333
  C  C11109  1  0.612033  0.338667  0.172417  0.3333
  C  C11110  1  0.005333  0.945367  0.660917  0.3333
  C  C11111  1  0.054633  0.059967  0.660917  0.3333
  C  C11112  1  0.940033  0.994667  0.660917  0.3333
  C  C11113  1  0.059967  0.054633  0.839083  0.3333
  C  C11114  1  0.994667  0.940033  0.839083  0.3333
  C  C11115  1  0.945367  0.005333  0.839083  0.3333
  C  C11116  1  0.338667  0.612033  0.327583  0.3333
  C  C11117  1  0.387967  0.726633  0.327583  0.3333
  C  C11118  1  0.273367  0.661333  0.327583  0.3333
  C  C11119  1  0.606700  0.278700  0.494250  0.3333
  C  C11120  1  0.672000  0.393300  0.494250  0.3333
  C  C11121  1  0.721300  0.328000  0.494250  0.3333
  C  C11122  1  0.328000  0.721300  0.005750  0.3333
  C  C11123  1  0.278700  0.606700  0.005750  0.3333
  C  C11124  1  0.393300  0.672000  0.005750  0.3333
  C  C11125  1  0.940033  0.945367  0.160917  0.3333
  C  C11126  1  0.005333  0.059967  0.160917  0.3333
  C  C11127  1  0.054633  0.994667  0.160917  0.3333
  C  C11128  1  0.661333  0.387967  0.672417  0.3333
  C  C11129  1  0.612033  0.273367  0.672417  0.3333
  C  C11130  1  0.726633  0.338667  0.672417  0.3333
  C  C11131  1  0.273367  0.612033  0.827583  0.3333
  C  C11132  1  0.338667  0.726633  0.827583  0.3333
  C  C11133  1  0.387967  0.661333  0.827583  0.3333
  C  C11134  1  0.994667  0.054633  0.339083  0.3333
  C  C11135  1  0.945367  0.940033  0.339083  0.3333
  C  C11136  1  0.059967  0.005333  0.339083  0.3333
  C  C11137  1  0.361300  0.689700  0.511700  0.3333
  C  C11138  1  0.328400  0.638700  0.511700  0.3333
  C  C11139  1  0.310300  0.671600  0.511700  0.3333
  C  C11140  1  0.671600  0.310300  0.988300  0.3333
  C  C11141  1  0.689700  0.361300  0.988300  0.3333
  C  C11142  1  0.638700  0.328400  0.988300  0.3333
  C  C11143  1  0.694633  0.356367  0.178367  0.3333
  C  C11144  1  0.661733  0.305367  0.178367  0.3333
  C  C11145  1  0.643633  0.338267  0.178367  0.3333
  C  C11146  1  0.004933  0.976967  0.654967  0.3333
  C  C11147  1  0.023033  0.027967  0.654967  0.3333
  C  C11148  1  0.972033  0.995067  0.654967  0.3333
  C  C11149  1  0.027967  0.023033  0.845033  0.3333
  C  C11150  1  0.995067  0.972033  0.845033  0.3333
  C  C11151  1  0.976967  0.004933  0.845033  0.3333
  C  C11152  1  0.338267  0.643633  0.321633  0.3333
  C  C11153  1  0.356367  0.694633  0.321633  0.3333
  C  C11154  1  0.305367  0.661733  0.321633  0.3333
  C  C11155  1  0.638700  0.310300  0.488300  0.3333
  C  C11156  1  0.671600  0.361300  0.488300  0.3333
  C  C11157  1  0.689700  0.328400  0.488300  0.3333
  C  C11158  1  0.328400  0.689700  0.011700  0.3333
  C  C11159  1  0.310300  0.638700  0.011700  0.3333
  C  C11160  1  0.361300  0.671600  0.011700  0.3333
  C  C11161  1  0.972033  0.976967  0.154967  0.3333
  C  C11162  1  0.004933  0.027967  0.154967  0.3333
  C  C11163  1  0.023033  0.995067  0.154967  0.3333
  C  C11164  1  0.661733  0.356367  0.678367  0.3333
  C  C11165  1  0.643633  0.305367  0.678367  0.3333
  C  C11166  1  0.694633  0.338267  0.678367  0.3333
  C  C11167  1  0.305367  0.643633  0.821633  0.3333
  C  C11168  1  0.338267  0.694633  0.821633  0.3333
  C  C11169  1  0.356367  0.661733  0.821633  0.3333
  C  C11170  1  0.995067  0.023033  0.345033  0.3333
  C  C11171  1  0.976967  0.972033  0.345033  0.3333
  C  C11172  1  0.027967  0.004933  0.345033  0.3333
  C  C11173  1  0.349100  0.710500  0.452360  0.3333
  C  C11174  1  0.361400  0.650900  0.452360  0.3333
  C  C11175  1  0.289500  0.638600  0.452360  0.3333
  C  C11176  1  0.638600  0.289500  0.047640  0.3333
  C  C11177  1  0.710500  0.349100  0.047640  0.3333
  C  C11178  1  0.650900  0.361400  0.047640  0.3333
  C  C11179  1  0.682433  0.377167  0.119027  0.3333
  C  C11180  1  0.694733  0.317567  0.119027  0.3333
  C  C11181  1  0.622833  0.305267  0.119027  0.3333
  C  C11182  1  0.971933  0.956167  0.714307  0.3333
  C  C11183  1  0.043833  0.015767  0.714307  0.3333
  C  C11184  1  0.984233  0.028067  0.714307  0.3333
  C  C11185  1  0.015767  0.043833  0.785693  0.3333
  C  C11186  1  0.028067  0.984233  0.785693  0.3333
  C  C11187  1  0.956167  0.971933  0.785693  0.3333
  C  C11188  1  0.305267  0.622833  0.380973  0.3333
  C  C11189  1  0.377167  0.682433  0.380973  0.3333
  C  C11190  1  0.317567  0.694733  0.380973  0.3333
  C  C11191  1  0.650900  0.289500  0.547640  0.3333
  C  C11192  1  0.638600  0.349100  0.547640  0.3333
  C  C11193  1  0.710500  0.361400  0.547640  0.3333
  C  C11194  1  0.361400  0.710500  0.952360  0.3333
  C  C11195  1  0.289500  0.650900  0.952360  0.3333
  C  C11196  1  0.349100  0.638600  0.952360  0.3333
  C  C11197  1  0.984233  0.956167  0.214307  0.3333
  C  C11198  1  0.971933  0.015767  0.214307  0.3333
  C  C11199  1  0.043833  0.028067  0.214307  0.3333
  C  C11200  1  0.694733  0.377167  0.619027  0.3333
  C  C11201  1  0.622833  0.317567  0.619027  0.3333
  C  C11202  1  0.682433  0.305267  0.619027  0.3333
  C  C11203  1  0.317567  0.622833  0.880973  0.3333
  C  C11204  1  0.305267  0.682433  0.880973  0.3333
  C  C11205  1  0.377167  0.694733  0.880973  0.3333
  C  C11206  1  0.028067  0.043833  0.285693  0.3333
  C  C11207  1  0.956167  0.984233  0.285693  0.3333
  C  C11208  1  0.015767  0.971933  0.285693  0.3333
  C  C11209  1  0.420900  0.714800  0.498440  0.3333
  C  C11210  1  0.293900  0.579100  0.498440  0.3333
  C  C11211  1  0.285200  0.706100  0.498440  0.3333
  C  C11212  1  0.706100  0.285200  0.001560  0.3333
  C  C11213  1  0.714800  0.420900  0.001560  0.3333
  C  C11214  1  0.579100  0.293900  0.001560  0.3333
  C  C11215  1  0.754233  0.381467  0.165107  0.3333
  C  C11216  1  0.627233  0.245767  0.165107  0.3333
  C  C11217  1  0.618533  0.372767  0.165107  0.3333
  C  C11218  1  0.039433  0.951867  0.668227  0.3333
  C  C11219  1  0.048133  0.087567  0.668227  0.3333
  C  C11220  1  0.912433  0.960567  0.668227  0.3333
  C  C11221  1  0.087567  0.048133  0.831773  0.3333
  C  C11222  1  0.960567  0.912433  0.831773  0.3333
  C  C11223  1  0.951867  0.039433  0.831773  0.3333
  C  C11224  1  0.372767  0.618533  0.334893  0.3333
  C  C11225  1  0.381467  0.754233  0.334893  0.3333
  C  C11226  1  0.245767  0.627233  0.334893  0.3333
  C  C11227  1  0.579100  0.285200  0.501560  0.3333
  C  C11228  1  0.706100  0.420900  0.501560  0.3333
  C  C11229  1  0.714800  0.293900  0.501560  0.3333
  C  C11230  1  0.293900  0.714800  0.998440  0.3333
  C  C11231  1  0.285200  0.579100  0.998440  0.3333
  C  C11232  1  0.420900  0.706100  0.998440  0.3333
  C  C11233  1  0.912433  0.951867  0.168227  0.3333
  C  C11234  1  0.039433  0.087567  0.168227  0.3333
  C  C11235  1  0.048133  0.960567  0.168227  0.3333
  C  C11236  1  0.627233  0.381467  0.665107  0.3333
  C  C11237  1  0.618533  0.245767  0.665107  0.3333
  C  C11238  1  0.754233  0.372767  0.665107  0.3333
  C  C11239  1  0.245767  0.618533  0.834893  0.3333
  C  C11240  1  0.372767  0.754233  0.834893  0.3333
  C  C11241  1  0.381467  0.627233  0.834893  0.3333
  C  C11242  1  0.960567  0.048133  0.331773  0.3333
  C  C11243  1  0.951867  0.912433  0.331773  0.3333
  C  C11244  1  0.087567  0.039433  0.331773  0.3333
  C  C11245  1  0.355900  0.649500  0.510680  0.3333
  C  C11246  1  0.293600  0.644100  0.510680  0.3333
  C  C11247  1  0.350500  0.706400  0.510680  0.3333
  C  C11248  1  0.706400  0.350500  0.989320  0.3333
  C  C11249  1  0.649500  0.355900  0.989320  0.3333
  C  C11250  1  0.644100  0.293600  0.989320  0.3333
  C  C11251  1  0.689233  0.316167  0.177347  0.3333
  C  C11252  1  0.626933  0.310767  0.177347  0.3333
  C  C11253  1  0.683833  0.373067  0.177347  0.3333
  C  C11254  1  0.039733  0.017167  0.655987  0.3333
  C  C11255  1  0.982833  0.022567  0.655987  0.3333
  C  C11256  1  0.977433  0.960267  0.655987  0.3333
  C  C11257  1  0.022567  0.982833  0.844013  0.3333
  C  C11258  1  0.960267  0.977433  0.844013  0.3333
  C  C11259  1  0.017167  0.039733  0.844013  0.3333
  C  C11260  1  0.373067  0.683833  0.322653  0.3333
  C  C11261  1  0.316167  0.689233  0.322653  0.3333
  C  C11262  1  0.310767  0.626933  0.322653  0.3333
  C  C11263  1  0.644100  0.350500  0.489320  0.3333
  C  C11264  1  0.706400  0.355900  0.489320  0.3333
  C  C11265  1  0.649500  0.293600  0.489320  0.3333
  C  C11266  1  0.293600  0.649500  0.010680  0.3333
  C  C11267  1  0.350500  0.644100  0.010680  0.3333
  C  C11268  1  0.355900  0.706400  0.010680  0.3333
  C  C11269  1  0.977433  0.017167  0.155987  0.3333
  C  C11270  1  0.039733  0.022567  0.155987  0.3333
  C  C11271  1  0.982833  0.960267  0.155987  0.3333
  C  C11272  1  0.626933  0.316167  0.677347  0.3333
  C  C11273  1  0.683833  0.310767  0.677347  0.3333
  C  C11274  1  0.689233  0.373067  0.677347  0.3333
  C  C11275  1  0.310767  0.683833  0.822653  0.3333
  C  C11276  1  0.373067  0.689233  0.822653  0.3333
  C  C11277  1  0.316167  0.626933  0.822653  0.3333
  C  C11278  1  0.960267  0.982833  0.344013  0.3333
  C  C11279  1  0.017167  0.977433  0.344013  0.3333
  C  C11280  1  0.022567  0.039733  0.344013  0.3333
  C  C11281  1  0.314300  0.620900  0.510110  0.3333
  C  C11282  1  0.306600  0.685700  0.510110  0.3333
  C  C11283  1  0.379100  0.693400  0.510110  0.3333
  C  C11284  1  0.693400  0.379100  0.989890  0.3333
  C  C11285  1  0.620900  0.314300  0.989890  0.3333
  C  C11286  1  0.685700  0.306600  0.989890  0.3333
  C  C11287  1  0.647633  0.287567  0.176777  0.3333
  C  C11288  1  0.639933  0.352367  0.176777  0.3333
  C  C11289  1  0.712433  0.360067  0.176777  0.3333
  C  C11290  1  0.026733  0.045767  0.656557  0.3333
  C  C11291  1  0.954233  0.980967  0.656557  0.3333
  C  C11292  1  0.019033  0.973267  0.656557  0.3333
  C  C11293  1  0.980967  0.954233  0.843443  0.3333
  C  C11294  1  0.973267  0.019033  0.843443  0.3333
  C  C11295  1  0.045767  0.026733  0.843443  0.3333
  C  C11296  1  0.360067  0.712433  0.323223  0.3333
  C  C11297  1  0.287567  0.647633  0.323223  0.3333
  C  C11298  1  0.352367  0.639933  0.323223  0.3333
  C  C11299  1  0.685700  0.379100  0.489890  0.3333
  C  C11300  1  0.693400  0.314300  0.489890  0.3333
  C  C11301  1  0.620900  0.306600  0.489890  0.3333
  C  C11302  1  0.306600  0.620900  0.010110  0.3333
  C  C11303  1  0.379100  0.685700  0.010110  0.3333
  C  C11304  1  0.314300  0.693400  0.010110  0.3333
  C  C11305  1  0.019033  0.045767  0.156557  0.3333
  C  C11306  1  0.026733  0.980967  0.156557  0.3333
  C  C11307  1  0.954233  0.973267  0.156557  0.3333
  C  C11308  1  0.639933  0.287567  0.676777  0.3333
  C  C11309  1  0.712433  0.352367  0.676777  0.3333
  C  C11310  1  0.647633  0.360067  0.676777  0.3333
  C  C11311  1  0.352367  0.712433  0.823223  0.3333
  C  C11312  1  0.360067  0.647633  0.823223  0.3333
  C  C11313  1  0.287567  0.639933  0.823223  0.3333
  C  C11314  1  0.973267  0.954233  0.343443  0.3333
  C  C11315  1  0.045767  0.019033  0.343443  0.3333
  C  C11316  1  0.980967  0.026733  0.343443  0.3333
  C  C11317  1  0.306100  0.682300  0.451950  0.3333
  C  C11318  1  0.376200  0.693900  0.451950  0.3333
  C  C11319  1  0.317700  0.623800  0.451950  0.3333
  C  C11320  1  0.623800  0.317700  0.048050  0.3333
  C  C11321  1  0.682300  0.306100  0.048050  0.3333
  C  C11322  1  0.693900  0.376200  0.048050  0.3333
  C  C11323  1  0.639433  0.348967  0.118617  0.3333
  C  C11324  1  0.709533  0.360567  0.118617  0.3333
  C  C11325  1  0.651033  0.290467  0.118617  0.3333
  C  C11326  1  0.957133  0.984367  0.714717  0.3333
  C  C11327  1  0.015633  0.972767  0.714717  0.3333
  C  C11328  1  0.027233  0.042867  0.714717  0.3333
  C  C11329  1  0.972767  0.015633  0.785283  0.3333
  C  C11330  1  0.042867  0.027233  0.785283  0.3333
  C  C11331  1  0.984367  0.957133  0.785283  0.3333
  C  C11332  1  0.290467  0.651033  0.381383  0.3333
  C  C11333  1  0.348967  0.639433  0.381383  0.3333
  C  C11334  1  0.360567  0.709533  0.381383  0.3333
  C  C11335  1  0.693900  0.317700  0.548050  0.3333
  C  C11336  1  0.623800  0.306100  0.548050  0.3333
  C  C11337  1  0.682300  0.376200  0.548050  0.3333
  C  C11338  1  0.376200  0.682300  0.951950  0.3333
  C  C11339  1  0.317700  0.693900  0.951950  0.3333
  C  C11340  1  0.306100  0.623800  0.951950  0.3333
  C  C11341  1  0.027233  0.984367  0.214717  0.3333
  C  C11342  1  0.957133  0.972767  0.214717  0.3333
  C  C11343  1  0.015633  0.042867  0.214717  0.3333
  C  C11344  1  0.709533  0.348967  0.618617  0.3333
  C  C11345  1  0.651033  0.360567  0.618617  0.3333
  C  C11346  1  0.639433  0.290467  0.618617  0.3333
  C  C11347  1  0.360567  0.651033  0.881383  0.3333
  C  C11348  1  0.290467  0.639433  0.881383  0.3333
  C  C11349  1  0.348967  0.709533  0.881383  0.3333
  C  C11350  1  0.042867  0.015633  0.285283  0.3333
  C  C11351  1  0.984367  0.027233  0.285283  0.3333
  C  C11352  1  0.972767  0.957133  0.285283  0.3333
  C  C11353  1  0.242600  0.616400  0.464180  0.3333
  C  C11354  1  0.373800  0.757400  0.464180  0.3333
  C  C11355  1  0.383600  0.626200  0.464180  0.3333
  C  C11356  1  0.626200  0.383600  0.035820  0.3333
  C  C11357  1  0.616400  0.242600  0.035820  0.3333
  C  C11358  1  0.757400  0.373800  0.035820  0.3333
  C  C11359  1  0.575933  0.283067  0.130847  0.3333
  C  C11360  1  0.707133  0.424067  0.130847  0.3333
  C  C11361  1  0.716933  0.292867  0.130847  0.3333
  C  C11362  1  0.959533  0.050267  0.702487  0.3333
  C  C11363  1  0.949733  0.909267  0.702487  0.3333
  C  C11364  1  0.090733  0.040467  0.702487  0.3333
  C  C11365  1  0.909267  0.949733  0.797513  0.3333
  C  C11366  1  0.040467  0.090733  0.797513  0.3333
  C  C11367  1  0.050267  0.959533  0.797513  0.3333
  C  C11368  1  0.292867  0.716933  0.369153  0.3333
  C  C11369  1  0.283067  0.575933  0.369153  0.3333
  C  C11370  1  0.424067  0.707133  0.369153  0.3333
  C  C11371  1  0.757400  0.383600  0.535820  0.3333
  C  C11372  1  0.626200  0.242600  0.535820  0.3333
  C  C11373  1  0.616400  0.373800  0.535820  0.3333
  C  C11374  1  0.373800  0.616400  0.964180  0.3333
  C  C11375  1  0.383600  0.757400  0.964180  0.3333
  C  C11376  1  0.242600  0.626200  0.964180  0.3333
  C  C11377  1  0.090733  0.050267  0.202487  0.3333
  C  C11378  1  0.959533  0.909267  0.202487  0.3333
  C  C11379  1  0.949733  0.040467  0.202487  0.3333
  C  C11380  1  0.707133  0.283067  0.630847  0.3333
  C  C11381  1  0.716933  0.424067  0.630847  0.3333
  C  C11382  1  0.575933  0.292867  0.630847  0.3333
  C  C11383  1  0.424067  0.716933  0.869153  0.3333
  C  C11384  1  0.292867  0.575933  0.869153  0.3333
  C  C11385  1  0.283067  0.707133  0.869153  0.3333
  C  C11386  1  0.040467  0.949733  0.297513  0.3333
  C  C11387  1  0.050267  0.090733  0.297513  0.3333
  C  C11388  1  0.909267  0.959533  0.297513  0.3333
  C  C11389  1  0.112400  0.419100  0.602700  0.45
  C  C11390  1  0.306700  0.887600  0.602700  0.45
  C  C11391  1  0.580900  0.693300  0.602700  0.45
  C  C11392  1  0.693300  0.580900  0.897300  0.45
  C  C11393  1  0.419100  0.112400  0.897300  0.45
  C  C11394  1  0.887600  0.306700  0.897300  0.45
  C  C11395  1  0.445733  0.085767  0.269367  0.45
  C  C11396  1  0.640033  0.554267  0.269367  0.45
  C  C11397  1  0.914233  0.359967  0.269367  0.45
  C  C11398  1  0.026633  0.247567  0.563967  0.45
  C  C11399  1  0.752433  0.779067  0.563967  0.45
  C  C11400  1  0.220933  0.973367  0.563967  0.45
  C  C11401  1  0.779067  0.752433  0.936033  0.45
  C  C11402  1  0.973367  0.220933  0.936033  0.45
  C  C11403  1  0.247567  0.026633  0.936033  0.45
  C  C11404  1  0.359967  0.914233  0.230633  0.45
  C  C11405  1  0.085767  0.445733  0.230633  0.45
  C  C11406  1  0.554267  0.640033  0.230633  0.45
  C  C11407  1  0.887600  0.580900  0.397300  0.45
  C  C11408  1  0.693300  0.112400  0.397300  0.45
  C  C11409  1  0.419100  0.306700  0.397300  0.45
  C  C11410  1  0.306700  0.419100  0.102700  0.45
  C  C11411  1  0.580900  0.887600  0.102700  0.45
  C  C11412  1  0.112400  0.693300  0.102700  0.45
  C  C11413  1  0.220933  0.247567  0.063967  0.45
  C  C11414  1  0.026633  0.779067  0.063967  0.45
  C  C11415  1  0.752433  0.973367  0.063967  0.45
  C  C11416  1  0.640033  0.085767  0.769367  0.45
  C  C11417  1  0.914233  0.554267  0.769367  0.45
  C  C11418  1  0.445733  0.359967  0.769367  0.45
  C  C11419  1  0.554267  0.914233  0.730633  0.45
  C  C11420  1  0.359967  0.445733  0.730633  0.45
  C  C11421  1  0.085767  0.640033  0.730633  0.45
  C  C11422  1  0.973367  0.752433  0.436033  0.45
  C  C11423  1  0.247567  0.220933  0.436033  0.45
  C  C11424  1  0.779067  0.026633  0.436033  0.45
  C  C11425  1  0.264800  0.396000  0.609790  0.477
  C  C11426  1  0.131200  0.735200  0.609790  0.477
  C  C11427  1  0.604000  0.868800  0.609790  0.477
  C  C11428  1  0.868800  0.604000  0.890210  0.477
  C  C11429  1  0.396000  0.264800  0.890210  0.477
  C  C11430  1  0.735200  0.131200  0.890210  0.477
  C  C11431  1  0.598133  0.062667  0.276457  0.477
  C  C11432  1  0.464533  0.401867  0.276457  0.477
  C  C11433  1  0.937333  0.535467  0.276457  0.477
  C  C11434  1  0.202133  0.270667  0.556877  0.477
  C  C11435  1  0.729333  0.931467  0.556877  0.477
  C  C11436  1  0.068533  0.797867  0.556877  0.477
  C  C11437  1  0.931467  0.729333  0.943123  0.477
  C  C11438  1  0.797867  0.068533  0.943123  0.477
  C  C11439  1  0.270667  0.202133  0.943123  0.477
  C  C11440  1  0.535467  0.937333  0.223543  0.477
  C  C11441  1  0.062667  0.598133  0.223543  0.477
  C  C11442  1  0.401867  0.464533  0.223543  0.477
  C  C11443  1  0.735200  0.604000  0.390210  0.477
  C  C11444  1  0.868800  0.264800  0.390210  0.477
  C  C11445  1  0.396000  0.131200  0.390210  0.477
  C  C11446  1  0.131200  0.396000  0.109790  0.477
  C  C11447  1  0.604000  0.735200  0.109790  0.477
  C  C11448  1  0.264800  0.868800  0.109790  0.477
  C  C11449  1  0.068533  0.270667  0.056877  0.477
  C  C11450  1  0.202133  0.931467  0.056877  0.477
  C  C11451  1  0.729333  0.797867  0.056877  0.477
  C  C11452  1  0.464533  0.062667  0.776457  0.477
  C  C11453  1  0.937333  0.401867  0.776457  0.477
  C  C11454  1  0.598133  0.535467  0.776457  0.477
  C  C11455  1  0.401867  0.937333  0.723543  0.477
  C  C11456  1  0.535467  0.598133  0.723543  0.477
  C  C11457  1  0.062667  0.464533  0.723543  0.477
  C  C11458  1  0.797867  0.729333  0.443123  0.477
  C  C11459  1  0.270667  0.068533  0.443123  0.477
  C  C11460  1  0.931467  0.202133  0.443123  0.477
  C  C11461  1  0.239300  0.366100  0.601910  0.477
  C  C11462  1  0.126800  0.760700  0.601910  0.477
  C  C11463  1  0.633900  0.873200  0.601910  0.477
  C  C11464  1  0.873200  0.633900  0.898090  0.477
  C  C11465  1  0.366100  0.239300  0.898090  0.477
  C  C11466  1  0.760700  0.126800  0.898090  0.477
  C  C11467  1  0.572633  0.032767  0.268577  0.477
  C  C11468  1  0.460133  0.427367  0.268577  0.477
  C  C11469  1  0.967233  0.539867  0.268577  0.477
  C  C11470  1  0.206533  0.300567  0.564757  0.477
  C  C11471  1  0.699433  0.905967  0.564757  0.477
  C  C11472  1  0.094033  0.793467  0.564757  0.477
  C  C11473  1  0.905967  0.699433  0.935243  0.477
  C  C11474  1  0.793467  0.094033  0.935243  0.477
  C  C11475  1  0.300567  0.206533  0.935243  0.477
  C  C11476  1  0.539867  0.967233  0.231423  0.477
  C  C11477  1  0.032767  0.572633  0.231423  0.477
  C  C11478  1  0.427367  0.460133  0.231423  0.477
  C  C11479  1  0.760700  0.633900  0.398090  0.477
  C  C11480  1  0.873200  0.239300  0.398090  0.477
  C  C11481  1  0.366100  0.126800  0.398090  0.477
  C  C11482  1  0.126800  0.366100  0.101910  0.477
  C  C11483  1  0.633900  0.760700  0.101910  0.477
  C  C11484  1  0.239300  0.873200  0.101910  0.477
  C  C11485  1  0.094033  0.300567  0.064757  0.477
  C  C11486  1  0.206533  0.905967  0.064757  0.477
  C  C11487  1  0.699433  0.793467  0.064757  0.477
  C  C11488  1  0.460133  0.032767  0.768577  0.477
  C  C11489  1  0.967233  0.427367  0.768577  0.477
  C  C11490  1  0.572633  0.539867  0.768577  0.477
  C  C11491  1  0.427367  0.967233  0.731423  0.477
  C  C11492  1  0.539867  0.572633  0.731423  0.477
  C  C11493  1  0.032767  0.460133  0.731423  0.477
  C  C11494  1  0.793467  0.699433  0.435243  0.477
  C  C11495  1  0.300567  0.094033  0.435243  0.477
  C  C11496  1  0.905967  0.206533  0.435243  0.477
  C  C11497  1  0.201900  0.361100  0.599340  0.477
  C  C11498  1  0.159200  0.798100  0.599340  0.477
  C  C11499  1  0.638900  0.840800  0.599340  0.477
  C  C11500  1  0.840800  0.638900  0.900660  0.477
  C  C11501  1  0.361100  0.201900  0.900660  0.477
  C  C11502  1  0.798100  0.159200  0.900660  0.477
  C  C11503  1  0.535233  0.027767  0.266007  0.477
  C  C11504  1  0.492533  0.464767  0.266007  0.477
  C  C11505  1  0.972233  0.507467  0.266007  0.477
  C  C11506  1  0.174133  0.305567  0.567327  0.477
  C  C11507  1  0.694433  0.868567  0.567327  0.477
  C  C11508  1  0.131433  0.825867  0.567327  0.477
  C  C11509  1  0.868567  0.694433  0.932673  0.477
  C  C11510  1  0.825867  0.131433  0.932673  0.477
  C  C11511  1  0.305567  0.174133  0.932673  0.477
  C  C11512  1  0.507467  0.972233  0.233993  0.477
  C  C11513  1  0.027767  0.535233  0.233993  0.477
  C  C11514  1  0.464767  0.492533  0.233993  0.477
  C  C11515  1  0.798100  0.638900  0.400660  0.477
  C  C11516  1  0.840800  0.201900  0.400660  0.477
  C  C11517  1  0.361100  0.159200  0.400660  0.477
  C  C11518  1  0.159200  0.361100  0.099340  0.477
  C  C11519  1  0.638900  0.798100  0.099340  0.477
  C  C11520  1  0.201900  0.840800  0.099340  0.477
  C  C11521  1  0.131433  0.305567  0.067327  0.477
  C  C11522  1  0.174133  0.868567  0.067327  0.477
  C  C11523  1  0.694433  0.825867  0.067327  0.477
  C  C11524  1  0.492533  0.027767  0.766007  0.477
  C  C11525  1  0.972233  0.464767  0.766007  0.477
  C  C11526  1  0.535233  0.507467  0.766007  0.477
  C  C11527  1  0.464767  0.972233  0.733993  0.477
  C  C11528  1  0.507467  0.535233  0.733993  0.477
  C  C11529  1  0.027767  0.492533  0.733993  0.477
  C  C11530  1  0.825867  0.694433  0.432673  0.477
  C  C11531  1  0.305567  0.131433  0.432673  0.477
  C  C11532  1  0.868567  0.174133  0.432673  0.477
  C  C11533  1  0.189800  0.385900  0.604650  0.477
  C  C11534  1  0.196100  0.810200  0.604650  0.477
  C  C11535  1  0.614100  0.803900  0.604650  0.477
  C  C11536  1  0.803900  0.614100  0.895350  0.477
  C  C11537  1  0.385900  0.189800  0.895350  0.477
  C  C11538  1  0.810200  0.196100  0.895350  0.477
  C  C11539  1  0.523133  0.052567  0.271317  0.477
  C  C11540  1  0.529433  0.476867  0.271317  0.477
  C  C11541  1  0.947433  0.470567  0.271317  0.477
  C  C11542  1  0.137233  0.280767  0.562017  0.477
  C  C11543  1  0.719233  0.856467  0.562017  0.477
  C  C11544  1  0.143533  0.862767  0.562017  0.477
  C  C11545  1  0.856467  0.719233  0.937983  0.477
  C  C11546  1  0.862767  0.143533  0.937983  0.477
  C  C11547  1  0.280767  0.137233  0.937983  0.477
  C  C11548  1  0.470567  0.947433  0.228683  0.477
  C  C11549  1  0.052567  0.523133  0.228683  0.477
  C  C11550  1  0.476867  0.529433  0.228683  0.477
  C  C11551  1  0.810200  0.614100  0.395350  0.477
  C  C11552  1  0.803900  0.189800  0.395350  0.477
  C  C11553  1  0.385900  0.196100  0.395350  0.477
  C  C11554  1  0.196100  0.385900  0.104650  0.477
  C  C11555  1  0.614100  0.810200  0.104650  0.477
  C  C11556  1  0.189800  0.803900  0.104650  0.477
  C  C11557  1  0.143533  0.280767  0.062017  0.477
  C  C11558  1  0.137233  0.856467  0.062017  0.477
  C  C11559  1  0.719233  0.862767  0.062017  0.477
  C  C11560  1  0.529433  0.052567  0.771317  0.477
  C  C11561  1  0.947433  0.476867  0.771317  0.477
  C  C11562  1  0.523133  0.470567  0.771317  0.477
  C  C11563  1  0.476867  0.947433  0.728683  0.477
  C  C11564  1  0.470567  0.523133  0.728683  0.477
  C  C11565  1  0.052567  0.529433  0.728683  0.477
  C  C11566  1  0.862767  0.719233  0.437983  0.477
  C  C11567  1  0.280767  0.143533  0.437983  0.477
  C  C11568  1  0.856467  0.137233  0.437983  0.477
  C  C11569  1  0.215300  0.415900  0.612530  0.477
  C  C11570  1  0.200600  0.784700  0.612530  0.477
  C  C11571  1  0.584100  0.799400  0.612530  0.477
  C  C11572  1  0.799400  0.584100  0.887470  0.477
  C  C11573  1  0.415900  0.215300  0.887470  0.477
  C  C11574  1  0.784700  0.200600  0.887470  0.477
  C  C11575  1  0.548633  0.082567  0.279197  0.477
  C  C11576  1  0.533933  0.451367  0.279197  0.477
  C  C11577  1  0.917433  0.466067  0.279197  0.477
  C  C11578  1  0.132733  0.250767  0.554137  0.477
  C  C11579  1  0.749233  0.881967  0.554137  0.477
  C  C11580  1  0.118033  0.867267  0.554137  0.477
  C  C11581  1  0.881967  0.749233  0.945863  0.477
  C  C11582  1  0.867267  0.118033  0.945863  0.477
  C  C11583  1  0.250767  0.132733  0.945863  0.477
  C  C11584  1  0.466067  0.917433  0.220803  0.477
  C  C11585  1  0.082567  0.548633  0.220803  0.477
  C  C11586  1  0.451367  0.533933  0.220803  0.477
  C  C11587  1  0.784700  0.584100  0.387470  0.477
  C  C11588  1  0.799400  0.215300  0.387470  0.477
  C  C11589  1  0.415900  0.200600  0.387470  0.477
  C  C11590  1  0.200600  0.415900  0.112530  0.477
  C  C11591  1  0.584100  0.784700  0.112530  0.477
  C  C11592  1  0.215300  0.799400  0.112530  0.477
  C  C11593  1  0.118033  0.250767  0.054137  0.477
  C  C11594  1  0.132733  0.881967  0.054137  0.477
  C  C11595  1  0.749233  0.867267  0.054137  0.477
  C  C11596  1  0.533933  0.082567  0.779197  0.477
  C  C11597  1  0.917433  0.451367  0.779197  0.477
  C  C11598  1  0.548633  0.466067  0.779197  0.477
  C  C11599  1  0.451367  0.917433  0.720803  0.477
  C  C11600  1  0.466067  0.548633  0.720803  0.477
  C  C11601  1  0.082567  0.533933  0.720803  0.477
  C  C11602  1  0.867267  0.749233  0.445863  0.477
  C  C11603  1  0.250767  0.118033  0.445863  0.477
  C  C11604  1  0.881967  0.132733  0.445863  0.477
  C  C11605  1  0.252800  0.420900  0.615100  0.477
  C  C11606  1  0.168100  0.747200  0.615100  0.477
  C  C11607  1  0.579100  0.831900  0.615100  0.477
  C  C11608  1  0.831900  0.579100  0.884900  0.477
  C  C11609  1  0.420900  0.252800  0.884900  0.477
  C  C11610  1  0.747200  0.168100  0.884900  0.477
  C  C11611  1  0.586133  0.087567  0.281767  0.477
  C  C11612  1  0.501433  0.413867  0.281767  0.477
  C  C11613  1  0.912433  0.498567  0.281767  0.477
  C  C11614  1  0.165233  0.245767  0.551567  0.477
  C  C11615  1  0.754233  0.919467  0.551567  0.477
  C  C11616  1  0.080533  0.834767  0.551567  0.477
  C  C11617  1  0.919467  0.754233  0.948433  0.477
  C  C11618  1  0.834767  0.080533  0.948433  0.477
  C  C11619  1  0.245767  0.165233  0.948433  0.477
  C  C11620  1  0.498567  0.912433  0.218233  0.477
  C  C11621  1  0.087567  0.586133  0.218233  0.477
  C  C11622  1  0.413867  0.501433  0.218233  0.477
  C  C11623  1  0.747200  0.579100  0.384900  0.477
  C  C11624  1  0.831900  0.252800  0.384900  0.477
  C  C11625  1  0.420900  0.168100  0.384900  0.477
  C  C11626  1  0.168100  0.420900  0.115100  0.477
  C  C11627  1  0.579100  0.747200  0.115100  0.477
  C  C11628  1  0.252800  0.831900  0.115100  0.477
  C  C11629  1  0.080533  0.245767  0.051567  0.477
  C  C11630  1  0.165233  0.919467  0.051567  0.477
  C  C11631  1  0.754233  0.834767  0.051567  0.477
  C  C11632  1  0.501433  0.087567  0.781767  0.477
  C  C11633  1  0.912433  0.413867  0.781767  0.477
  C  C11634  1  0.586133  0.498567  0.781767  0.477
  C  C11635  1  0.413867  0.912433  0.718233  0.477
  C  C11636  1  0.498567  0.586133  0.718233  0.477
  C  C11637  1  0.087567  0.501433  0.718233  0.477
  C  C11638  1  0.834767  0.754233  0.448433  0.477
  C  C11639  1  0.245767  0.080533  0.448433  0.477
  C  C11640  1  0.919467  0.165233  0.448433  0.477
  C  C11641  1  0.192000  0.526800  0.522430  0.5
  C  C11642  1  0.334800  0.808000  0.522430  0.5
  C  C11643  1  0.473200  0.665200  0.522430  0.5
  C  C11644  1  0.665200  0.473200  0.977570  0.5
  C  C11645  1  0.526800  0.192000  0.977570  0.5
  C  C11646  1  0.808000  0.334800  0.977570  0.5
  C  C11647  1  0.525333  0.193467  0.189097  0.5
  C  C11648  1  0.668133  0.474667  0.189097  0.5
  C  C11649  1  0.806533  0.331867  0.189097  0.5
  C  C11650  1  0.998533  0.139867  0.644237  0.5
  C  C11651  1  0.860133  0.858667  0.644237  0.5
  C  C11652  1  0.141333  0.001467  0.644237  0.5
  C  C11653  1  0.858667  0.860133  0.855763  0.5
  C  C11654  1  0.001467  0.141333  0.855763  0.5
  C  C11655  1  0.139867  0.998533  0.855763  0.5
  C  C11656  1  0.331867  0.806533  0.310903  0.5
  C  C11657  1  0.193467  0.525333  0.310903  0.5
  C  C11658  1  0.474667  0.668133  0.310903  0.5
  C  C11659  1  0.808000  0.473200  0.477570  0.5
  C  C11660  1  0.665200  0.192000  0.477570  0.5
  C  C11661  1  0.526800  0.334800  0.477570  0.5
  C  C11662  1  0.334800  0.526800  0.022430  0.5
  C  C11663  1  0.473200  0.808000  0.022430  0.5
  C  C11664  1  0.192000  0.665200  0.022430  0.5
  C  C11665  1  0.141333  0.139867  0.144237  0.5
  C  C11666  1  0.998533  0.858667  0.144237  0.5
  C  C11667  1  0.860133  0.001467  0.144237  0.5
  C  C11668  1  0.668133  0.193467  0.689097  0.5
  C  C11669  1  0.806533  0.474667  0.689097  0.5
  C  C11670  1  0.525333  0.331867  0.689097  0.5
  C  C11671  1  0.474667  0.806533  0.810903  0.5
  C  C11672  1  0.331867  0.525333  0.810903  0.5
  C  C11673  1  0.193467  0.668133  0.810903  0.5
  C  C11674  1  0.001467  0.860133  0.355763  0.5
  C  C11675  1  0.139867  0.141333  0.355763  0.5
  C  C11676  1  0.858667  0.998533  0.355763  0.5
  C  C11677  1  0.163900  0.526700  0.514750  0.5
  C  C11678  1  0.362800  0.836100  0.514750  0.5
  C  C11679  1  0.473300  0.637200  0.514750  0.5
  C  C11680  1  0.637200  0.473300  0.985250  0.5
  C  C11681  1  0.526700  0.163900  0.985250  0.5
  C  C11682  1  0.836100  0.362800  0.985250  0.5
  C  C11683  1  0.497233  0.193367  0.181417  0.5
  C  C11684  1  0.696133  0.502767  0.181417  0.5
  C  C11685  1  0.806633  0.303867  0.181417  0.5
  C  C11686  1  0.970533  0.139967  0.651917  0.5
  C  C11687  1  0.860033  0.830567  0.651917  0.5
  C  C11688  1  0.169433  0.029467  0.651917  0.5
  C  C11689  1  0.830567  0.860033  0.848083  0.5
  C  C11690  1  0.029467  0.169433  0.848083  0.5
  C  C11691  1  0.139967  0.970533  0.848083  0.5
  C  C11692  1  0.303867  0.806633  0.318583  0.5
  C  C11693  1  0.193367  0.497233  0.318583  0.5
  C  C11694  1  0.502767  0.696133  0.318583  0.5
  C  C11695  1  0.836100  0.473300  0.485250  0.5
  C  C11696  1  0.637200  0.163900  0.485250  0.5
  C  C11697  1  0.526700  0.362800  0.485250  0.5
  C  C11698  1  0.362800  0.526700  0.014750  0.5
  C  C11699  1  0.473300  0.836100  0.014750  0.5
  C  C11700  1  0.163900  0.637200  0.014750  0.5
  C  C11701  1  0.169433  0.139967  0.151917  0.5
  C  C11702  1  0.970533  0.830567  0.151917  0.5
  C  C11703  1  0.860033  0.029467  0.151917  0.5
  C  C11704  1  0.696133  0.193367  0.681417  0.5
  C  C11705  1  0.806633  0.502767  0.681417  0.5
  C  C11706  1  0.497233  0.303867  0.681417  0.5
  C  C11707  1  0.502767  0.806633  0.818583  0.5
  C  C11708  1  0.303867  0.497233  0.818583  0.5
  C  C11709  1  0.193367  0.696133  0.818583  0.5
  C  C11710  1  0.029467  0.860033  0.348083  0.5
  C  C11711  1  0.139967  0.169433  0.348083  0.5
  C  C11712  1  0.830567  0.970533  0.348083  0.5
  C  C11713  1  0.154700  0.556900  0.515940  0.5
  C  C11714  1  0.402200  0.845300  0.515940  0.5
  C  C11715  1  0.443100  0.597800  0.515940  0.5
  C  C11716  1  0.597800  0.443100  0.984060  0.5
  C  C11717  1  0.556900  0.154700  0.984060  0.5
  C  C11718  1  0.845300  0.402200  0.984060  0.5
  C  C11719  1  0.488033  0.223567  0.182607  0.5
  C  C11720  1  0.735533  0.511967  0.182607  0.5
  C  C11721  1  0.776433  0.264467  0.182607  0.5
  C  C11722  1  0.931133  0.109767  0.650727  0.5
  C  C11723  1  0.890233  0.821367  0.650727  0.5
  C  C11724  1  0.178633  0.068867  0.650727  0.5
  C  C11725  1  0.821367  0.890233  0.849273  0.5
  C  C11726  1  0.068867  0.178633  0.849273  0.5
  C  C11727  1  0.109767  0.931133  0.849273  0.5
  C  C11728  1  0.264467  0.776433  0.317393  0.5
  C  C11729  1  0.223567  0.488033  0.317393  0.5
  C  C11730  1  0.511967  0.735533  0.317393  0.5
  C  C11731  1  0.845300  0.443100  0.484060  0.5
  C  C11732  1  0.597800  0.154700  0.484060  0.5
  C  C11733  1  0.556900  0.402200  0.484060  0.5
  C  C11734  1  0.402200  0.556900  0.015940  0.5
  C  C11735  1  0.443100  0.845300  0.015940  0.5
  C  C11736  1  0.154700  0.597800  0.015940  0.5
  C  C11737  1  0.178633  0.109767  0.150727  0.5
  C  C11738  1  0.931133  0.821367  0.150727  0.5
  C  C11739  1  0.890233  0.068867  0.150727  0.5
  C  C11740  1  0.735533  0.223567  0.682607  0.5
  C  C11741  1  0.776433  0.511967  0.682607  0.5
  C  C11742  1  0.488033  0.264467  0.682607  0.5
  C  C11743  1  0.511967  0.776433  0.817393  0.5
  C  C11744  1  0.264467  0.488033  0.817393  0.5
  C  C11745  1  0.223567  0.735533  0.817393  0.5
  C  C11746  1  0.068867  0.890233  0.349273  0.5
  C  C11747  1  0.109767  0.178633  0.349273  0.5
  C  C11748  1  0.821367  0.931133  0.349273  0.5
  C  C11749  1  0.172700  0.585600  0.524680  0.5
  C  C11750  1  0.412900  0.827300  0.524680  0.5
  C  C11751  1  0.414400  0.587100  0.524680  0.5
  C  C11752  1  0.587100  0.414400  0.975320  0.5
  C  C11753  1  0.585600  0.172700  0.975320  0.5
  C  C11754  1  0.827300  0.412900  0.975320  0.5
  C  C11755  1  0.506033  0.252267  0.191347  0.5
  C  C11756  1  0.746233  0.493967  0.191347  0.5
  C  C11757  1  0.747733  0.253767  0.191347  0.5
  C  C11758  1  0.920433  0.081067  0.641987  0.5
  C  C11759  1  0.918933  0.839367  0.641987  0.5
  C  C11760  1  0.160633  0.079567  0.641987  0.5
  C  C11761  1  0.839367  0.918933  0.858013  0.5
  C  C11762  1  0.079567  0.160633  0.858013  0.5
  C  C11763  1  0.081067  0.920433  0.858013  0.5
  C  C11764  1  0.253767  0.747733  0.308653  0.5
  C  C11765  1  0.252267  0.506033  0.308653  0.5
  C  C11766  1  0.493967  0.746233  0.308653  0.5
  C  C11767  1  0.827300  0.414400  0.475320  0.5
  C  C11768  1  0.587100  0.172700  0.475320  0.5
  C  C11769  1  0.585600  0.412900  0.475320  0.5
  C  C11770  1  0.412900  0.585600  0.024680  0.5
  C  C11771  1  0.414400  0.827300  0.024680  0.5
  C  C11772  1  0.172700  0.587100  0.024680  0.5
  C  C11773  1  0.160633  0.081067  0.141987  0.5
  C  C11774  1  0.920433  0.839367  0.141987  0.5
  C  C11775  1  0.918933  0.079567  0.141987  0.5
  C  C11776  1  0.746233  0.252267  0.691347  0.5
  C  C11777  1  0.747733  0.493967  0.691347  0.5
  C  C11778  1  0.506033  0.253767  0.691347  0.5
  C  C11779  1  0.493967  0.747733  0.808653  0.5
  C  C11780  1  0.253767  0.506033  0.808653  0.5
  C  C11781  1  0.252267  0.746233  0.808653  0.5
  C  C11782  1  0.079567  0.918933  0.358013  0.5
  C  C11783  1  0.081067  0.160633  0.358013  0.5
  C  C11784  1  0.839367  0.920433  0.358013  0.5
  C  C11785  1  0.200300  0.584700  0.532400  0.5
  C  C11786  1  0.384400  0.799700  0.532400  0.5
  C  C11787  1  0.415300  0.615600  0.532400  0.5
  C  C11788  1  0.615600  0.415300  0.967600  0.5
  C  C11789  1  0.584700  0.200300  0.967600  0.5
  C  C11790  1  0.799700  0.384400  0.967600  0.5
  C  C11791  1  0.533633  0.251367  0.199067  0.5
  C  C11792  1  0.717733  0.466367  0.199067  0.5
  C  C11793  1  0.748633  0.282267  0.199067  0.5
  C  C11794  1  0.948933  0.081967  0.634267  0.5
  C  C11795  1  0.918033  0.866967  0.634267  0.5
  C  C11796  1  0.133033  0.051067  0.634267  0.5
  C  C11797  1  0.866967  0.918033  0.865733  0.5
  C  C11798  1  0.051067  0.133033  0.865733  0.5
  C  C11799  1  0.081967  0.948933  0.865733  0.5
  C  C11800  1  0.282267  0.748633  0.300933  0.5
  C  C11801  1  0.251367  0.533633  0.300933  0.5
  C  C11802  1  0.466367  0.717733  0.300933  0.5
  C  C11803  1  0.799700  0.415300  0.467600  0.5
  C  C11804  1  0.615600  0.200300  0.467600  0.5
  C  C11805  1  0.584700  0.384400  0.467600  0.5
  C  C11806  1  0.384400  0.584700  0.032400  0.5
  C  C11807  1  0.415300  0.799700  0.032400  0.5
  C  C11808  1  0.200300  0.615600  0.032400  0.5
  C  C11809  1  0.133033  0.081967  0.134267  0.5
  C  C11810  1  0.948933  0.866967  0.134267  0.5
  C  C11811  1  0.918033  0.051067  0.134267  0.5
  C  C11812  1  0.717733  0.251367  0.699067  0.5
  C  C11813  1  0.748633  0.466367  0.699067  0.5
  C  C11814  1  0.533633  0.282267  0.699067  0.5
  C  C11815  1  0.466367  0.748633  0.800933  0.5
  C  C11816  1  0.282267  0.533633  0.800933  0.5
  C  C11817  1  0.251367  0.717733  0.800933  0.5
  C  C11818  1  0.051067  0.918033  0.365733  0.5
  C  C11819  1  0.081967  0.133033  0.365733  0.5
  C  C11820  1  0.866967  0.948933  0.365733  0.5
  C  C11821  1  0.210600  0.555300  0.531320  0.5
  C  C11822  1  0.344700  0.789400  0.531320  0.5
  C  C11823  1  0.444700  0.655300  0.531320  0.5
  C  C11824  1  0.655300  0.444700  0.968680  0.5
  C  C11825  1  0.555300  0.210600  0.968680  0.5
  C  C11826  1  0.789400  0.344700  0.968680  0.5
  C  C11827  1  0.543933  0.221967  0.197987  0.5
  C  C11828  1  0.678033  0.456067  0.197987  0.5
  C  C11829  1  0.778033  0.321967  0.197987  0.5
  C  C11830  1  0.988633  0.111367  0.635347  0.5
  C  C11831  1  0.888633  0.877267  0.635347  0.5
  C  C11832  1  0.122733  0.011367  0.635347  0.5
  C  C11833  1  0.877267  0.888633  0.864653  0.5
  C  C11834  1  0.011367  0.122733  0.864653  0.5
  C  C11835  1  0.111367  0.988633  0.864653  0.5
  C  C11836  1  0.321967  0.778033  0.302013  0.5
  C  C11837  1  0.221967  0.543933  0.302013  0.5
  C  C11838  1  0.456067  0.678033  0.302013  0.5
  C  C11839  1  0.789400  0.444700  0.468680  0.5
  C  C11840  1  0.655300  0.210600  0.468680  0.5
  C  C11841  1  0.555300  0.344700  0.468680  0.5
  C  C11842  1  0.344700  0.555300  0.031320  0.5
  C  C11843  1  0.444700  0.789400  0.031320  0.5
  C  C11844  1  0.210600  0.655300  0.031320  0.5
  C  C11845  1  0.122733  0.111367  0.135347  0.5
  C  C11846  1  0.988633  0.877267  0.135347  0.5
  C  C11847  1  0.888633  0.011367  0.135347  0.5
  C  C11848  1  0.678033  0.221967  0.697987  0.5
  C  C11849  1  0.778033  0.456067  0.697987  0.5
  C  C11850  1  0.543933  0.321967  0.697987  0.5
  C  C11851  1  0.456067  0.778033  0.802013  0.5
  C  C11852  1  0.321967  0.543933  0.802013  0.5
  C  C11853  1  0.221967  0.678033  0.802013  0.5
  C  C11854  1  0.011367  0.888633  0.364653  0.5
  C  C11855  1  0.111367  0.122733  0.364653  0.5
  C  C11856  1  0.877267  0.988633  0.364653  0.5
  C  C11857  1  0.270600  0.410300  0.612710  0.523
  C  C11858  1  0.139700  0.729400  0.612710  0.523
  C  C11859  1  0.589700  0.860300  0.612710  0.523
  C  C11860  1  0.860300  0.589700  0.887290  0.523
  C  C11861  1  0.410300  0.270600  0.887290  0.523
  C  C11862  1  0.729400  0.139700  0.887290  0.523
  C  C11863  1  0.603933  0.076967  0.279377  0.523
  C  C11864  1  0.473033  0.396067  0.279377  0.523
  C  C11865  1  0.923033  0.526967  0.279377  0.523
  C  C11866  1  0.193633  0.256367  0.553957  0.523
  C  C11867  1  0.743633  0.937267  0.553957  0.523
  C  C11868  1  0.062733  0.806367  0.553957  0.523
  C  C11869  1  0.937267  0.743633  0.946043  0.523
  C  C11870  1  0.806367  0.062733  0.946043  0.523
  C  C11871  1  0.256367  0.193633  0.946043  0.523
  C  C11872  1  0.526967  0.923033  0.220623  0.523
  C  C11873  1  0.076967  0.603933  0.220623  0.523
  C  C11874  1  0.396067  0.473033  0.220623  0.523
  C  C11875  1  0.729400  0.589700  0.387290  0.523
  C  C11876  1  0.860300  0.270600  0.387290  0.523
  C  C11877  1  0.410300  0.139700  0.387290  0.523
  C  C11878  1  0.139700  0.410300  0.112710  0.523
  C  C11879  1  0.589700  0.729400  0.112710  0.523
  C  C11880  1  0.270600  0.860300  0.112710  0.523
  C  C11881  1  0.062733  0.256367  0.053957  0.523
  C  C11882  1  0.193633  0.937267  0.053957  0.523
  C  C11883  1  0.743633  0.806367  0.053957  0.523
  C  C11884  1  0.473033  0.076967  0.779377  0.523
  C  C11885  1  0.923033  0.396067  0.779377  0.523
  C  C11886  1  0.603933  0.526967  0.779377  0.523
  C  C11887  1  0.396067  0.923033  0.720623  0.523
  C  C11888  1  0.526967  0.603933  0.720623  0.523
  C  C11889  1  0.076967  0.473033  0.720623  0.523
  C  C11890  1  0.806367  0.743633  0.446043  0.523
  C  C11891  1  0.256367  0.062733  0.446043  0.523
  C  C11892  1  0.937267  0.193633  0.446043  0.523
  C  C11893  1  0.263100  0.378400  0.605220  0.523
  C  C11894  1  0.115300  0.736900  0.605220  0.523
  C  C11895  1  0.621600  0.884700  0.605220  0.523
  C  C11896  1  0.884700  0.621600  0.894780  0.523
  C  C11897  1  0.378400  0.263100  0.894780  0.523
  C  C11898  1  0.736900  0.115300  0.894780  0.523
  C  C11899  1  0.596433  0.045067  0.271887  0.523
  C  C11900  1  0.448633  0.403567  0.271887  0.523
  C  C11901  1  0.954933  0.551367  0.271887  0.523
  C  C11902  1  0.218033  0.288267  0.561447  0.523
  C  C11903  1  0.711733  0.929767  0.561447  0.523
  C  C11904  1  0.070233  0.781967  0.561447  0.523
  C  C11905  1  0.929767  0.711733  0.938553  0.523
  C  C11906  1  0.781967  0.070233  0.938553  0.523
  C  C11907  1  0.288267  0.218033  0.938553  0.523
  C  C11908  1  0.551367  0.954933  0.228113  0.523
  C  C11909  1  0.045067  0.596433  0.228113  0.523
  C  C11910  1  0.403567  0.448633  0.228113  0.523
  C  C11911  1  0.736900  0.621600  0.394780  0.523
  C  C11912  1  0.884700  0.263100  0.394780  0.523
  C  C11913  1  0.378400  0.115300  0.394780  0.523
  C  C11914  1  0.115300  0.378400  0.105220  0.523
  C  C11915  1  0.621600  0.736900  0.105220  0.523
  C  C11916  1  0.263100  0.884700  0.105220  0.523
  C  C11917  1  0.070233  0.288267  0.061447  0.523
  C  C11918  1  0.218033  0.929767  0.061447  0.523
  C  C11919  1  0.711733  0.781967  0.061447  0.523
  C  C11920  1  0.448633  0.045067  0.771887  0.523
  C  C11921  1  0.954933  0.403567  0.771887  0.523
  C  C11922  1  0.596433  0.551367  0.771887  0.523
  C  C11923  1  0.403567  0.954933  0.728113  0.523
  C  C11924  1  0.551367  0.596433  0.728113  0.523
  C  C11925  1  0.045067  0.448633  0.728113  0.523
  C  C11926  1  0.781967  0.711733  0.438553  0.523
  C  C11927  1  0.288267  0.070233  0.438553  0.523
  C  C11928  1  0.929767  0.218033  0.438553  0.523
  C  C11929  1  0.227000  0.358100  0.599030  0.523
  C  C11930  1  0.131100  0.773000  0.599030  0.523
  C  C11931  1  0.641900  0.868900  0.599030  0.523
  C  C11932  1  0.868900  0.641900  0.900970  0.523
  C  C11933  1  0.358100  0.227000  0.900970  0.523
  C  C11934  1  0.773000  0.131100  0.900970  0.523
  C  C11935  1  0.560333  0.024767  0.265697  0.523
  C  C11936  1  0.464433  0.439667  0.265697  0.523
  C  C11937  1  0.975233  0.535567  0.265697  0.523
  C  C11938  1  0.202233  0.308567  0.567637  0.523
  C  C11939  1  0.691433  0.893667  0.567637  0.523
  C  C11940  1  0.106333  0.797767  0.567637  0.523
  C  C11941  1  0.893667  0.691433  0.932363  0.523
  C  C11942  1  0.797767  0.106333  0.932363  0.523
  C  C11943  1  0.308567  0.202233  0.932363  0.523
  C  C11944  1  0.535567  0.975233  0.234303  0.523
  C  C11945  1  0.024767  0.560333  0.234303  0.523
  C  C11946  1  0.439667  0.464433  0.234303  0.523
  C  C11947  1  0.773000  0.641900  0.400970  0.523
  C  C11948  1  0.868900  0.227000  0.400970  0.523
  C  C11949  1  0.358100  0.131100  0.400970  0.523
  C  C11950  1  0.131100  0.358100  0.099030  0.523
  C  C11951  1  0.641900  0.773000  0.099030  0.523
  C  C11952  1  0.227000  0.868900  0.099030  0.523
  C  C11953  1  0.106333  0.308567  0.067637  0.523
  C  C11954  1  0.202233  0.893667  0.067637  0.523
  C  C11955  1  0.691433  0.797767  0.067637  0.523
  C  C11956  1  0.464433  0.024767  0.765697  0.523
  C  C11957  1  0.975233  0.439667  0.765697  0.523
  C  C11958  1  0.560333  0.535567  0.765697  0.523
  C  C11959  1  0.439667  0.975233  0.734303  0.523
  C  C11960  1  0.535567  0.560333  0.734303  0.523
  C  C11961  1  0.024767  0.464433  0.734303  0.523
  C  C11962  1  0.797767  0.691433  0.432363  0.523
  C  C11963  1  0.308567  0.106333  0.432363  0.523
  C  C11964  1  0.893667  0.202233  0.432363  0.523
  C  C11965  1  0.198500  0.369800  0.600320  0.523
  C  C11966  1  0.171300  0.801500  0.600320  0.523
  C  C11967  1  0.630200  0.828700  0.600320  0.523
  C  C11968  1  0.828700  0.630200  0.899680  0.523
  C  C11969  1  0.369800  0.198500  0.899680  0.523
  C  C11970  1  0.801500  0.171300  0.899680  0.523
  C  C11971  1  0.531833  0.036467  0.266987  0.523
  C  C11972  1  0.504633  0.468167  0.266987  0.523
  C  C11973  1  0.963533  0.495367  0.266987  0.523
  C  C11974  1  0.162033  0.296867  0.566347  0.523
  C  C11975  1  0.703133  0.865167  0.566347  0.523
  C  C11976  1  0.134833  0.837967  0.566347  0.523
  C  C11977  1  0.865167  0.703133  0.933653  0.523
  C  C11978  1  0.837967  0.134833  0.933653  0.523
  C  C11979  1  0.296867  0.162033  0.933653  0.523
  C  C11980  1  0.495367  0.963533  0.233013  0.523
  C  C11981  1  0.036467  0.531833  0.233013  0.523
  C  C11982  1  0.468167  0.504633  0.233013  0.523
  C  C11983  1  0.801500  0.630200  0.399680  0.523
  C  C11984  1  0.828700  0.198500  0.399680  0.523
  C  C11985  1  0.369800  0.171300  0.399680  0.523
  C  C11986  1  0.171300  0.369800  0.100320  0.523
  C  C11987  1  0.630200  0.801500  0.100320  0.523
  C  C11988  1  0.198500  0.828700  0.100320  0.523
  C  C11989  1  0.134833  0.296867  0.066347  0.523
  C  C11990  1  0.162033  0.865167  0.066347  0.523
  C  C11991  1  0.703133  0.837967  0.066347  0.523
  C  C11992  1  0.504633  0.036467  0.766987  0.523
  C  C11993  1  0.963533  0.468167  0.766987  0.523
  C  C11994  1  0.531833  0.495367  0.766987  0.523
  C  C11995  1  0.468167  0.963533  0.733013  0.523
  C  C11996  1  0.495367  0.531833  0.733013  0.523
  C  C11997  1  0.036467  0.504633  0.733013  0.523
  C  C11998  1  0.837967  0.703133  0.433653  0.523
  C  C11999  1  0.296867  0.134833  0.433653  0.523
  C  C12000  1  0.865167  0.162033  0.433653  0.523
  C  C12001  1  0.206000  0.401700  0.607810  0.523
  C  C12002  1  0.195700  0.794000  0.607810  0.523
  C  C12003  1  0.598300  0.804300  0.607810  0.523
  C  C12004  1  0.804300  0.598300  0.892190  0.523
  C  C12005  1  0.401700  0.206000  0.892190  0.523
  C  C12006  1  0.794000  0.195700  0.892190  0.523
  C  C12007  1  0.539333  0.068367  0.274477  0.523
  C  C12008  1  0.529033  0.460667  0.274477  0.523
  C  C12009  1  0.931633  0.470967  0.274477  0.523
  C  C12010  1  0.137633  0.264967  0.558857  0.523
  C  C12011  1  0.735033  0.872667  0.558857  0.523
  C  C12012  1  0.127333  0.862367  0.558857  0.523
  C  C12013  1  0.872667  0.735033  0.941143  0.523
  C  C12014  1  0.862367  0.127333  0.941143  0.523
  C  C12015  1  0.264967  0.137633  0.941143  0.523
  C  C12016  1  0.470967  0.931633  0.225523  0.523
  C  C12017  1  0.068367  0.539333  0.225523  0.523
  C  C12018  1  0.460667  0.529033  0.225523  0.523
  C  C12019  1  0.794000  0.598300  0.392190  0.523
  C  C12020  1  0.804300  0.206000  0.392190  0.523
  C  C12021  1  0.401700  0.195700  0.392190  0.523
  C  C12022  1  0.195700  0.401700  0.107810  0.523
  C  C12023  1  0.598300  0.794000  0.107810  0.523
  C  C12024  1  0.206000  0.804300  0.107810  0.523
  C  C12025  1  0.127333  0.264967  0.058857  0.523
  C  C12026  1  0.137633  0.872667  0.058857  0.523
  C  C12027  1  0.735033  0.862367  0.058857  0.523
  C  C12028  1  0.529033  0.068367  0.774477  0.523
  C  C12029  1  0.931633  0.460667  0.774477  0.523
  C  C12030  1  0.539333  0.470967  0.774477  0.523
  C  C12031  1  0.460667  0.931633  0.725523  0.523
  C  C12032  1  0.470967  0.539333  0.725523  0.523
  C  C12033  1  0.068367  0.529033  0.725523  0.523
  C  C12034  1  0.862367  0.735033  0.441143  0.523
  C  C12035  1  0.264967  0.127333  0.441143  0.523
  C  C12036  1  0.872667  0.137633  0.441143  0.523
  C  C12037  1  0.242100  0.422000  0.614000  0.523
  C  C12038  1  0.179900  0.757900  0.614000  0.523
  C  C12039  1  0.578000  0.820100  0.614000  0.523
  C  C12040  1  0.820100  0.578000  0.886000  0.523
  C  C12041  1  0.422000  0.242100  0.886000  0.523
  C  C12042  1  0.757900  0.179900  0.886000  0.523
  C  C12043  1  0.575433  0.088667  0.280667  0.523
  C  C12044  1  0.513233  0.424567  0.280667  0.523
  C  C12045  1  0.911333  0.486767  0.280667  0.523
  C  C12046  1  0.153433  0.244667  0.552667  0.523
  C  C12047  1  0.755333  0.908767  0.552667  0.523
  C  C12048  1  0.091233  0.846567  0.552667  0.523
  C  C12049  1  0.908767  0.755333  0.947333  0.523
  C  C12050  1  0.846567  0.091233  0.947333  0.523
  C  C12051  1  0.244667  0.153433  0.947333  0.523
  C  C12052  1  0.486767  0.911333  0.219333  0.523
  C  C12053  1  0.088667  0.575433  0.219333  0.523
  C  C12054  1  0.424567  0.513233  0.219333  0.523
  C  C12055  1  0.757900  0.578000  0.386000  0.523
  C  C12056  1  0.820100  0.242100  0.386000  0.523
  C  C12057  1  0.422000  0.179900  0.386000  0.523
  C  C12058  1  0.179900  0.422000  0.114000  0.523
  C  C12059  1  0.578000  0.757900  0.114000  0.523
  C  C12060  1  0.242100  0.820100  0.114000  0.523
  C  C12061  1  0.091233  0.244667  0.052667  0.523
  C  C12062  1  0.153433  0.908767  0.052667  0.523
  C  C12063  1  0.755333  0.846567  0.052667  0.523
  C  C12064  1  0.513233  0.088667  0.780667  0.523
  C  C12065  1  0.911333  0.424567  0.780667  0.523
  C  C12066  1  0.575433  0.486767  0.780667  0.523
  C  C12067  1  0.424567  0.911333  0.719333  0.523
  C  C12068  1  0.486767  0.575433  0.719333  0.523
  C  C12069  1  0.088667  0.513233  0.719333  0.523
  C  C12070  1  0.846567  0.755333  0.447333  0.523
  C  C12071  1  0.244667  0.091233  0.447333  0.523
  C  C12072  1  0.908767  0.153433  0.447333  0.523
  C  C12073  1  0.121500  0.490000  0.593000  0.55
  C  C12074  1  0.368500  0.878500  0.593000  0.55
  C  C12075  1  0.510000  0.631500  0.593000  0.55
  C  C12076  1  0.631500  0.510000  0.907000  0.55
  C  C12077  1  0.490000  0.121500  0.907000  0.55
  C  C12078  1  0.878500  0.368500  0.907000  0.55
  C  C12079  1  0.454833  0.156667  0.259667  0.55
  C  C12080  1  0.701833  0.545167  0.259667  0.55
  C  C12081  1  0.843333  0.298167  0.259667  0.55
  C  C12082  1  0.964833  0.176667  0.573667  0.55
  C  C12083  1  0.823333  0.788167  0.573667  0.55
  C  C12084  1  0.211833  0.035167  0.573667  0.55
  C  C12085  1  0.788167  0.823333  0.926333  0.55
  C  C12086  1  0.035167  0.211833  0.926333  0.55
  C  C12087  1  0.176667  0.964833  0.926333  0.55
  C  C12088  1  0.298167  0.843333  0.240333  0.55
  C  C12089  1  0.156667  0.454833  0.240333  0.55
  C  C12090  1  0.545167  0.701833  0.240333  0.55
  C  C12091  1  0.878500  0.510000  0.407000  0.55
  C  C12092  1  0.631500  0.121500  0.407000  0.55
  C  C12093  1  0.490000  0.368500  0.407000  0.55
  C  C12094  1  0.368500  0.490000  0.093000  0.55
  C  C12095  1  0.510000  0.878500  0.093000  0.55
  C  C12096  1  0.121500  0.631500  0.093000  0.55
  C  C12097  1  0.211833  0.176667  0.073667  0.55
  C  C12098  1  0.964833  0.788167  0.073667  0.55
  C  C12099  1  0.823333  0.035167  0.073667  0.55
  C  C12100  1  0.701833  0.156667  0.759667  0.55
  C  C12101  1  0.843333  0.545167  0.759667  0.55
  C  C12102  1  0.454833  0.298167  0.759667  0.55
  C  C12103  1  0.545167  0.843333  0.740333  0.55
  C  C12104  1  0.298167  0.454833  0.740333  0.55
  C  C12105  1  0.156667  0.701833  0.740333  0.55
  C  C12106  1  0.035167  0.823333  0.426333  0.55
  C  C12107  1  0.176667  0.211833  0.426333  0.55
  C  C12108  1  0.788167  0.964833  0.426333  0.55
  C  C12109  1  0.124400  0.623400  0.436800  0.57
  C  C12110  1  0.499000  0.875600  0.436800  0.57
  C  C12111  1  0.376600  0.501000  0.436800  0.57
  C  C12112  1  0.501000  0.376600  0.063200  0.57
  C  C12113  1  0.623400  0.124400  0.063200  0.57
  C  C12114  1  0.875600  0.499000  0.063200  0.57
  C  C12115  1  0.457733  0.290067  0.103467  0.57
  C  C12116  1  0.832333  0.542267  0.103467  0.57
  C  C12117  1  0.709933  0.167667  0.103467  0.57
  C  C12118  1  0.834333  0.043267  0.729867  0.57
  C  C12119  1  0.956733  0.791067  0.729867  0.57
  C  C12120  1  0.208933  0.165667  0.729867  0.57
  C  C12121  1  0.791067  0.956733  0.770133  0.57
  C  C12122  1  0.165667  0.208933  0.770133  0.57
  C  C12123  1  0.043267  0.834333  0.770133  0.57
  C  C12124  1  0.167667  0.709933  0.396533  0.57
  C  C12125  1  0.290067  0.457733  0.396533  0.57
  C  C12126  1  0.542267  0.832333  0.396533  0.57
  C  C12127  1  0.875600  0.376600  0.563200  0.57
  C  C12128  1  0.501000  0.124400  0.563200  0.57
  C  C12129  1  0.623400  0.499000  0.563200  0.57
  C  C12130  1  0.499000  0.623400  0.936800  0.57
  C  C12131  1  0.376600  0.875600  0.936800  0.57
  C  C12132  1  0.124400  0.501000  0.936800  0.57
  C  C12133  1  0.208933  0.043267  0.229867  0.57
  C  C12134  1  0.834333  0.791067  0.229867  0.57
  C  C12135  1  0.956733  0.165667  0.229867  0.57
  C  C12136  1  0.832333  0.290067  0.603467  0.57
  C  C12137  1  0.709933  0.542267  0.603467  0.57
  C  C12138  1  0.457733  0.167667  0.603467  0.57
  C  C12139  1  0.542267  0.709933  0.896533  0.57
  C  C12140  1  0.167667  0.457733  0.896533  0.57
  C  C12141  1  0.290067  0.832333  0.896533  0.57
  C  C12142  1  0.165667  0.956733  0.270133  0.57
  C  C12143  1  0.043267  0.208933  0.270133  0.57
  C  C12144  1  0.791067  0.834333  0.270133  0.57
  C  C12145  1  0.228900  0.557800  0.437200  0.57
  C  C12146  1  0.328900  0.771100  0.437200  0.57
  C  C12147  1  0.442200  0.671100  0.437200  0.57
  C  C12148  1  0.671100  0.442200  0.062800  0.57
  C  C12149  1  0.557800  0.228900  0.062800  0.57
  C  C12150  1  0.771100  0.328900  0.062800  0.57
  C  C12151  1  0.562233  0.224467  0.103867  0.57
  C  C12152  1  0.662233  0.437767  0.103867  0.57
  C  C12153  1  0.775533  0.337767  0.103867  0.57
  C  C12154  1  0.004433  0.108867  0.729467  0.57
  C  C12155  1  0.891133  0.895567  0.729467  0.57
  C  C12156  1  0.104433  0.995567  0.729467  0.57
  C  C12157  1  0.895567  0.891133  0.770533  0.57
  C  C12158  1  0.995567  0.104433  0.770533  0.57
  C  C12159  1  0.108867  0.004433  0.770533  0.57
  C  C12160  1  0.337767  0.775533  0.396133  0.57
  C  C12161  1  0.224467  0.562233  0.396133  0.57
  C  C12162  1  0.437767  0.662233  0.396133  0.57
  C  C12163  1  0.771100  0.442200  0.562800  0.57
  C  C12164  1  0.671100  0.228900  0.562800  0.57
  C  C12165  1  0.557800  0.328900  0.562800  0.57
  C  C12166  1  0.328900  0.557800  0.937200  0.57
  C  C12167  1  0.442200  0.771100  0.937200  0.57
  C  C12168  1  0.228900  0.671100  0.937200  0.57
  C  C12169  1  0.104433  0.108867  0.229467  0.57
  C  C12170  1  0.004433  0.895567  0.229467  0.57
  C  C12171  1  0.891133  0.995567  0.229467  0.57
  C  C12172  1  0.662233  0.224467  0.603867  0.57
  C  C12173  1  0.775533  0.437767  0.603867  0.57
  C  C12174  1  0.562233  0.337767  0.603867  0.57
  C  C12175  1  0.437767  0.775533  0.896133  0.57
  C  C12176  1  0.337767  0.562233  0.896133  0.57
  C  C12177  1  0.224467  0.662233  0.896133  0.57
  C  C12178  1  0.995567  0.891133  0.270533  0.57
  C  C12179  1  0.108867  0.104433  0.270533  0.57
  C  C12180  1  0.895567  0.004433  0.270533  0.57
  C  C12181  1  0.040800  0.366700  0.466700  0.6667
  C  C12182  1  0.325900  0.959200  0.466700  0.6667
  C  C12183  1  0.633300  0.674100  0.466700  0.6667
  C  C12184  1  0.674100  0.633300  0.033300  0.6667
  C  C12185  1  0.366700  0.040800  0.033300  0.6667
  C  C12186  1  0.959200  0.325900  0.033300  0.6667
  C  C12187  1  0.374133  0.033367  0.133367  0.6667
  C  C12188  1  0.659233  0.625867  0.133367  0.6667
  C  C12189  1  0.966633  0.340767  0.133367  0.6667
  C  C12190  1  0.007433  0.299967  0.699967  0.6667
  C  C12191  1  0.700033  0.707467  0.699967  0.6667
  C  C12192  1  0.292533  0.992567  0.699967  0.6667
  C  C12193  1  0.707467  0.700033  0.800033  0.6667
  C  C12194  1  0.992567  0.292533  0.800033  0.6667
  C  C12195  1  0.299967  0.007433  0.800033  0.6667
  C  C12196  1  0.340767  0.966633  0.366633  0.6667
  C  C12197  1  0.033367  0.374133  0.366633  0.6667
  C  C12198  1  0.625867  0.659233  0.366633  0.6667
  C  C12199  1  0.959200  0.633300  0.533300  0.6667
  C  C12200  1  0.674100  0.040800  0.533300  0.6667
  C  C12201  1  0.366700  0.325900  0.533300  0.6667
  C  C12202  1  0.325900  0.366700  0.966700  0.6667
  C  C12203  1  0.633300  0.959200  0.966700  0.6667
  C  C12204  1  0.040800  0.674100  0.966700  0.6667
  C  C12205  1  0.292533  0.299967  0.199967  0.6667
  C  C12206  1  0.007433  0.707467  0.199967  0.6667
  C  C12207  1  0.700033  0.992567  0.199967  0.6667
  C  C12208  1  0.659233  0.033367  0.633367  0.6667
  C  C12209  1  0.966633  0.625867  0.633367  0.6667
  C  C12210  1  0.374133  0.340767  0.633367  0.6667
  C  C12211  1  0.625867  0.966633  0.866633  0.6667
  C  C12212  1  0.340767  0.374133  0.866633  0.6667
  C  C12213  1  0.033367  0.659233  0.866633  0.6667
  C  C12214  1  0.992567  0.700033  0.300033  0.6667
  C  C12215  1  0.299967  0.292533  0.300033  0.6667
  C  C12216  1  0.707467  0.007433  0.300033  0.6667
  C  C12217  1  0.053200  0.352700  0.457020  0.6667
  C  C12218  1  0.299500  0.946800  0.457020  0.6667
  C  C12219  1  0.647300  0.700500  0.457020  0.6667
  C  C12220  1  0.700500  0.647300  0.042980  0.6667
  C  C12221  1  0.352700  0.053200  0.042980  0.6667
  C  C12222  1  0.946800  0.299500  0.042980  0.6667
  C  C12223  1  0.386533  0.019367  0.123687  0.6667
  C  C12224  1  0.632833  0.613467  0.123687  0.6667
  C  C12225  1  0.980633  0.367167  0.123687  0.6667
  C  C12226  1  0.033833  0.313967  0.709647  0.6667
  C  C12227  1  0.686033  0.719867  0.709647  0.6667
  C  C12228  1  0.280133  0.966167  0.709647  0.6667
  C  C12229  1  0.719867  0.686033  0.790353  0.6667
  C  C12230  1  0.966167  0.280133  0.790353  0.6667
  C  C12231  1  0.313967  0.033833  0.790353  0.6667
  C  C12232  1  0.367167  0.980633  0.376313  0.6667
  C  C12233  1  0.019367  0.386533  0.376313  0.6667
  C  C12234  1  0.613467  0.632833  0.376313  0.6667
  C  C12235  1  0.946800  0.647300  0.542980  0.6667
  C  C12236  1  0.700500  0.053200  0.542980  0.6667
  C  C12237  1  0.352700  0.299500  0.542980  0.6667
  C  C12238  1  0.299500  0.352700  0.957020  0.6667
  C  C12239  1  0.647300  0.946800  0.957020  0.6667
  C  C12240  1  0.053200  0.700500  0.957020  0.6667
  C  C12241  1  0.280133  0.313967  0.209647  0.6667
  C  C12242  1  0.033833  0.719867  0.209647  0.6667
  C  C12243  1  0.686033  0.966167  0.209647  0.6667
  C  C12244  1  0.632833  0.019367  0.623687  0.6667
  C  C12245  1  0.980633  0.613467  0.623687  0.6667
  C  C12246  1  0.386533  0.367167  0.623687  0.6667
  C  C12247  1  0.613467  0.980633  0.876313  0.6667
  C  C12248  1  0.367167  0.386533  0.876313  0.6667
  C  C12249  1  0.019367  0.632833  0.876313  0.6667
  C  C12250  1  0.966167  0.686033  0.290353  0.6667
  C  C12251  1  0.313967  0.280133  0.290353  0.6667
  C  C12252  1  0.719867  0.033833  0.290353  0.6667
  C  C12253  1  0.072900  0.377800  0.447350  0.6667
  C  C12254  1  0.304900  0.927100  0.447350  0.6667
  C  C12255  1  0.622200  0.695100  0.447350  0.6667
  C  C12256  1  0.695100  0.622200  0.052650  0.6667
  C  C12257  1  0.377800  0.072900  0.052650  0.6667
  C  C12258  1  0.927100  0.304900  0.052650  0.6667
  C  C12259  1  0.406233  0.044467  0.114017  0.6667
  C  C12260  1  0.638233  0.593767  0.114017  0.6667
  C  C12261  1  0.955533  0.361767  0.114017  0.6667
  C  C12262  1  0.028433  0.288867  0.719317  0.6667
  C  C12263  1  0.711133  0.739567  0.719317  0.6667
  C  C12264  1  0.260433  0.971567  0.719317  0.6667
  C  C12265  1  0.739567  0.711133  0.780683  0.6667
  C  C12266  1  0.971567  0.260433  0.780683  0.6667
  C  C12267  1  0.288867  0.028433  0.780683  0.6667
  C  C12268  1  0.361767  0.955533  0.385983  0.6667
  C  C12269  1  0.044467  0.406233  0.385983  0.6667
  C  C12270  1  0.593767  0.638233  0.385983  0.6667
  C  C12271  1  0.927100  0.622200  0.552650  0.6667
  C  C12272  1  0.695100  0.072900  0.552650  0.6667
  C  C12273  1  0.377800  0.304900  0.552650  0.6667
  C  C12274  1  0.304900  0.377800  0.947350  0.6667
  C  C12275  1  0.622200  0.927100  0.947350  0.6667
  C  C12276  1  0.072900  0.695100  0.947350  0.6667
  C  C12277  1  0.260433  0.288867  0.219317  0.6667
  C  C12278  1  0.028433  0.739567  0.219317  0.6667
  C  C12279  1  0.711133  0.971567  0.219317  0.6667
  C  C12280  1  0.638233  0.044467  0.614017  0.6667
  C  C12281  1  0.955533  0.593767  0.614017  0.6667
  C  C12282  1  0.406233  0.361767  0.614017  0.6667
  C  C12283  1  0.593767  0.955533  0.885983  0.6667
  C  C12284  1  0.361767  0.406233  0.885983  0.6667
  C  C12285  1  0.044467  0.638233  0.885983  0.6667
  C  C12286  1  0.971567  0.711133  0.280683  0.6667
  C  C12287  1  0.288867  0.260433  0.280683  0.6667
  C  C12288  1  0.739567  0.028433  0.280683  0.6667
  C  C12289  1  0.080200  0.416900  0.447360  0.6667
  C  C12290  1  0.336700  0.919800  0.447360  0.6667
  C  C12291  1  0.583100  0.663300  0.447360  0.6667
  C  C12292  1  0.663300  0.583100  0.052640  0.6667
  C  C12293  1  0.416900  0.080200  0.052640  0.6667
  C  C12294  1  0.919800  0.336700  0.052640  0.6667
  C  C12295  1  0.413533  0.083567  0.114027  0.6667
  C  C12296  1  0.670033  0.586467  0.114027  0.6667
  C  C12297  1  0.916433  0.329967  0.114027  0.6667
  C  C12298  1  0.996633  0.249767  0.719307  0.6667
  C  C12299  1  0.750233  0.746867  0.719307  0.6667
  C  C12300  1  0.253133  0.003367  0.719307  0.6667
  C  C12301  1  0.746867  0.750233  0.780693  0.6667
  C  C12302  1  0.003367  0.253133  0.780693  0.6667
  C  C12303  1  0.249767  0.996633  0.780693  0.6667
  C  C12304  1  0.329967  0.916433  0.385973  0.6667
  C  C12305  1  0.083567  0.413533  0.385973  0.6667
  C  C12306  1  0.586467  0.670033  0.385973  0.6667
  C  C12307  1  0.919800  0.583100  0.552640  0.6667
  C  C12308  1  0.663300  0.080200  0.552640  0.6667
  C  C12309  1  0.416900  0.336700  0.552640  0.6667
  C  C12310  1  0.336700  0.416900  0.947360  0.6667
  C  C12311  1  0.583100  0.919800  0.947360  0.6667
  C  C12312  1  0.080200  0.663300  0.947360  0.6667
  C  C12313  1  0.253133  0.249767  0.219307  0.6667
  C  C12314  1  0.996633  0.746867  0.219307  0.6667
  C  C12315  1  0.750233  0.003367  0.219307  0.6667
  C  C12316  1  0.670033  0.083567  0.614027  0.6667
  C  C12317  1  0.916433  0.586467  0.614027  0.6667
  C  C12318  1  0.413533  0.329967  0.614027  0.6667
  C  C12319  1  0.586467  0.916433  0.885973  0.6667
  C  C12320  1  0.329967  0.413533  0.885973  0.6667
  C  C12321  1  0.083567  0.670033  0.885973  0.6667
  C  C12322  1  0.003367  0.750233  0.280693  0.6667
  C  C12323  1  0.249767  0.253133  0.280693  0.6667
  C  C12324  1  0.746867  0.996633  0.280693  0.6667
  C  C12325  1  0.067900  0.431000  0.457040  0.6667
  C  C12326  1  0.363100  0.932100  0.457040  0.6667
  C  C12327  1  0.569000  0.636900  0.457040  0.6667
  C  C12328  1  0.636900  0.569000  0.042960  0.6667
  C  C12329  1  0.431000  0.067900  0.042960  0.6667
  C  C12330  1  0.932100  0.363100  0.042960  0.6667
  C  C12331  1  0.401233  0.097667  0.123707  0.6667
  C  C12332  1  0.696433  0.598767  0.123707  0.6667
  C  C12333  1  0.902333  0.303567  0.123707  0.6667
  C  C12334  1  0.970233  0.235667  0.709627  0.6667
  C  C12335  1  0.764333  0.734567  0.709627  0.6667
  C  C12336  1  0.265433  0.029767  0.709627  0.6667
  C  C12337  1  0.734567  0.764333  0.790373  0.6667
  C  C12338  1  0.029767  0.265433  0.790373  0.6667
  C  C12339  1  0.235667  0.970233  0.790373  0.6667
  C  C12340  1  0.303567  0.902333  0.376293  0.6667
  C  C12341  1  0.097667  0.401233  0.376293  0.6667
  C  C12342  1  0.598767  0.696433  0.376293  0.6667
  C  C12343  1  0.932100  0.569000  0.542960  0.6667
  C  C12344  1  0.636900  0.067900  0.542960  0.6667
  C  C12345  1  0.431000  0.363100  0.542960  0.6667
  C  C12346  1  0.363100  0.431000  0.957040  0.6667
  C  C12347  1  0.569000  0.932100  0.957040  0.6667
  C  C12348  1  0.067900  0.636900  0.957040  0.6667
  C  C12349  1  0.265433  0.235667  0.209627  0.6667
  C  C12350  1  0.970233  0.734567  0.209627  0.6667
  C  C12351  1  0.764333  0.029767  0.209627  0.6667
  C  C12352  1  0.696433  0.097667  0.623707  0.6667
  C  C12353  1  0.902333  0.598767  0.623707  0.6667
  C  C12354  1  0.401233  0.303567  0.623707  0.6667
  C  C12355  1  0.598767  0.902333  0.876293  0.6667
  C  C12356  1  0.303567  0.401233  0.876293  0.6667
  C  C12357  1  0.097667  0.696433  0.876293  0.6667
  C  C12358  1  0.029767  0.764333  0.290373  0.6667
  C  C12359  1  0.235667  0.265433  0.290373  0.6667
  C  C12360  1  0.734567  0.970233  0.290373  0.6667
  C  C12361  1  0.048200  0.405900  0.466720  0.6667
  C  C12362  1  0.357700  0.951800  0.466720  0.6667
  C  C12363  1  0.594100  0.642300  0.466720  0.6667
  C  C12364  1  0.642300  0.594100  0.033280  0.6667
  C  C12365  1  0.405900  0.048200  0.033280  0.6667
  C  C12366  1  0.951800  0.357700  0.033280  0.6667
  C  C12367  1  0.381533  0.072567  0.133387  0.6667
  C  C12368  1  0.691033  0.618467  0.133387  0.6667
  C  C12369  1  0.927433  0.308967  0.133387  0.6667
  C  C12370  1  0.975633  0.260767  0.699947  0.6667
  C  C12371  1  0.739233  0.714867  0.699947  0.6667
  C  C12372  1  0.285133  0.024367  0.699947  0.6667
  C  C12373  1  0.714867  0.739233  0.800053  0.6667
  C  C12374  1  0.024367  0.285133  0.800053  0.6667
  C  C12375  1  0.260767  0.975633  0.800053  0.6667
  C  C12376  1  0.308967  0.927433  0.366613  0.6667
  C  C12377  1  0.072567  0.381533  0.366613  0.6667
  C  C12378  1  0.618467  0.691033  0.366613  0.6667
  C  C12379  1  0.951800  0.594100  0.533280  0.6667
  C  C12380  1  0.642300  0.048200  0.533280  0.6667
  C  C12381  1  0.405900  0.357700  0.533280  0.6667
  C  C12382  1  0.357700  0.405900  0.966720  0.6667
  C  C12383  1  0.594100  0.951800  0.966720  0.6667
  C  C12384  1  0.048200  0.642300  0.966720  0.6667
  C  C12385  1  0.285133  0.260767  0.199947  0.6667
  C  C12386  1  0.975633  0.714867  0.199947  0.6667
  C  C12387  1  0.739233  0.024367  0.199947  0.6667
  C  C12388  1  0.691033  0.072567  0.633387  0.6667
  C  C12389  1  0.927433  0.618467  0.633387  0.6667
  C  C12390  1  0.381533  0.308967  0.633387  0.6667
  C  C12391  1  0.618467  0.927433  0.866613  0.6667
  C  C12392  1  0.308967  0.381533  0.866613  0.6667
  C  C12393  1  0.072567  0.691033  0.866613  0.6667
  C  C12394  1  0.024367  0.739233  0.300053  0.6667
  C  C12395  1  0.260767  0.285133  0.300053  0.6667
  C  C12396  1  0.714867  0.975633  0.300053  0.6667
  N  N12397  1  0.023100  0.345000  0.476540  0.6667
  N  N12398  1  0.321900  0.976900  0.476540  0.6667
  N  N12399  1  0.655000  0.678100  0.476540  0.6667
  N  N12400  1  0.678100  0.655000  0.023460  0.6667
  N  N12401  1  0.345000  0.023100  0.023460  0.6667
  N  N12402  1  0.976900  0.321900  0.023460  0.6667
  N  N12403  1  0.356433  0.011667  0.143207  0.6667
  N  N12404  1  0.655233  0.643567  0.143207  0.6667
  N  N12405  1  0.988333  0.344767  0.143207  0.6667
  N  N12406  1  0.011433  0.321667  0.690127  0.6667
  N  N12407  1  0.678333  0.689767  0.690127  0.6667
  N  N12408  1  0.310233  0.988567  0.690127  0.6667
  N  N12409  1  0.689767  0.678333  0.809873  0.6667
  N  N12410  1  0.988567  0.310233  0.809873  0.6667
  N  N12411  1  0.321667  0.011433  0.809873  0.6667
  N  N12412  1  0.344767  0.988333  0.356793  0.6667
  N  N12413  1  0.011667  0.356433  0.356793  0.6667
  N  N12414  1  0.643567  0.655233  0.356793  0.6667
  N  N12415  1  0.976900  0.655000  0.523460  0.6667
  N  N12416  1  0.678100  0.023100  0.523460  0.6667
  N  N12417  1  0.345000  0.321900  0.523460  0.6667
  N  N12418  1  0.321900  0.345000  0.976540  0.6667
  N  N12419  1  0.655000  0.976900  0.976540  0.6667
  N  N12420  1  0.023100  0.678100  0.976540  0.6667
  N  N12421  1  0.310233  0.321667  0.190127  0.6667
  N  N12422  1  0.011433  0.689767  0.190127  0.6667
  N  N12423  1  0.678333  0.988567  0.190127  0.6667
  N  N12424  1  0.655233  0.011667  0.643207  0.6667
  N  N12425  1  0.988333  0.643567  0.643207  0.6667
  N  N12426  1  0.356433  0.344767  0.643207  0.6667
  N  N12427  1  0.643567  0.988333  0.856793  0.6667
  N  N12428  1  0.344767  0.356433  0.856793  0.6667
  N  N12429  1  0.011667  0.655233  0.856793  0.6667
  N  N12430  1  0.988567  0.678333  0.309873  0.6667
  N  N12431  1  0.321667  0.310233  0.309873  0.6667
  N  N12432  1  0.689767  0.011433  0.309873  0.6667
  N  N12433  1  0.153800  0.287800  0.478340  1.0
  N  N12434  1  0.134000  0.846200  0.478340  1.0
  N  N12435  1  0.712200  0.866000  0.478340  1.0
  N  N12436  1  0.866000  0.712200  0.021660  1.0
  N  N12437  1  0.287800  0.153800  0.021660  1.0
  N  N12438  1  0.846200  0.134000  0.021660  1.0
  N  N12439  1  0.487133  0.954467  0.145007  1.0
  N  N12440  1  0.467333  0.512867  0.145007  1.0
  N  N12441  1  0.045533  0.532667  0.145007  1.0
  N  N12442  1  0.199333  0.378867  0.688327  1.0
  N  N12443  1  0.621133  0.820467  0.688327  1.0
  N  N12444  1  0.179533  0.800667  0.688327  1.0
  N  N12445  1  0.820467  0.621133  0.811673  1.0
  N  N12446  1  0.800667  0.179533  0.811673  1.0
  N  N12447  1  0.378867  0.199333  0.811673  1.0
  N  N12448  1  0.532667  0.045533  0.354993  1.0
  N  N12449  1  0.954467  0.487133  0.354993  1.0
  N  N12450  1  0.512867  0.467333  0.354993  1.0
  N  N12451  1  0.846200  0.712200  0.521660  1.0
  N  N12452  1  0.866000  0.153800  0.521660  1.0
  N  N12453  1  0.287800  0.134000  0.521660  1.0
  N  N12454  1  0.134000  0.287800  0.978340  1.0
  N  N12455  1  0.712200  0.846200  0.978340  1.0
  N  N12456  1  0.153800  0.866000  0.978340  1.0
  N  N12457  1  0.179533  0.378867  0.188327  1.0
  N  N12458  1  0.199333  0.820467  0.188327  1.0
  N  N12459  1  0.621133  0.800667  0.188327  1.0
  N  N12460  1  0.467333  0.954467  0.645007  1.0
  N  N12461  1  0.045533  0.512867  0.645007  1.0
  N  N12462  1  0.487133  0.532667  0.645007  1.0
  N  N12463  1  0.512867  0.045533  0.854993  1.0
  N  N12464  1  0.532667  0.487133  0.854993  1.0
  N  N12465  1  0.954467  0.467333  0.854993  1.0
  N  N12466  1  0.800667  0.621133  0.311673  1.0
  N  N12467  1  0.378867  0.179533  0.311673  1.0
  N  N12468  1  0.820467  0.199333  0.311673  1.0
  N  N12469  1  0.169600  0.323400  0.498770  1.0
  N  N12470  1  0.153800  0.830400  0.498770  1.0
  N  N12471  1  0.676600  0.846200  0.498770  1.0
  N  N12472  1  0.846200  0.676600  0.001230  1.0
  N  N12473  1  0.323400  0.169600  0.001230  1.0
  N  N12474  1  0.830400  0.153800  0.001230  1.0
  N  N12475  1  0.502933  0.990067  0.165437  1.0
  N  N12476  1  0.487133  0.497067  0.165437  1.0
  N  N12477  1  0.009933  0.512867  0.165437  1.0
  N  N12478  1  0.179533  0.343267  0.667897  1.0
  N  N12479  1  0.656733  0.836267  0.667897  1.0
  N  N12480  1  0.163733  0.820467  0.667897  1.0
  N  N12481  1  0.836267  0.656733  0.832103  1.0
  N  N12482  1  0.820467  0.163733  0.832103  1.0
  N  N12483  1  0.343267  0.179533  0.832103  1.0
  N  N12484  1  0.512867  0.009933  0.334563  1.0
  N  N12485  1  0.990067  0.502933  0.334563  1.0
  N  N12486  1  0.497067  0.487133  0.334563  1.0
  N  N12487  1  0.830400  0.676600  0.501230  1.0
  N  N12488  1  0.846200  0.169600  0.501230  1.0
  N  N12489  1  0.323400  0.153800  0.501230  1.0
  N  N12490  1  0.153800  0.323400  0.998770  1.0
  N  N12491  1  0.676600  0.830400  0.998770  1.0
  N  N12492  1  0.169600  0.846200  0.998770  1.0
  N  N12493  1  0.163733  0.343267  0.167897  1.0
  N  N12494  1  0.179533  0.836267  0.167897  1.0
  N  N12495  1  0.656733  0.820467  0.167897  1.0
  N  N12496  1  0.487133  0.990067  0.665437  1.0
  N  N12497  1  0.009933  0.497067  0.665437  1.0
  N  N12498  1  0.502933  0.512867  0.665437  1.0
  N  N12499  1  0.497067  0.009933  0.834563  1.0
  N  N12500  1  0.512867  0.502933  0.834563  1.0
  N  N12501  1  0.990067  0.487133  0.834563  1.0
  N  N12502  1  0.820467  0.656733  0.332103  1.0
  N  N12503  1  0.343267  0.163733  0.332103  1.0
  N  N12504  1  0.836267  0.179533  0.332103  1.0
  N  N12505  1  0.359500  0.640700  0.626230  1.0
  N  N12506  1  0.281200  0.640500  0.626230  1.0
  N  N12507  1  0.359300  0.718800  0.626230  1.0
  N  N12508  1  0.718800  0.359300  0.873770  1.0
  N  N12509  1  0.640700  0.359500  0.873770  1.0
  N  N12510  1  0.640500  0.281200  0.873770  1.0
  N  N12511  1  0.692833  0.307367  0.292897  1.0
  N  N12512  1  0.614533  0.307167  0.292897  1.0
  N  N12513  1  0.692633  0.385467  0.292897  1.0
  N  N12514  1  0.052133  0.025967  0.540437  1.0
  N  N12515  1  0.974033  0.026167  0.540437  1.0
  N  N12516  1  0.973833  0.947867  0.540437  1.0
  N  N12517  1  0.026167  0.974033  0.959563  1.0
  N  N12518  1  0.947867  0.973833  0.959563  1.0
  N  N12519  1  0.025967  0.052133  0.959563  1.0
  N  N12520  1  0.385467  0.692633  0.207103  1.0
  N  N12521  1  0.307367  0.692833  0.207103  1.0
  N  N12522  1  0.307167  0.614533  0.207103  1.0
  N  N12523  1  0.640500  0.359300  0.373770  1.0
  N  N12524  1  0.718800  0.359500  0.373770  1.0
  N  N12525  1  0.640700  0.281200  0.373770  1.0
  N  N12526  1  0.281200  0.640700  0.126230  1.0
  N  N12527  1  0.359300  0.640500  0.126230  1.0
  N  N12528  1  0.359500  0.718800  0.126230  1.0
  N  N12529  1  0.973833  0.025967  0.040437  1.0
  N  N12530  1  0.052133  0.026167  0.040437  1.0
  N  N12531  1  0.974033  0.947867  0.040437  1.0
  N  N12532  1  0.614533  0.307367  0.792897  1.0
  N  N12533  1  0.692633  0.307167  0.792897  1.0
  N  N12534  1  0.692833  0.385467  0.792897  1.0
  N  N12535  1  0.307167  0.692633  0.707103  1.0
  N  N12536  1  0.385467  0.692833  0.707103  1.0
  N  N12537  1  0.307367  0.614533  0.707103  1.0
  N  N12538  1  0.947867  0.974033  0.459563  1.0
  N  N12539  1  0.025967  0.973833  0.459563  1.0
  N  N12540  1  0.026167  0.052133  0.459563  1.0
  N  N12541  1  0.384800  0.688000  0.644740  1.0
  N  N12542  1  0.303200  0.615200  0.644740  1.0
  N  N12543  1  0.312000  0.696800  0.644740  1.0
  N  N12544  1  0.696800  0.312000  0.855260  1.0
  N  N12545  1  0.688000  0.384800  0.855260  1.0
  N  N12546  1  0.615200  0.303200  0.855260  1.0
  N  N12547  1  0.718133  0.354667  0.311407  1.0
  N  N12548  1  0.636533  0.281867  0.311407  1.0
  N  N12549  1  0.645333  0.363467  0.311407  1.0
  N  N12550  1  0.030133  0.978667  0.521927  1.0
  N  N12551  1  0.021333  0.051467  0.521927  1.0
  N  N12552  1  0.948533  0.969867  0.521927  1.0
  N  N12553  1  0.051467  0.021333  0.978073  1.0
  N  N12554  1  0.969867  0.948533  0.978073  1.0
  N  N12555  1  0.978667  0.030133  0.978073  1.0
  N  N12556  1  0.363467  0.645333  0.188593  1.0
  N  N12557  1  0.354667  0.718133  0.188593  1.0
  N  N12558  1  0.281867  0.636533  0.188593  1.0
  N  N12559  1  0.615200  0.312000  0.355260  1.0
  N  N12560  1  0.696800  0.384800  0.355260  1.0
  N  N12561  1  0.688000  0.303200  0.355260  1.0
  N  N12562  1  0.303200  0.688000  0.144740  1.0
  N  N12563  1  0.312000  0.615200  0.144740  1.0
  N  N12564  1  0.384800  0.696800  0.144740  1.0
  N  N12565  1  0.948533  0.978667  0.021927  1.0
  N  N12566  1  0.030133  0.051467  0.021927  1.0
  N  N12567  1  0.021333  0.969867  0.021927  1.0
  N  N12568  1  0.636533  0.354667  0.811407  1.0
  N  N12569  1  0.645333  0.281867  0.811407  1.0
  N  N12570  1  0.718133  0.363467  0.811407  1.0
  N  N12571  1  0.281867  0.645333  0.688593  1.0
  N  N12572  1  0.363467  0.718133  0.688593  1.0
  N  N12573  1  0.354667  0.636533  0.688593  1.0
  N  N12574  1  0.969867  0.021333  0.478073  1.0
  N  N12575  1  0.978667  0.948533  0.478073  1.0
  N  N12576  1  0.051467  0.030133  0.478073  1.0
  N  N12577  1  0.191000  0.405700  0.564930  1.0
  N  N12578  1  0.214700  0.809000  0.564930  1.0
  N  N12579  1  0.594300  0.785300  0.564930  1.0
  N  N12580  1  0.785300  0.594300  0.935070  1.0
  N  N12581  1  0.405700  0.191000  0.935070  1.0
  N  N12582  1  0.809000  0.214700  0.935070  1.0
  N  N12583  1  0.524333  0.072367  0.231597  1.0
  N  N12584  1  0.548033  0.475667  0.231597  1.0
  N  N12585  1  0.927633  0.451967  0.231597  1.0
  N  N12586  1  0.118633  0.260967  0.601737  1.0
  N  N12587  1  0.739033  0.857667  0.601737  1.0
  N  N12588  1  0.142333  0.881367  0.601737  1.0
  N  N12589  1  0.857667  0.739033  0.898263  1.0
  N  N12590  1  0.881367  0.142333  0.898263  1.0
  N  N12591  1  0.260967  0.118633  0.898263  1.0
  N  N12592  1  0.451967  0.927633  0.268403  1.0
  N  N12593  1  0.072367  0.524333  0.268403  1.0
  N  N12594  1  0.475667  0.548033  0.268403  1.0
  N  N12595  1  0.809000  0.594300  0.435070  1.0
  N  N12596  1  0.785300  0.191000  0.435070  1.0
  N  N12597  1  0.405700  0.214700  0.435070  1.0
  N  N12598  1  0.214700  0.405700  0.064930  1.0
  N  N12599  1  0.594300  0.809000  0.064930  1.0
  N  N12600  1  0.191000  0.785300  0.064930  1.0
  N  N12601  1  0.142333  0.260967  0.101737  1.0
  N  N12602  1  0.118633  0.857667  0.101737  1.0
  N  N12603  1  0.739033  0.881367  0.101737  1.0
  N  N12604  1  0.548033  0.072367  0.731597  1.0
  N  N12605  1  0.927633  0.475667  0.731597  1.0
  N  N12606  1  0.524333  0.451967  0.731597  1.0
  N  N12607  1  0.475667  0.927633  0.768403  1.0
  N  N12608  1  0.451967  0.524333  0.768403  1.0
  N  N12609  1  0.072367  0.548033  0.768403  1.0
  N  N12610  1  0.881367  0.739033  0.398263  1.0
  N  N12611  1  0.260967  0.142333  0.398263  1.0
  N  N12612  1  0.857667  0.118633  0.398263  1.0
  N  N12613  1  0.219300  0.459100  0.584330  1.0
  N  N12614  1  0.239800  0.780700  0.584330  1.0
  N  N12615  1  0.540900  0.760200  0.584330  1.0
  N  N12616  1  0.760200  0.540900  0.915670  1.0
  N  N12617  1  0.459100  0.219300  0.915670  1.0
  N  N12618  1  0.780700  0.239800  0.915670  1.0
  N  N12619  1  0.552633  0.125767  0.250997  1.0
  N  N12620  1  0.573133  0.447367  0.250997  1.0
  N  N12621  1  0.874233  0.426867  0.250997  1.0
  N  N12622  1  0.093533  0.207567  0.582337  1.0
  N  N12623  1  0.792433  0.885967  0.582337  1.0
  N  N12624  1  0.114033  0.906467  0.582337  1.0
  N  N12625  1  0.885967  0.792433  0.917663  1.0
  N  N12626  1  0.906467  0.114033  0.917663  1.0
  N  N12627  1  0.207567  0.093533  0.917663  1.0
  N  N12628  1  0.426867  0.874233  0.249003  1.0
  N  N12629  1  0.125767  0.552633  0.249003  1.0
  N  N12630  1  0.447367  0.573133  0.249003  1.0
  N  N12631  1  0.780700  0.540900  0.415670  1.0
  N  N12632  1  0.760200  0.219300  0.415670  1.0
  N  N12633  1  0.459100  0.239800  0.415670  1.0
  N  N12634  1  0.239800  0.459100  0.084330  1.0
  N  N12635  1  0.540900  0.780700  0.084330  1.0
  N  N12636  1  0.219300  0.760200  0.084330  1.0
  N  N12637  1  0.114033  0.207567  0.082337  1.0
  N  N12638  1  0.093533  0.885967  0.082337  1.0
  N  N12639  1  0.792433  0.906467  0.082337  1.0
  N  N12640  1  0.573133  0.125767  0.750997  1.0
  N  N12641  1  0.874233  0.447367  0.750997  1.0
  N  N12642  1  0.552633  0.426867  0.750997  1.0
  N  N12643  1  0.447367  0.874233  0.749003  1.0
  N  N12644  1  0.426867  0.552633  0.749003  1.0
  N  N12645  1  0.125767  0.573133  0.749003  1.0
  N  N12646  1  0.906467  0.792433  0.417663  1.0
  N  N12647  1  0.207567  0.114033  0.417663  1.0
  N  N12648  1  0.885967  0.093533  0.417663  1.0
  N  N12649  1  0.288600  0.459200  0.582910  1.0
  N  N12650  1  0.170600  0.711400  0.582910  1.0
  N  N12651  1  0.540800  0.829400  0.582910  1.0
  N  N12652  1  0.829400  0.540800  0.917090  1.0
  N  N12653  1  0.459200  0.288600  0.917090  1.0
  N  N12654  1  0.711400  0.170600  0.917090  1.0
  N  N12655  1  0.621933  0.125867  0.249577  1.0
  N  N12656  1  0.503933  0.378067  0.249577  1.0
  N  N12657  1  0.874133  0.496067  0.249577  1.0
  N  N12658  1  0.162733  0.207467  0.583757  1.0
  N  N12659  1  0.792533  0.955267  0.583757  1.0
  N  N12660  1  0.044733  0.837267  0.583757  1.0
  N  N12661  1  0.955267  0.792533  0.916243  1.0
  N  N12662  1  0.837267  0.044733  0.916243  1.0
  N  N12663  1  0.207467  0.162733  0.916243  1.0
  N  N12664  1  0.496067  0.874133  0.250423  1.0
  N  N12665  1  0.125867  0.621933  0.250423  1.0
  N  N12666  1  0.378067  0.503933  0.250423  1.0
  N  N12667  1  0.711400  0.540800  0.417090  1.0
  N  N12668  1  0.829400  0.288600  0.417090  1.0
  N  N12669  1  0.459200  0.170600  0.417090  1.0
  N  N12670  1  0.170600  0.459200  0.082910  1.0
  N  N12671  1  0.540800  0.711400  0.082910  1.0
  N  N12672  1  0.288600  0.829400  0.082910  1.0
  N  N12673  1  0.044733  0.207467  0.083757  1.0
  N  N12674  1  0.162733  0.955267  0.083757  1.0
  N  N12675  1  0.792533  0.837267  0.083757  1.0
  N  N12676  1  0.503933  0.125867  0.749577  1.0
  N  N12677  1  0.874133  0.378067  0.749577  1.0
  N  N12678  1  0.621933  0.496067  0.749577  1.0
  N  N12679  1  0.378067  0.874133  0.750423  1.0
  N  N12680  1  0.496067  0.621933  0.750423  1.0
  N  N12681  1  0.125867  0.503933  0.750423  1.0
  N  N12682  1  0.837267  0.792533  0.416243  1.0
  N  N12683  1  0.207467  0.044733  0.416243  1.0
  N  N12684  1  0.955267  0.162733  0.416243  1.0
  N  N12685  1  0.262300  0.410900  0.562930  1.0
  N  N12686  1  0.148600  0.737700  0.562930  1.0
  N  N12687  1  0.589100  0.851400  0.562930  1.0
  N  N12688  1  0.851400  0.589100  0.937070  1.0
  N  N12689  1  0.410900  0.262300  0.937070  1.0
  N  N12690  1  0.737700  0.148600  0.937070  1.0
  N  N12691  1  0.595633  0.077567  0.229597  1.0
  N  N12692  1  0.481933  0.404367  0.229597  1.0
  N  N12693  1  0.922433  0.518067  0.229597  1.0
  N  N12694  1  0.184733  0.255767  0.603737  1.0
  N  N12695  1  0.744233  0.928967  0.603737  1.0
  N  N12696  1  0.071033  0.815267  0.603737  1.0
  N  N12697  1  0.928967  0.744233  0.896263  1.0
  N  N12698  1  0.815267  0.071033  0.896263  1.0
  N  N12699  1  0.255767  0.184733  0.896263  1.0
  N  N12700  1  0.518067  0.922433  0.270403  1.0
  N  N12701  1  0.077567  0.595633  0.270403  1.0
  N  N12702  1  0.404367  0.481933  0.270403  1.0
  N  N12703  1  0.737700  0.589100  0.437070  1.0
  N  N12704  1  0.851400  0.262300  0.437070  1.0
  N  N12705  1  0.410900  0.148600  0.437070  1.0
  N  N12706  1  0.148600  0.410900  0.062930  1.0
  N  N12707  1  0.589100  0.737700  0.062930  1.0
  N  N12708  1  0.262300  0.851400  0.062930  1.0
  N  N12709  1  0.071033  0.255767  0.103737  1.0
  N  N12710  1  0.184733  0.928967  0.103737  1.0
  N  N12711  1  0.744233  0.815267  0.103737  1.0
  N  N12712  1  0.481933  0.077567  0.729597  1.0
  N  N12713  1  0.922433  0.404367  0.729597  1.0
  N  N12714  1  0.595633  0.518067  0.729597  1.0
  N  N12715  1  0.404367  0.922433  0.770403  1.0
  N  N12716  1  0.518067  0.595633  0.770403  1.0
  N  N12717  1  0.077567  0.481933  0.770403  1.0
  N  N12718  1  0.815267  0.744233  0.396263  1.0
  N  N12719  1  0.255767  0.071033  0.396263  1.0
  N  N12720  1  0.928967  0.184733  0.396263  1.0
  N  N12721  1  0.236500  0.307600  0.475280  1.0
  N  N12722  1  0.071100  0.763500  0.475280  1.0
  N  N12723  1  0.692400  0.928900  0.475280  1.0
  N  N12724  1  0.928900  0.692400  0.024720  1.0
  N  N12725  1  0.307600  0.236500  0.024720  1.0
  N  N12726  1  0.763500  0.071100  0.024720  1.0
  N  N12727  1  0.569833  0.974267  0.141947  1.0
  N  N12728  1  0.404433  0.430167  0.141947  1.0
  N  N12729  1  0.025733  0.595567  0.141947  1.0
  N  N12730  1  0.262233  0.359067  0.691387  1.0
  N  N12731  1  0.640933  0.903167  0.691387  1.0
  N  N12732  1  0.096833  0.737767  0.691387  1.0
  N  N12733  1  0.903167  0.640933  0.808613  1.0
  N  N12734  1  0.737767  0.096833  0.808613  1.0
  N  N12735  1  0.359067  0.262233  0.808613  1.0
  N  N12736  1  0.595567  0.025733  0.358053  1.0
  N  N12737  1  0.974267  0.569833  0.358053  1.0
  N  N12738  1  0.430167  0.404433  0.358053  1.0
  N  N12739  1  0.763500  0.692400  0.524720  1.0
  N  N12740  1  0.928900  0.236500  0.524720  1.0
  N  N12741  1  0.307600  0.071100  0.524720  1.0
  N  N12742  1  0.071100  0.307600  0.975280  1.0
  N  N12743  1  0.692400  0.763500  0.975280  1.0
  N  N12744  1  0.236500  0.928900  0.975280  1.0
  N  N12745  1  0.096833  0.359067  0.191387  1.0
  N  N12746  1  0.262233  0.903167  0.191387  1.0
  N  N12747  1  0.640933  0.737767  0.191387  1.0
  N  N12748  1  0.404433  0.974267  0.641947  1.0
  N  N12749  1  0.025733  0.430167  0.641947  1.0
  N  N12750  1  0.569833  0.595567  0.641947  1.0
  N  N12751  1  0.430167  0.025733  0.858053  1.0
  N  N12752  1  0.595567  0.569833  0.858053  1.0
  N  N12753  1  0.974267  0.404433  0.858053  1.0
  N  N12754  1  0.737767  0.640933  0.308613  1.0
  N  N12755  1  0.359067  0.096833  0.308613  1.0
  N  N12756  1  0.903167  0.262233  0.308613  1.0
  N  N12757  1  0.217900  0.362000  0.476640  1.0
  N  N12758  1  0.144100  0.782100  0.476640  1.0
  N  N12759  1  0.638000  0.855900  0.476640  1.0
  N  N12760  1  0.855900  0.638000  0.023360  1.0
  N  N12761  1  0.362000  0.217900  0.023360  1.0
  N  N12762  1  0.782100  0.144100  0.023360  1.0
  N  N12763  1  0.551233  0.028667  0.143307  1.0
  N  N12764  1  0.477433  0.448767  0.143307  1.0
  N  N12765  1  0.971333  0.522567  0.143307  1.0
  N  N12766  1  0.189233  0.304667  0.690027  1.0
  N  N12767  1  0.695333  0.884567  0.690027  1.0
  N  N12768  1  0.115433  0.810767  0.690027  1.0
  N  N12769  1  0.884567  0.695333  0.809973  1.0
  N  N12770  1  0.810767  0.115433  0.809973  1.0
  N  N12771  1  0.304667  0.189233  0.809973  1.0
  N  N12772  1  0.522567  0.971333  0.356693  1.0
  N  N12773  1  0.028667  0.551233  0.356693  1.0
  N  N12774  1  0.448767  0.477433  0.356693  1.0
  N  N12775  1  0.782100  0.638000  0.523360  1.0
  N  N12776  1  0.855900  0.217900  0.523360  1.0
  N  N12777  1  0.362000  0.144100  0.523360  1.0
  N  N12778  1  0.144100  0.362000  0.976640  1.0
  N  N12779  1  0.638000  0.782100  0.976640  1.0
  N  N12780  1  0.217900  0.855900  0.976640  1.0
  N  N12781  1  0.115433  0.304667  0.190027  1.0
  N  N12782  1  0.189233  0.884567  0.190027  1.0
  N  N12783  1  0.695333  0.810767  0.190027  1.0
  N  N12784  1  0.477433  0.028667  0.643307  1.0
  N  N12785  1  0.971333  0.448767  0.643307  1.0
  N  N12786  1  0.551233  0.522567  0.643307  1.0
  N  N12787  1  0.448767  0.971333  0.856693  1.0
  N  N12788  1  0.522567  0.551233  0.856693  1.0
  N  N12789  1  0.028667  0.477433  0.856693  1.0
  N  N12790  1  0.810767  0.695333  0.309973  1.0
  N  N12791  1  0.304667  0.115433  0.309973  1.0
  N  N12792  1  0.884567  0.189233  0.309973  1.0
  N  N12793  1  0.088700  0.746500  0.497140  1.0
  N  N12794  1  0.657800  0.911300  0.497140  1.0
  N  N12795  1  0.253500  0.342200  0.497140  1.0
  N  N12796  1  0.342200  0.253500  0.002860  1.0
  N  N12797  1  0.746500  0.088700  0.002860  1.0
  N  N12798  1  0.911300  0.657800  0.002860  1.0
  N  N12799  1  0.422033  0.413167  0.163807  1.0
  N  N12800  1  0.991133  0.577967  0.163807  1.0
  N  N12801  1  0.586833  0.008867  0.163807  1.0
  N  N12802  1  0.675533  0.920167  0.669527  1.0
  N  N12803  1  0.079833  0.755367  0.669527  1.0
  N  N12804  1  0.244633  0.324467  0.669527  1.0
  N  N12805  1  0.755367  0.079833  0.830473  1.0
  N  N12806  1  0.324467  0.244633  0.830473  1.0
  N  N12807  1  0.920167  0.675533  0.830473  1.0
  N  N12808  1  0.008867  0.586833  0.336193  1.0
  N  N12809  1  0.413167  0.422033  0.336193  1.0
  N  N12810  1  0.577967  0.991133  0.336193  1.0
  N  N12811  1  0.911300  0.253500  0.502860  1.0
  N  N12812  1  0.342200  0.088700  0.502860  1.0
  N  N12813  1  0.746500  0.657800  0.502860  1.0
  N  N12814  1  0.657800  0.746500  0.997140  1.0
  N  N12815  1  0.253500  0.911300  0.997140  1.0
  N  N12816  1  0.088700  0.342200  0.997140  1.0
  N  N12817  1  0.244633  0.920167  0.169527  1.0
  N  N12818  1  0.675533  0.755367  0.169527  1.0
  N  N12819  1  0.079833  0.324467  0.169527  1.0
  N  N12820  1  0.991133  0.413167  0.663807  1.0
  N  N12821  1  0.586833  0.577967  0.663807  1.0
  N  N12822  1  0.422033  0.008867  0.663807  1.0
  N  N12823  1  0.577967  0.586833  0.836193  1.0
  N  N12824  1  0.008867  0.422033  0.836193  1.0
  N  N12825  1  0.413167  0.991133  0.836193  1.0
  N  N12826  1  0.324467  0.079833  0.330473  1.0
  N  N12827  1  0.920167  0.244633  0.330473  1.0
  N  N12828  1  0.755367  0.675533  0.330473  1.0
  N  N12829  1  0.075000  0.805300  0.497660  1.0
  N  N12830  1  0.730300  0.925000  0.497660  1.0
  N  N12831  1  0.194700  0.269700  0.497660  1.0
  N  N12832  1  0.269700  0.194700  0.002340  1.0
  N  N12833  1  0.805300  0.075000  0.002340  1.0
  N  N12834  1  0.925000  0.730300  0.002340  1.0
  N  N12835  1  0.408333  0.471967  0.164327  1.0
  N  N12836  1  0.063633  0.591667  0.164327  1.0
  N  N12837  1  0.528033  0.936367  0.164327  1.0
  N  N12838  1  0.603033  0.861367  0.669007  1.0
  N  N12839  1  0.138633  0.741667  0.669007  1.0
  N  N12840  1  0.258333  0.396967  0.669007  1.0
  N  N12841  1  0.741667  0.138633  0.830993  1.0
  N  N12842  1  0.396967  0.258333  0.830993  1.0
  N  N12843  1  0.861367  0.603033  0.830993  1.0
  N  N12844  1  0.936367  0.528033  0.335673  1.0
  N  N12845  1  0.471967  0.408333  0.335673  1.0
  N  N12846  1  0.591667  0.063633  0.335673  1.0
  N  N12847  1  0.925000  0.194700  0.502340  1.0
  N  N12848  1  0.269700  0.075000  0.502340  1.0
  N  N12849  1  0.805300  0.730300  0.502340  1.0
  N  N12850  1  0.730300  0.805300  0.997660  1.0
  N  N12851  1  0.194700  0.925000  0.997660  1.0
  N  N12852  1  0.075000  0.269700  0.997660  1.0
  N  N12853  1  0.258333  0.861367  0.169007  1.0
  N  N12854  1  0.603033  0.741667  0.169007  1.0
  N  N12855  1  0.138633  0.396967  0.169007  1.0
  N  N12856  1  0.063633  0.471967  0.664327  1.0
  N  N12857  1  0.528033  0.591667  0.664327  1.0
  N  N12858  1  0.408333  0.936367  0.664327  1.0
  N  N12859  1  0.591667  0.528033  0.835673  1.0
  N  N12860  1  0.936367  0.408333  0.835673  1.0
  N  N12861  1  0.471967  0.063633  0.835673  1.0
  N  N12862  1  0.396967  0.138633  0.330993  1.0
  N  N12863  1  0.861367  0.258333  0.330993  1.0
  N  N12864  1  0.741667  0.603033  0.330993  1.0
  N  N12865  1  0.143100  0.516500  0.469280  1.0
  N  N12866  1  0.373400  0.856900  0.469280  1.0
  N  N12867  1  0.483500  0.626600  0.469280  1.0
  N  N12868  1  0.626600  0.483500  0.030720  1.0
  N  N12869  1  0.516500  0.143100  0.030720  1.0
  N  N12870  1  0.856900  0.373400  0.030720  1.0
  N  N12871  1  0.476433  0.183167  0.135947  1.0
  N  N12872  1  0.706733  0.523567  0.135947  1.0
  N  N12873  1  0.816833  0.293267  0.135947  1.0
  N  N12874  1  0.959933  0.150167  0.697387  1.0
  N  N12875  1  0.849833  0.809767  0.697387  1.0
  N  N12876  1  0.190233  0.040067  0.697387  1.0
  N  N12877  1  0.809767  0.849833  0.802613  1.0
  N  N12878  1  0.040067  0.190233  0.802613  1.0
  N  N12879  1  0.150167  0.959933  0.802613  1.0
  N  N12880  1  0.293267  0.816833  0.364053  1.0
  N  N12881  1  0.183167  0.476433  0.364053  1.0
  N  N12882  1  0.523567  0.706733  0.364053  1.0
  N  N12883  1  0.856900  0.483500  0.530720  1.0
  N  N12884  1  0.626600  0.143100  0.530720  1.0
  N  N12885  1  0.516500  0.373400  0.530720  1.0
  N  N12886  1  0.373400  0.516500  0.969280  1.0
  N  N12887  1  0.483500  0.856900  0.969280  1.0
  N  N12888  1  0.143100  0.626600  0.969280  1.0
  N  N12889  1  0.190233  0.150167  0.197387  1.0
  N  N12890  1  0.959933  0.809767  0.197387  1.0
  N  N12891  1  0.849833  0.040067  0.197387  1.0
  N  N12892  1  0.706733  0.183167  0.635947  1.0
  N  N12893  1  0.816833  0.523567  0.635947  1.0
  N  N12894  1  0.476433  0.293267  0.635947  1.0
  N  N12895  1  0.523567  0.816833  0.864053  1.0
  N  N12896  1  0.293267  0.476433  0.864053  1.0
  N  N12897  1  0.183167  0.706733  0.864053  1.0
  N  N12898  1  0.040067  0.849833  0.302613  1.0
  N  N12899  1  0.150167  0.190233  0.302613  1.0
  N  N12900  1  0.809767  0.959933  0.302613  1.0
  N  N12901  1  0.125300  0.576900  0.472460  1.0
  N  N12902  1  0.451600  0.874700  0.472460  1.0
  N  N12903  1  0.423100  0.548400  0.472460  1.0
  N  N12904  1  0.548400  0.423100  0.027540  1.0
  N  N12905  1  0.576900  0.125300  0.027540  1.0
  N  N12906  1  0.874700  0.451600  0.027540  1.0
  N  N12907  1  0.458633  0.243567  0.139127  1.0
  N  N12908  1  0.784933  0.541367  0.139127  1.0
  N  N12909  1  0.756433  0.215067  0.139127  1.0
  N  N12910  1  0.881733  0.089767  0.694207  1.0
  N  N12911  1  0.910233  0.791967  0.694207  1.0
  N  N12912  1  0.208033  0.118267  0.694207  1.0
  N  N12913  1  0.791967  0.910233  0.805793  1.0
  N  N12914  1  0.118267  0.208033  0.805793  1.0
  N  N12915  1  0.089767  0.881733  0.805793  1.0
  N  N12916  1  0.215067  0.756433  0.360873  1.0
  N  N12917  1  0.243567  0.458633  0.360873  1.0
  N  N12918  1  0.541367  0.784933  0.360873  1.0
  N  N12919  1  0.874700  0.423100  0.527540  1.0
  N  N12920  1  0.548400  0.125300  0.527540  1.0
  N  N12921  1  0.576900  0.451600  0.527540  1.0
  N  N12922  1  0.451600  0.576900  0.972460  1.0
  N  N12923  1  0.423100  0.874700  0.972460  1.0
  N  N12924  1  0.125300  0.548400  0.972460  1.0
  N  N12925  1  0.208033  0.089767  0.194207  1.0
  N  N12926  1  0.881733  0.791967  0.194207  1.0
  N  N12927  1  0.910233  0.118267  0.194207  1.0
  N  N12928  1  0.784933  0.243567  0.639127  1.0
  N  N12929  1  0.756433  0.541367  0.639127  1.0
  N  N12930  1  0.458633  0.215067  0.639127  1.0
  N  N12931  1  0.541367  0.756433  0.860873  1.0
  N  N12932  1  0.215067  0.458633  0.860873  1.0
  N  N12933  1  0.243567  0.784933  0.860873  1.0
  N  N12934  1  0.118267  0.910233  0.305793  1.0
  N  N12935  1  0.089767  0.208033  0.305793  1.0
  N  N12936  1  0.791967  0.881733  0.305793  1.0
  N  N12937  1  0.086300  0.541900  0.493020  1.0
  N  N12938  1  0.455600  0.913700  0.493020  1.0
  N  N12939  1  0.458100  0.544400  0.493020  1.0
  N  N12940  1  0.544400  0.458100  0.006980  1.0
  N  N12941  1  0.541900  0.086300  0.006980  1.0
  N  N12942  1  0.913700  0.455600  0.006980  1.0
  N  N12943  1  0.419633  0.208567  0.159687  1.0
  N  N12944  1  0.788933  0.580367  0.159687  1.0
  N  N12945  1  0.791433  0.211067  0.159687  1.0
  N  N12946  1  0.877733  0.124767  0.673647  1.0
  N  N12947  1  0.875233  0.752967  0.673647  1.0
  N  N12948  1  0.247033  0.122267  0.673647  1.0
  N  N12949  1  0.752967  0.875233  0.826353  1.0
  N  N12950  1  0.122267  0.247033  0.826353  1.0
  N  N12951  1  0.124767  0.877733  0.826353  1.0
  N  N12952  1  0.211067  0.791433  0.340313  1.0
  N  N12953  1  0.208567  0.419633  0.340313  1.0
  N  N12954  1  0.580367  0.788933  0.340313  1.0
  N  N12955  1  0.913700  0.458100  0.506980  1.0
  N  N12956  1  0.544400  0.086300  0.506980  1.0
  N  N12957  1  0.541900  0.455600  0.506980  1.0
  N  N12958  1  0.455600  0.541900  0.993020  1.0
  N  N12959  1  0.458100  0.913700  0.993020  1.0
  N  N12960  1  0.086300  0.544400  0.993020  1.0
  N  N12961  1  0.247033  0.124767  0.173647  1.0
  N  N12962  1  0.877733  0.752967  0.173647  1.0
  N  N12963  1  0.875233  0.122267  0.173647  1.0
  N  N12964  1  0.788933  0.208567  0.659687  1.0
  N  N12965  1  0.791433  0.580367  0.659687  1.0
  N  N12966  1  0.419633  0.211067  0.659687  1.0
  N  N12967  1  0.580367  0.791433  0.840313  1.0
  N  N12968  1  0.211067  0.419633  0.840313  1.0
  N  N12969  1  0.208567  0.788933  0.840313  1.0
  N  N12970  1  0.122267  0.875233  0.326353  1.0
  N  N12971  1  0.124767  0.247033  0.326353  1.0
  N  N12972  1  0.752967  0.877733  0.326353  1.0
  N  N12973  1  0.105700  0.482600  0.489640  1.0
  N  N12974  1  0.376900  0.894300  0.489640  1.0
  N  N12975  1  0.517400  0.623100  0.489640  1.0
  N  N12976  1  0.623100  0.517400  0.010360  1.0
  N  N12977  1  0.482600  0.105700  0.010360  1.0
  N  N12978  1  0.894300  0.376900  0.010360  1.0
  N  N12979  1  0.439033  0.149267  0.156307  1.0
  N  N12980  1  0.710233  0.560967  0.156307  1.0
  N  N12981  1  0.850733  0.289767  0.156307  1.0
  N  N12982  1  0.956433  0.184067  0.677027  1.0
  N  N12983  1  0.815933  0.772367  0.677027  1.0
  N  N12984  1  0.227633  0.043567  0.677027  1.0
  N  N12985  1  0.772367  0.815933  0.822973  1.0
  N  N12986  1  0.043567  0.227633  0.822973  1.0
  N  N12987  1  0.184067  0.956433  0.822973  1.0
  N  N12988  1  0.289767  0.850733  0.343693  1.0
  N  N12989  1  0.149267  0.439033  0.343693  1.0
  N  N12990  1  0.560967  0.710233  0.343693  1.0
  N  N12991  1  0.894300  0.517400  0.510360  1.0
  N  N12992  1  0.623100  0.105700  0.510360  1.0
  N  N12993  1  0.482600  0.376900  0.510360  1.0
  N  N12994  1  0.376900  0.482600  0.989640  1.0
  N  N12995  1  0.517400  0.894300  0.989640  1.0
  N  N12996  1  0.105700  0.623100  0.989640  1.0
  N  N12997  1  0.227633  0.184067  0.177027  1.0
  N  N12998  1  0.956433  0.772367  0.177027  1.0
  N  N12999  1  0.815933  0.043567  0.177027  1.0
  N  N13000  1  0.710233  0.149267  0.656307  1.0
  N  N13001  1  0.850733  0.560967  0.656307  1.0
  N  N13002  1  0.439033  0.289767  0.656307  1.0
  N  N13003  1  0.560967  0.850733  0.843693  1.0
  N  N13004  1  0.289767  0.439033  0.843693  1.0
  N  N13005  1  0.149267  0.710233  0.843693  1.0
  N  N13006  1  0.043567  0.815933  0.322973  1.0
  N  N13007  1  0.184067  0.227633  0.322973  1.0
  N  N13008  1  0.772367  0.956433  0.322973  1.0
  N  N13009  1  0.303900  0.401000  0.612550  0.477
  N  N13010  1  0.097100  0.696100  0.612550  0.477
  N  N13011  1  0.599000  0.902900  0.612550  0.477
  N  N13012  1  0.902900  0.599000  0.887450  0.477
  N  N13013  1  0.401000  0.303900  0.887450  0.477
  N  N13014  1  0.696100  0.097100  0.887450  0.477
  N  N13015  1  0.637233  0.067667  0.279217  0.477
  N  N13016  1  0.430433  0.362767  0.279217  0.477
  N  N13017  1  0.932333  0.569567  0.279217  0.477
  N  N13018  1  0.236233  0.265667  0.554117  0.477
  N  N13019  1  0.734333  0.970567  0.554117  0.477
  N  N13020  1  0.029433  0.763767  0.554117  0.477
  N  N13021  1  0.970567  0.734333  0.945883  0.477
  N  N13022  1  0.763767  0.029433  0.945883  0.477
  N  N13023  1  0.265667  0.236233  0.945883  0.477
  N  N13024  1  0.569567  0.932333  0.220783  0.477
  N  N13025  1  0.067667  0.637233  0.220783  0.477
  N  N13026  1  0.362767  0.430433  0.220783  0.477
  N  N13027  1  0.696100  0.599000  0.387450  0.477
  N  N13028  1  0.902900  0.303900  0.387450  0.477
  N  N13029  1  0.401000  0.097100  0.387450  0.477
  N  N13030  1  0.097100  0.401000  0.112550  0.477
  N  N13031  1  0.599000  0.696100  0.112550  0.477
  N  N13032  1  0.303900  0.902900  0.112550  0.477
  N  N13033  1  0.029433  0.265667  0.054117  0.477
  N  N13034  1  0.236233  0.970567  0.054117  0.477
  N  N13035  1  0.734333  0.763767  0.054117  0.477
  N  N13036  1  0.430433  0.067667  0.779217  0.477
  N  N13037  1  0.932333  0.362767  0.779217  0.477
  N  N13038  1  0.637233  0.569567  0.779217  0.477
  N  N13039  1  0.362767  0.932333  0.720783  0.477
  N  N13040  1  0.569567  0.637233  0.720783  0.477
  N  N13041  1  0.067667  0.430433  0.720783  0.477
  N  N13042  1  0.763767  0.734333  0.445883  0.477
  N  N13043  1  0.265667  0.029433  0.445883  0.477
  N  N13044  1  0.970567  0.236233  0.445883  0.477
  N  N13045  1  0.203100  0.495900  0.520860  0.5
  N  N13046  1  0.292800  0.796900  0.520860  0.5
  N  N13047  1  0.504100  0.707200  0.520860  0.5
  N  N13048  1  0.707200  0.504100  0.979140  0.5
  N  N13049  1  0.495900  0.203100  0.979140  0.5
  N  N13050  1  0.796900  0.292800  0.979140  0.5
  N  N13051  1  0.536433  0.162567  0.187527  0.5
  N  N13052  1  0.626133  0.463567  0.187527  0.5
  N  N13053  1  0.837433  0.373867  0.187527  0.5
  N  N13054  1  0.040533  0.170767  0.645807  0.5
  N  N13055  1  0.829233  0.869767  0.645807  0.5
  N  N13056  1  0.130233  0.959467  0.645807  0.5
  N  N13057  1  0.869767  0.829233  0.854193  0.5
  N  N13058  1  0.959467  0.130233  0.854193  0.5
  N  N13059  1  0.170767  0.040533  0.854193  0.5
  N  N13060  1  0.373867  0.837433  0.312473  0.5
  N  N13061  1  0.162567  0.536433  0.312473  0.5
  N  N13062  1  0.463567  0.626133  0.312473  0.5
  N  N13063  1  0.796900  0.504100  0.479140  0.5
  N  N13064  1  0.707200  0.203100  0.479140  0.5
  N  N13065  1  0.495900  0.292800  0.479140  0.5
  N  N13066  1  0.292800  0.495900  0.020860  0.5
  N  N13067  1  0.504100  0.796900  0.020860  0.5
  N  N13068  1  0.203100  0.707200  0.020860  0.5
  N  N13069  1  0.130233  0.170767  0.145807  0.5
  N  N13070  1  0.040533  0.869767  0.145807  0.5
  N  N13071  1  0.829233  0.959467  0.145807  0.5
  N  N13072  1  0.626133  0.162567  0.687527  0.5
  N  N13073  1  0.837433  0.463567  0.687527  0.5
  N  N13074  1  0.536433  0.373867  0.687527  0.5
  N  N13075  1  0.463567  0.837433  0.812473  0.5
  N  N13076  1  0.373867  0.536433  0.812473  0.5
  N  N13077  1  0.162567  0.626133  0.812473  0.5
  N  N13078  1  0.959467  0.829233  0.354193  0.5
  N  N13079  1  0.170767  0.130233  0.354193  0.5
  N  N13080  1  0.869767  0.040533  0.354193  0.5
  N  N13081  1  0.306200  0.433200  0.618430  0.523
  N  N13082  1  0.127000  0.693800  0.618430  0.523
  N  N13083  1  0.566800  0.873000  0.618430  0.523
  N  N13084  1  0.873000  0.566800  0.881570  0.523
  N  N13085  1  0.433200  0.306200  0.881570  0.523
  N  N13086  1  0.693800  0.127000  0.881570  0.523
  N  N13087  1  0.639533  0.099867  0.285097  0.523
  N  N13088  1  0.460333  0.360467  0.285097  0.523
  N  N13089  1  0.900133  0.539667  0.285097  0.523
  N  N13090  1  0.206333  0.233467  0.548237  0.523
  N  N13091  1  0.766533  0.972867  0.548237  0.523
  N  N13092  1  0.027133  0.793667  0.548237  0.523
  N  N13093  1  0.972867  0.766533  0.951763  0.523
  N  N13094  1  0.793667  0.027133  0.951763  0.523
  N  N13095  1  0.233467  0.206333  0.951763  0.523
  N  N13096  1  0.539667  0.900133  0.214903  0.523
  N  N13097  1  0.099867  0.639533  0.214903  0.523
  N  N13098  1  0.360467  0.460333  0.214903  0.523
  N  N13099  1  0.693800  0.566800  0.381570  0.523
  N  N13100  1  0.873000  0.306200  0.381570  0.523
  N  N13101  1  0.433200  0.127000  0.381570  0.523
  N  N13102  1  0.127000  0.433200  0.118430  0.523
  N  N13103  1  0.566800  0.693800  0.118430  0.523
  N  N13104  1  0.306200  0.873000  0.118430  0.523
  N  N13105  1  0.027133  0.233467  0.048237  0.523
  N  N13106  1  0.206333  0.972867  0.048237  0.523
  N  N13107  1  0.766533  0.793667  0.048237  0.523
  N  N13108  1  0.460333  0.099867  0.785097  0.523
  N  N13109  1  0.900133  0.360467  0.785097  0.523
  N  N13110  1  0.639533  0.539667  0.785097  0.523
  N  N13111  1  0.360467  0.900133  0.714903  0.523
  N  N13112  1  0.539667  0.639533  0.714903  0.523
  N  N13113  1  0.099867  0.460333  0.714903  0.523
  N  N13114  1  0.793667  0.766533  0.451763  0.523
  N  N13115  1  0.233467  0.027133  0.451763  0.523
  N  N13116  1  0.972867  0.206333  0.451763  0.523
  O  O13117  1  0.313700  0.378900  0.607540  0.477
  O  O13118  1  0.065200  0.686300  0.607540  0.477
  O  O13119  1  0.621100  0.934800  0.607540  0.477
  O  O13120  1  0.934800  0.621100  0.892460  0.477
  O  O13121  1  0.378900  0.313700  0.892460  0.477
  O  O13122  1  0.686300  0.065200  0.892460  0.477
  O  O13123  1  0.647033  0.045567  0.274207  0.477
  O  O13124  1  0.398533  0.352967  0.274207  0.477
  O  O13125  1  0.954433  0.601467  0.274207  0.477
  O  O13126  1  0.268133  0.287767  0.559127  0.477
  O  O13127  1  0.712233  0.980367  0.559127  0.477
  O  O13128  1  0.019633  0.731867  0.559127  0.477
  O  O13129  1  0.980367  0.712233  0.940873  0.477
  O  O13130  1  0.731867  0.019633  0.940873  0.477
  O  O13131  1  0.287767  0.268133  0.940873  0.477
  O  O13132  1  0.601467  0.954433  0.225793  0.477
  O  O13133  1  0.045567  0.647033  0.225793  0.477
  O  O13134  1  0.352967  0.398533  0.225793  0.477
  O  O13135  1  0.686300  0.621100  0.392460  0.477
  O  O13136  1  0.934800  0.313700  0.392460  0.477
  O  O13137  1  0.378900  0.065200  0.392460  0.477
  O  O13138  1  0.065200  0.378900  0.107540  0.477
  O  O13139  1  0.621100  0.686300  0.107540  0.477
  O  O13140  1  0.313700  0.934800  0.107540  0.477
  O  O13141  1  0.019633  0.287767  0.059127  0.477
  O  O13142  1  0.268133  0.980367  0.059127  0.477
  O  O13143  1  0.712233  0.731867  0.059127  0.477
  O  O13144  1  0.398533  0.045567  0.774207  0.477
  O  O13145  1  0.954433  0.352967  0.774207  0.477
  O  O13146  1  0.647033  0.601467  0.774207  0.477
  O  O13147  1  0.352967  0.954433  0.725793  0.477
  O  O13148  1  0.601467  0.647033  0.725793  0.477
  O  O13149  1  0.045567  0.398533  0.725793  0.477
  O  O13150  1  0.731867  0.712233  0.440873  0.477
  O  O13151  1  0.287767  0.019633  0.440873  0.477
  O  O13152  1  0.980367  0.268133  0.440873  0.477
  O  O13153  1  0.325300  0.426400  0.619980  0.477
  O  O13154  1  0.101100  0.674700  0.619980  0.477
  O  O13155  1  0.573600  0.898900  0.619980  0.477
  O  O13156  1  0.898900  0.573600  0.880020  0.477
  O  O13157  1  0.426400  0.325300  0.880020  0.477
  O  O13158  1  0.674700  0.101100  0.880020  0.477
  O  O13159  1  0.658633  0.093067  0.286647  0.477
  O  O13160  1  0.434433  0.341367  0.286647  0.477
  O  O13161  1  0.906933  0.565567  0.286647  0.477
  O  O13162  1  0.232233  0.240267  0.546687  0.477
  O  O13163  1  0.759733  0.991967  0.546687  0.477
  O  O13164  1  0.008033  0.767767  0.546687  0.477
  O  O13165  1  0.991967  0.759733  0.953313  0.477
  O  O13166  1  0.767767  0.008033  0.953313  0.477
  O  O13167  1  0.240267  0.232233  0.953313  0.477
  O  O13168  1  0.565567  0.906933  0.213353  0.477
  O  O13169  1  0.093067  0.658633  0.213353  0.477
  O  O13170  1  0.341367  0.434433  0.213353  0.477
  O  O13171  1  0.674700  0.573600  0.380020  0.477
  O  O13172  1  0.898900  0.325300  0.380020  0.477
  O  O13173  1  0.426400  0.101100  0.380020  0.477
  O  O13174  1  0.101100  0.426400  0.119980  0.477
  O  O13175  1  0.573600  0.674700  0.119980  0.477
  O  O13176  1  0.325300  0.898900  0.119980  0.477
  O  O13177  1  0.008033  0.240267  0.046687  0.477
  O  O13178  1  0.232233  0.991967  0.046687  0.477
  O  O13179  1  0.759733  0.767767  0.046687  0.477
  O  O13180  1  0.434433  0.093067  0.786647  0.477
  O  O13181  1  0.906933  0.341367  0.786647  0.477
  O  O13182  1  0.658633  0.565567  0.786647  0.477
  O  O13183  1  0.341367  0.906933  0.713353  0.477
  O  O13184  1  0.565567  0.658633  0.713353  0.477
  O  O13185  1  0.093067  0.434433  0.713353  0.477
  O  O13186  1  0.767767  0.759733  0.453313  0.477
  O  O13187  1  0.240267  0.008033  0.453313  0.477
  O  O13188  1  0.991967  0.232233  0.453313  0.477
  O  O13189  1  0.187800  0.472600  0.512520  0.5
  O  O13190  1  0.284800  0.812200  0.512520  0.5
  O  O13191  1  0.527400  0.715200  0.512520  0.5
  O  O13192  1  0.715200  0.527400  0.987480  0.5
  O  O13193  1  0.472600  0.187800  0.987480  0.5
  O  O13194  1  0.812200  0.284800  0.987480  0.5
  O  O13195  1  0.521133  0.139267  0.179187  0.5
  O  O13196  1  0.618133  0.478867  0.179187  0.5
  O  O13197  1  0.860733  0.381867  0.179187  0.5
  O  O13198  1  0.048533  0.194067  0.654147  0.5
  O  O13199  1  0.805933  0.854467  0.654147  0.5
  O  O13200  1  0.145533  0.951467  0.654147  0.5
  O  O13201  1  0.854467  0.805933  0.845853  0.5
  O  O13202  1  0.951467  0.145533  0.845853  0.5
  O  O13203  1  0.194067  0.048533  0.845853  0.5
  O  O13204  1  0.381867  0.860733  0.320813  0.5
  O  O13205  1  0.139267  0.521133  0.320813  0.5
  O  O13206  1  0.478867  0.618133  0.320813  0.5
  O  O13207  1  0.812200  0.527400  0.487480  0.5
  O  O13208  1  0.715200  0.187800  0.487480  0.5
  O  O13209  1  0.472600  0.284800  0.487480  0.5
  O  O13210  1  0.284800  0.472600  0.012520  0.5
  O  O13211  1  0.527400  0.812200  0.012520  0.5
  O  O13212  1  0.187800  0.715200  0.012520  0.5
  O  O13213  1  0.145533  0.194067  0.154147  0.5
  O  O13214  1  0.048533  0.854467  0.154147  0.5
  O  O13215  1  0.805933  0.951467  0.154147  0.5
  O  O13216  1  0.618133  0.139267  0.679187  0.5
  O  O13217  1  0.860733  0.478867  0.679187  0.5
  O  O13218  1  0.521133  0.381867  0.679187  0.5
  O  O13219  1  0.478867  0.860733  0.820813  0.5
  O  O13220  1  0.381867  0.521133  0.820813  0.5
  O  O13221  1  0.139267  0.618133  0.820813  0.5
  O  O13222  1  0.951467  0.805933  0.345853  0.5
  O  O13223  1  0.194067  0.145533  0.345853  0.5
  O  O13224  1  0.854467  0.048533  0.345853  0.5
  O  O13225  1  0.226000  0.494300  0.528090  0.5
  O  O13226  1  0.268300  0.774000  0.528090  0.5
  O  O13227  1  0.505700  0.731700  0.528090  0.5
  O  O13228  1  0.731700  0.505700  0.971910  0.5
  O  O13229  1  0.494300  0.226000  0.971910  0.5
  O  O13230  1  0.774000  0.268300  0.971910  0.5
  O  O13231  1  0.559333  0.160967  0.194757  0.5
  O  O13232  1  0.601633  0.440667  0.194757  0.5
  O  O13233  1  0.839033  0.398367  0.194757  0.5
  O  O13234  1  0.065033  0.172367  0.638577  0.5
  O  O13235  1  0.827633  0.892667  0.638577  0.5
  O  O13236  1  0.107333  0.934967  0.638577  0.5
  O  O13237  1  0.892667  0.827633  0.861423  0.5
  O  O13238  1  0.934967  0.107333  0.861423  0.5
  O  O13239  1  0.172367  0.065033  0.861423  0.5
  O  O13240  1  0.398367  0.839033  0.305243  0.5
  O  O13241  1  0.160967  0.559333  0.305243  0.5
  O  O13242  1  0.440667  0.601633  0.305243  0.5
  O  O13243  1  0.774000  0.505700  0.471910  0.5
  O  O13244  1  0.731700  0.226000  0.471910  0.5
  O  O13245  1  0.494300  0.268300  0.471910  0.5
  O  O13246  1  0.268300  0.494300  0.028090  0.5
  O  O13247  1  0.505700  0.774000  0.028090  0.5
  O  O13248  1  0.226000  0.731700  0.028090  0.5
  O  O13249  1  0.107333  0.172367  0.138577  0.5
  O  O13250  1  0.065033  0.892667  0.138577  0.5
  O  O13251  1  0.827633  0.934967  0.138577  0.5
  O  O13252  1  0.601633  0.160967  0.694757  0.5
  O  O13253  1  0.839033  0.440667  0.694757  0.5
  O  O13254  1  0.559333  0.398367  0.694757  0.5
  O  O13255  1  0.440667  0.839033  0.805243  0.5
  O  O13256  1  0.398367  0.559333  0.805243  0.5
  O  O13257  1  0.160967  0.601633  0.805243  0.5
  O  O13258  1  0.934967  0.827633  0.361423  0.5
  O  O13259  1  0.172367  0.107333  0.361423  0.5
  O  O13260  1  0.892667  0.065033  0.361423  0.5
  O  O13261  1  0.322100  0.415500  0.619190  0.523
  O  O13262  1  0.093400  0.677900  0.619190  0.523
  O  O13263  1  0.584500  0.906600  0.619190  0.523
  O  O13264  1  0.906600  0.584500  0.880810  0.523
  O  O13265  1  0.415500  0.322100  0.880810  0.523
  O  O13266  1  0.677900  0.093400  0.880810  0.523
  O  O13267  1  0.655433  0.082167  0.285857  0.523
  O  O13268  1  0.426733  0.344567  0.285857  0.523
  O  O13269  1  0.917833  0.573267  0.285857  0.523
  O  O13270  1  0.239933  0.251167  0.547477  0.523
  O  O13271  1  0.748833  0.988767  0.547477  0.523
  O  O13272  1  0.011233  0.760067  0.547477  0.523
  O  O13273  1  0.988767  0.748833  0.952523  0.523
  O  O13274  1  0.760067  0.011233  0.952523  0.523
  O  O13275  1  0.251167  0.239933  0.952523  0.523
  O  O13276  1  0.573267  0.917833  0.214143  0.523
  O  O13277  1  0.082167  0.655433  0.214143  0.523
  O  O13278  1  0.344567  0.426733  0.214143  0.523
  O  O13279  1  0.677900  0.584500  0.380810  0.523
  O  O13280  1  0.906600  0.322100  0.380810  0.523
  O  O13281  1  0.415500  0.093400  0.380810  0.523
  O  O13282  1  0.093400  0.415500  0.119190  0.523
  O  O13283  1  0.584500  0.677900  0.119190  0.523
  O  O13284  1  0.322100  0.906600  0.119190  0.523
  O  O13285  1  0.011233  0.251167  0.047477  0.523
  O  O13286  1  0.239933  0.988767  0.047477  0.523
  O  O13287  1  0.748833  0.760067  0.047477  0.523
  O  O13288  1  0.426733  0.082167  0.785857  0.523
  O  O13289  1  0.917833  0.344567  0.785857  0.523
  O  O13290  1  0.655433  0.573267  0.785857  0.523
  O  O13291  1  0.344567  0.917833  0.714143  0.523
  O  O13292  1  0.573267  0.655433  0.714143  0.523
  O  O13293  1  0.082167  0.426733  0.714143  0.523
  O  O13294  1  0.760067  0.748833  0.452523  0.523
  O  O13295  1  0.251167  0.011233  0.452523  0.523
  O  O13296  1  0.988767  0.239933  0.452523  0.523
  O  O13297  1  0.309100  0.459600  0.625750  0.523
  O  O13298  1  0.150500  0.690900  0.625750  0.523
  O  O13299  1  0.540400  0.849500  0.625750  0.523
  O  O13300  1  0.849500  0.540400  0.874250  0.523
  O  O13301  1  0.459600  0.309100  0.874250  0.523
  O  O13302  1  0.690900  0.150500  0.874250  0.523
  O  O13303  1  0.642433  0.126267  0.292417  0.523
  O  O13304  1  0.483833  0.357567  0.292417  0.523
  O  O13305  1  0.873733  0.516167  0.292417  0.523
  O  O13306  1  0.182833  0.207067  0.540917  0.523
  O  O13307  1  0.792933  0.975767  0.540917  0.523
  O  O13308  1  0.024233  0.817167  0.540917  0.523
  O  O13309  1  0.975767  0.792933  0.959083  0.523
  O  O13310  1  0.817167  0.024233  0.959083  0.523
  O  O13311  1  0.207067  0.182833  0.959083  0.523
  O  O13312  1  0.516167  0.873733  0.207583  0.523
  O  O13313  1  0.126267  0.642433  0.207583  0.523
  O  O13314  1  0.357567  0.483833  0.207583  0.523
  O  O13315  1  0.690900  0.540400  0.374250  0.523
  O  O13316  1  0.849500  0.309100  0.374250  0.523
  O  O13317  1  0.459600  0.150500  0.374250  0.523
  O  O13318  1  0.150500  0.459600  0.125750  0.523
  O  O13319  1  0.540400  0.690900  0.125750  0.523
  O  O13320  1  0.309100  0.849500  0.125750  0.523
  O  O13321  1  0.024233  0.207067  0.040917  0.523
  O  O13322  1  0.182833  0.975767  0.040917  0.523
  O  O13323  1  0.792933  0.817167  0.040917  0.523
  O  O13324  1  0.483833  0.126267  0.792417  0.523
  O  O13325  1  0.873733  0.357567  0.792417  0.523
  O  O13326  1  0.642433  0.516167  0.792417  0.523
  O  O13327  1  0.357567  0.873733  0.707583  0.523
  O  O13328  1  0.516167  0.642433  0.707583  0.523
  O  O13329  1  0.126267  0.483833  0.707583  0.523
  O  O13330  1  0.817167  0.792933  0.459083  0.523
  O  O13331  1  0.207067  0.024233  0.459083  0.523
  O  O13332  1  0.975767  0.182833  0.459083  0.523
  O  O13333  1  0.021100  0.315100  0.475740  0.6667
  O  O13334  1  0.294000  0.978900  0.475740  0.6667
  O  O13335  1  0.684900  0.706000  0.475740  0.6667
  O  O13336  1  0.706000  0.684900  0.024260  0.6667
  O  O13337  1  0.315100  0.021100  0.024260  0.6667
  O  O13338  1  0.978900  0.294000  0.024260  0.6667
  O  O13339  1  0.354433  0.981767  0.142407  0.6667
  O  O13340  1  0.627333  0.645567  0.142407  0.6667
  O  O13341  1  0.018233  0.372667  0.142407  0.6667
  O  O13342  1  0.039333  0.351567  0.690927  0.6667
  O  O13343  1  0.648433  0.687767  0.690927  0.6667
  O  O13344  1  0.312233  0.960667  0.690927  0.6667
  O  O13345  1  0.687767  0.648433  0.809073  0.6667
  O  O13346  1  0.960667  0.312233  0.809073  0.6667
  O  O13347  1  0.351567  0.039333  0.809073  0.6667
  O  O13348  1  0.372667  0.018233  0.357593  0.6667
  O  O13349  1  0.981767  0.354433  0.357593  0.6667
  O  O13350  1  0.645567  0.627333  0.357593  0.6667
  O  O13351  1  0.978900  0.684900  0.524260  0.6667
  O  O13352  1  0.706000  0.021100  0.524260  0.6667
  O  O13353  1  0.315100  0.294000  0.524260  0.6667
  O  O13354  1  0.294000  0.315100  0.975740  0.6667
  O  O13355  1  0.684900  0.978900  0.975740  0.6667
  O  O13356  1  0.021100  0.706000  0.975740  0.6667
  O  O13357  1  0.312233  0.351567  0.190927  0.6667
  O  O13358  1  0.039333  0.687767  0.190927  0.6667
  O  O13359  1  0.648433  0.960667  0.190927  0.6667
  O  O13360  1  0.627333  0.981767  0.642407  0.6667
  O  O13361  1  0.018233  0.645567  0.642407  0.6667
  O  O13362  1  0.354433  0.372667  0.642407  0.6667
  O  O13363  1  0.645567  0.018233  0.857593  0.6667
  O  O13364  1  0.372667  0.354433  0.857593  0.6667
  O  O13365  1  0.981767  0.627333  0.857593  0.6667
  O  O13366  1  0.960667  0.648433  0.309073  0.6667
  O  O13367  1  0.351567  0.312233  0.309073  0.6667
  O  O13368  1  0.687767  0.039333  0.309073  0.6667
  O  O13369  1  0.005900  0.356100  0.483960  0.6667
  O  O13370  1  0.350200  0.994100  0.483960  0.6667
  O  O13371  1  0.643900  0.649800  0.483960  0.6667
  O  O13372  1  0.649800  0.643900  0.016040  0.6667
  O  O13373  1  0.356100  0.005900  0.016040  0.6667
  O  O13374  1  0.994100  0.350200  0.016040  0.6667
  O  O13375  1  0.339233  0.022767  0.150627  0.6667
  O  O13376  1  0.683533  0.660767  0.150627  0.6667
  O  O13377  1  0.977233  0.316467  0.150627  0.6667
  O  O13378  1  0.983133  0.310567  0.682707  0.6667
  O  O13379  1  0.689433  0.672567  0.682707  0.6667
  O  O13380  1  0.327433  0.016867  0.682707  0.6667
  O  O13381  1  0.672567  0.689433  0.817293  0.6667
  O  O13382  1  0.016867  0.327433  0.817293  0.6667
  O  O13383  1  0.310567  0.983133  0.817293  0.6667
  O  O13384  1  0.316467  0.977233  0.349373  0.6667
  O  O13385  1  0.022767  0.339233  0.349373  0.6667
  O  O13386  1  0.660767  0.683533  0.349373  0.6667
  O  O13387  1  0.994100  0.643900  0.516040  0.6667
  O  O13388  1  0.649800  0.005900  0.516040  0.6667
  O  O13389  1  0.356100  0.350200  0.516040  0.6667
  O  O13390  1  0.350200  0.356100  0.983960  0.6667
  O  O13391  1  0.643900  0.994100  0.983960  0.6667
  O  O13392  1  0.005900  0.649800  0.983960  0.6667
  O  O13393  1  0.327433  0.310567  0.182707  0.6667
  O  O13394  1  0.983133  0.672567  0.182707  0.6667
  O  O13395  1  0.689433  0.016867  0.182707  0.6667
  O  O13396  1  0.683533  0.022767  0.650627  0.6667
  O  O13397  1  0.977233  0.660767  0.650627  0.6667
  O  O13398  1  0.339233  0.316467  0.650627  0.6667
  O  O13399  1  0.660767  0.977233  0.849373  0.6667
  O  O13400  1  0.316467  0.339233  0.849373  0.6667
  O  O13401  1  0.022767  0.683533  0.849373  0.6667
  O  O13402  1  0.016867  0.689433  0.317293  0.6667
  O  O13403  1  0.310567  0.327433  0.317293  0.6667
  O  O13404  1  0.672567  0.983133  0.317293  0.6667
  F  F13405  1  0.071500  0.258100  0.528090  0.229
  F  F13406  1  0.186600  0.928500  0.528090  0.229
  F  F13407  1  0.741900  0.813400  0.528090  0.229
  F  F13408  1  0.813400  0.741900  0.971910  0.229
  F  F13409  1  0.258100  0.071500  0.971910  0.229
  F  F13410  1  0.928500  0.186600  0.971910  0.229
  F  F13411  1  0.404833  0.924767  0.194757  0.229
  F  F13412  1  0.519933  0.595167  0.194757  0.229
  F  F13413  1  0.075233  0.480067  0.194757  0.229
  F  F13414  1  0.146733  0.408567  0.638577  0.229
  F  F13415  1  0.591433  0.738167  0.638577  0.229
  F  F13416  1  0.261833  0.853267  0.638577  0.229
  F  F13417  1  0.738167  0.591433  0.861423  0.229
  F  F13418  1  0.853267  0.261833  0.861423  0.229
  F  F13419  1  0.408567  0.146733  0.861423  0.229
  F  F13420  1  0.480067  0.075233  0.305243  0.229
  F  F13421  1  0.924767  0.404833  0.305243  0.229
  F  F13422  1  0.595167  0.519933  0.305243  0.229
  F  F13423  1  0.928500  0.741900  0.471910  0.229
  F  F13424  1  0.813400  0.071500  0.471910  0.229
  F  F13425  1  0.258100  0.186600  0.471910  0.229
  F  F13426  1  0.186600  0.258100  0.028090  0.229
  F  F13427  1  0.741900  0.928500  0.028090  0.229
  F  F13428  1  0.071500  0.813400  0.028090  0.229
  F  F13429  1  0.261833  0.408567  0.138577  0.229
  F  F13430  1  0.146733  0.738167  0.138577  0.229
  F  F13431  1  0.591433  0.853267  0.138577  0.229
  F  F13432  1  0.519933  0.924767  0.694757  0.229
  F  F13433  1  0.075233  0.595167  0.694757  0.229
  F  F13434  1  0.404833  0.480067  0.694757  0.229
  F  F13435  1  0.595167  0.075233  0.805243  0.229
  F  F13436  1  0.480067  0.404833  0.805243  0.229
  F  F13437  1  0.924767  0.519933  0.805243  0.229
  F  F13438  1  0.853267  0.591433  0.361423  0.229
  F  F13439  1  0.408567  0.261833  0.361423  0.229
  F  F13440  1  0.738167  0.146733  0.361423  0.229
  F  F13441  1  0.049500  0.210500  0.513270  0.229
  F  F13442  1  0.161000  0.950500  0.513270  0.229
  F  F13443  1  0.789500  0.839000  0.513270  0.229
  F  F13444  1  0.839000  0.789500  0.986730  0.229
  F  F13445  1  0.210500  0.049500  0.986730  0.229
  F  F13446  1  0.950500  0.161000  0.986730  0.229
  F  F13447  1  0.382833  0.877167  0.179937  0.229
  F  F13448  1  0.494333  0.617167  0.179937  0.229
  F  F13449  1  0.122833  0.505667  0.179937  0.229
  F  F13450  1  0.172333  0.456167  0.653397  0.229
  F  F13451  1  0.543833  0.716167  0.653397  0.229
  F  F13452  1  0.283833  0.827667  0.653397  0.229
  F  F13453  1  0.716167  0.543833  0.846603  0.229
  F  F13454  1  0.827667  0.283833  0.846603  0.229
  F  F13455  1  0.456167  0.172333  0.846603  0.229
  F  F13456  1  0.505667  0.122833  0.320063  0.229
  F  F13457  1  0.877167  0.382833  0.320063  0.229
  F  F13458  1  0.617167  0.494333  0.320063  0.229
  F  F13459  1  0.950500  0.789500  0.486730  0.229
  F  F13460  1  0.839000  0.049500  0.486730  0.229
  F  F13461  1  0.210500  0.161000  0.486730  0.229
  F  F13462  1  0.161000  0.210500  0.013270  0.229
  F  F13463  1  0.789500  0.950500  0.013270  0.229
  F  F13464  1  0.049500  0.839000  0.013270  0.229
  F  F13465  1  0.283833  0.456167  0.153397  0.229
  F  F13466  1  0.172333  0.716167  0.153397  0.229
  F  F13467  1  0.543833  0.827667  0.153397  0.229
  F  F13468  1  0.494333  0.877167  0.679937  0.229
  F  F13469  1  0.122833  0.617167  0.679937  0.229
  F  F13470  1  0.382833  0.505667  0.679937  0.229
  F  F13471  1  0.617167  0.122833  0.820063  0.229
  F  F13472  1  0.505667  0.382833  0.820063  0.229
  F  F13473  1  0.877167  0.494333  0.820063  0.229
  F  F13474  1  0.827667  0.543833  0.346603  0.229
  F  F13475  1  0.456167  0.283833  0.346603  0.229
  F  F13476  1  0.716167  0.172333  0.346603  0.229
  F  F13477  1  0.084300  0.206300  0.529400  0.229
  F  F13478  1  0.122000  0.915700  0.529400  0.229
  F  F13479  1  0.793700  0.878000  0.529400  0.229
  F  F13480  1  0.878000  0.793700  0.970600  0.229
  F  F13481  1  0.206300  0.084300  0.970600  0.229
  F  F13482  1  0.915700  0.122000  0.970600  0.229
  F  F13483  1  0.417633  0.872967  0.196067  0.229
  F  F13484  1  0.455333  0.582367  0.196067  0.229
  F  F13485  1  0.127033  0.544667  0.196067  0.229
  F  F13486  1  0.211333  0.460367  0.637267  0.229
  F  F13487  1  0.539633  0.750967  0.637267  0.229
  F  F13488  1  0.249033  0.788667  0.637267  0.229
  F  F13489  1  0.750967  0.539633  0.862733  0.229
  F  F13490  1  0.788667  0.249033  0.862733  0.229
  F  F13491  1  0.460367  0.211333  0.862733  0.229
  F  F13492  1  0.544667  0.127033  0.303933  0.229
  F  F13493  1  0.872967  0.417633  0.303933  0.229
  F  F13494  1  0.582367  0.455333  0.303933  0.229
  F  F13495  1  0.915700  0.793700  0.470600  0.229
  F  F13496  1  0.878000  0.084300  0.470600  0.229
  F  F13497  1  0.206300  0.122000  0.470600  0.229
  F  F13498  1  0.122000  0.206300  0.029400  0.229
  F  F13499  1  0.793700  0.915700  0.029400  0.229
  F  F13500  1  0.084300  0.878000  0.029400  0.229
  F  F13501  1  0.249033  0.460367  0.137267  0.229
  F  F13502  1  0.211333  0.750967  0.137267  0.229
  F  F13503  1  0.539633  0.788667  0.137267  0.229
  F  F13504  1  0.455333  0.872967  0.696067  0.229
  F  F13505  1  0.127033  0.582367  0.696067  0.229
  F  F13506  1  0.417633  0.544667  0.696067  0.229
  F  F13507  1  0.582367  0.127033  0.803933  0.229
  F  F13508  1  0.544667  0.417633  0.803933  0.229
  F  F13509  1  0.872967  0.455333  0.803933  0.229
  F  F13510  1  0.788667  0.539633  0.362733  0.229
  F  F13511  1  0.460367  0.249033  0.362733  0.229
  F  F13512  1  0.750967  0.211333  0.362733  0.229
  F  F13513  1  0.020500  0.194700  0.531960  0.229
  F  F13514  1  0.174200  0.979500  0.531960  0.229
  F  F13515  1  0.805300  0.825800  0.531960  0.229
  F  F13516  1  0.825800  0.805300  0.968040  0.229
  F  F13517  1  0.194700  0.020500  0.968040  0.229
  F  F13518  1  0.979500  0.174200  0.968040  0.229
  F  F13519  1  0.353833  0.861367  0.198627  0.229
  F  F13520  1  0.507533  0.646167  0.198627  0.229
  F  F13521  1  0.138633  0.492467  0.198627  0.229
  F  F13522  1  0.159133  0.471967  0.634707  0.229
  F  F13523  1  0.528033  0.687167  0.634707  0.229
  F  F13524  1  0.312833  0.840867  0.634707  0.229
  F  F13525  1  0.687167  0.528033  0.865293  0.229
  F  F13526  1  0.840867  0.312833  0.865293  0.229
  F  F13527  1  0.471967  0.159133  0.865293  0.229
  F  F13528  1  0.492467  0.138633  0.301373  0.229
  F  F13529  1  0.861367  0.353833  0.301373  0.229
  F  F13530  1  0.646167  0.507533  0.301373  0.229
  F  F13531  1  0.979500  0.805300  0.468040  0.229
  F  F13532  1  0.825800  0.020500  0.468040  0.229
  F  F13533  1  0.194700  0.174200  0.468040  0.229
  F  F13534  1  0.174200  0.194700  0.031960  0.229
  F  F13535  1  0.805300  0.979500  0.031960  0.229
  F  F13536  1  0.020500  0.825800  0.031960  0.229
  F  F13537  1  0.312833  0.471967  0.134707  0.229
  F  F13538  1  0.159133  0.687167  0.134707  0.229
  F  F13539  1  0.528033  0.840867  0.134707  0.229
  F  F13540  1  0.507533  0.861367  0.698627  0.229
  F  F13541  1  0.138633  0.646167  0.698627  0.229
  F  F13542  1  0.353833  0.492467  0.698627  0.229
  F  F13543  1  0.646167  0.138633  0.801373  0.229
  F  F13544  1  0.492467  0.353833  0.801373  0.229
  F  F13545  1  0.861367  0.507533  0.801373  0.229
  F  F13546  1  0.840867  0.528033  0.365293  0.229
  F  F13547  1  0.471967  0.312833  0.365293  0.229
  F  F13548  1  0.687167  0.159133  0.365293  0.229
  F  F13549  1  0.048200  0.261500  0.513830  0.458
  F  F13550  1  0.213300  0.951800  0.513830  0.458
  F  F13551  1  0.738500  0.786700  0.513830  0.458
  F  F13552  1  0.786700  0.738500  0.986170  0.458
  F  F13553  1  0.261500  0.048200  0.986170  0.458
  F  F13554  1  0.951800  0.213300  0.986170  0.458
  F  F13555  1  0.381533  0.928167  0.180497  0.458
  F  F13556  1  0.546633  0.618467  0.180497  0.458
  F  F13557  1  0.071833  0.453367  0.180497  0.458
  F  F13558  1  0.120033  0.405167  0.652837  0.458
  F  F13559  1  0.594833  0.714867  0.652837  0.458
  F  F13560  1  0.285133  0.879967  0.652837  0.458
  F  F13561  1  0.714867  0.594833  0.847163  0.458
  F  F13562  1  0.879967  0.285133  0.847163  0.458
  F  F13563  1  0.405167  0.120033  0.847163  0.458
  F  F13564  1  0.453367  0.071833  0.319503  0.458
  F  F13565  1  0.928167  0.381533  0.319503  0.458
  F  F13566  1  0.618467  0.546633  0.319503  0.458
  F  F13567  1  0.951800  0.738500  0.486170  0.458
  F  F13568  1  0.786700  0.048200  0.486170  0.458
  F  F13569  1  0.261500  0.213300  0.486170  0.458
  F  F13570  1  0.213300  0.261500  0.013830  0.458
  F  F13571  1  0.738500  0.951800  0.013830  0.458
  F  F13572  1  0.048200  0.786700  0.013830  0.458
  F  F13573  1  0.285133  0.405167  0.152837  0.458
  F  F13574  1  0.120033  0.714867  0.152837  0.458
  F  F13575  1  0.594833  0.879967  0.152837  0.458
  F  F13576  1  0.546633  0.928167  0.680497  0.458
  F  F13577  1  0.071833  0.618467  0.680497  0.458
  F  F13578  1  0.381533  0.453367  0.680497  0.458
  F  F13579  1  0.618467  0.071833  0.819503  0.458
  F  F13580  1  0.453367  0.381533  0.819503  0.458
  F  F13581  1  0.928167  0.546633  0.819503  0.458
  F  F13582  1  0.879967  0.594833  0.347163  0.458
  F  F13583  1  0.405167  0.285133  0.347163  0.458
  F  F13584  1  0.714867  0.120033  0.347163  0.458
  F  F13585  1  0.069900  0.248600  0.530490  0.458
  F  F13586  1  0.178700  0.930100  0.530490  0.458
  F  F13587  1  0.751400  0.821300  0.530490  0.458
  F  F13588  1  0.821300  0.751400  0.969510  0.458
  F  F13589  1  0.248600  0.069900  0.969510  0.458
  F  F13590  1  0.930100  0.178700  0.969510  0.458
  F  F13591  1  0.403233  0.915267  0.197157  0.458
  F  F13592  1  0.512033  0.596767  0.197157  0.458
  F  F13593  1  0.084733  0.487967  0.197157  0.458
  F  F13594  1  0.154633  0.418067  0.636177  0.458
  F  F13595  1  0.581933  0.736567  0.636177  0.458
  F  F13596  1  0.263433  0.845367  0.636177  0.458
  F  F13597  1  0.736567  0.581933  0.863823  0.458
  F  F13598  1  0.845367  0.263433  0.863823  0.458
  F  F13599  1  0.418067  0.154633  0.863823  0.458
  F  F13600  1  0.487967  0.084733  0.302843  0.458
  F  F13601  1  0.915267  0.403233  0.302843  0.458
  F  F13602  1  0.596767  0.512033  0.302843  0.458
  F  F13603  1  0.930100  0.751400  0.469510  0.458
  F  F13604  1  0.821300  0.069900  0.469510  0.458
  F  F13605  1  0.248600  0.178700  0.469510  0.458
  F  F13606  1  0.178700  0.248600  0.030490  0.458
  F  F13607  1  0.751400  0.930100  0.030490  0.458
  F  F13608  1  0.069900  0.821300  0.030490  0.458
  F  F13609  1  0.263433  0.418067  0.136177  0.458
  F  F13610  1  0.154633  0.736567  0.136177  0.458
  F  F13611  1  0.581933  0.845367  0.136177  0.458
  F  F13612  1  0.512033  0.915267  0.697157  0.458
  F  F13613  1  0.084733  0.596767  0.697157  0.458
  F  F13614  1  0.403233  0.487967  0.697157  0.458
  F  F13615  1  0.596767  0.084733  0.802843  0.458
  F  F13616  1  0.487967  0.403233  0.802843  0.458
  F  F13617  1  0.915267  0.512033  0.802843  0.458
  F  F13618  1  0.845367  0.581933  0.363823  0.458
  F  F13619  1  0.418067  0.263433  0.363823  0.458
  F  F13620  1  0.736567  0.154633  0.363823  0.458
  F  F13621  1  0.021800  0.200300  0.520970  0.458
  F  F13622  1  0.178500  0.978200  0.520970  0.458
  F  F13623  1  0.799700  0.821500  0.520970  0.458
  F  F13624  1  0.821500  0.799700  0.979030  0.458
  F  F13625  1  0.200300  0.021800  0.979030  0.458
  F  F13626  1  0.978200  0.178500  0.979030  0.458
  F  F13627  1  0.355133  0.866967  0.187637  0.458
  F  F13628  1  0.511833  0.644867  0.187637  0.458
  F  F13629  1  0.133033  0.488167  0.187637  0.458
  F  F13630  1  0.154833  0.466367  0.645697  0.458
  F  F13631  1  0.533633  0.688467  0.645697  0.458
  F  F13632  1  0.311533  0.845167  0.645697  0.458
  F  F13633  1  0.688467  0.533633  0.854303  0.458
  F  F13634  1  0.845167  0.311533  0.854303  0.458
  F  F13635  1  0.466367  0.154833  0.854303  0.458
  F  F13636  1  0.488167  0.133033  0.312363  0.458
  F  F13637  1  0.866967  0.355133  0.312363  0.458
  F  F13638  1  0.644867  0.511833  0.312363  0.458
  F  F13639  1  0.978200  0.799700  0.479030  0.458
  F  F13640  1  0.821500  0.021800  0.479030  0.458
  F  F13641  1  0.200300  0.178500  0.479030  0.458
  F  F13642  1  0.178500  0.200300  0.020970  0.458
  F  F13643  1  0.799700  0.978200  0.020970  0.458
  F  F13644  1  0.021800  0.821500  0.020970  0.458
  F  F13645  1  0.311533  0.466367  0.145697  0.458
  F  F13646  1  0.154833  0.688467  0.145697  0.458
  F  F13647  1  0.533633  0.845167  0.145697  0.458
  F  F13648  1  0.511833  0.866967  0.687637  0.458
  F  F13649  1  0.133033  0.644867  0.687637  0.458
  F  F13650  1  0.355133  0.488167  0.687637  0.458
  F  F13651  1  0.644867  0.133033  0.812363  0.458
  F  F13652  1  0.488167  0.355133  0.812363  0.458
  F  F13653  1  0.866967  0.511833  0.812363  0.458
  F  F13654  1  0.845167  0.533633  0.354303  0.458
  F  F13655  1  0.466367  0.311533  0.354303  0.458
  F  F13656  1  0.688467  0.154833  0.354303  0.458
  F  F13657  1  0.080800  0.228300  0.512880  0.458
  F  F13658  1  0.147500  0.919200  0.512880  0.458
  F  F13659  1  0.771700  0.852500  0.512880  0.458
  F  F13660  1  0.852500  0.771700  0.987120  0.458
  F  F13661  1  0.228300  0.080800  0.987120  0.458
  F  F13662  1  0.919200  0.147500  0.987120  0.458
  F  F13663  1  0.414133  0.894967  0.179547  0.458
  F  F13664  1  0.480833  0.585867  0.179547  0.458
  F  F13665  1  0.105033  0.519167  0.179547  0.458
  F  F13666  1  0.185833  0.438367  0.653787  0.458
  F  F13667  1  0.561633  0.747467  0.653787  0.458
  F  F13668  1  0.252533  0.814167  0.653787  0.458
  F  F13669  1  0.747467  0.561633  0.846213  0.458
  F  F13670  1  0.814167  0.252533  0.846213  0.458
  F  F13671  1  0.438367  0.185833  0.846213  0.458
  F  F13672  1  0.519167  0.105033  0.320453  0.458
  F  F13673  1  0.894967  0.414133  0.320453  0.458
  F  F13674  1  0.585867  0.480833  0.320453  0.458
  F  F13675  1  0.919200  0.771700  0.487120  0.458
  F  F13676  1  0.852500  0.080800  0.487120  0.458
  F  F13677  1  0.228300  0.147500  0.487120  0.458
  F  F13678  1  0.147500  0.228300  0.012880  0.458
  F  F13679  1  0.771700  0.919200  0.012880  0.458
  F  F13680  1  0.080800  0.852500  0.012880  0.458
  F  F13681  1  0.252533  0.438367  0.153787  0.458
  F  F13682  1  0.185833  0.747467  0.153787  0.458
  F  F13683  1  0.561633  0.814167  0.153787  0.458
  F  F13684  1  0.480833  0.894967  0.679547  0.458
  F  F13685  1  0.105033  0.585867  0.679547  0.458
  F  F13686  1  0.414133  0.519167  0.679547  0.458
  F  F13687  1  0.585867  0.105033  0.820453  0.458
  F  F13688  1  0.519167  0.414133  0.820453  0.458
  F  F13689  1  0.894967  0.480833  0.820453  0.458
  F  F13690  1  0.814167  0.561633  0.346213  0.458
  F  F13691  1  0.438367  0.252533  0.346213  0.458
  F  F13692  1  0.747467  0.185833  0.346213  0.458
  F  F13693  1  0.015860  0.304960  0.505460  0.313
  F  F13694  1  0.289100  0.984140  0.505460  0.313
  F  F13695  1  0.695040  0.710900  0.505460  0.313
  F  F13696  1  0.710900  0.695040  0.994540  0.313
  F  F13697  1  0.304960  0.015860  0.994540  0.313
  F  F13698  1  0.984140  0.289100  0.994540  0.313
  F  F13699  1  0.349193  0.971627  0.172127  0.313
  F  F13700  1  0.622433  0.650807  0.172127  0.313
  F  F13701  1  0.028373  0.377567  0.172127  0.313
  F  F13702  1  0.044233  0.361707  0.661207  0.313
  F  F13703  1  0.638293  0.682527  0.661207  0.313
  F  F13704  1  0.317473  0.955767  0.661207  0.313
  F  F13705  1  0.682527  0.638293  0.838793  0.313
  F  F13706  1  0.955767  0.317473  0.838793  0.313
  F  F13707  1  0.361707  0.044233  0.838793  0.313
  F  F13708  1  0.377567  0.028373  0.327873  0.313
  F  F13709  1  0.971627  0.349193  0.327873  0.313
  F  F13710  1  0.650807  0.622433  0.327873  0.313
  F  F13711  1  0.984140  0.695040  0.494540  0.313
  F  F13712  1  0.710900  0.015860  0.494540  0.313
  F  F13713  1  0.304960  0.289100  0.494540  0.313
  F  F13714  1  0.289100  0.304960  0.005460  0.313
  F  F13715  1  0.695040  0.984140  0.005460  0.313
  F  F13716  1  0.015860  0.710900  0.005460  0.313
  F  F13717  1  0.317473  0.361707  0.161207  0.313
  F  F13718  1  0.044233  0.682527  0.161207  0.313
  F  F13719  1  0.638293  0.955767  0.161207  0.313
  F  F13720  1  0.622433  0.971627  0.672127  0.313
  F  F13721  1  0.028373  0.650807  0.672127  0.313
  F  F13722  1  0.349193  0.377567  0.672127  0.313
  F  F13723  1  0.650807  0.028373  0.827873  0.313
  F  F13724  1  0.377567  0.349193  0.827873  0.313
  F  F13725  1  0.971627  0.622433  0.827873  0.313
  F  F13726  1  0.955767  0.638293  0.338793  0.313
  F  F13727  1  0.361707  0.317473  0.338793  0.313
  F  F13728  1  0.682527  0.044233  0.338793  0.313
  F  F13729  1  0.066400  0.314800  0.494090  0.313
  F  F13730  1  0.248400  0.933600  0.494090  0.313
  F  F13731  1  0.685200  0.751600  0.494090  0.313
  F  F13732  1  0.751600  0.685200  0.005910  0.313
  F  F13733  1  0.314800  0.066400  0.005910  0.313
  F  F13734  1  0.933600  0.248400  0.005910  0.313
  F  F13735  1  0.399733  0.981467  0.160757  0.313
  F  F13736  1  0.581733  0.600267  0.160757  0.313
  F  F13737  1  0.018533  0.418267  0.160757  0.313
  F  F13738  1  0.084933  0.351867  0.672577  0.313
  F  F13739  1  0.648133  0.733067  0.672577  0.313
  F  F13740  1  0.266933  0.915067  0.672577  0.313
  F  F13741  1  0.733067  0.648133  0.827423  0.313
  F  F13742  1  0.915067  0.266933  0.827423  0.313
  F  F13743  1  0.351867  0.084933  0.827423  0.313
  F  F13744  1  0.418267  0.018533  0.339243  0.313
  F  F13745  1  0.981467  0.399733  0.339243  0.313
  F  F13746  1  0.600267  0.581733  0.339243  0.313
  F  F13747  1  0.933600  0.685200  0.505910  0.313
  F  F13748  1  0.751600  0.066400  0.505910  0.313
  F  F13749  1  0.314800  0.248400  0.505910  0.313
  F  F13750  1  0.248400  0.314800  0.994090  0.313
  F  F13751  1  0.685200  0.933600  0.994090  0.313
  F  F13752  1  0.066400  0.751600  0.994090  0.313
  F  F13753  1  0.266933  0.351867  0.172577  0.313
  F  F13754  1  0.084933  0.733067  0.172577  0.313
  F  F13755  1  0.648133  0.915067  0.172577  0.313
  F  F13756  1  0.581733  0.981467  0.660757  0.313
  F  F13757  1  0.018533  0.600267  0.660757  0.313
  F  F13758  1  0.399733  0.418267  0.660757  0.313
  F  F13759  1  0.600267  0.018533  0.839243  0.313
  F  F13760  1  0.418267  0.399733  0.839243  0.313
  F  F13761  1  0.981467  0.581733  0.839243  0.313
  F  F13762  1  0.915067  0.648133  0.327423  0.313
  F  F13763  1  0.351867  0.266933  0.327423  0.313
  F  F13764  1  0.733067  0.084933  0.327423  0.313
  F  F13765  1  0.070630  0.313030  0.513740  0.313
  F  F13766  1  0.242400  0.929370  0.513740  0.313
  F  F13767  1  0.686970  0.757600  0.513740  0.313
  F  F13768  1  0.757600  0.686970  0.986260  0.313
  F  F13769  1  0.313030  0.070630  0.986260  0.313
  F  F13770  1  0.929370  0.242400  0.986260  0.313
  F  F13771  1  0.403963  0.979697  0.180407  0.313
  F  F13772  1  0.575733  0.596037  0.180407  0.313
  F  F13773  1  0.020303  0.424267  0.180407  0.313
  F  F13774  1  0.090933  0.353637  0.652927  0.313
  F  F13775  1  0.646363  0.737297  0.652927  0.313
  F  F13776  1  0.262703  0.909067  0.652927  0.313
  F  F13777  1  0.737297  0.646363  0.847073  0.313
  F  F13778  1  0.909067  0.262703  0.847073  0.313
  F  F13779  1  0.353637  0.090933  0.847073  0.313
  F  F13780  1  0.424267  0.020303  0.319593  0.313
  F  F13781  1  0.979697  0.403963  0.319593  0.313
  F  F13782  1  0.596037  0.575733  0.319593  0.313
  F  F13783  1  0.929370  0.686970  0.486260  0.313
  F  F13784  1  0.757600  0.070630  0.486260  0.313
  F  F13785  1  0.313030  0.242400  0.486260  0.313
  F  F13786  1  0.242400  0.313030  0.013740  0.313
  F  F13787  1  0.686970  0.929370  0.013740  0.313
  F  F13788  1  0.070630  0.757600  0.013740  0.313
  F  F13789  1  0.262703  0.353637  0.152927  0.313
  F  F13790  1  0.090933  0.737297  0.152927  0.313
  F  F13791  1  0.646363  0.909067  0.152927  0.313
  F  F13792  1  0.575733  0.979697  0.680407  0.313
  F  F13793  1  0.020303  0.596037  0.680407  0.313
  F  F13794  1  0.403963  0.424267  0.680407  0.313
  F  F13795  1  0.596037  0.020303  0.819593  0.313
  F  F13796  1  0.424267  0.403963  0.819593  0.313
  F  F13797  1  0.979697  0.575733  0.819593  0.313
  F  F13798  1  0.909067  0.646363  0.347073  0.313
  F  F13799  1  0.353637  0.262703  0.347073  0.313
  F  F13800  1  0.737297  0.090933  0.347073  0.313
  F  F13801  1  0.033000  0.258500  0.503870  0.313
  F  F13802  1  0.225500  0.967000  0.503870  0.313
  F  F13803  1  0.741500  0.774500  0.503870  0.313
  F  F13804  1  0.774500  0.741500  0.996130  0.313
  F  F13805  1  0.258500  0.033000  0.996130  0.313
  F  F13806  1  0.967000  0.225500  0.996130  0.313
  F  F13807  1  0.366333  0.925167  0.170537  0.313
  F  F13808  1  0.558833  0.633667  0.170537  0.313
  F  F13809  1  0.074833  0.441167  0.170537  0.313
  F  F13810  1  0.107833  0.408167  0.662797  0.313
  F  F13811  1  0.591833  0.699667  0.662797  0.313
  F  F13812  1  0.300333  0.892167  0.662797  0.313
  F  F13813  1  0.699667  0.591833  0.837203  0.313
  F  F13814  1  0.892167  0.300333  0.837203  0.313
  F  F13815  1  0.408167  0.107833  0.837203  0.313
  F  F13816  1  0.441167  0.074833  0.329463  0.313
  F  F13817  1  0.925167  0.366333  0.329463  0.313
  F  F13818  1  0.633667  0.558833  0.329463  0.313
  F  F13819  1  0.967000  0.741500  0.496130  0.313
  F  F13820  1  0.774500  0.033000  0.496130  0.313
  F  F13821  1  0.258500  0.225500  0.496130  0.313
  F  F13822  1  0.225500  0.258500  0.003870  0.313
  F  F13823  1  0.741500  0.967000  0.003870  0.313
  F  F13824  1  0.033000  0.774500  0.003870  0.313
  F  F13825  1  0.300333  0.408167  0.162797  0.313
  F  F13826  1  0.107833  0.699667  0.162797  0.313
  F  F13827  1  0.591833  0.892167  0.162797  0.313
  F  F13828  1  0.558833  0.925167  0.670537  0.313
  F  F13829  1  0.074833  0.633667  0.670537  0.313
  F  F13830  1  0.366333  0.441167  0.670537  0.313
  F  F13831  1  0.633667  0.074833  0.829463  0.313
  F  F13832  1  0.441167  0.366333  0.829463  0.313
  F  F13833  1  0.925167  0.558833  0.829463  0.313
  F  F13834  1  0.892167  0.591833  0.337203  0.313
  F  F13835  1  0.408167  0.300333  0.337203  0.313
  F  F13836  1  0.699667  0.107833  0.337203  0.313
