# generated using pymatgen
data_Cu2H206C235S5N26O34F15
_symmetry_space_group_name_H-M   'P 1'
_cell_length_a   19.97600000
_cell_length_b   20.39700000
_cell_length_c   27.57900000
_cell_angle_alpha   89.69500000
_cell_angle_beta   80.77700000
_cell_angle_gamma   86.07600000
_symmetry_Int_Tables_number   1
_chemical_formula_structural   Cu2H206C235S5N26O34F15
_chemical_formula_sum   'Cu4 H412 C470 S10 N52 O68 F30'
_cell_volume   11065.61937856
_cell_formula_units_Z   2
loop_
 _symmetry_equiv_pos_site_id
 _symmetry_equiv_pos_as_xyz
  1  'x, y, z'
loop_
 _atom_site_type_symbol
 _atom_site_label
 _atom_site_symmetry_multiplicity
 _atom_site_fract_x
 _atom_site_fract_y
 _atom_site_fract_z
 _atom_site_occupancy
  Cu  Cu1  1  0.114410  0.926530  0.282580  1
  Cu  Cu2  1  0.885590  0.073470  0.717420  1
  Cu  Cu3  1  0.581760  0.393000  0.228910  1
  Cu  Cu4  1  0.418240  0.607000  0.771090  1
  H  H5  1  0.345100  0.173000  0.055200  1
  H  H6  1  0.654900  0.827000  0.944800  1
  H  H7  1  0.563200  0.977100  0.243200  1
  H  H8  1  0.436800  0.022900  0.756800  1
  H  H9  1  0.724000  0.367800  0.252200  1
  H  H10  1  0.276000  0.632200  0.747800  1
  H  H11  1  0.456900  0.508000  0.071700  1
  H  H12  1  0.543100  0.492000  0.928300  1
  H  H13  1  0.739100  0.813900  0.240200  1
  H  H14  1  0.260900  0.186100  0.759800  1
  H  H15  1  0.986200  0.949400  0.351300  1
  H  H16  1  0.013800  0.050600  0.648700  1
  H  H17  1  0.486900  0.195900  0.977500  1
  H  H18  1  0.513100  0.804100  0.022500  1
  H  H19  1  0.603300  0.486900  0.306100  1
  H  H20  1  0.396700  0.513100  0.693900  1
  H  H21  1  0.084300  0.072100  0.292900  1
  H  H22  1  0.915700  0.927900  0.707100  1
  H  H23  1  0.737100  0.010500  0.287800  1
  H  H24  1  0.262900  0.989500  0.712200  1
  H  H25  1  0.435900  0.424700  0.267300  1
  H  H26  1  0.564100  0.575300  0.732700  1
  H  H27  1  0.175200  0.982500  0.190000  1
  H  H28  1  0.824800  0.017500  0.810000  1
  H  H29  1  0.615500  0.254400  0.212300  1
  H  H30  1  0.384500  0.745600  0.787700  1
  H  H31  1  0.490600  0.084600  0.473000  1
  H  H32  1  0.509400  0.915400  0.527000  1
  H  H33  1  0.942400  0.131500  0.210300  1
  H  H34  1  0.057600  0.868500  0.789700  1
  H  H35  1  0.262800  0.905400  0.273800  1
  H  H36  1  0.737200  0.094600  0.726200  1
  H  H37  1  0.618500  0.957300  0.147400  1
  H  H38  1  0.381500  0.042700  0.852600  1
  H  H39  1  0.298100  0.197700  0.895500  1
  H  H40  1  0.701900  0.802300  0.104500  1
  H  H41  1  0.551600  0.527200  0.189200  1
  H  H42  1  0.448400  0.472800  0.810800  1
  H  H43  1  0.681900  0.405400  0.134000  1
  H  H44  1  0.318100  0.594600  0.866000  1
  H  H45  1  0.508500  0.350100  0.152100  1
  H  H46  1  0.491500  0.649900  0.847900  1
  H  H47  1  0.583000  0.353200  0.063100  1
  H  H48  1  0.417000  0.646800  0.936900  1
  H  H49  1  0.798400  0.082000  0.323800  1
  H  H50  1  0.201600  0.918000  0.676200  1
  H  H51  1  0.172700  0.164900  0.022500  1
  H  H52  1  0.827300  0.835100  0.977500  1
  H  H53  1  0.649900  0.270900  0.020600  1
  H  H54  1  0.350100  0.729100  0.979400  1
  H  H55  1  0.395100  0.758200  0.136000  1
  H  H56  1  0.604900  0.241800  0.864000  1
  H  H57  1  0.025500  0.046700  0.469400  1
  H  H58  1  0.974500  0.953300  0.530600  1
  H  H59  1  0.116000  0.800200  0.338500  1
  H  H60  1  0.884000  0.199800  0.661500  1
  H  H61  1  0.009900  0.939400  0.216800  1
  H  H62  1  0.990100  0.060600  0.783200  1
  H  H63  1  0.559700  0.834100  0.175500  1
  H  H64  1  0.440300  0.165900  0.824500  1
  H  H65  1  0.349500  0.458600  0.123200  1
  H  H66  1  0.650500  0.541400  0.876800  1
  H  H67  1  0.189400  0.393000  0.068200  1
  H  H68  1  0.810600  0.607000  0.931800  1
  H  H69  1  0.768100  0.222500  0.098500  1
  H  H70  1  0.231900  0.777500  0.901500  1
  H  H71  1  0.372700  0.149900  0.452900  1
  H  H72  1  0.627300  0.850100  0.547100  1
  H  H73  1  0.353500  0.174600  0.622300  1
  H  H74  1  0.646500  0.825400  0.377700  1
  H  H75  1  0.544100  0.322500  0.320800  1
  H  H76  1  0.455900  0.677500  0.679200  1
  H  H77  1  0.257500  0.310600  0.026300  1
  H  H78  1  0.742500  0.689400  0.973700  1
  H  H79  1  0.644100  0.166400  0.344500  1
  H  H80  1  0.355900  0.833600  0.655500  1
  H  H81  1  0.602000  0.190800  0.977700  1
  H  H82  1  0.398000  0.809200  0.022300  1
  H  H83  1  0.712200  0.272700  0.381700  1
  H  H84  1  0.287800  0.727300  0.618300  1
  H  H85  1  0.235200  0.466700  0.118100  1
  H  H86  1  0.764800  0.533300  0.881900  1
  H  H87  1  0.833100  0.995800  0.423000  1
  H  H88  1  0.166900  0.004200  0.577000  1
  H  H89  1  0.887700  0.939300  0.399100  1
  H  H90  1  0.112300  0.060700  0.600900  1
  H  H91  1  0.883400  0.009700  0.373400  1
  H  H92  1  0.116600  0.990300  0.626600  1
  H  H93  1  0.766700  0.222000  0.224100  1
  H  H94  1  0.233300  0.778000  0.775900  1
  H  H95  1  0.880200  0.902000  0.202000  1
  H  H96  1  0.119800  0.098000  0.798000  1
  H  H97  1  0.832500  0.845000  0.192600  1
  H  H98  1  0.167500  0.155000  0.807400  1
  H  H99  1  0.837000  0.867100  0.247600  1
  H  H100  1  0.163000  0.132900  0.752400  1
  H  H101  1  0.853800  0.035100  0.139900  1
  H  H102  1  0.146200  0.964900  0.860100  1
  H  H103  1  0.898200  0.095300  0.148200  1
  H  H104  1  0.101800  0.904700  0.851800  1
  H  H105  1  0.846000  0.068700  0.193000  1
  H  H106  1  0.154000  0.931300  0.807000  1
  H  H107  1  0.626800  0.176400  0.095300  1
  H  H108  1  0.373200  0.823600  0.904700  1
  H  H109  1  0.158800  0.916700  0.462900  1
  H  H110  1  0.841200  0.083300  0.537100  1
  H  H111  1  0.436000  0.896200  0.092500  1
  H  H112  1  0.564000  0.103800  0.907500  1
  H  H113  1  0.328500  0.005800  0.536700  1
  H  H114  1  0.671500  0.994200  0.463300  1
  H  H115  1  0.406900  0.057400  0.010800  1
  H  H116  1  0.593100  0.942600  0.989200  1
  H  H117  1  0.505000  0.465700  0.459800  1
  H  H118  1  0.495000  0.534300  0.540200  1
  H  H119  1  0.014000  0.074400  0.099100  1
  H  H120  1  0.986000  0.925600  0.900900  1
  H  H121  1  0.311100  0.896800  0.544300  1
  H  H122  1  0.688900  0.103200  0.455700  1
  H  H123  1  0.084800  0.989400  0.116900  1
  H  H124  1  0.915200  0.010600  0.883100  1
  H  H125  1  0.507700  0.785500  0.117600  1
  H  H126  1  0.492300  0.214500  0.882400  1
  H  H127  1  0.176300  0.976200  0.364700  1
  H  H128  1  0.823700  0.023800  0.635300  1
  H  H129  1  0.332200  0.781000  0.212100  1
  H  H130  1  0.667800  0.219000  0.787900  1
  H  H131  1  0.057700  0.164300  0.051600  1
  H  H132  1  0.942300  0.835700  0.948400  1
  H  H133  1  0.816100  0.187100  0.290500  1
  H  H134  1  0.183900  0.812900  0.709500  1
  H  H135  1  0.321200  0.892400  0.117500  1
  H  H136  1  0.678800  0.107600  0.882500  1
  H  H137  1  0.637900  0.054500  0.355400  1
  H  H138  1  0.362100  0.945500  0.644600  1
  H  H139  1  0.575000  0.395000  0.406400  1
  H  H140  1  0.425000  0.605000  0.593600  1
  H  H141  1  0.630100  0.594500  0.396400  1
  H  H142  1  0.369900  0.405500  0.603600  1
  H  H143  1  0.631700  0.582800  0.338900  1
  H  H144  1  0.368300  0.417200  0.661100  1
  H  H145  1  0.639200  0.521400  0.374400  1
  H  H146  1  0.360800  0.478600  0.625600  1
  H  H147  1  0.226600  0.850200  0.506600  1
  H  H148  1  0.773400  0.149800  0.493400  1
  H  H149  1  0.563800  0.014200  0.421900  1
  H  H150  1  0.436200  0.985800  0.578100  1
  H  H151  1  0.479100  0.977200  0.036900  1
  H  H152  1  0.520900  0.022800  0.963100  1
  H  H153  1  0.576000  0.101600  0.053300  1
  H  H154  1  0.424000  0.898400  0.946700  1
  H  H155  1  0.124700  0.802300  0.223400  1
  H  H156  1  0.875300  0.197700  0.776600  1
  H  H157  1  0.311200  0.731500  0.334500  1
  H  H158  1  0.688800  0.268500  0.665500  1
  H  H159  1  0.420000  0.549000  0.382300  1
  H  H160  1  0.580000  0.451000  0.617700  1
  H  H161  1  0.982900  0.329200  0.395000  1
  H  H162  1  0.017100  0.670800  0.605000  1
  H  H163  1  0.549200  0.916400  0.347300  1
  H  H164  1  0.450800  0.083600  0.652700  1
  H  H165  1  0.162800  0.513900  0.246100  1
  H  H166  1  0.837200  0.486100  0.753900  1
  H  H167  1  0.652800  0.677900  0.274500  1
  H  H168  1  0.347200  0.322100  0.725500  1
  H  H169  1  0.699000  0.731900  0.291200  1
  H  H170  1  0.301000  0.268100  0.708800  1
  H  H171  1  0.701000  0.717000  0.234100  1
  H  H172  1  0.299000  0.283000  0.765900  1
  H  H173  1  0.146900  0.361900  0.313500  1
  H  H174  1  0.853100  0.638100  0.686500  1
  H  H175  1  0.076400  0.164700  0.176700  1
  H  H176  1  0.923600  0.835300  0.823300  1
  H  H177  1  0.203900  0.844400  0.083700  1
  H  H178  1  0.796100  0.155600  0.916300  1
  H  H179  1  0.121100  0.240600  0.121300  1
  H  H180  1  0.878900  0.759400  0.878700  1
  H  H181  1  0.415600  0.424200  0.516400  1
  H  H182  1  0.584400  0.575800  0.483600  1
  H  H183  1  0.489800  0.672200  0.084000  1
  H  H184  1  0.510200  0.327800  0.916000  1
  H  H185  1  0.436800  0.616900  0.083900  1
  H  H186  1  0.563200  0.383100  0.916100  1
  H  H187  1  0.511500  0.606100  0.052700  1
  H  H188  1  0.488500  0.393900  0.947300  1
  H  H189  1  0.576500  0.990200  0.078300  1
  H  H190  1  0.423500  0.009800  0.921700  1
  H  H191  1  0.912600  0.149000  0.423200  1
  H  H192  1  0.087400  0.851000  0.576800  1
  H  H193  1  0.306600  0.409600  0.483600  1
  H  H194  1  0.693400  0.590400  0.516400  1
  H  H195  1  0.953700  0.114700  0.344300  1
  H  H196  1  0.046300  0.885300  0.655700  1
  H  H197  1  0.392800  0.545300  0.246900  1
  H  H198  1  0.607200  0.454700  0.753100  1
  H  H199  1  0.399200  0.314500  0.520500  1
  H  H200  1  0.600800  0.685500  0.479500  1
  H  H201  1  0.484500  0.278700  0.628700  1
  H  H202  1  0.515500  0.721300  0.371300  1
  H  H203  1  0.435100  0.221500  0.645800  1
  H  H204  1  0.564900  0.778500  0.354200  1
  H  H205  1  0.405800  0.288000  0.623500  1
  H  H206  1  0.594200  0.712000  0.376500  1
  H  H207  1  0.208100  0.094200  0.662300  1
  H  H208  1  0.791900  0.905800  0.337700  1
  H  H209  1  0.247700  0.160100  0.657500  1
  H  H210  1  0.752300  0.839900  0.342500  1
  H  H211  1  0.289200  0.090000  0.657200  1
  H  H212  1  0.710800  0.910000  0.342800  1
  H  H213  1  0.084900  0.383600  0.224500  1
  H  H214  1  0.915100  0.616400  0.775500  1
  H  H215  1  0.342400  0.580900  0.181500  1
  H  H216  1  0.657600  0.419100  0.818500  1
  H  H217  1  0.971500  0.526700  0.345800  1
  H  H218  1  0.028500  0.473300  0.654200  1
  H  H219  1  0.188500  0.409000  0.486800  1
  H  H220  1  0.811500  0.591000  0.513200  1
  H  H221  1  0.140000  0.436700  0.418600  1
  H  H222  1  0.860000  0.563300  0.581400  1
  H  H223  1  0.197000  0.069400  0.887800  1
  H  H224  1  0.803000  0.930600  0.112200  1
  H  H225  1  0.262600  0.109000  0.869000  1
  H  H226  1  0.737400  0.891000  0.131000  1
  H  H227  1  0.194800  0.146900  0.897100  1
  H  H228  1  0.805200  0.853100  0.102900  1
  H  H229  1  0.934500  0.254300  0.449300  1
  H  H230  1  0.065500  0.745700  0.550700  1
  H  H231  1  0.375300  0.440300  0.414100  1
  H  H232  1  0.624700  0.559700  0.585900  1
  H  H233  1  0.226100  0.562000  0.180200  1
  H  H234  1  0.773900  0.438000  0.819800  1
  H  H235  1  0.808700  0.331800  0.379000  1
  H  H236  1  0.191300  0.668200  0.621000  1
  H  H237  1  0.876100  0.303600  0.344000  1
  H  H238  1  0.123900  0.696400  0.656000  1
  H  H239  1  0.815800  0.256800  0.361100  1
  H  H240  1  0.184200  0.743200  0.638900  1
  H  H241  1  0.320700  0.869500  0.383400  1
  H  H242  1  0.679300  0.130500  0.616600  1
  H  H243  1  0.373900  0.911500  0.440700  1
  H  H244  1  0.626100  0.088500  0.559300  1
  H  H245  1  0.123400  0.351100  0.145100  1
  H  H246  1  0.876600  0.648900  0.854900  1
  H  H247  1  0.488400  0.933300  0.423700  1
  H  H248  1  0.511600  0.066700  0.576300  1
  H  H249  1  0.060900  0.661800  0.365500  1
  H  H250  1  0.939100  0.338200  0.634500  1
  H  H251  1  0.005600  0.611000  0.385800  1
  H  H252  1  0.994400  0.389000  0.614200  1
  H  H253  1  0.019900  0.627500  0.328400  1
  H  H254  1  0.980100  0.372500  0.671600  1
  H  H255  1  0.097800  0.137900  0.398400  1
  H  H256  1  0.902200  0.862100  0.601600  1
  H  H257  1  0.257500  0.229000  0.482300  1
  H  H258  1  0.742500  0.771000  0.517700  1
  H  H259  1  0.205100  0.612400  0.387800  1
  H  H260  1  0.794900  0.387600  0.612200  1
  H  H261  1  0.264100  0.661200  0.389200  1
  H  H262  1  0.735900  0.338800  0.610800  1
  H  H263  1  0.252300  0.631400  0.337900  1
  H  H264  1  0.747700  0.368600  0.662100  1
  H  H265  1  0.833300  0.443000  0.327200  1
  H  H266  1  0.166700  0.557000  0.672800  1
  H  H267  1  0.884500  0.498800  0.309900  1
  H  H268  1  0.115500  0.501200  0.690100  1
  H  H269  1  0.872100  0.476500  0.366100  1
  H  H270  1  0.127900  0.523500  0.633900  1
  H  H271  1  0.187000  0.294700  0.440900  1
  H  H272  1  0.813000  0.705300  0.559100  1
  H  H273  1  0.114500  0.247400  0.393900  1
  H  H274  1  0.885500  0.752600  0.606100  1
  H  H275  1  0.371400  0.346200  0.862500  1
  H  H276  1  0.628600  0.653800  0.137500  1
  H  H277  1  0.301300  0.312500  0.878800  1
  H  H278  1  0.698700  0.687500  0.121200  1
  H  H279  1  0.367300  0.269200  0.853600  1
  H  H280  1  0.632700  0.730800  0.146400  1
  H  H281  1  0.125400  0.664000  0.150400  1
  H  H282  1  0.874600  0.336000  0.849600  1
  H  H283  1  0.081500  0.720600  0.183800  1
  H  H284  1  0.918500  0.279400  0.816200  1
  H  H285  1  0.157100  0.698900  0.192600  1
  H  H286  1  0.842900  0.301100  0.807400  1
  H  H287  1  0.818900  0.412200  0.037000  1
  H  H288  1  0.181100  0.587800  0.963000  1
  H  H289  1  0.803000  0.423200  0.095300  1
  H  H290  1  0.197000  0.576800  0.904700  1
  H  H291  1  0.742700  0.430800  0.063400  1
  H  H292  1  0.257300  0.569200  0.936600  1
  H  H293  1  0.008500  0.389400  0.062600  1
  H  H294  1  0.991500  0.610600  0.937400  1
  H  H295  1  0.994900  0.320000  0.088200  1
  H  H296  1  0.005100  0.680000  0.911800  1
  H  H297  1  0.968500  0.337000  0.037500  1
  H  H298  1  0.031500  0.663000  0.962500  1
  H  H299  1  0.734800  0.042100  0.056700  1
  H  H300  1  0.265200  0.957900  0.943300  1
  H  H301  1  0.809800  0.061100  0.061500  1
  H  H302  1  0.190200  0.938900  0.938500  1
  H  H303  1  0.795700  0.027900  0.012000  1
  H  H304  1  0.204300  0.972100  0.988000  1
  H  H305  1  0.869900  0.257800  0.993600  1
  H  H306  1  0.130100  0.742200  0.006400  1
  H  H307  1  0.936100  0.232800  0.956000  1
  H  H308  1  0.063900  0.767200  0.044000  1
  H  H309  1  0.943900  0.267900  0.006300  1
  H  H310  1  0.056100  0.732100  0.993700  1
  H  H311  1  0.955300  0.717400  0.089500  1
  H  H312  1  0.044700  0.282600  0.910500  1
  H  H313  1  0.948700  0.652700  0.122500  1
  H  H314  1  0.051300  0.347300  0.877500  1
  H  H315  1  0.967800  0.719600  0.145300  1
  H  H316  1  0.032200  0.280400  0.854700  1
  H  H317  1  0.906200  0.931000  0.050700  1
  H  H318  1  0.093800  0.069000  0.949300  1
  H  H319  1  0.982000  0.939300  0.023300  1
  H  H320  1  0.018000  0.060700  0.976700  1
  H  H321  1  0.949600  0.987100  0.068000  1
  H  H322  1  0.050400  0.012900  0.932000  1
  H  H323  1  0.202900  0.632900  0.061000  1
  H  H324  1  0.797100  0.367100  0.939000  1
  H  H325  1  0.275300  0.621200  0.026700  1
  H  H326  1  0.724700  0.378800  0.973300  1
  H  H327  1  0.237200  0.693100  0.031600  1
  H  H328  1  0.762800  0.306900  0.968400  1
  H  H329  1  0.383300  0.698700  0.425500  1
  H  H330  1  0.616700  0.301300  0.574500  1
  H  H331  1  0.422800  0.675400  0.469400  1
  H  H332  1  0.577200  0.324600  0.530600  1
  H  H333  1  0.418400  0.751300  0.454300  1
  H  H334  1  0.581600  0.248700  0.545700  1
  H  H335  1  0.474700  0.653200  0.217600  1
  H  H336  1  0.525300  0.346800  0.782400  1
  H  H337  1  0.535500  0.627800  0.245800  1
  H  H338  1  0.464500  0.372200  0.754200  1
  H  H339  1  0.521400  0.704800  0.236900  1
  H  H340  1  0.478600  0.295200  0.763100  1
  H  H341  1  0.936100  0.200300  0.158800  1
  H  H342  1  0.063900  0.799700  0.841200  1
  H  H343  1  0.917200  0.246900  0.115400  1
  H  H344  1  0.082800  0.753100  0.884600  1
  H  H345  1  0.858100  0.220000  0.155100  1
  H  H346  1  0.141900  0.780000  0.844900  1
  H  H347  1  0.023300  0.553700  0.066200  1
  H  H348  1  0.976700  0.446300  0.933800  1
  H  H349  1  0.092700  0.510200  0.049000  1
  H  H350  1  0.907300  0.489800  0.951000  1
  H  H351  1  0.094700  0.584000  0.067800  1
  H  H352  1  0.905300  0.416000  0.932200  1
  H  H353  1  0.716700  0.540100  0.036900  1
  H  H354  1  0.283300  0.459900  0.963100  1
  H  H355  1  0.653600  0.539700  0.080700  1
  H  H356  1  0.346400  0.460300  0.919300  1
  H  H357  1  0.652600  0.591700  0.037100  1
  H  H358  1  0.347400  0.408300  0.962900  1
  H  H359  1  0.936600  0.754300  0.471000  1
  H  H360  1  0.063400  0.245700  0.529000  1
  H  H361  1  0.001400  0.721900  0.491800  1
  H  H362  1  0.998600  0.278100  0.508200  1
  H  H363  1  0.000200  0.722300  0.434000  1
  H  H364  1  0.999800  0.277700  0.566000  1
  H  H365  1  0.802800  0.415400  0.511600  1
  H  H366  1  0.197200  0.584600  0.488400  1
  H  H367  1  0.845100  0.447000  0.464000  1
  H  H368  1  0.154900  0.553000  0.536000  1
  H  H369  1  0.829700  0.371000  0.463800  1
  H  H370  1  0.170300  0.629000  0.536200  1
  H  H371  1  0.460500  0.042400  0.302400  1
  H  H372  1  0.539500  0.957600  0.697600  1
  H  H373  1  0.406700  0.101500  0.322800  1
  H  H374  1  0.593300  0.898500  0.677200  1
  H  H375  1  0.471800  0.084400  0.348900  1
  H  H376  1  0.528200  0.915600  0.651100  1
  H  H377  1  0.300900  0.290400  0.305200  1
  H  H378  1  0.699100  0.709600  0.694800  1
  H  H379  1  0.290300  0.340200  0.350800  1
  H  H380  1  0.709700  0.659800  0.649200  1
  H  H381  1  0.263200  0.268200  0.357700  1
  H  H382  1  0.736800  0.731800  0.642300  1
  H  H383  1  0.241000  0.302300  0.171200  1
  H  H384  1  0.759000  0.697700  0.828800  1
  H  H385  1  0.272500  0.238700  0.195900  1
  H  H386  1  0.727500  0.761300  0.804100  1
  H  H387  1  0.310600  0.265300  0.144900  1
  H  H388  1  0.689400  0.734700  0.855100  1
  H  H389  1  0.396000  0.080200  0.146100  1
  H  H390  1  0.604000  0.919800  0.853900  1
  H  H391  1  0.425100  0.086200  0.196500  1
  H  H392  1  0.574900  0.913800  0.803500  1
  H  H393  1  0.476100  0.070500  0.146400  1
  H  H394  1  0.523900  0.929500  0.853600  1
  H  H395  1  0.022200  0.515900  0.137500  1
  H  H396  1  0.977800  0.484100  0.862500  1
  H  H397  1  0.062000  0.519400  0.079700  1
  H  H398  1  0.938000  0.480600  0.920300  1
  H  H399  1  0.974200  0.507000  0.136000  1
  H  H400  1  0.025800  0.493000  0.864000  1
  H  H401  1  0.982300  0.580400  0.153400  1
  H  H402  1  0.017700  0.419600  0.846600  1
  H  H403  1  0.018000  0.519400  0.178500  1
  H  H404  1  0.982000  0.480600  0.821500  1
  H  H405  1  0.825300  0.343400  0.238800  1
  H  H406  1  0.174700  0.656600  0.761200  1
  H  H407  1  0.877100  0.289800  0.258100  1
  H  H408  1  0.122900  0.710200  0.741900  1
  H  H409  1  0.877400  0.365500  0.273100  1
  H  H410  1  0.122600  0.634500  0.726900  1
  H  H411  1  0.842400  0.345300  0.019700  1
  H  H412  1  0.157600  0.654700  0.980300  1
  H  H413  1  0.797500  0.282900  0.023100  1
  H  H414  1  0.202500  0.717100  0.976900  1
  H  H415  1  0.852700  0.288700  0.058800  1
  H  H416  1  0.147300  0.711300  0.941200  1
  C  C417  1  0.582100  0.880500  0.255920  1
  C  C418  1  0.417900  0.119500  0.744080  1
  C  C419  1  0.335600  0.178100  0.022700  1
  C  C420  1  0.664400  0.821900  0.977300  1
  C  C421  1  0.718000  0.911200  0.227350  1
  C  C422  1  0.282000  0.088800  0.772650  1
  C  C423  1  0.505000  0.527600  0.129140  1
  C  C424  1  0.495000  0.472400  0.870860  1
  C  C425  1  0.721400  0.136700  0.213040  1
  C  C426  1  0.278600  0.863300  0.786960  1
  C  C427  1  0.598900  0.943700  0.242450  1
  C  C428  1  0.401100  0.056300  0.757550  1
  C  C429  1  0.697300  0.348200  0.279350  1
  C  C430  1  0.302700  0.651800  0.720650  1
  C  C431  1  0.201900  0.076000  0.052980  1
  C  C432  1  0.798100  0.924000  0.947020  1
  C  C433  1  0.359000  0.231600  0.996060  1
  C  C434  1  0.641000  0.768400  0.003940  1
  C  C435  1  0.678000  0.027400  0.208060  1
  C  C436  1  0.322000  0.972600  0.791940  1
  C  C437  1  0.713100  0.071500  0.231910  1
  C  C438  1  0.286900  0.928500  0.768090  1
  C  C439  1  0.316400  0.026100  0.049200  1
  C  C440  1  0.683600  0.973900  0.950800  1
  C  C441  1  0.621000  0.292100  0.358000  1
  C  C442  1  0.379000  0.707900  0.642000  1
  C  C443  1  0.284500  0.140500  0.956410  1
  C  C444  1  0.715500  0.859500  0.043590  1
  C  C445  1  0.476400  0.489100  0.098230  1
  C  C446  1  0.523600  0.510900  0.901770  1
  C  C447  1  0.703400  0.847100  0.240510  1
  C  C448  1  0.296600  0.152900  0.759490  1
  C  C449  1  0.636300  0.832100  0.254030  1
  C  C450  1  0.363700  0.167900  0.745970  1
  C  C451  1  0.017800  0.967100  0.369160  1
  C  C452  1  0.982200  0.032900  0.630840  1
  C  C453  1  0.665800  0.960700  0.227790  1
  C  C454  1  0.334200  0.039300  0.772210  1
  C  C455  1  0.505500  0.228000  0.995250  1
  C  C456  1  0.494500  0.772000  0.004750  1
  C  C457  1  0.477800  0.837000  0.232100  1
  C  C458  1  0.522200  0.163000  0.767900  1
  C  C459  1  0.344800  0.238400  0.948090  1
  C  C460  1  0.655200  0.761600  0.051910  1
  C  C461  1  0.298800  0.131300  0.004430  1
  C  C462  1  0.701200  0.868700  0.995570  1
  C  C463  1  0.555100  0.486900  0.311330  1
  C  C464  1  0.444900  0.513100  0.688670  1
  C  C465  1  0.692200  0.227500  0.157400  1
  C  C466  1  0.307800  0.772500  0.842600  1
  C  C467  1  0.447600  0.375000  0.076090  1
  C  C468  1  0.552400  0.625000  0.923910  1
  C  C469  1  0.054400  0.061800  0.270900  1
  C  C470  1  0.945600  0.938200  0.729100  1
  C  C471  1  0.742900  0.053100  0.274310  1
  C  C472  1  0.257100  0.946900  0.725690  1
  C  C473  1  0.456800  0.450600  0.288300  1
  C  C474  1  0.543200  0.549400  0.711700  1
  C  C475  1  0.575000  0.264500  0.399100  1
  C  C476  1  0.425000  0.735500  0.600900  1
  C  C477  1  0.171900  0.938500  0.179800  1
  C  C478  1  0.828100  0.061500  0.820200  1
  C  C479  1  0.220900  0.974300  0.096280  1
  C  C480  1  0.779100  0.025700  0.903720  1
  C  C481  1  0.175600  0.024000  0.083210  1
  C  C482  1  0.824400  0.976000  0.916790  1
  C  C483  1  0.516800  0.523900  0.349600  1
  C  C484  1  0.483200  0.476100  0.650400  1
  C  C485  1  0.646100  0.271100  0.185960  1
  C  C486  1  0.353900  0.728900  0.814040  1
  C  C487  1  0.521500  0.102200  0.447300  1
  C  C488  1  0.478500  0.897800  0.552700  1
  C  C489  1  0.489900  0.326000  0.049120  1
  C  C490  1  0.510100  0.674000  0.950880  1
  C  C491  1  0.970700  0.097800  0.222120  1
  C  C492  1  0.029300  0.902200  0.777880  1
  C  C493  1  0.249200  0.867000  0.291400  1
  C  C494  1  0.750800  0.133000  0.708600  1
  C  C495  1  0.621100  0.001800  0.137200  1
  C  C496  1  0.378900  0.998200  0.862800  1
  C  C497  1  0.994100  0.999700  0.413150  1
  C  C498  1  0.005900  0.000300  0.586850  1
  C  C499  1  0.307500  0.192700  0.928070  1
  C  C500  1  0.692500  0.807300  0.071930  1
  C  C501  1  0.657200  0.112800  0.148100  1
  C  C502  1  0.342800  0.887200  0.851900  1
  C  C503  1  0.532900  0.499700  0.167910  1
  C  C504  1  0.467100  0.500300  0.832090  1
  C  C505  1  0.339700  0.486300  0.329400  1
  C  C506  1  0.660300  0.513700  0.670600  1
  C  C507  1  0.684700  0.359600  0.140350  1
  C  C508  1  0.315300  0.640400  0.859650  1
  C  C509  1  0.507200  0.396100  0.146330  1
  C  C510  1  0.492800  0.603900  0.853670  1
  C  C511  1  0.562500  0.321300  0.046500  1
  C  C512  1  0.437500  0.678700  0.953500  1
  C  C513  1  0.691400  0.156400  0.172070  1
  C  C514  1  0.308600  0.843600  0.827930  1
  C  C515  1  0.193000  0.921500  0.131400  1
  C  C516  1  0.807000  0.078500  0.868600  1
  C  C517  1  0.779300  0.095200  0.295500  1
  C  C518  1  0.220700  0.904800  0.704500  1
  C  C519  1  0.155700  0.129200  0.041900  1
  C  C520  1  0.844300  0.870800  0.958100  1
  C  C521  1  0.377000  0.380100  0.075270  1
  C  C522  1  0.623000  0.619900  0.924730  1
  C  C523  1  0.291100  0.974800  0.081050  1
  C  C524  1  0.708900  0.025200  0.918950  1
  C  C525  1  0.391500  0.283100  0.020760  1
  C  C526  1  0.608500  0.716900  0.979240  1
  C  C527  1  0.651800  0.046500  0.165100  1
  C  C528  1  0.348200  0.953500  0.834900  1
  C  C529  1  0.602100  0.272900  0.021100  1
  C  C530  1  0.397900  0.727100  0.978900  1
  C  C531  1  0.261400  0.099700  0.493300  1
  C  C532  1  0.738600  0.900300  0.506700  1
  C  C533  1  0.415400  0.778600  0.160400  1
  C  C534  1  0.584600  0.221400  0.839600  1
  C  C535  1  0.040800  0.024300  0.439100  1
  C  C536  1  0.959200  0.975700  0.560900  1
  C  C537  1  0.509500  0.864900  0.268100  1
  C  C538  1  0.490500  0.135100  0.731900  1
  C  C539  1  0.202100  0.003600  0.472640  1
  C  C540  1  0.797900  0.996400  0.527360  1
  C  C541  1  0.271700  0.076300  0.035530  1
  C  C542  1  0.728300  0.923700  0.964470  1
  C  C543  1  0.163100  0.805300  0.328800  1
  C  C544  1  0.836900  0.194700  0.671200  1
  C  C545  1  0.011200  0.983900  0.226480  1
  C  C546  1  0.988800  0.016100  0.773520  1
  C  C547  1  0.298700  0.821600  0.302500  1
  C  C548  1  0.701300  0.178400  0.697500  1
  C  C549  1  0.521500  0.171100  0.441930  1
  C  C550  1  0.478500  0.828900  0.558070  1
  C  C551  1  0.475800  0.215100  0.471420  1
  C  C552  1  0.524200  0.784900  0.528580  1
  C  C553  1  0.969000  0.032700  0.207590  1
  C  C554  1  0.031000  0.967300  0.792410  1
  C  C555  1  0.019800  0.181800  0.269900  1
  C  C556  1  0.980200  0.818200  0.730100  1
  C  C557  1  0.014300  0.112400  0.254190  1
  C  C558  1  0.985700  0.887600  0.745810  1
  C  C559  1  0.472500  0.878800  0.315600  1
  C  C560  1  0.527500  0.121200  0.684400  1
  C  C561  1  0.348700  0.333500  0.046400  1
  C  C562  1  0.651300  0.666500  0.953600  1
  C  C563  1  0.252900  0.031400  0.496150  1
  C  C564  1  0.747100  0.968600  0.503850  1
  C  C565  1  0.513800  0.823200  0.183800  1
  C  C566  1  0.486200  0.176800  0.816200  1
  C  C567  1  0.332100  0.428900  0.102700  1
  C  C568  1  0.667900  0.571100  0.897300  1
  C  C569  1  0.236500  0.388800  0.070300  1
  C  C570  1  0.763500  0.611200  0.929700  1
  C  C571  1  0.418600  0.188100  0.506100  1
  C  C572  1  0.581400  0.811900  0.493900  1
  C  C573  1  0.736100  0.251300  0.118700  1
  C  C574  1  0.263900  0.748700  0.881300  1
  C  C575  1  0.368600  0.155100  0.487500  1
  C  C576  1  0.631400  0.844900  0.512500  1
  C  C577  1  0.357600  0.169500  0.587700  1
  C  C578  1  0.642400  0.830500  0.412300  1
  C  C579  1  0.161300  0.044800  0.446500  1
  C  C580  1  0.838700  0.955200  0.553500  1
  C  C581  1  0.728800  0.319500  0.316000  1
  C  C582  1  0.271200  0.680500  0.684000  1
  C  C583  1  0.592000  0.321700  0.319600  1
  C  C584  1  0.408000  0.678300  0.680400  1
  C  C585  1  0.277000  0.340700  0.045300  1
  C  C586  1  0.723000  0.659300  0.954700  1
  C  C587  1  0.613200  0.150500  0.371000  1
  C  C588  1  0.386800  0.849500  0.629000  1
  C  C589  1  0.573600  0.225000  0.995100  1
  C  C590  1  0.426400  0.775000  0.004900  1
  C  C591  1  0.402600  0.863400  0.325600  1
  C  C592  1  0.597400  0.136600  0.674400  1
  C  C593  1  0.371800  0.835600  0.290000  1
  C  C594  1  0.628200  0.164400  0.710000  1
  C  C595  1  0.691000  0.291700  0.356100  1
  C  C596  1  0.309000  0.708300  0.643900  1
  C  C597  1  0.264200  0.433400  0.100000  1
  C  C598  1  0.735800  0.566600  0.900000  1
  C  C599  1  0.879100  0.986700  0.404900  1
  C  C600  1  0.120900  0.013300  0.595100  1
  C  C601  1  0.760500  0.178800  0.236400  1
  C  C602  1  0.239500  0.821200  0.763600  1
  C  C603  1  0.238400  0.500000  0.289300  1
  C  C604  1  0.761600  0.500000  0.710700  1
  C  C605  1  0.199600  0.473300  0.331200  1
  C  C606  1  0.800400  0.526700  0.668800  1
  C  C607  1  0.837200  0.882300  0.213800  1
  C  C608  1  0.162800  0.117700  0.786200  1
  C  C609  1  0.878000  0.056100  0.163200  1
  C  C610  1  0.122000  0.943900  0.836800  1
  C  C611  1  0.480500  0.283200  0.467570  1
  C  C612  1  0.519500  0.716800  0.532430  1
  C  C613  1  0.033700  0.311900  0.300800  1
  C  C614  1  0.966300  0.688100  0.699200  1
  C  C615  1  0.626200  0.132100  0.105900  1
  C  C616  1  0.373800  0.867900  0.894100  1
  C  C617  1  0.193000  0.935300  0.477700  1
  C  C618  1  0.807000  0.064700  0.522300  1
  C  C619  1  0.570700  0.196400  0.403690  1
  C  C620  1  0.429300  0.803600  0.596310  1
  C  C621  1  0.405600  0.928200  0.081100  1
  C  C622  1  0.594400  0.071800  0.918900  1
  C  C623  1  0.293600  0.988500  0.521980  1
  C  C624  1  0.706400  0.011500  0.478020  1
  C  C625  1  0.415700  0.487800  0.325900  1
  C  C626  1  0.584300  0.512200  0.674100  1
  C  C627  1  0.300100  0.463500  0.372000  1
  C  C628  1  0.699900  0.536500  0.628000  1
  C  C629  1  0.388800  0.024700  0.032800  1
  C  C630  1  0.611200  0.975300  0.967200  1
  C  C631  1  0.498700  0.419900  0.460800  1
  C  C632  1  0.501300  0.580100  0.539200  1
  C  C633  1  0.061400  0.074800  0.087600  1
  C  C634  1  0.938600  0.925200  0.912400  1
  C  C635  1  0.109000  0.016700  0.421300  1
  C  C636  1  0.891000  0.983300  0.578700  1
  C  C637  1  0.283700  0.924000  0.526100  1
  C  C638  1  0.716300  0.076000  0.473900  1
  C  C639  1  0.103300  0.025200  0.098500  1
  C  C640  1  0.896700  0.974800  0.901500  1
  C  C641  1  0.003200  0.267700  0.333900  1
  C  C642  1  0.996800  0.732300  0.666100  1
  C  C643  1  0.309300  0.507500  0.288700  1
  C  C644  1  0.690700  0.492500  0.711300  1
  C  C645  1  0.482800  0.794600  0.149500  1
  C  C646  1  0.517200  0.205400  0.850500  1
  C  C647  1  0.129100  0.983100  0.377100  1
  C  C648  1  0.870900  0.016900  0.622900  1
  C  C649  1  0.378200  0.791900  0.205600  1
  C  C650  1  0.621800  0.208100  0.794400  1
  C  C651  1  0.087700  0.128800  0.058800  1
  C  C652  1  0.912300  0.871200  0.941200  1
  C  C653  1  0.789200  0.158500  0.276000  1
  C  C654  1  0.210800  0.841500  0.724000  1
  C  C655  1  0.337800  0.926500  0.096300  1
  C  C656  1  0.662200  0.073500  0.903700  1
  C  C657  1  0.532800  0.308100  0.431300  1
  C  C658  1  0.467200  0.691900  0.568700  1
  C  C659  1  0.609700  0.084200  0.377500  1
  C  C660  1  0.390300  0.915800  0.622500  1
  C  C661  1  0.314200  0.129900  0.516600  1
  C  C662  1  0.685800  0.870100  0.483400  1
  C  C663  1  0.994700  0.201900  0.318200  1
  C  C664  1  0.005300  0.798100  0.681800  1
  C  C665  1  0.540300  0.378000  0.429700  1
  C  C666  1  0.459700  0.622000  0.570300  1
  C  C667  1  0.617200  0.565400  0.371800  1
  C  C668  1  0.382800  0.434600  0.628200  1
  C  C669  1  0.232800  0.895900  0.503600  1
  C  C670  1  0.767200  0.104100  0.496400  1
  C  C671  1  0.564500  0.060300  0.416600  1
  C  C672  1  0.435500  0.939700  0.583400  1
  C  C673  1  0.411100  0.195000  0.557100  1
  C  C674  1  0.588900  0.805000  0.442900  1
  C  C675  1  0.431600  0.977400  0.048200  1
  C  C676  1  0.568400  0.022600  0.951800  1
  C  C677  1  0.596200  0.088100  0.080900  1
  C  C678  1  0.403800  0.911900  0.919100  1
  C  C679  1  0.141600  0.833300  0.199500  1
  C  C680  1  0.858400  0.166700  0.800500  1
  C  C681  1  0.056300  0.293100  0.251300  1
  C  C682  1  0.943700  0.706900  0.748700  1
  C  C683  1  0.309800  0.136300  0.567700  1
  C  C684  1  0.690200  0.863700  0.432300  1
  C  C685  1  0.278400  0.764400  0.327000  1
  C  C686  1  0.721600  0.235600  0.673000  1
  C  C687  1  0.446700  0.523900  0.356400  1
  C  C688  1  0.553300  0.476100  0.643600  1
  C  C689  1  0.732500  0.317900  0.110100  1
  C  C690  1  0.267500  0.682100  0.889900  1
  C  C691  1  0.978300  0.285900  0.384000  1
  C  C692  1  0.021700  0.714100  0.616000  1
  C  C693  1  0.503000  0.905900  0.353800  1
  C  C694  1  0.497000  0.094100  0.646200  1
  C  C695  1  0.209300  0.520400  0.246900  1
  C  C696  1  0.790700  0.479600  0.753100  1
  C  C697  1  0.672000  0.720200  0.266300  1
  C  C698  1  0.328000  0.279800  0.733700  1
  C  C699  1  0.111400  0.395700  0.319000  1
  C  C700  1  0.888600  0.604300  0.681000  1
  C  C701  1  0.077300  0.208900  0.187100  1
  C  C702  1  0.922700  0.791100  0.812900  1
  C  C703  1  0.188200  0.857600  0.116800  1
  C  C704  1  0.811800  0.142400  0.883200  1
  C  C705  1  0.103800  0.253800  0.154200  1
  C  C706  1  0.896200  0.746200  0.845800  1
  C  C707  1  0.045700  0.380700  0.316100  1
  C  C708  1  0.954300  0.619300  0.683900  1
  C  C709  1  0.218900  0.140000  0.468100  1
  C  C710  1  0.781100  0.860000  0.531900  1
  C  C711  1  0.445200  0.394600  0.495200  1
  C  C712  1  0.554800  0.605400  0.504800  1
  C  C713  1  0.484800  0.624800  0.083000  1
  C  C714  1  0.515200  0.375200  0.917000  1
  C  C715  1  0.595400  0.021400  0.096700  1
  C  C716  1  0.404600  0.978600  0.903300  1
  C  C717  1  0.127000  0.460000  0.330100  1
  C  C718  1  0.873000  0.540000  0.669900  1
  C  C719  1  0.209200  0.756500  0.340400  1
  C  C720  1  0.790800  0.243500  0.659600  1
  C  C721  1  0.936600  0.177800  0.400700  1
  C  C722  1  0.063400  0.822200  0.599300  1
  C  C723  1  0.287000  0.422500  0.455500  1
  C  C724  1  0.713000  0.577500  0.544500  1
  C  C725  1  0.960100  0.158200  0.354000  1
  C  C726  1  0.039900  0.841800  0.646000  1
  C  C727  1  0.228200  0.458700  0.372600  1
  C  C728  1  0.771800  0.541300  0.627400  1
  C  C729  1  0.346100  0.538800  0.247200  1
  C  C730  1  0.653900  0.461200  0.752800  1
  C  C731  1  0.435900  0.329600  0.498000  1
  C  C732  1  0.564100  0.670400  0.502000  1
  C  C733  1  0.993400  0.429700  0.326100  1
  C  C734  1  0.006600  0.570300  0.673900  1
  C  C735  1  0.445200  0.256300  0.621700  1
  C  C736  1  0.554800  0.743700  0.378300  1
  C  C737  1  0.073400  0.507600  0.339300  1
  C  C738  1  0.926600  0.492400  0.660700  1
  C  C739  1  0.249600  0.114000  0.647100  1
  C  C740  1  0.750400  0.886000  0.352900  1
  C  C741  1  0.083100  0.339000  0.215400  1
  C  C742  1  0.916900  0.661000  0.784600  1
  C  C743  1  0.316800  0.559600  0.208300  1
  C  C744  1  0.683200  0.440400  0.791700  1
  C  C745  1  0.007400  0.493600  0.338300  1
  C  C746  1  0.992600  0.506400  0.661700  1
  C  C747  1  0.216300  0.421500  0.457400  1
  C  C748  1  0.783700  0.578500  0.542600  1
  C  C749  1  0.160600  0.813600  0.150300  1
  C  C750  1  0.839400  0.186400  0.849700  1
  C  C751  1  0.170300  0.112200  0.443500  1
  C  C752  1  0.829700  0.887800  0.556500  1
  C  C753  1  0.187700  0.438400  0.417200  1
  C  C754  1  0.812300  0.561600  0.582800  1
  C  C755  1  0.223400  0.105800  0.895100  1
  C  C756  1  0.776600  0.894200  0.104900  1
  C  C757  1  0.948200  0.241900  0.415800  1
  C  C758  1  0.051800  0.758100  0.584200  1
  C  C759  1  0.327600  0.441500  0.414600  1
  C  C760  1  0.672400  0.558500  0.585400  1
  C  C761  1  0.051000  0.226200  0.236100  1
  C  C762  1  0.949000  0.773800  0.763900  1
  C  C763  1  0.246600  0.549000  0.207900  1
  C  C764  1  0.753400  0.451000  0.792100  1
  C  C765  1  0.826700  0.301700  0.351800  1
  C  C766  1  0.173300  0.698300  0.648200  1
  C  C767  1  0.367300  0.878000  0.375200  1
  C  C768  1  0.632700  0.122000  0.624800  1
  C  C769  1  0.398500  0.902700  0.408700  1
  C  C770  1  0.601500  0.097300  0.591300  1
  C  C771  1  0.105800  0.319800  0.168600  1
  C  C772  1  0.894200  0.680200  0.831400  1
  C  C773  1  0.467100  0.916400  0.398500  1
  C  C774  1  0.532900  0.083600  0.601500  1
  C  C775  1  0.768300  0.539100  0.230500  1
  C  C776  1  0.231700  0.460900  0.769500  1
  C  C777  1  0.040500  0.621400  0.358200  1
  C  C778  1  0.959500  0.378600  0.641800  1
  C  C779  1  0.130300  0.155300  0.415500  1
  C  C780  1  0.869700  0.844700  0.584500  1
  C  C781  1  0.225100  0.209800  0.466000  1
  C  C782  1  0.774900  0.790200  0.534000  1
  C  C783  1  0.229900  0.647500  0.370300  1
  C  C784  1  0.770100  0.352500  0.629700  1
  C  C785  1  0.875800  0.461500  0.332000  1
  C  C786  1  0.124200  0.538500  0.668000  1
  C  C787  1  0.184700  0.248400  0.440600  1
  C  C788  1  0.815300  0.751600  0.559400  1
  C  C789  1  0.139300  0.219900  0.413700  1
  C  C790  1  0.860700  0.780100  0.586300  1
  C  C791  1  0.350900  0.306200  0.875800  1
  C  C792  1  0.649100  0.693800  0.124200  1
  C  C793  1  0.461000  0.278500  0.021520  1
  C  C794  1  0.539000  0.721500  0.978480  1
  C  C795  1  0.477000  0.421400  0.106940  1
  C  C796  1  0.523000  0.578600  0.893060  1
  C  C797  1  0.127300  0.705500  0.167700  1
  C  C798  1  0.872700  0.294500  0.832300  1
  C  C799  1  0.785700  0.406500  0.066700  1
  C  C800  1  0.214300  0.593500  0.933300  1
  C  C801  1  0.254400  0.125300  0.286700  1
  C  C802  1  0.745600  0.874700  0.713300  1
  C  C803  1  0.955000  0.758500  0.265300  1
  C  C804  1  0.045000  0.241500  0.734700  1
  C  C805  1  0.407300  0.821900  0.243600  1
  C  C806  1  0.592700  0.178100  0.756400  1
  C  C807  1  0.070200  0.314100  0.029300  1
  C  C808  1  0.929800  0.685900  0.970700  1
  C  C809  1  0.005000  0.342500  0.056700  1
  C  C810  1  0.995000  0.657500  0.943300  1
  C  C811  1  0.762300  0.123700  0.018900  1
  C  C812  1  0.237700  0.876300  0.981100  1
  C  C813  1  0.776900  0.058200  0.038900  1
  C  C814  1  0.223100  0.941800  0.961100  1
  C  C815  1  0.917000  0.174300  0.015300  1
  C  C816  1  0.083000  0.825700  0.984700  1
  C  C817  1  0.916700  0.238600  0.990800  1
  C  C818  1  0.083300  0.761400  0.009200  1
  C  C819  1  0.867700  0.719400  0.138900  1
  C  C820  1  0.132300  0.280600  0.861100  1
  C  C821  1  0.941200  0.700700  0.122700  1
  C  C822  1  0.058800  0.299300  0.877300  1
  C  C823  1  0.978400  0.895900  0.089700  1
  C  C824  1  0.021600  0.104100  0.910300  1
  C  C825  1  0.951800  0.942200  0.055000  1
  C  C826  1  0.048200  0.057800  0.945000  1
  C  C827  1  0.280100  0.666300  0.090900  1
  C  C828  1  0.719900  0.333700  0.909100  1
  C  C829  1  0.246000  0.652200  0.049100  1
  C  C830  1  0.754000  0.347800  0.950900  1
  C  C831  1  0.330800  0.722000  0.492800  1
  C  C832  1  0.669200  0.278000  0.507200  1
  C  C833  1  0.394100  0.710900  0.457500  1
  C  C834  1  0.605900  0.289100  0.542500  1
  C  C835  1  0.453600  0.668400  0.290900  1
  C  C836  1  0.546400  0.331600  0.709100  1
  C  C837  1  0.500200  0.663100  0.243900  1
  C  C838  1  0.499800  0.336900  0.756100  1
  C  C839  1  0.905900  0.292900  0.180700  1
  C  C840  1  0.094100  0.707100  0.819300  1
  C  C841  1  0.904200  0.235300  0.150000  1
  C  C842  1  0.095800  0.764700  0.850000  1
  C  C843  1  0.068700  0.519400  0.124400  1
  C  C844  1  0.931300  0.480600  0.875600  1
  C  C845  1  0.070000  0.544000  0.072200  1
  C  C846  1  0.930000  0.456000  0.927800  1
  C  C847  1  0.634800  0.499500  0.017500  1
  C  C848  1  0.365200  0.500500  0.982500  1
  C  C849  1  0.667200  0.546700  0.045400  1
  C  C850  1  0.332800  0.453300  0.954600  1
  C  C851  1  0.017500  0.811500  0.460700  1
  C  C852  1  0.982500  0.188500  0.539300  1
  C  C853  1  0.986300  0.747000  0.464700  1
  C  C854  1  0.013700  0.253000  0.535300  1
  C  C855  1  0.747500  0.432600  0.456400  1
  C  C856  1  0.252500  0.567400  0.543600  1
  C  C857  1  0.811800  0.415000  0.475600  1
  C  C858  1  0.188200  0.585000  0.524400  1
  C  C859  1  0.824900  0.609500  0.395600  1
  C  C860  1  0.175100  0.390500  0.604400  1
  C  C861  1  0.493900  0.132300  0.284400  1
  C  C862  1  0.506100  0.867700  0.715600  1
  C  C863  1  0.455000  0.086300  0.317400  1
  C  C864  1  0.545000  0.913700  0.682600  1
  C  C865  1  0.365000  0.269100  0.353600  1
  C  C866  1  0.635000  0.730900  0.646400  1
  C  C867  1  0.299400  0.294000  0.340700  1
  C  C868  1  0.700600  0.706000  0.659300  1
  C  C869  1  0.322200  0.320600  0.203600  1
  C  C870  1  0.677800  0.679400  0.796400  1
  C  C871  1  0.283300  0.278100  0.176600  1
  C  C872  1  0.716700  0.721900  0.823400  1
  C  C873  1  0.439700  0.165700  0.152700  1
  C  C874  1  0.560300  0.834300  0.847300  1
  C  C875  1  0.433700  0.094700  0.161200  1
  C  C876  1  0.566300  0.905300  0.838800  1
  C  C877  1  0.941900  0.770500  0.312100  1
  C  C878  1  0.058100  0.229500  0.687900  1
  C  C879  1  0.068800  0.540000  0.109100  1
  C  C880  1  0.931200  0.460000  0.890900  1
  C  C881  1  0.005100  0.536400  0.147700  1
  C  C882  1  0.994900  0.463600  0.852300  1
  C  C883  1  0.848700  0.330600  0.266400  1
  C  C884  1  0.151300  0.669400  0.733600  1
  C  C885  1  0.819400  0.313300  0.042000  1
  C  C886  1  0.180600  0.686700  0.958000  1
  S  S887  1  0.259700  0.052030  0.253830  1
  S  S888  1  0.740300  0.947970  0.746170  1
  S  S889  1  0.695220  0.529260  0.201320  1
  S  S890  1  0.304780  0.470740  0.798680  1
  S  S891  1  0.971070  0.817210  0.311330  1
  S  S892  1  0.028930  0.182790  0.688670  1
  S  S893  1  0.772900  0.687000  0.408400  1
  S  S894  1  0.227100  0.313000  0.591600  1
  S  S895  1  0.970900  0.845900  0.281600  1
  S  S896  1  0.029100  0.154100  0.718400  1
  N  N897  1  0.052800  0.998500  0.257430  1
  N  N898  1  0.947200  0.001500  0.742570  1
  N  N899  1  0.147000  0.894900  0.213010  1
  N  N900  1  0.853000  0.105100  0.786990  1
  N  N901  1  0.182200  0.859300  0.304520  1
  N  N902  1  0.817800  0.140700  0.695480  1
  N  N903  1  0.084000  0.960300  0.351390  1
  N  N904  1  0.916000  0.039700  0.648610  1
  N  N905  1  0.534000  0.434900  0.176010  1
  N  N906  1  0.466000  0.565100  0.823990  1
  N  N907  1  0.643100  0.335500  0.177930  1
  N  N908  1  0.356900  0.664500  0.822070  1
  N  N909  1  0.629900  0.349000  0.281250  1
  N  N910  1  0.370100  0.651000  0.718750  1
  N  N911  1  0.524000  0.450800  0.281410  1
  N  N912  1  0.476000  0.549200  0.718590  1
  N  N913  1  0.116300  0.291500  0.005900  1
  N  N914  1  0.883700  0.708500  0.994100  1
  N  N915  1  0.752700  0.173700  0.003300  1
  N  N916  1  0.247300  0.826300  0.996700  1
  N  N917  1  0.916100  0.127800  0.037200  1
  N  N918  1  0.083900  0.872200  0.962800  1
  N  N919  1  0.813900  0.731000  0.154700  1
  N  N920  1  0.186100  0.269000  0.845300  1
  N  N921  1  0.999600  0.862500  0.117100  1
  N  N922  1  0.000400  0.137500  0.882900  1
  N  N923  1  0.305000  0.678700  0.122900  1
  N  N924  1  0.695000  0.321300  0.877100  1
  N  N925  1  0.283600  0.728600  0.521100  1
  N  N926  1  0.716400  0.271400  0.478900  1
  N  N927  1  0.418900  0.672500  0.327350  1
  N  N928  1  0.581100  0.327500  0.672650  1
  N  N929  1  0.903900  0.342500  0.199800  1
  N  N930  1  0.096100  0.657500  0.800200  1
  N  N931  1  0.098600  0.503100  0.155200  1
  N  N932  1  0.901400  0.496900  0.844800  1
  N  N933  1  0.605300  0.466400  0.998300  1
  N  N934  1  0.394700  0.533600  0.001700  1
  N  N935  1  0.056300  0.848800  0.457500  1
  N  N936  1  0.943700  0.151200  0.542500  1
  N  N937  1  0.711000  0.445300  0.429800  1
  N  N938  1  0.289000  0.554700  0.570200  1
  N  N939  1  0.522200  0.171300  0.262600  1
  N  N940  1  0.477800  0.828700  0.737400  1
  N  N941  1  0.416300  0.250100  0.360500  1
  N  N942  1  0.583700  0.749900  0.639500  1
  N  N943  1  0.361000  0.343600  0.222100  1
  N  N944  1  0.639000  0.656400  0.777900  1
  N  N945  1  0.450700  0.218600  0.149100  1
  N  N946  1  0.549300  0.781400  0.850900  1
  N  N947  1  0.123500  0.559700  0.103600  1
  N  N948  1  0.876500  0.440300  0.896400  1
  O  O949  1  0.152600  0.752600  0.134300  1
  O  O950  1  0.847400  0.247400  0.865700  1
  O  O951  1  0.246700  0.094130  0.940840  1
  O  O952  1  0.753300  0.905870  0.059160  1
  O  O953  1  0.369300  0.292660  0.923320  1
  O  O954  1  0.630700  0.707340  0.076680  1
  O  O955  1  0.508800  0.594080  0.125120  1
  O  O956  1  0.491200  0.405920  0.874880  1
  O  O957  1  0.182100  0.703900  0.364100  1
  O  O958  1  0.817900  0.296100  0.635900  1
  O  O959  1  0.618400  0.769450  0.264940  1
  O  O960  1  0.381600  0.230550  0.735060  1
  O  O961  1  0.781750  0.930430  0.212520  1
  O  O962  1  0.218250  0.069570  0.787480  1
  O  O963  1  0.775500  0.342700  0.072940  1
  O  O964  1  0.224500  0.657300  0.927060  1
  O  O965  1  0.927200  0.009000  0.432860  1
  O  O966  1  0.072800  0.991000  0.567140  1
  O  O967  1  0.255000  0.111000  0.595430  1
  O  O968  1  0.745000  0.889000  0.404570  1
  O  O969  1  0.460100  0.228500  0.574100  1
  O  O970  1  0.539900  0.771500  0.425900  1
  O  O971  1  0.544200  0.561800  0.380170  1
  O  O972  1  0.455800  0.438200  0.619830  1
  O  O973  1  0.797600  0.319900  0.310750  1
  O  O974  1  0.202400  0.680100  0.689250  1
  O  O975  1  0.092100  0.568500  0.350700  1
  O  O976  1  0.907900  0.431500  0.649300  1
  O  O977  1  0.930600  0.412300  0.321600  1
  O  O978  1  0.069400  0.587700  0.678400  1
  O  O979  1  0.930000  0.011320  0.175520  1
  O  O980  1  0.070000  0.988680  0.824480  1
  O  O981  1  0.248200  0.085000  0.203500  1
  O  O982  1  0.751800  0.915000  0.796500  1
  O  O983  1  0.205000  0.017000  0.273400  1
  O  O984  1  0.795000  0.983000  0.726600  1
  O  O985  1  0.324700  0.020500  0.253000  1
  O  O986  1  0.675300  0.979500  0.747000  1
  O  O987  1  0.721800  0.528000  0.148410  1
  O  O988  1  0.278200  0.472000  0.851590  1
  O  O989  1  0.671300  0.467340  0.219070  1
  O  O990  1  0.328700  0.532660  0.780930  1
  O  O991  1  0.650400  0.584200  0.217970  1
  O  O992  1  0.349600  0.415800  0.782030  1
  O  O993  1  0.030200  0.847300  0.287000  1
  O  O994  1  0.969800  0.152700  0.713000  1
  O  O995  1  0.984400  0.777100  0.351600  1
  O  O996  1  0.015600  0.222900  0.648400  1
  O  O997  1  0.911600  0.859500  0.319400  1
  O  O998  1  0.088400  0.140500  0.680600  1
  O  O999  1  0.497400  0.309700  0.241100  1
  O  O1000  1  0.502600  0.690300  0.758900  1
  O  O1001  1  0.055800  0.553600  0.469000  1
  O  O1002  1  0.944200  0.446400  0.531000  1
  O  O1003  1  0.825700  0.729600  0.407700  1
  O  O1004  1  0.174300  0.270400  0.592300  1
  O  O1005  1  0.742600  0.686100  0.365200  1
  O  O1006  1  0.257400  0.313900  0.634800  1
  O  O1007  1  0.730700  0.676600  0.452400  1
  O  O1008  1  0.269300  0.323400  0.547600  1
  O  O1009  1  0.034200  0.854100  0.297300  1
  O  O1010  1  0.965800  0.145900  0.702700  1
  O  O1011  1  0.975100  0.826900  0.231900  1
  O  O1012  1  0.024900  0.173100  0.768100  1
  O  O1013  1  0.918300  0.893900  0.299500  1
  O  O1014  1  0.081700  0.106100  0.700500  1
  O  O1015  1  0.990100  0.550100  0.491400  1
  O  O1016  1  0.009900  0.449900  0.508600  1
  F  F1017  1  0.303500  0.164300  0.270500  1
  F  F1018  1  0.696500  0.835700  0.729500  1
  F  F1019  1  0.196200  0.159300  0.286300  1
  F  F1020  1  0.803800  0.840700  0.713700  1
  F  F1021  1  0.261200  0.107000  0.335000  1
  F  F1022  1  0.738800  0.893000  0.665000  1
  F  F1023  1  0.798400  0.593800  0.215800  1
  F  F1024  1  0.201600  0.406200  0.784200  1
  F  F1025  1  0.751000  0.540500  0.278190  1
  F  F1026  1  0.249000  0.459500  0.721810  1
  F  F1027  1  0.815700  0.491000  0.218100  1
  F  F1028  1  0.184300  0.509000  0.781900  1
  F  F1029  1  0.004600  0.711300  0.258300  1
  F  F1030  1  0.995400  0.288700  0.741700  1
  F  F1031  1  0.896700  0.731300  0.280700  1
  F  F1032  1  0.103300  0.268700  0.719300  1
  F  F1033  1  0.951600  0.787100  0.222800  1
  F  F1034  1  0.048400  0.212900  0.777200  1
  F  F1035  1  0.865800  0.600700  0.428700  1
  F  F1036  1  0.134200  0.399300  0.571300  1
  F  F1037  1  0.784800  0.560000  0.398200  1
  F  F1038  1  0.215200  0.440000  0.601800  1
  F  F1039  1  0.861900  0.610700  0.351400  1
  F  F1040  1  0.138100  0.389300  0.648600  1
  F  F1041  1  0.978100  0.718600  0.291100  1
  F  F1042  1  0.021900  0.281400  0.708900  1
  F  F1043  1  0.876900  0.764900  0.309000  1
  F  F1044  1  0.123100  0.235100  0.691000  1
  F  F1045  1  0.948500  0.772300  0.359100  1
  F  F1046  1  0.051500  0.227700  0.640900  1
