# generated using pymatgen
data_Zn2H213C242S7N28O40F21
_symmetry_space_group_name_H-M   'P 1'
_cell_length_a   20.02180000
_cell_length_b   20.30170000
_cell_length_c   27.84500000
_cell_angle_alpha   89.71200000
_cell_angle_beta   80.16800000
_cell_angle_gamma   86.78800000
_symmetry_Int_Tables_number   1
_chemical_formula_structural   Zn2H213C242S7N28O40F21
_chemical_formula_sum   'Zn4 H426 C484 S14 N56 O80 F42'
_cell_volume   11134.46620194
_cell_formula_units_Z   2
loop_
 _symmetry_equiv_pos_site_id
 _symmetry_equiv_pos_as_xyz
  1  'x, y, z'
loop_
 _atom_site_type_symbol
 _atom_site_label
 _atom_site_symmetry_multiplicity
 _atom_site_fract_x
 _atom_site_fract_y
 _atom_site_fract_z
 _atom_site_occupancy
  Zn  Zn1  1  0.616850  0.426870  0.783890  1
  Zn  Zn2  1  0.383150  0.573130  0.216110  1
  Zn  Zn3  1  0.080790  0.892900  0.728070  1
  Zn  Zn4  1  0.919210  0.107100  0.271930  1
  H  H5  1  0.065600  0.472800  0.742000  1
  H  H6  1  0.934400  0.527200  0.258000  1
  H  H7  1  0.241100  0.311100  0.738500  1
  H  H8  1  0.758900  0.688900  0.261500  1
  H  H9  1  0.955200  0.008800  0.570200  1
  H  H10  1  0.044800  0.991200  0.429800  1
  H  H11  1  0.934000  0.933300  0.767800  1
  H  H12  1  0.066000  0.066700  0.232200  1
  H  H13  1  0.484000  0.455800  0.852300  1
  H  H14  1  0.516000  0.544200  0.147700  1
  H  H15  1  0.046300  0.031400  0.686600  1
  H  H16  1  0.953700  0.968600  0.313400  1
  H  H17  1  0.120000  0.751600  0.710200  1
  H  H18  1  0.880000  0.248400  0.289800  1
  H  H19  1  0.810300  0.228800  0.843600  1
  H  H20  1  0.189700  0.771200  0.156400  1
  H  H21  1  0.234300  0.510200  0.787800  1
  H  H22  1  0.765700  0.489800  0.212200  1
  H  H23  1  0.382300  0.400200  0.700900  1
  H  H24  1  0.617700  0.599800  0.299100  1
  H  H25  1  0.334600  0.342800  0.691000  1
  H  H26  1  0.665400  0.657200  0.309000  1
  H  H27  1  0.338000  0.364200  0.745700  1
  H  H28  1  0.662000  0.635800  0.254300  1
  H  H29  1  0.212300  0.774100  0.883400  1
  H  H30  1  0.787700  0.225900  0.116600  1
  H  H31  1  0.509500  0.442100  0.716500  1
  H  H32  1  0.490500  0.557900  0.283500  1
  H  H33  1  0.057500  0.333000  0.675100  1
  H  H34  1  0.942500  0.667000  0.324900  1
  H  H35  1  0.101300  0.987600  0.809600  1
  H  H36  1  0.898700  0.012400  0.190400  1
  H  H37  1  0.144200  0.668100  0.849300  1
  H  H38  1  0.855800  0.331900  0.150700  1
  H  H39  1  0.519800  0.553400  0.971200  1
  H  H40  1  0.480200  0.446600  0.028800  1
  H  H41  1  0.225400  0.864800  0.753100  1
  H  H42  1  0.774600  0.135200  0.246900  1
  H  H43  1  0.986900  0.585600  0.976500  1
  H  H44  1  0.013100  0.414400  0.023500  1
  H  H45  1  0.831200  0.278800  0.716800  1
  H  H46  1  0.168800  0.721200  0.283200  1
  H  H47  1  0.987200  0.693500  0.478200  1
  H  H48  1  0.012800  0.306500  0.521800  1
  H  H49  1  0.124000  0.452000  0.645600  1
  H  H50  1  0.876000  0.548000  0.354400  1
  H  H51  1  0.294700  0.581800  0.823500  1
  H  H52  1  0.705300  0.418200  0.176500  1
  H  H53  1  0.691400  0.891600  0.565400  1
  H  H54  1  0.308600  0.108400  0.434600  1
  H  H55  1  0.008800  0.852500  0.648100  1
  H  H56  1  0.991200  0.147500  0.351900  1
  H  H57  1  0.149900  0.769300  0.521100  1
  H  H58  1  0.850100  0.230700  0.478900  1
  H  H59  1  0.759600  0.808400  0.524700  1
  H  H60  1  0.240400  0.191600  0.475300  1
  H  H61  1  0.442800  0.632500  0.708600  1
  H  H62  1  0.557200  0.367500  0.291400  1
  H  H63  1  0.673100  0.476900  0.870400  1
  H  H64  1  0.326900  0.523100  0.129600  1
  H  H65  1  0.084000  0.853400  0.561600  1
  H  H66  1  0.916000  0.146600  0.438400  1
  H  H67  1  0.616800  0.300300  0.845500  1
  H  H68  1  0.383200  0.699700  0.154500  1
  H  H69  1  0.798200  0.698000  0.395400  1
  H  H70  1  0.201800  0.302000  0.604600  1
  H  H71  1  0.102900  0.688700  0.478200  1
  H  H72  1  0.897100  0.311300  0.521800  1
  H  H73  1  0.045600  0.823300  0.823600  1
  H  H74  1  0.954400  0.176700  0.176400  1
  H  H75  1  0.849900  0.958100  0.620300  1
  H  H76  1  0.150100  0.041900  0.379700  1
  H  H77  1  0.329700  0.503100  0.919600  1
  H  H78  1  0.670300  0.496900  0.080400  1
  H  H79  1  0.383700  0.444100  0.900000  1
  H  H80  1  0.616300  0.555900  0.100000  1
  H  H81  1  0.383700  0.512300  0.870900  1
  H  H82  1  0.616300  0.487700  0.129100  1
  H  H83  1  0.919500  0.053100  0.884300  1
  H  H84  1  0.080500  0.946900  0.115700  1
  H  H85  1  0.314300  0.687900  0.789800  1
  H  H86  1  0.685700  0.312100  0.210200  1
  H  H87  1  0.060300  0.515300  0.927900  1
  H  H88  1  0.939700  0.484700  0.072100  1
  H  H89  1  0.003900  0.286000  0.619000  1
  H  H90  1  0.996100  0.714000  0.381000  1
  H  H91  1  0.267300  0.722100  0.724000  1
  H  H92  1  0.732700  0.277900  0.276000  1
  H  H93  1  0.673100  0.659900  0.521400  1
  H  H94  1  0.326900  0.340100  0.478600  1
  H  H95  1  0.580000  0.576000  0.792900  1
  H  H96  1  0.420000  0.424000  0.207100  1
  H  H97  1  0.452500  0.618600  0.843000  1
  H  H98  1  0.547500  0.381400  0.157000  1
  H  H99  1  0.889200  0.259500  0.639300  1
  H  H100  1  0.110800  0.740500  0.360700  1
  H  H101  1  0.185300  0.902500  0.629900  1
  H  H102  1  0.814700  0.097500  0.370100  1
  H  H103  1  0.811800  0.394200  0.038100  1
  H  H104  1  0.188200  0.605800  0.961900  1
  H  H105  1  0.672000  0.480300  0.686700  1
  H  H106  1  0.328000  0.519700  0.313300  1
  H  H107  1  0.873200  0.847500  0.363000  1
  H  H108  1  0.126800  0.152500  0.637000  1
  H  H109  1  0.802600  0.813800  0.379500  1
  H  H110  1  0.197400  0.186200  0.620500  1
  H  H111  1  0.867900  0.770400  0.353600  1
  H  H112  1  0.132100  0.229600  0.646400  1
  H  H113  1  0.272200  0.720600  0.596800  1
  H  H114  1  0.727800  0.279400  0.403200  1
  H  H115  1  0.073100  0.897000  0.906400  1
  H  H116  1  0.926900  0.103000  0.093600  1
  H  H117  1  0.656400  0.416700  0.962400  1
  H  H118  1  0.343600  0.583300  0.037600  1
  H  H119  1  0.869800  0.649100  0.955800  1
  H  H120  1  0.130200  0.350900  0.044200  1
  H  H121  1  0.355800  0.533500  0.639200  1
  H  H122  1  0.644200  0.466500  0.360800  1
  H  H123  1  0.399400  0.595100  0.647000  1
  H  H124  1  0.600600  0.404900  0.353000  1
  H  H125  1  0.347200  0.567800  0.691700  1
  H  H126  1  0.652800  0.432200  0.308300  1
  H  H127  1  0.129300  0.089600  0.902200  1
  H  H128  1  0.870700  0.910400  0.097800  1
  H  H129  1  0.133600  0.080300  0.844700  1
  H  H130  1  0.866400  0.919700  0.155300  1
  H  H131  1  0.134700  0.017100  0.879200  1
  H  H132  1  0.865300  0.982900  0.120800  1
  H  H133  1  0.704000  0.596400  0.164400  1
  H  H134  1  0.296000  0.403600  0.835600  1
  H  H135  1  0.742200  0.663900  0.158100  1
  H  H136  1  0.257800  0.336100  0.841900  1
  H  H137  1  0.784900  0.595000  0.159000  1
  H  H138  1  0.215100  0.405000  0.841000  1
  H  H139  1  0.983600  0.174700  0.583200  1
  H  H140  1  0.016400  0.825300  0.416800  1
  H  H141  1  0.934000  0.115900  0.581400  1
  H  H142  1  0.066000  0.884100  0.418600  1
  H  H143  1  0.010200  0.109400  0.552100  1
  H  H144  1  0.989800  0.890600  0.447900  1
  H  H145  1  0.768200  0.398200  0.775900  1
  H  H146  1  0.231800  0.601800  0.224100  1
  H  H147  1  0.486300  0.832900  0.891900  1
  H  H148  1  0.513700  0.167100  0.108100  1
  H  H149  1  0.154100  0.173200  0.773300  1
  H  H150  1  0.845900  0.826800  0.226700  1
  H  H151  1  0.200900  0.227800  0.789000  1
  H  H152  1  0.799100  0.772200  0.211000  1
  H  H153  1  0.201900  0.212700  0.732500  1
  H  H154  1  0.798100  0.787300  0.267500  1
  H  H155  1  0.648100  0.869100  0.809600  1
  H  H156  1  0.351900  0.130900  0.190400  1
  H  H157  1  0.736600  0.966100  0.615000  1
  H  H158  1  0.263400  0.033900  0.385000  1
  H  H159  1  0.138600  0.555700  0.862200  1
  H  H160  1  0.861400  0.444300  0.137800  1
  H  H161  1  0.827400  0.505300  0.035200  1
  H  H162  1  0.172600  0.494700  0.964800  1
  H  H163  1  0.849000  0.678200  0.123700  1
  H  H164  1  0.151000  0.321800  0.876300  1
  H  H165  1  0.909800  0.929700  0.012200  1
  H  H166  1  0.090200  0.070300  0.987800  1
  H  H167  1  0.000200  0.969000  0.957600  1
  H  H168  1  0.999800  0.031000  0.042400  1
  H  H169  1  0.417000  0.652500  0.921600  1
  H  H170  1  0.583000  0.347500  0.078400  1
  H  H171  1  0.907400  0.559600  0.511300  1
  H  H172  1  0.092600  0.440400  0.488700  1
  H  H173  1  0.870000  0.950100  0.914300  1
  H  H174  1  0.130000  0.049900  0.085700  1
  H  H175  1  0.976500  0.787900  0.128700  1
  H  H176  1  0.023500  0.212100  0.871300  1
  H  H177  1  0.930200  0.727600  0.146200  1
  H  H178  1  0.069800  0.272400  0.853800  1
  H  H179  1  0.897600  0.792700  0.124500  1
  H  H180  1  0.102400  0.207300  0.875500  1
  H  H181  1  0.727100  0.349500  0.001300  1
  H  H182  1  0.272900  0.650500  0.998700  1
  H  H183  1  0.800600  0.915300  0.982600  1
  H  H184  1  0.199400  0.084700  0.017400  1
  H  H185  1  0.085100  0.595600  0.552200  1
  H  H186  1  0.914900  0.404400  0.447800  1
  H  H187  1  0.085700  0.484600  0.576000  1
  H  H188  1  0.914300  0.515400  0.424000  1
  H  H189  1  0.055600  0.410000  0.845200  1
  H  H190  1  0.944400  0.590000  0.154800  1
  H  H191  1  0.575100  0.667600  0.675400  1
  H  H192  1  0.424900  0.332400  0.324600  1
  H  H193  1  0.586200  0.483400  0.615700  1
  H  H194  1  0.413800  0.516600  0.384300  1
  H  H195  1  0.691000  0.571000  0.390000  1
  H  H196  1  0.309000  0.429000  0.610000  1
  H  H197  1  0.754300  0.614000  0.369800  1
  H  H198  1  0.245700  0.386000  0.630200  1
  H  H199  1  0.687900  0.648100  0.402400  1
  H  H200  1  0.312100  0.351900  0.597600  1
  H  H201  1  0.697800  0.116300  0.902900  1
  H  H202  1  0.302200  0.883700  0.097100  1
  H  H203  1  0.758400  0.164700  0.901600  1
  H  H204  1  0.241600  0.835300  0.098400  1
  H  H205  1  0.746600  0.130000  0.852500  1
  H  H206  1  0.253400  0.870000  0.147500  1
  H  H207  1  0.665600  0.018500  0.744600  1
  H  H208  1  0.334400  0.981500  0.255400  1
  H  H209  1  0.847200  0.084000  0.681400  1
  H  H210  1  0.152800  0.916000  0.318600  1
  H  H211  1  0.470700  0.029700  0.841500  1
  H  H212  1  0.529300  0.970300  0.158500  1
  H  H213  1  0.731800  0.066100  0.679100  1
  H  H214  1  0.268200  0.933900  0.320900  1
  H  H215  1  0.885000  0.398400  0.945000  1
  H  H216  1  0.115000  0.601600  0.055000  1
  H  H217  1  0.002200  0.420700  0.923300  1
  H  H218  1  0.997800  0.579300  0.076700  1
  H  H219  1  0.133300  0.672000  0.593700  1
  H  H220  1  0.866700  0.328000  0.406300  1
  H  H221  1  0.436600  0.759200  0.946300  1
  H  H222  1  0.563400  0.240800  0.053700  1
  H  H223  1  0.823000  0.393000  0.617800  1
  H  H224  1  0.177000  0.607000  0.382200  1
  H  H225  1  0.979600  0.479200  0.537600  1
  H  H226  1  0.020400  0.520800  0.462400  1
  H  H227  1  0.636600  0.941900  0.915600  1
  H  H228  1  0.363400  0.058100  0.084400  1
  H  H229  1  0.621500  0.742400  0.619700  1
  H  H230  1  0.378500  0.257600  0.380300  1
  H  H231  1  0.894400  0.052300  0.747200  1
  H  H232  1  0.105600  0.947700  0.252800  1
  H  H233  1  0.827400  0.359400  0.886800  1
  H  H234  1  0.172600  0.640600  0.113200  1
  H  H235  1  0.893400  0.818900  0.018500  1
  H  H236  1  0.106600  0.181100  0.981500  1
  H  H237  1  0.937600  0.400000  0.593900  1
  H  H238  1  0.062400  0.600000  0.406100  1
  H  H239  1  0.587700  0.887200  0.721600  1
  H  H240  1  0.412300  0.112800  0.278400  1
  H  H241  1  0.560000  0.660800  0.551500  1
  H  H242  1  0.440000  0.339200  0.448500  1
  H  H243  1  0.680700  0.917300  0.984100  1
  H  H244  1  0.319300  0.082700  0.015900  1
  H  H245  1  0.607900  0.752900  0.905300  1
  H  H246  1  0.392100  0.247100  0.094700  1
  H  H247  1  0.633500  0.298100  0.724200  1
  H  H248  1  0.366500  0.701900  0.275800  1
  H  H249  1  0.334400  0.944600  0.822400  1
  H  H250  1  0.665600  0.055400  0.177600  1
  H  H251  1  0.385600  0.001100  0.804700  1
  H  H252  1  0.614400  0.998900  0.195300  1
  H  H253  1  0.372200  0.979600  0.860800  1
  H  H254  1  0.627800  0.020400  0.139200  1
  H  H255  1  0.707000  0.339300  0.583400  1
  H  H256  1  0.293000  0.660700  0.416600  1
  H  H257  1  0.514300  0.568100  0.596300  1
  H  H258  1  0.485700  0.431900  0.403700  1
  H  H259  1  0.298100  0.796800  0.875500  1
  H  H260  1  0.701900  0.203200  0.124500  1
  H  H261  1  0.357000  0.837300  0.858200  1
  H  H262  1  0.643000  0.162700  0.141800  1
  H  H263  1  0.356100  0.761100  0.843900  1
  H  H264  1  0.643900  0.238900  0.156100  1
  H  H265  1  0.589600  0.643200  0.908900  1
  H  H266  1  0.410400  0.356800  0.091100  1
  H  H267  1  0.557100  0.166800  0.864600  1
  H  H268  1  0.442900  0.833200  0.135400  1
  H  H269  1  0.503200  0.113100  0.883700  1
  H  H270  1  0.496800  0.886900  0.116300  1
  H  H271  1  0.518400  0.131400  0.827000  1
  H  H272  1  0.481600  0.868600  0.173000  1
  H  H273  1  0.752200  0.730700  0.989700  1
  H  H274  1  0.247800  0.269300  0.010300  1
  H  H275  1  0.317600  0.915500  0.535100  1
  H  H276  1  0.682400  0.084500  0.464900  1
  H  H277  1  0.304400  0.923300  0.593100  1
  H  H278  1  0.695600  0.076700  0.406900  1
  H  H279  1  0.242100  0.930400  0.564000  1
  H  H280  1  0.757900  0.069600  0.436000  1
  H  H281  1  0.626400  0.853800  0.643000  1
  H  H282  1  0.373600  0.146200  0.357000  1
  H  H283  1  0.590400  0.221900  0.691600  1
  H  H284  1  0.409600  0.778100  0.308400  1
  H  H285  1  0.657600  0.174100  0.686400  1
  H  H286  1  0.342400  0.825900  0.313600  1
  H  H287  1  0.606300  0.168400  0.648500  1
  H  H288  1  0.393700  0.831600  0.351500  1
  H  H289  1  0.685600  0.798500  0.949100  1
  H  H290  1  0.314400  0.201500  0.050900  1
  H  H291  1  0.847100  0.670100  0.552900  1
  H  H292  1  0.152900  0.329900  0.447100  1
  H  H293  1  0.976000  0.386500  0.217600  1
  H  H294  1  0.024000  0.613500  0.782400  1
  H  H295  1  0.037900  0.343100  0.233200  1
  H  H296  1  0.962100  0.656900  0.766800  1
  H  H297  1  0.987200  0.310100  0.202900  1
  H  H298  1  0.012800  0.689900  0.797100  1
  H  H299  1  0.406900  0.438100  0.544300  1
  H  H300  1  0.593100  0.561900  0.455700  1
  H  H301  1  0.484800  0.438200  0.518900  1
  H  H302  1  0.515200  0.561800  0.481100  1
  H  H303  1  0.455500  0.489700  0.561600  1
  H  H304  1  0.544500  0.510300  0.438400  1
  H  H305  1  0.691000  0.096200  0.990700  1
  H  H306  1  0.309000  0.903800  0.009300  1
  H  H307  1  0.664700  0.129900  0.042800  1
  H  H308  1  0.335300  0.870100  0.957200  1
  H  H309  1  0.650800  0.054400  0.034100  1
  H  H310  1  0.349200  0.945600  0.965900  1
  H  H311  1  0.794600  0.972800  0.441900  1
  H  H312  1  0.205400  0.027200  0.558100  1
  H  H313  1  0.820400  0.915900  0.475400  1
  H  H314  1  0.179600  0.084100  0.524600  1
  H  H315  1  0.868100  0.936600  0.426200  1
  H  H316  1  0.131900  0.063400  0.573800  1
  H  H317  1  0.975100  0.176700  0.719000  1
  H  H318  1  0.024900  0.823300  0.281000  1
  H  H319  1  0.015000  0.115200  0.739600  1
  H  H320  1  0.985000  0.884800  0.260400  1
  H  H321  1  0.039500  0.188200  0.744300  1
  H  H322  1  0.960500  0.811800  0.255700  1
  H  H323  1  0.213400  0.237300  0.181900  1
  H  H324  1  0.786600  0.762700  0.818100  1
  H  H325  1  0.241900  0.208200  0.128600  1
  H  H326  1  0.758100  0.791800  0.871400  1
  H  H327  1  0.216800  0.159400  0.172500  1
  H  H328  1  0.783200  0.840600  0.827500  1
  H  H329  1  0.891300  0.208500  0.924100  1
  H  H330  1  0.108700  0.791500  0.075900  1
  H  H331  1  0.914200  0.155400  0.961600  1
  H  H332  1  0.085800  0.844600  0.038400  1
  H  H333  1  0.935000  0.230100  0.963800  1
  H  H334  1  0.065000  0.769900  0.036200  1
  H  H335  1  0.463000  0.226100  0.960300  1
  H  H336  1  0.537000  0.773900  0.039700  1
  H  H337  1  0.529700  0.210300  0.983800  1
  H  H338  1  0.470300  0.789700  0.016200  1
  H  H339  1  0.535500  0.215300  0.925900  1
  H  H340  1  0.464500  0.784700  0.074100  1
  H  H341  1  0.369300  0.130200  0.560700  1
  H  H342  1  0.630700  0.869800  0.439300  1
  H  H343  1  0.300200  0.104600  0.590500  1
  H  H344  1  0.699800  0.895400  0.409500  1
  H  H345  1  0.371100  0.083500  0.607000  1
  H  H346  1  0.628900  0.916500  0.393000  1
  H  H347  1  0.665400  0.451200  0.468600  1
  H  H348  1  0.334600  0.548800  0.531400  1
  H  H349  1  0.727000  0.437600  0.424300  1
  H  H350  1  0.273000  0.562400  0.575700  1
  H  H351  1  0.739200  0.475300  0.472200  1
  H  H352  1  0.260800  0.524700  0.527800  1
  H  H353  1  0.737100  0.809500  0.682400  1
  H  H354  1  0.262900  0.190500  0.317600  1
  H  H355  1  0.772000  0.744700  0.702600  1
  H  H356  1  0.228000  0.255300  0.297400  1
  H  H357  1  0.803700  0.774200  0.650900  1
  H  H358  1  0.196300  0.225800  0.349100  1
  H  H359  1  0.407900  0.876100  0.680700  1
  H  H360  1  0.592100  0.123900  0.319300  1
  H  H361  1  0.442000  0.831500  0.718500  1
  H  H362  1  0.558000  0.168500  0.281500  1
  H  H363  1  0.518800  0.046100  0.561100  1
  H  H364  1  0.481200  0.953900  0.438900  1
  H  H365  1  0.589200  0.003400  0.547900  1
  H  H366  1  0.410800  0.996600  0.452100  1
  H  H367  1  0.589200  0.080800  0.558500  1
  H  H368  1  0.410800  0.919200  0.441500  1
  H  H369  1  0.706700  0.185500  0.545500  1
  H  H370  1  0.293300  0.814500  0.454500  1
  H  H371  1  0.728800  0.108800  0.548700  1
  H  H372  1  0.271200  0.891200  0.451300  1
  H  H373  1  0.777600  0.156900  0.515400  1
  H  H374  1  0.222400  0.843100  0.484600  1
  H  H375  1  0.918300  0.588700  0.633300  1
  H  H376  1  0.081700  0.411300  0.366700  1
  H  H377  1  0.913200  0.587700  0.691300  1
  H  H378  1  0.086800  0.412300  0.308700  1
  H  H379  1  0.984900  0.572300  0.656800  1
  H  H380  1  0.015100  0.427700  0.343200  1
  H  H381  1  0.330700  0.837400  0.740500  1
  H  H382  1  0.669300  0.162600  0.259500  1
  H  H383  1  0.377600  0.783500  0.763300  1
  H  H384  1  0.622400  0.216500  0.236700  1
  H  H385  1  0.381300  0.860100  0.775100  1
  H  H386  1  0.618700  0.139900  0.224900  1
  H  H387  1  0.361100  0.839100  0.723600  1
  H  H388  1  0.638900  0.160900  0.276400  1
  H  H389  1  0.926000  0.473900  0.708000  1
  H  H390  1  0.074000  0.526100  0.292000  1
  H  H391  1  0.978700  0.480200  0.658300  1
  H  H392  1  0.021300  0.519800  0.341700  1
  H  H393  1  0.071600  0.412500  0.200300  1
  H  H394  1  0.928400  0.587500  0.799700  1
  H  H395  1  0.006200  0.457100  0.192000  1
  H  H396  1  0.993800  0.542900  0.808000  1
  H  H397  1  0.034300  0.397300  0.155500  1
  H  H398  1  0.965700  0.602700  0.844500  1
  H  H399  1  0.904100  0.515100  0.663500  1
  H  H400  1  0.095900  0.484900  0.336500  1
  H  H401  1  0.342800  0.841200  0.512200  1
  H  H402  1  0.657200  0.158800  0.487800  1
  H  H403  1  0.292000  0.782400  0.517400  1
  H  H404  1  0.708000  0.217600  0.482600  1
  H  H405  1  0.351700  0.782000  0.549100  1
  H  H406  1  0.648300  0.218000  0.450900  1
  H  H407  1  0.204400  0.154200  0.178200  1
  H  H408  1  0.795600  0.845800  0.821800  1
  H  H409  1  0.136900  0.164100  0.218100  1
  H  H410  1  0.863100  0.835900  0.781900  1
  H  H411  1  0.191500  0.219500  0.211200  1
  H  H412  1  0.808500  0.780500  0.788800  1
  H  H413  1  0.471500  0.199300  0.639400  1
  H  H414  1  0.528500  0.800700  0.360600  1
  H  H415  1  0.448400  0.227800  0.590800  1
  H  H416  1  0.551600  0.772200  0.409200  1
  H  H417  1  0.440500  0.151700  0.604300  1
  H  H418  1  0.559500  0.848300  0.395700  1
  H  H419  1  0.459000  0.120200  0.002800  1
  H  H420  1  0.541000  0.879800  0.997200  1
  H  H421  1  0.534000  0.145400  0.998700  1
  H  H422  1  0.466000  0.854600  0.001300  1
  H  H423  1  0.501000  0.138500  0.950700  1
  H  H424  1  0.499000  0.861500  0.049300  1
  H  H425  1  0.743500  0.249700  0.583500  1
  H  H426  1  0.256500  0.750300  0.416500  1
  H  H427  1  0.700300  0.186600  0.579600  1
  H  H428  1  0.299700  0.813400  0.420400  1
  H  H429  1  0.749700  0.188300  0.619000  1
  H  H430  1  0.250300  0.811700  0.381000  1
  C  C431  1  0.219700  0.408500  0.726090  1
  C  C432  1  0.780300  0.591500  0.273910  1
  C  C433  1  0.083900  0.376600  0.755050  1
  C  C434  1  0.916100  0.623400  0.244950  1
  C  C435  1  0.977200  0.922800  0.604260  1
  C  C436  1  0.022800  0.077200  0.395740  1
  C  C437  1  0.977700  0.333600  0.733080  1
  C  C438  1  0.022300  0.666400  0.266920  1
  C  C439  1  0.196800  0.724900  0.655740  1
  C  C440  1  0.803200  0.275100  0.344260  1
  C  C441  1  0.799200  0.629700  0.502710  1
  C  C442  1  0.200800  0.370300  0.497290  1
  C  C443  1  0.101000  0.439500  0.741240  1
  C  C444  1  0.899000  0.560500  0.258760  1
  C  C445  1  0.214600  0.569200  0.730590  1
  C  C446  1  0.785400  0.430800  0.269410  1
  C  C447  1  0.181200  0.524600  0.706740  1
  C  C448  1  0.818800  0.475400  0.293260  1
  C  C449  1  0.698900  0.504500  0.974140  1
  C  C450  1  0.301100  0.495500  0.025860  1
  C  C451  1  0.961700  0.777500  0.520260  1
  C  C452  1  0.038300  0.222500  0.479740  1
  C  C453  1  0.138500  0.328300  0.752800  1
  C  C454  1  0.861500  0.671700  0.247200  1
  C  C455  1  0.205300  0.344100  0.739040  1
  C  C456  1  0.794700  0.655900  0.260960  1
  C  C457  1  0.974900  0.990500  0.596400  1
  C  C458  1  0.025100  0.009500  0.403600  1
  C  C459  1  0.701700  0.573100  0.550940  1
  C  C460  1  0.298300  0.426900  0.449060  1
  C  C461  1  0.223600  0.634700  0.711690  1
  C  C462  1  0.776400  0.365300  0.288310  1
  C  C463  1  0.784000  0.639400  0.456070  1
  C  C464  1  0.216000  0.360600  0.543930  1
  C  C465  1  0.955000  0.957700  0.789540  1
  C  C466  1  0.045000  0.042300  0.210460  1
  C  C467  1  0.817900  0.525200  0.548180  1
  C  C468  1  0.182100  0.474800  0.451820  1
  C  C469  1  0.514900  0.472300  0.871010  1
  C  C470  1  0.485100  0.527700  0.128990  1
  C  C471  1  0.157100  0.542400  0.663530  1
  C  C472  1  0.842900  0.457600  0.336470  1
  C  C473  1  0.168000  0.456900  0.726080  1
  C  C474  1  0.832000  0.543100  0.273920  1
  C  C475  1  0.162800  0.609100  0.646160  1
  C  C476  1  0.837200  0.390900  0.353840  1
  C  C477  1  0.845200  0.738700  0.447290  1
  C  C478  1  0.154800  0.261300  0.552710  1
  C  C479  1  0.015500  0.026800  0.851400  1
  C  C480  1  0.984500  0.973200  0.148600  1
  C  C481  1  0.011600  0.359600  0.768460  1
  C  C482  1  0.988400  0.640400  0.231540  1
  C  C483  1  0.029000  0.003100  0.665160  1
  C  C484  1  0.971000  0.996900  0.334840  1
  C  C485  1  0.878000  0.880500  0.572450  1
  C  C486  1  0.122000  0.119500  0.427550  1
  C  C487  1  0.860000  0.731100  0.494050  1
  C  C488  1  0.140000  0.268900  0.505950  1
  C  C489  1  0.150500  0.768500  0.683650  1
  C  C490  1  0.849500  0.231500  0.316350  1
  C  C491  1  0.873700  0.329900  0.793900  1
  C  C492  1  0.126300  0.670100  0.206100  1
  C  C493  1  0.778700  0.261300  0.834700  1
  C  C494  1  0.221300  0.738700  0.165300  1
  C  C495  1  0.948400  0.875500  0.573310  1
  C  C496  1  0.051600  0.124500  0.426690  1
  C  C497  1  0.977200  0.371700  0.815900  1
  C  C498  1  0.022800  0.628300  0.184100  1
  C  C499  1  0.241600  0.552500  0.773760  1
  C  C500  1  0.758400  0.447500  0.226240  1
  C  C501  1  0.339100  0.380000  0.712300  1
  C  C502  1  0.660900  0.620000  0.287700  1
  C  C503  1  0.191600  0.792700  0.857800  1
  C  C504  1  0.808400  0.207300  0.142200  1
  C  C505  1  0.510800  0.486800  0.725950  1
  C  C506  1  0.489200  0.513200  0.274050  1
  C  C507  1  0.011700  0.321600  0.684270  1
  C  C508  1  0.988300  0.678400  0.315730  1
  C  C509  1  0.195800  0.654000  0.670490  1
  C  C510  1  0.804200  0.346000  0.329510  1
  C  C511  1  0.053100  0.989200  0.813810  1
  C  C512  1  0.946900  0.010800  0.186190  1
  C  C513  1  0.112800  0.652400  0.875800  1
  C  C514  1  0.887200  0.347600  0.124200  1
  C  C515  1  0.535800  0.530100  0.941550  1
  C  C516  1  0.464200  0.469900  0.058450  1
  C  C517  1  0.198300  0.846700  0.780850  1
  C  C518  1  0.801700  0.153300  0.219150  1
  C  C519  1  0.838300  0.993200  0.829300  1
  C  C520  1  0.161700  0.006800  0.170700  1
  C  C521  1  0.757400  0.601000  0.996420  1
  C  C522  1  0.242600  0.399000  0.003580  1
  C  C523  1  0.018800  0.603200  0.951100  1
  C  C524  1  0.981200  0.396800  0.048900  1
  C  C525  1  0.877300  0.289800  0.708900  1
  C  C526  1  0.122700  0.710200  0.291100  1
  C  C527  1  0.005900  0.726300  0.495300  1
  C  C528  1  0.994100  0.273700  0.504700  1
  C  C529  1  0.127200  0.496600  0.635400  1
  C  C530  1  0.872800  0.503400  0.364600  1
  C  C531  1  0.001700  0.030600  0.627110  1
  C  C532  1  0.998300  0.969400  0.372890  1
  C  C533  1  0.277000  0.594700  0.795200  1
  C  C534  1  0.723000  0.405300  0.204800  1
  C  C535  1  0.120300  0.793700  0.860040  1
  C  C536  1  0.879700  0.206300  0.139960  1
  C  C537  1  0.699100  0.980000  0.829300  1
  C  C538  1  0.300900  0.020000  0.170700  1
  C  C539  1  0.489500  0.505500  0.914120  1
  C  C540  1  0.510500  0.494500  0.085880  1
  C  C541  1  0.738200  0.887700  0.567700  1
  C  C542  1  0.261800  0.112300  0.432300  1
  C  C543  1  0.518300  0.685100  0.768100  1
  C  C544  1  0.481700  0.314900  0.231900  1
  C  C545  1  0.990200  0.825900  0.547320  1
  C  C546  1  0.009800  0.174100  0.452680  1
  C  C547  1  0.006600  0.898800  0.642820  1
  C  C548  1  0.993400  0.101200  0.357180  1
  C  C549  1  0.907600  0.355800  0.829100  1
  C  C550  1  0.092400  0.644200  0.170900  1
  C  C551  1  0.513100  0.614900  0.753110  1
  C  C552  1  0.486900  0.385100  0.246890  1
  C  C553  1  0.892500  0.782500  0.519130  1
  C  C554  1  0.107500  0.217500  0.480870  1
  C  C555  1  0.074100  0.766800  0.901360  1
  C  C556  1  0.925900  0.233200  0.098640  1
  C  C557  1  0.102400  0.771600  0.521000  1
  C  C558  1  0.897600  0.228400  0.479000  1
  C  C559  1  0.778800  0.839400  0.543060  1
  C  C560  1  0.221200  0.160600  0.456940  1
  C  C561  1  0.470700  0.599200  0.720810  1
  C  C562  1  0.529300  0.400800  0.279190  1
  C  C563  1  0.604500  0.520100  0.924970  1
  C  C564  1  0.395500  0.479900  0.075030  1
  C  C565  1  0.229900  0.819200  0.817740  1
  C  C566  1  0.770100  0.180800  0.182260  1
  C  C567  1  0.772500  0.574000  0.534000  1
  C  C568  1  0.227500  0.426000  0.466000  1
  C  C569  1  0.800800  0.315900  0.807400  1
  C  C570  1  0.199200  0.684100  0.192600  1
  C  C571  1  0.625800  0.485100  0.881470  1
  C  C572  1  0.374200  0.514900  0.118530  1
  C  C573  1  0.676500  0.519200  0.581000  1
  C  C574  1  0.323500  0.480800  0.419000  1
  C  C575  1  0.656800  0.547200  0.950500  1
  C  C576  1  0.343200  0.452800  0.049500  1
  C  C577  1  0.722000  0.469700  0.595090  1
  C  C578  1  0.278000  0.530300  0.404910  1
  C  C579  1  0.063400  0.821100  0.545400  1
  C  C580  1  0.936600  0.178900  0.454600  1
  C  C581  1  0.664200  0.304000  0.835200  1
  C  C582  1  0.335800  0.696000  0.164800  1
  C  C583  1  0.807500  0.692900  0.427550  1
  C  C584  1  0.192500  0.307100  0.572450  1
  C  C585  1  0.018900  0.673400  0.945310  1
  C  C586  1  0.981100  0.326600  0.054690  1
  C  C587  1  0.850400  0.833700  0.543880  1
  C  C588  1  0.149600  0.166300  0.456120  1
  C  C589  1  0.074500  0.723100  0.495300  1
  C  C590  1  0.925500  0.276900  0.504700  1
  C  C591  1  0.915600  0.690800  0.007800  1
  C  C592  1  0.084400  0.309200  0.992200  1
  C  C593  1  0.093400  0.822200  0.822110  1
  C  C594  1  0.906600  0.177800  0.177890  1
  C  C595  1  0.832800  0.928400  0.599700  1
  C  C596  1  0.167200  0.071600  0.400300  1
  C  C597  1  0.470000  0.534000  0.706940  1
  C  C598  1  0.530000  0.466000  0.293060  1
  C  C599  1  0.376300  0.492100  0.903300  1
  C  C600  1  0.623700  0.507900  0.096700  1
  C  C601  1  0.070400  0.698400  0.907010  1
  C  C602  1  0.929600  0.301600  0.092990  1
  C  C603  1  0.945700  0.028500  0.858000  1
  C  C604  1  0.054300  0.971500  0.142000  1
  C  C605  1  0.287900  0.658800  0.775200  1
  C  C606  1  0.712100  0.341200  0.224800  1
  C  C607  1  0.061700  0.561500  0.922200  1
  C  C608  1  0.938300  0.438500  0.077800  1
  C  C609  1  0.979900  0.294400  0.651000  1
  C  C610  1  0.020100  0.705600  0.349000  1
  C  C611  1  0.797200  0.971100  0.871600  1
  C  C612  1  0.202800  0.028900  0.128400  1
  C  C613  1  0.261200  0.678500  0.735900  1
  C  C614  1  0.738800  0.321500  0.264100  1
  C  C615  1  0.656000  0.624100  0.540900  1
  C  C616  1  0.344000  0.375900  0.459100  1
  C  C617  1  0.551700  0.565100  0.770290  1
  C  C618  1  0.448300  0.434900  0.229710  1
  C  C619  1  0.749900  0.532100  0.997220  1
  C  C620  1  0.250100  0.467900  0.002780  1
  C  C621  1  0.977800  0.786300  0.967710  1
  C  C622  1  0.022200  0.213700  0.032290  1
  C  C623  1  0.971900  0.716900  0.973180  1
  C  C624  1  0.028100  0.283100  0.026820  1
  C  C625  1  0.460500  0.662000  0.852200  1
  C  C626  1  0.539500  0.338000  0.147800  1
  C  C627  1  0.911300  0.278300  0.663200  1
  C  C628  1  0.088700  0.721700  0.336800  1
  C  C629  1  0.913500  0.994000  0.825900  1
  C  C630  1  0.086500  0.006000  0.174100  1
  C  C631  1  0.503700  0.771500  0.832100  1
  C  C632  1  0.496300  0.228500  0.167900  1
  C  C633  1  0.811100  0.630800  0.019800  1
  C  C634  1  0.188900  0.369200  0.980200  1
  C  C635  1  0.188400  0.856700  0.636880  1
  C  C636  1  0.811600  0.143300  0.363120  1
  C  C637  1  0.783400  0.422600  0.022000  1
  C  C638  1  0.216600  0.577400  0.978000  1
  C  C639  1  0.671900  0.435300  0.677600  1
  C  C640  1  0.328100  0.564700  0.322400  1
  C  C641  1  0.852100  0.807300  0.376030  1
  C  C642  1  0.147900  0.192700  0.623970  1
  C  C643  1  0.240000  0.749200  0.616800  1
  C  C644  1  0.760000  0.250800  0.383200  1
  C  C645  1  0.792300  0.472400  0.579750  1
  C  C646  1  0.207700  0.527600  0.420250  1
  C  C647  1  0.037600  0.880100  0.929500  1
  C  C648  1  0.962400  0.119900  0.070500  1
  C  C649  1  0.690800  0.435300  0.976770  1
  C  C650  1  0.309200  0.564700  0.023230  1
  C  C651  1  0.865400  0.655700  0.990000  1
  C  C652  1  0.134600  0.344300  0.010000  1
  C  C653  1  0.810100  0.013900  0.788700  1
  C  C654  1  0.189900  0.986100  0.211300  1
  C  C655  1  0.379500  0.555400  0.662200  1
  C  C656  1  0.620500  0.444600  0.337800  1
  C  C657  1  0.494600  0.705100  0.816600  1
  C  C658  1  0.505400  0.294900  0.183400  1
  C  C659  1  0.739200  0.005700  0.788700  1
  C  C660  1  0.260800  0.994300  0.211300  1
  C  C661  1  0.116000  0.062400  0.876900  1
  C  C662  1  0.884000  0.937600  0.123100  1
  C  C663  1  0.709100  0.255100  0.848600  1
  C  C664  1  0.290900  0.744900  0.151400  1
  C  C665  1  0.030500  0.810800  0.932590  1
  C  C666  1  0.969500  0.189200  0.067410  1
  C  C667  1  0.745000  0.617200  0.148670  1
  C  C668  1  0.255000  0.382800  0.851330  1
  C  C669  1  0.981000  0.126700  0.581800  1
  C  C670  1  0.019000  0.873300  0.418200  1
  C  C671  1  0.753000  0.361300  0.795000  1
  C  C672  1  0.247000  0.638700  0.205000  1
  C  C673  1  0.480500  0.789500  0.881300  1
  C  C674  1  0.519500  0.210500  0.118700  1
  C  C675  1  0.805400  0.638700  0.069700  1
  C  C676  1  0.194600  0.361300  0.930300  1
  C  C677  1  0.173400  0.215900  0.764800  1
  C  C678  1  0.826600  0.784100  0.235200  1
  C  C679  1  0.612200  0.902100  0.816000  1
  C  C680  1  0.387800  0.097900  0.184000  1
  C  C681  1  0.765500  0.932800  0.597100  1
  C  C682  1  0.234500  0.067200  0.402900  1
  C  C683  1  0.109300  0.585700  0.883100  1
  C  C684  1  0.890700  0.414300  0.116900  1
  C  C685  1  0.792400  0.488300  0.020520  1
  C  C686  1  0.207600  0.511700  0.979480  1
  C  C687  1  0.853300  0.673000  0.089500  1
  C  C688  1  0.146700  0.327000  0.910500  1
  C  C689  1  0.940300  0.899400  0.992300  1
  C  C690  1  0.059700  0.100600  0.007700  1
  C  C691  1  0.664700  0.615200  0.949100  1
  C  C692  1  0.335300  0.384800  0.050900  1
  C  C693  1  0.906700  0.699300  0.058600  1
  C  C694  1  0.093300  0.300700  0.941400  1
  C  C695  1  0.235800  0.816100  0.607400  1
  C  C696  1  0.764200  0.183900  0.392600  1
  C  C697  1  0.715300  0.642600  0.973500  1
  C  C698  1  0.284700  0.357400  0.026500  1
  C  C699  1  0.993800  0.923000  0.959400  1
  C  C700  1  0.006200  0.077000  0.040600  1
  C  C701  1  0.439600  0.682000  0.898500  1
  C  C702  1  0.560400  0.318000  0.101500  1
  C  C703  1  0.889200  0.526100  0.532840  1
  C  C704  1  0.110800  0.473900  0.467160  1
  C  C705  1  0.822600  0.949800  0.914300  1
  C  C706  1  0.177400  0.050200  0.085700  1
  C  C707  1  0.534900  0.816000  0.797800  1
  C  C708  1  0.465100  0.184000  0.202200  1
  C  C709  1  0.938400  0.763000  0.122200  1
  C  C710  1  0.061600  0.237000  0.877800  1
  C  C711  1  0.732500  0.395800  0.000000  1
  C  C712  1  0.267500  0.604200  0.000000  1
  C  C713  1  0.695100  0.417600  0.629700  1
  C  C714  1  0.304900  0.582400  0.370300  1
  C  C715  1  0.782000  0.929300  0.954800  1
  C  C716  1  0.218000  0.070700  0.045200  1
  C  C717  1  0.104500  0.582400  0.579800  1
  C  C718  1  0.895500  0.417600  0.420200  1
  C  C719  1  0.556200  0.796900  0.749500  1
  C  C720  1  0.443800  0.203100  0.250500  1
  C  C721  1  0.726200  0.965500  0.871300  1
  C  C722  1  0.273800  0.034500  0.128700  1
  C  C723  1  0.103400  0.516100  0.594800  1
  C  C724  1  0.896600  0.483900  0.405200  1
  C  C725  1  0.009900  0.397900  0.853500  1
  C  C726  1  0.990100  0.602100  0.146500  1
  C  C727  1  0.576800  0.712100  0.685300  1
  C  C728  1  0.423200  0.287900  0.314700  1
  C  C729  1  0.604600  0.519300  0.596900  1
  C  C730  1  0.395400  0.480700  0.403100  1
  C  C731  1  0.717500  0.607800  0.397200  1
  C  C732  1  0.282500  0.392200  0.602800  1
  C  C733  1  0.545900  0.884700  0.813000  1
  C  C734  1  0.454100  0.115300  0.187000  1
  C  C735  1  0.724100  0.149500  0.883700  1
  C  C736  1  0.275900  0.850500  0.116300  1
  C  C737  1  0.711800  0.025300  0.745800  1
  C  C738  1  0.288200  0.974700  0.254200  1
  C  C739  1  0.820300  0.063700  0.708300  1
  C  C740  1  0.179700  0.936300  0.291700  1
  C  C741  1  0.507000  0.997000  0.834900  1
  C  C742  1  0.493000  0.003000  0.165100  1
  C  C743  1  0.750900  0.053400  0.706900  1
  C  C744  1  0.249100  0.946600  0.293100  1
  C  C745  1  0.907800  0.391400  0.912500  1
  C  C746  1  0.092200  0.608600  0.087500  1
  C  C747  1  0.978200  0.405700  0.899200  1
  C  C748  1  0.021800  0.594300  0.100800  1
  C  C749  1  0.133000  0.627500  0.604300  1
  C  C750  1  0.867000  0.372500  0.395700  1
  C  C751  1  0.494400  0.933700  0.823200  1
  C  C752  1  0.505600  0.066300  0.176800  1
  C  C753  1  0.450700  0.746300  0.913200  1
  C  C754  1  0.549300  0.253700  0.086800  1
  C  C755  1  0.839300  0.427000  0.596100  1
  C  C756  1  0.160700  0.573000  0.403900  1
  C  C757  1  0.932100  0.478900  0.549000  1
  C  C758  1  0.067900  0.521100  0.451000  1
  C  C759  1  0.684000  0.944600  0.915000  1
  C  C760  1  0.316000  0.055400  0.085000  1
  C  C761  1  0.604400  0.756000  0.652300  1
  C  C762  1  0.395600  0.244000  0.347700  1
  C  C763  1  0.848000  0.044900  0.747200  1
  C  C764  1  0.152000  0.955100  0.252800  1
  C  C765  1  0.550300  0.729800  0.734000  1
  C  C766  1  0.449700  0.270200  0.266000  1
  C  C767  1  0.874100  0.367900  0.878000  1
  C  C768  1  0.125900  0.632100  0.122000  1
  C  C769  1  0.931000  0.833800  0.996500  1
  C  C770  1  0.069000  0.166200  0.003500  1
  C  C771  1  0.907100  0.430600  0.581600  1
  C  C772  1  0.092900  0.569400  0.418400  1
  C  C773  1  0.584800  0.842400  0.712900  1
  C  C774  1  0.415200  0.157600  0.287100  1
  C  C775  1  0.574000  0.013000  0.837000  1
  C  C776  1  0.426000  0.987000  0.163000  1
  C  C777  1  0.627500  0.964500  0.827700  1
  C  C778  1  0.372500  0.035500  0.172300  1
  C  C779  1  0.589100  0.624400  0.557900  1
  C  C780  1  0.410900  0.375600  0.442100  1
  C  C781  1  0.710100  0.928900  0.955200  1
  C  C782  1  0.289900  0.071100  0.044800  1
  C  C783  1  0.633500  0.724600  0.923500  1
  C  C784  1  0.366500  0.275400  0.076500  1
  C  C785  1  0.648100  0.329200  0.699500  1
  C  C786  1  0.351900  0.670800  0.300500  1
  C  C787  1  0.376600  0.964000  0.827100  1
  C  C788  1  0.623400  0.036000  0.172900  1
  C  C789  1  0.692200  0.352800  0.616300  1
  C  C790  1  0.307800  0.647200  0.383700  1
  C  C791  1  0.561900  0.569500  0.585700  1
  C  C792  1  0.438100  0.430500  0.414300  1
  C  C793  1  0.667400  0.307300  0.651400  1
  C  C794  1  0.332600  0.692700  0.348600  1
  C  C795  1  0.328300  0.802300  0.851100  1
  C  C796  1  0.671700  0.197700  0.148900  1
  C  C797  1  0.623800  0.659800  0.924500  1
  C  C798  1  0.376200  0.340200  0.075500  1
  C  C799  1  0.538300  0.125400  0.856600  1
  C  C800  1  0.461700  0.874600  0.143400  1
  C  C801  1  0.720400  0.711900  0.972800  1
  C  C802  1  0.279600  0.288100  0.027200  1
  C  C803  1  0.286000  0.907300  0.565200  1
  C  C804  1  0.714000  0.092700  0.434800  1
  C  C805  1  0.607800  0.822700  0.666400  1
  C  C806  1  0.392200  0.177300  0.333600  1
  C  C807  1  0.626400  0.198900  0.668400  1
  C  C808  1  0.373600  0.801100  0.331600  1
  C  C809  1  0.681200  0.752100  0.948900  1
  C  C810  1  0.318800  0.247900  0.051100  1
  C  C811  1  0.908700  0.317900  0.745940  1
  C  C812  1  0.091300  0.682100  0.254060  1
  C  C813  1  0.836800  0.676000  0.521070  1
  C  C814  1  0.163200  0.324000  0.478930  1
  C  C815  1  0.465600  0.266600  0.761000  1
  C  C816  1  0.534400  0.733400  0.239000  1
  C  C817  1  0.747800  0.611300  0.797100  1
  C  C818  1  0.252200  0.388700  0.202900  1
  C  C819  1  0.263000  0.030600  0.730100  1
  C  C820  1  0.737000  0.969400  0.269900  1
  C  C821  1  0.323200  0.165100  0.866600  1
  C  C822  1  0.676800  0.834900  0.133400  1
  C  C823  1  0.055200  0.368300  0.160300  1
  C  C824  1  0.944800  0.631700  0.839700  1
  C  C825  1  0.010000  0.350400  0.207700  1
  C  C826  1  0.990000  0.649600  0.792300  1
  C  C827  1  0.471600  0.397000  0.586100  1
  C  C828  1  0.528400  0.603000  0.413900  1
  C  C829  1  0.453200  0.444800  0.549700  1
  C  C830  1  0.546800  0.555200  0.450300  1
  C  C831  1  0.747500  0.068200  0.041500  1
  C  C832  1  0.252500  0.931800  0.958500  1
  C  C833  1  0.683200  0.088900  0.026000  1
  C  C834  1  0.316800  0.911100  0.974000  1
  C  C835  1  0.863300  0.001600  0.480600  1
  C  C836  1  0.136700  0.998400  0.519400  1
  C  C837  1  0.834200  0.952800  0.453900  1
  C  C838  1  0.165800  0.047200  0.546100  1
  C  C839  1  0.955900  0.169500  0.791600  1
  C  C840  1  0.044100  0.830500  0.208400  1
  C  C841  1  0.999900  0.161800  0.744900  1
  C  C842  1  0.000100  0.838200  0.255100  1
  C  C843  1  0.137500  0.208400  0.146300  1
  C  C844  1  0.862500  0.791600  0.853700  1
  C  C845  1  0.208700  0.202800  0.158400  1
  C  C846  1  0.791300  0.797200  0.841600  1
  C  C847  1  0.837000  0.217800  0.991700  1
  C  C848  1  0.163000  0.782200  0.008300  1
  C  C849  1  0.899500  0.201600  0.957500  1
  C  C850  1  0.100500  0.798400  0.042500  1
  C  C851  1  0.521600  0.303900  0.959900  1
  C  C852  1  0.478400  0.696100  0.040100  1
  C  C853  1  0.511600  0.233000  0.957300  1
  C  C854  1  0.488400  0.767000  0.042700  1
  C  C855  1  0.338300  0.177200  0.624700  1
  C  C856  1  0.661700  0.822800  0.375300  1
  C  C857  1  0.345300  0.119100  0.593100  1
  C  C858  1  0.654700  0.880900  0.406900  1
  C  C859  1  0.731400  0.377300  0.481500  1
  C  C860  1  0.268600  0.622700  0.518500  1
  C  C861  1  0.714300  0.440600  0.459800  1
  C  C862  1  0.285700  0.559400  0.540200  1
  C  C863  1  0.823000  0.826600  0.707900  1
  C  C864  1  0.177000  0.173400  0.292100  1
  C  C865  1  0.780400  0.785300  0.683900  1
  C  C866  1  0.219600  0.214700  0.316100  1
  C  C867  1  0.405400  0.778900  0.669000  1
  C  C868  1  0.594600  0.221100  0.331000  1
  C  C869  1  0.404000  0.836100  0.700500  1
  C  C870  1  0.596000  0.163900  0.299500  1
  C  C871  1  0.564200  0.026300  0.621500  1
  C  C872  1  0.435800  0.973700  0.378500  1
  C  C873  1  0.565500  0.040400  0.567400  1
  C  C874  1  0.434500  0.959600  0.432600  1
  C  C875  1  0.778400  0.167200  0.587000  1
  C  C876  1  0.221600  0.832800  0.413000  1
  C  C877  1  0.745200  0.153500  0.545800  1
  C  C878  1  0.254800  0.846500  0.454200  1
  C  C879  1  0.954900  0.669300  0.659900  1
  C  C880  1  0.045100  0.330700  0.340100  1
  C  C881  1  0.941700  0.598600  0.660400  1
  C  C882  1  0.058300  0.401400  0.339600  1
  C  C883  1  0.351200  0.825700  0.769100  1
  C  C884  1  0.648800  0.174300  0.230900  1
  C  C885  1  0.982400  0.366400  0.221300  1
  C  C886  1  0.017600  0.633600  0.778700  1
  C  C887  1  0.964800  0.559200  0.698300  1
  C  C888  1  0.035200  0.440800  0.301700  1
  C  C889  1  0.027600  0.412300  0.189500  1
  C  C890  1  0.972400  0.587700  0.810500  1
  C  C891  1  0.941700  0.503100  0.680700  1
  C  C892  1  0.058300  0.496900  0.319300  1
  C  C893  1  0.441500  0.286600  0.823000  1
  C  C894  1  0.558500  0.713400  0.177000  1
  C  C895  1  0.751700  0.593600  0.722500  1
  C  C896  1  0.248300  0.406400  0.277500  1
  C  C897  1  0.328400  0.105400  0.892100  1
  C  C898  1  0.671600  0.894600  0.107900  1
  C  C899  1  0.134000  0.220000  0.157000  1
  C  C900  1  0.866000  0.780000  0.843000  1
  C  C901  1  0.370000  0.212500  0.644800  1
  C  C902  1  0.630000  0.787500  0.355200  1
  C  C903  1  0.463000  0.219100  0.991700  1
  C  C904  1  0.537000  0.780900  0.008300  1
  C  C905  1  0.318700  0.810000  0.534900  1
  C  C906  1  0.681300  0.190000  0.465100  1
  C  C907  1  0.170000  0.187000  0.194000  1
  C  C908  1  0.830000  0.813000  0.806000  1
  C  C909  1  0.438300  0.196500  0.617600  1
  C  C910  1  0.561700  0.803500  0.382400  1
  C  C911  1  0.492000  0.149900  0.985500  1
  C  C912  1  0.508000  0.850100  0.014500  1
  C  C913  1  0.718800  0.214900  0.601900  1
  C  C914  1  0.281200  0.785100  0.398100  1
  S  S915  1  0.477020  0.323780  0.808550  1
  S  S916  1  0.522980  0.676220  0.191450  1
  S  S917  1  0.749870  0.542720  0.755120  1
  S  S918  1  0.250130  0.457280  0.244880  1
  S  S919  1  0.189710  0.024750  0.700740  1
  S  S920  1  0.810290  0.975250  0.299260  1
  S  S921  1  0.285200  0.110900  0.915600  1
  S  S922  1  0.714800  0.889100  0.084400  1
  S  S923  1  0.473500  0.351900  0.781700  1
  S  S924  1  0.526500  0.648100  0.218300  1
  S  S925  1  0.741800  0.542100  0.776700  1
  S  S926  1  0.258200  0.457900  0.223300  1
  S  S927  1  0.279000  0.183300  0.906900  1
  S  S928  1  0.721000  0.816700  0.093100  1
  N  N929  1  0.551400  0.501300  0.756750  1
  N  N930  1  0.448600  0.498700  0.243250  1
  N  N931  1  0.649400  0.392000  0.711770  1
  N  N932  1  0.350600  0.608000  0.288230  1
  N  N933  1  0.685500  0.355900  0.808580  1
  N  N934  1  0.314500  0.644100  0.191420  1
  N  N935  1  0.582000  0.462800  0.854830  1
  N  N936  1  0.418000  0.537200  0.145170  1
  N  N937  1  0.022900  0.954800  0.783110  1
  N  N938  1  0.977100  0.045200  0.216890  1
  N  N939  1  0.032200  0.938070  0.673070  1
  N  N940  1  0.967800  0.061930  0.326930  1
  N  N941  1  0.146800  0.833400  0.674880  1
  N  N942  1  0.853200  0.166600  0.325120  1
  N  N943  1  0.131200  0.848300  0.783240  1
  N  N944  1  0.868800  0.151700  0.216760  1
  N  N945  1  0.091500  0.411100  0.143000  1
  N  N946  1  0.908500  0.588900  0.857000  1
  N  N947  1  0.494300  0.357500  0.612500  1
  N  N948  1  0.505700  0.642500  0.387500  1
  N  N949  1  0.784200  0.053300  0.070400  1
  N  N950  1  0.215800  0.946700  0.929600  1
  N  N951  1  0.892800  0.035500  0.501900  1
  N  N952  1  0.107200  0.964500  0.498100  1
  N  N953  1  0.922000  0.174700  0.828700  1
  N  N954  1  0.078000  0.825300  0.171300  1
  N  N955  1  0.080000  0.193200  0.162300  1
  N  N956  1  0.920000  0.806800  0.837700  1
  N  N957  1  0.788000  0.228500  0.019300  1
  N  N958  1  0.212000  0.771500  0.980700  1
  N  N959  1  0.543600  0.353300  0.962600  1
  N  N960  1  0.456400  0.646700  0.037400  1
  N  N961  1  0.323900  0.223500  0.650400  1
  N  N962  1  0.676100  0.776500  0.349600  1
  N  N963  1  0.746900  0.328100  0.497900  1
  N  N964  1  0.253100  0.671900  0.502100  1
  N  N965  1  0.873400  0.839700  0.721700  1
  N  N966  1  0.126600  0.160300  0.278300  1
  N  N967  1  0.405500  0.731900  0.644900  1
  N  N968  1  0.594500  0.268100  0.355100  1
  N  N969  1  0.601500  0.008800  0.651500  1
  N  N970  1  0.398500  0.991200  0.348500  1
  N  N971  1  0.802700  0.178500  0.620600  1
  N  N972  1  0.197300  0.821500  0.379400  1
  N  N973  1  0.974700  0.720600  0.672900  1
  N  N974  1  0.025300  0.279400  0.327100  1
  N  N975  1  0.972000  0.308000  0.232400  1
  N  N976  1  0.028000  0.692000  0.767600  1
  N  N977  1  0.994000  0.598100  0.711000  1
  N  N978  1  0.006000  0.401900  0.289000  1
  N  N979  1  0.093000  0.257000  0.144000  1
  N  N980  1  0.907000  0.743000  0.856000  1
  N  N981  1  0.312600  0.228000  0.659200  1
  N  N982  1  0.687400  0.772000  0.340800  1
  N  N983  1  0.453000  0.271900  0.973400  1
  N  N984  1  0.547000  0.728100  0.026600  1
  O  O985  1  0.870370  0.792940  0.422710  1
  O  O986  1  0.129630  0.207060  0.577290  1
  O  O987  1  0.745350  0.593380  0.440150  1
  O  O988  1  0.254650  0.406620  0.559850  1
  O  O989  1  0.750890  0.612000  0.097690  1
  O  O990  1  0.249110  0.388000  0.902310  1
  O  O991  1  0.662300  0.245100  0.638100  1
  O  O992  1  0.337700  0.754900  0.361900  1
  O  O993  1  0.003300  0.097540  0.623530  1
  O  O994  1  0.996700  0.902460  0.376470  1
  O  O995  1  0.679360  0.204560  0.874710  1
  O  O996  1  0.320640  0.795440  0.125290  1
  O  O997  1  0.119600  0.265230  0.764130  1
  O  O998  1  0.880400  0.734770  0.235870  1
  O  O999  1  0.284230  0.427860  0.711220  1
  O  O1000  1  0.715770  0.572140  0.288780  1
  O  O1001  1  0.278000  0.842700  0.569800  1
  O  O1002  1  0.722000  0.157300  0.430200  1
  O  O1003  1  0.423370  0.517030  0.931750  1
  O  O1004  1  0.576630  0.482970  0.068250  1
  O  O1005  1  0.954400  0.735200  0.074400  1
  O  O1006  1  0.045600  0.264800  0.925600  1
  O  O1007  1  0.298120  0.820000  0.811400  1
  O  O1008  1  0.701880  0.180000  0.188600  1
  O  O1009  1  0.431830  0.511600  0.674520  1
  O  O1010  1  0.568170  0.488400  0.325480  1
  O  O1011  1  0.431600  0.915200  0.817400  1
  O  O1012  1  0.568400  0.084800  0.182600  1
  O  O1013  1  0.591900  0.073900  0.848600  1
  O  O1014  1  0.408100  0.926100  0.151400  1
  O  O1015  1  0.043110  0.062720  0.883330  1
  O  O1016  1  0.956890  0.937280  0.116670  1
  O  O1017  1  0.006230  0.819680  0.739160  1
  O  O1018  1  0.993770  0.180320  0.260840  1
  O  O1019  1  0.540300  0.352000  0.789100  1
  O  O1020  1  0.459700  0.648000  0.210900  1
  O  O1021  1  0.480800  0.280200  0.849530  1
  O  O1022  1  0.519200  0.719800  0.150470  1
  O  O1023  1  0.419200  0.368500  0.812800  1
  O  O1024  1  0.580800  0.631500  0.187200  1
  O  O1025  1  0.695600  0.503800  0.777700  1
  O  O1026  1  0.304400  0.496200  0.222300  1
  O  O1027  1  0.816100  0.513100  0.751200  1
  O  O1028  1  0.183900  0.486900  0.248800  1
  O  O1029  1  0.735000  0.577000  0.711800  1
  O  O1030  1  0.265000  0.423000  0.288200  1
  O  O1031  1  0.147440  0.081460  0.716980  1
  O  O1032  1  0.852560  0.918540  0.283020  1
  O  O1033  1  0.163110  0.962570  0.718240  1
  O  O1034  1  0.836890  0.037430  0.281760  1
  O  O1035  1  0.217900  0.023700  0.649150  1
  O  O1036  1  0.782100  0.976300  0.350850  1
  O  O1037  1  0.339400  0.096000  0.941100  1
  O  O1038  1  0.660600  0.904000  0.058900  1
  O  O1039  1  0.229900  0.153800  0.939100  1
  O  O1040  1  0.770100  0.846200  0.060900  1
  O  O1041  1  0.264300  0.057600  0.888700  1
  O  O1042  1  0.735700  0.942400  0.111300  1
  O  O1043  1  0.397200  0.203200  0.488500  1
  O  O1044  1  0.602800  0.796800  0.511500  1
  O  O1045  1  0.489300  0.051500  0.989900  1
  O  O1046  1  0.510700  0.948500  0.010100  1
  O  O1047  1  0.538200  0.362400  0.795300  1
  O  O1048  1  0.461800  0.637600  0.204700  1
  O  O1049  1  0.691800  0.497800  0.767900  1
  O  O1050  1  0.308200  0.502200  0.232100  1
  O  O1051  1  0.330300  0.229300  0.907200  1
  O  O1052  1  0.669700  0.770700  0.092800  1
  O  O1053  1  0.476000  0.324200  0.734500  1
  O  O1054  1  0.524000  0.675800  0.265500  1
  O  O1055  1  0.808500  0.512800  0.776100  1
  O  O1056  1  0.191500  0.487200  0.223900  1
  O  O1057  1  0.242000  0.189800  0.866800  1
  O  O1058  1  0.758000  0.810200  0.133200  1
  O  O1059  1  0.422900  0.404900  0.795200  1
  O  O1060  1  0.577100  0.595100  0.204800  1
  O  O1061  1  0.718600  0.589300  0.815100  1
  O  O1062  1  0.281400  0.410700  0.184900  1
  O  O1063  1  0.238500  0.170400  0.952700  1
  O  O1064  1  0.761500  0.829600  0.047300  1
  F  F1065  1  0.467600  0.296900  0.718770  1
  F  F1066  1  0.532400  0.703100  0.281230  1
  F  F1067  1  0.406600  0.239000  0.772900  1
  F  F1068  1  0.593400  0.761000  0.227100  1
  F  F1069  1  0.515300  0.219300  0.756100  1
  F  F1070  1  0.484700  0.780700  0.243900  1
  F  F1071  1  0.687700  0.644500  0.802000  1
  F  F1072  1  0.312300  0.355500  0.198000  1
  F  F1073  1  0.756300  0.589800  0.840500  1
  F  F1074  1  0.243700  0.410200  0.159500  1
  F  F1075  1  0.795400  0.652200  0.780500  1
  F  F1076  1  0.204600  0.347800  0.219500  1
  F  F1077  1  0.244200  0.031200  0.778260  1
  F  F1078  1  0.755800  0.968800  0.221740  1
  F  F1079  1  0.307760  0.980000  0.717790  1
  F  F1080  1  0.692240  0.020000  0.282210  1
  F  F1081  1  0.294700  0.085600  0.716980  1
  F  F1082  1  0.705300  0.914400  0.283020  1
  F  F1083  1  0.372400  0.133200  0.837500  1
  F  F1084  1  0.627600  0.866800  0.162500  1
  F  F1085  1  0.346500  0.216000  0.886800  1
  F  F1086  1  0.653500  0.784000  0.113200  1
  F  F1087  1  0.275200  0.186700  0.842000  1
  F  F1088  1  0.724800  0.813300  0.158000  1
  F  F1089  1  0.429200  0.309800  0.868300  1
  F  F1090  1  0.570800  0.690200  0.131700  1
  F  F1091  1  0.693100  0.624500  0.718300  1
  F  F1092  1  0.306900  0.375500  0.281700  1
  F  F1093  1  0.363800  0.108000  0.847700  1
  F  F1094  1  0.636200  0.892000  0.152300  1
  F  F1095  1  0.384600  0.266300  0.811500  1
  F  F1096  1  0.615400  0.733700  0.188500  1
  F  F1097  1  0.772700  0.556300  0.683400  1
  F  F1098  1  0.227300  0.443700  0.316600  1
  F  F1099  1  0.369800  0.094400  0.923700  1
  F  F1100  1  0.630200  0.905600  0.076300  1
  F  F1101  1  0.487000  0.236600  0.820200  1
  F  F1102  1  0.513000  0.763400  0.179800  1
  F  F1103  1  0.796700  0.638100  0.725500  1
  F  F1104  1  0.203300  0.361900  0.274500  1
  F  F1105  1  0.286400  0.056600  0.894600  1
  F  F1106  1  0.713600  0.943400  0.105400  1
