
#######################################################################
#
#                 Cambridge Crystallographic Data Centre
#                                CCDC 
#
#######################################################################
#
# If this CIF has been generated from an entry in the Cambridge 
# Structural Database, then it will include bibliographic, chemical, 
# crystal, experimental, refinement or atomic coordinate data resulting 
# from the CCDC's data processing and validation procedures.
#
#######################################################################

data_GEBHIG
_chemical_formula_moiety         
'C195 H146 Cu2 F9 N8 O26 S3 1+,C1 F3 O3 S1 1-,11(C2 H3 N1),2(H2 O1)'
_chemical_name_systematic        
'tetrakis(\m~2~-4,6-dimethoxy-1,3-bis(9-(5-methoxypyridin-3-yl)anthracen-10-yl)benzene)-aqua-tris(trifluoromethanesulfonato)-di-copper(ii) trifluoromethanesulfone acetonitrile solvate dihydrate'
_symmetry_cell_setting           triclinic
_symmetry_space_group_name_H-M   'P -1'
_symmetry_Int_Tables_number      2
_space_group_name_Hall           '-P 1'
loop_
_symmetry_equiv_pos_site_id
_symmetry_equiv_pos_as_xyz
1 x,y,z
2 -x,-y,-z
_cell_length_a                   19.976(4)
_cell_length_b                   20.397(3)
_cell_length_c                   27.579(5)
_cell_angle_alpha                89.695(2)
_cell_angle_beta                 80.777(2)
_cell_angle_gamma                86.076(2)
_cell_volume                     11065.6
_exptl_crystal_colour            yellow
_exptl_crystal_description       plate
_cell_formula_units_Z            2
loop_
_atom_site_label
_atom_site_type_symbol
_atom_site_fract_x
_atom_site_fract_y
_atom_site_fract_z
C1 C 0.5821(3) -0.1195(3) 0.25592(18)
C2 C 0.3356(3) 0.1781(3) 0.02270(19)
H1 H 0.3451 0.1730 0.0552
C3 C 0.7180(3) -0.0888(3) 0.22735(18)
C4 C 0.5050(3) 0.5276(3) 0.12914(19)
C5 C 0.7214(3) 0.1367(3) 0.21304(19)
C6 C 0.5989(3) -0.0563(3) 0.24245(19)
H2 H 0.5632 -0.0229 0.2432
C7 C 0.6973(3) 0.3482(3) 0.27935(19)
H3 H 0.7240 0.3678 0.2522
C8 C 0.2019(3) 0.0760(3) 0.05298(19)
C9 C 0.3590(3) 0.2316(3) -0.00394(19)
C10 C 0.6780(3) 0.0274(2) 0.20806(19)
C11 C 0.7131(3) 0.0715(3) 0.23191(19)
C12 C 0.3164(3) 0.0261(3) 0.04920(18)
C13 C 0.6210(3) 0.2921(3) 0.3580(2)
C14 C 0.2845(3) 0.1405(3) -0.04359(19)
C15 C 0.4764(3) 0.4891(3) 0.09823(19)
H4 H 0.4569 0.5080 0.0717
C16 C 0.7034(3) -0.1529(3) 0.24051(18)
H5 H 0.7391 -0.1861 0.2402
C17 C 0.6363(3) -0.1679(3) 0.25403(18)
C18 C 0.0178(3) -0.0329(3) 0.36916(19)
H6 H -0.0138 -0.0506 0.3513
C19 C 0.6658(3) -0.0393(3) 0.22779(19)
C20 C 0.5055(3) 0.2280(3) -0.00475(19)
H7 H 0.4869 0.1959 -0.0225
C21 C 0.4778(3) -0.1630(3) 0.2321(2)
C22 C 0.3448(3) 0.2384(3) -0.05191(19)
C23 C 0.2988(3) 0.1313(3) 0.00443(19)
C24 C 0.5551(3) 0.4869(3) 0.31133(19)
H8 H 0.6033 0.4869 0.3061
C25 C 0.6922(3) 0.2275(3) 0.1574(2)
C26 C 0.4476(3) 0.3750(2) 0.07609(18)
C27 C 0.0544(3) 0.0618(3) 0.2709(2)
H9 H 0.0843 0.0721 0.2929
C28 C 0.7429(3) 0.0531(3) 0.27431(19)
H10 H 0.7371 0.0105 0.2878
C29 C 0.4568(3) 0.4506(3) 0.2883(2)
H11 H 0.4359 0.4247 0.2673
C30 C 0.5750(3) 0.2645(3) 0.3991(2)
C31 C 0.1719(3) -0.0615(3) 0.1798(2)
H12 H 0.1752 -0.0175 0.1900
C32 C 0.2209(3) -0.0257(3) 0.09628(19)
C33 C 0.1756(3) 0.0240(3) 0.08321(19)
C34 C 0.5168(3) 0.5239(3) 0.3496(2)
C35 C 0.6461(3) 0.2711(2) 0.18596(19)
H13 H 0.6155 0.2544 0.2123
C36 C 0.5215(3) 0.1022(3) 0.4473(2)
H14 H 0.4906 0.0846 0.4730
C37 C 0.4899(3) 0.3260(3) 0.04912(19)
C38 C -0.0293(3) 0.0978(3) 0.22212(19)
H15 H -0.0576 0.1315 0.2103
C39 C 0.2492(3) -0.1330(3) 0.2914(2)
H16 H 0.2628 -0.0946 0.2738
C40 C 0.6211(3) 0.0018(3) 0.1372(2)
H17 H 0.6185 -0.0427 0.1474
C41 C -0.0059(3) -0.0003(3) 0.41315(19)
C42 C 0.3075(3) 0.1927(3) -0.07193(19)
H18 H 0.2981 0.1977 -0.1045
C43 C 0.6572(3) 0.1128(3) 0.1481(2)
C44 C 0.5329(3) 0.4997(3) 0.16791(19)
H19 H 0.5516 0.5272 0.1892
C45 C 0.3397(3) 0.4863(3) 0.3294(2)
C46 C 0.6847(3) 0.3596(3) 0.14035(19)
H20 H 0.6819 0.4054 0.1340
C47 C 0.5072(3) 0.3961(3) 0.14633(18)
H21 H 0.5085 0.3501 0.1521
C48 C 0.5625(3) 0.3213(3) 0.0465(2)
H22 H 0.5830 0.3532 0.0631
C49 C 0.6914(3) 0.1564(2) 0.17207(19)
C50 C 0.1930(3) -0.0785(3) 0.1314(2)
C51 C 0.7793(3) 0.0952(3) 0.2955(2)
H23 H 0.7984 0.0820 0.3238
C52 C 0.1557(3) 0.1292(3) 0.0419(2)
H24 H 0.1727 0.1649 0.0225
C53 C 0.3770(3) 0.3801(3) 0.07527(19)
C54 C 0.2911(3) -0.0252(3) 0.08105(18)
C55 C 0.3915(3) 0.2831(3) 0.02076(18)
C56 C 0.6518(3) 0.0465(3) 0.1651(2)
C57 C 0.6021(3) 0.2729(3) 0.0211(2)
H25 H 0.6499 0.2709 0.0206
C58 C 0.2614(3) 0.0997(3) 0.4933(2)
C59 C 0.4154(3) -0.2214(3) 0.1604(2)
H26 H 0.3951 -0.2418 0.1360
C60 C 0.0408(3) 0.0243(3) 0.43910(19)
H27 H 0.0255 0.0467 0.4694
C61 C 0.5095(3) -0.1351(3) 0.2681(2)
C62 C 0.2021(3) 0.0036(3) 0.47264(19)
C63 C 0.2717(3) 0.0763(3) 0.03553(17)
C64 C 0.1631(3) -0.1947(3) 0.3288(2)
H28 H 0.1160 -0.1998 0.3385
C65 C 0.0112(3) -0.0161(3) 0.22648(19)
H29 H 0.0099 -0.0606 0.2168
C66 C 0.2987(3) -0.1784(3) 0.3025(2)
C67 C 0.5215(3) 0.1711(3) 0.44193(19)
C68 C 0.4758(3) 0.2151(3) 0.47142(19)
C69 C -0.0310(3) 0.0327(3) 0.20759(19)
C70 C 0.0198(3) 0.1818(3) 0.2699(2)
C71 C 0.0143(3) 0.1124(3) 0.25419(19)
C72 C 0.4725(3) -0.1212(3) 0.3156(2)
C73 C 0.3487(3) 0.3335(3) 0.0464(2)
C74 C 0.2529(3) 0.0314(3) 0.49615(19)
C75 C 0.5138(3) -0.1768(3) 0.1838(2)
H30 H 0.5597 -0.1659 0.1755
C76 C 0.3321(3) 0.4289(3) 0.1027(2)
H31 H 0.3495 0.4586 0.1232
C77 C 0.2365(3) 0.3888(3) 0.0703(2)
H32 H 0.1894 0.3930 0.0682
C78 C 0.4186(3) 0.1881(3) 0.5061(2)
C79 C 0.7361(3) 0.2513(3) 0.1187(2)
H33 H 0.7681 0.2225 0.0985
C80 C 0.3686(3) 0.1551(3) 0.4875(2)
H34 H 0.3727 0.1499 0.4529
C81 C 0.3576(3) 0.1695(3) 0.5877(2)
H35 H 0.3535 0.1746 0.6223
C82 C 0.1613(3) 0.0448(3) 0.4465(2)
C83 C 0.7288(3) 0.3195(3) 0.3160(2)
C84 C 0.5920(3) 0.3217(3) 0.3196(2)
H36 H 0.5441 0.3225 0.3208
C85 C 0.2770(3) 0.3407(3) 0.0453(2)
H37 H 0.2575 0.3106 0.0263
C86 C 0.6132(3) 0.1505(3) 0.3710(2)
H38 H 0.6441 0.1664 0.3445
C87 C 0.5736(3) 0.2250(3) -0.0049(2)
H39 H 0.6020 0.1908 -0.0223
C88 C 0.4026(3) -0.1366(3) 0.3256(2)
C89 C 0.3718(3) -0.1644(3) 0.2900(2)
C90 C 0.6910(3) 0.2917(3) 0.3561(2)
H40 H 0.7122 0.2727 0.3817
C91 C 0.2642(3) 0.4334(3) 0.1000(2)
H41 H 0.2352 0.4667 0.1181
C92 C -0.1209(3) -0.0133(4) 0.4049(2)
H42 H -0.1669 -0.0042 0.4230
H43 H -0.1123 -0.0607 0.3991
H44 H -0.1166 0.0097 0.3734
C93 C 0.7605(3) 0.1788(3) 0.2364(2)
H45 H 0.7667 0.2220 0.2241
C94 C 0.2384(3) 0.5000(3) 0.2893(2)
C95 C 0.1996(3) 0.4733(3) 0.3312(2)
C96 C 0.8372(3) -0.1177(3) 0.2138(2)
H46 H 0.8802 -0.0980 0.2020
H47 H 0.8325 -0.1550 0.1926
H48 H 0.8370 -0.1329 0.2476
C97 C -0.1220(3) 0.0561(3) 0.1632(2)
H49 H -0.1462 0.0351 0.1399
H50 H -0.1018 0.0953 0.1482
H51 H -0.1540 0.0687 0.1930
C98 C 0.4805(3) 0.2832(3) 0.46757(19)
C99 C 0.0337(3) 0.3119(3) 0.3008(2)
C100 C 0.6262(3) 0.1321(3) 0.1059(2)
H52 H 0.6268 0.1764 0.0953
C101 C 0.1930(3) -0.0647(3) 0.4777(2)
H53 H 0.1588 -0.0833 0.4629
C102 C 0.5707(3) 0.1964(3) 0.40369(19)
C103 C 0.4056(3) -0.0718(3) 0.0811(2)
H54 H 0.4360 -0.1038 0.0925
C104 C 0.2936(3) -0.0115(3) 0.52198(19)
H55 H 0.3285 0.0058 0.5367
C105 C 0.4157(3) 0.4878(3) 0.3259(2)
C106 C 0.3001(3) 0.4635(3) 0.3720(2)
C107 C 0.3888(3) 0.0247(3) 0.0328(2)
H56 H 0.4069 0.0574 0.0108
C108 C 0.4987(4) 0.4199(3) 0.4608(2)
H57 H 0.5050 0.4657 0.4598
C109 C 0.0614(3) 0.0748(4) 0.0876(2)
H58 H 0.0140 0.0744 0.0991
C110 C 0.1090(3) 0.0167(3) 0.4213(2)
C111 C 0.2837(3) -0.0760(3) 0.5261(2)
H59 H 0.3111 -0.1032 0.5443
C112 C 0.1033(3) 0.0252(3) 0.0985(2)
H60 H 0.0848 -0.0106 0.1169
C113 C 0.0032(3) 0.2677(3) 0.3339(2)
C114 C 0.3093(3) 0.5075(3) 0.2887(2)
C115 C 0.4828(3) -0.2054(3) 0.1495(2)
H61 H 0.5077 -0.2145 0.1176
C116 C 0.1291(3) -0.0169(3) 0.3771(2)
H62 H 0.1763 -0.0238 0.3647
C117 C 0.3782(3) -0.2081(3) 0.2056(2)
H63 H 0.3322 -0.2190 0.2121
C118 C 0.0877(3) 0.1288(3) 0.0588(2)
H64 H 0.0577 0.1643 0.0516
C119 C 0.7892(3) 0.1585(3) 0.2760(2)
H65 H 0.8161 0.1871 0.2905
C120 C 0.3378(3) -0.0735(3) 0.0963(2)
H66 H 0.3212 -0.1076 0.1175
C121 C 0.5328(3) 0.3081(3) 0.4313(2)
C122 C 0.6097(3) 0.0842(3) 0.3775(2)
H67 H 0.6379 0.0545 0.3554
C123 C 0.3142(3) 0.1299(3) 0.5166(2)
C124 C -0.0053(3) 0.2019(3) 0.3182(2)
C125 C 0.5403(4) 0.3780(3) 0.4297(2)
H68 H 0.5750 0.3950 0.4064
C126 C 0.6172(3) 0.5654(3) 0.3718(2)
H69 H 0.6301 0.5945 0.3964
H70 H 0.6317 0.5828 0.3389
H71 H 0.6392 0.5214 0.3744
C127 C 0.2328(3) -0.1041(3) 0.5036(2)
H72 H 0.2266 -0.1498 0.5066
C128 C 0.5645(3) 0.0603(3) 0.4166(2)
H73 H 0.5638 0.0142 0.4219
C129 C 0.4111(3) 0.1950(3) 0.5571(2)
C130 C 0.4316(3) -0.0226(3) 0.0482(2)
H74 H 0.4791 -0.0228 0.0369
C131 C 0.5962(4) 0.0881(3) 0.0809(3)
H75 H 0.5760 0.1016 0.0533
C132 C 0.1416(4) -0.1667(3) 0.1995(2)
H76 H 0.1247 -0.1977 0.2234
C133 C 0.0563(3) 0.2931(3) 0.2513(2)
C134 C 0.3098(3) 0.1363(3) 0.5677(2)
C135 C 0.2784(3) -0.2356(3) 0.3270(3)
H77 H 0.3112 -0.2685 0.3345
C136 C 0.4467(3) 0.5239(3) 0.3564(2)
H78 H 0.4200 0.5490 0.3823
C137 C 0.7325(4) 0.3179(3) 0.1101(2)
C138 C -0.0217(4) 0.2859(3) 0.3840(2)
H79 H -0.0171 0.3292 0.3950
C139 C 0.5030(4) -0.0941(4) 0.3538(2)
H80 H 0.5492 -0.0836 0.3473
C140 C 0.2093(4) 0.5204(3) 0.2469(3)
H81 H 0.1628 0.5139 0.2461
C141 C 0.6720(3) -0.2798(3) 0.2663(2)
H82 H 0.6528 -0.3221 0.2745
H83 H 0.6990 -0.2681 0.2912
H84 H 0.7010 -0.2830 0.2341
C142 C 0.1114(3) 0.3957(3) 0.3190(2)
H85 H 0.1469 0.3619 0.3135
C143 C 0.0773(4) 0.2089(3) 0.1871(2)
H86 H 0.0764 0.1647 0.1767
C144 C 0.1882(4) -0.1424(3) 0.1168(2)
H87 H 0.2039 -0.1556 0.0837
C145 C 0.1038(5) 0.2538(4) 0.1542(3)
H88 H 0.1211 0.2406 0.1213
C146 C 0.0457(3) 0.3807(3) 0.3161(2)
C147 C 0.2189(3) 0.1400(3) 0.4681(2)
C148 C 0.4452(4) 0.3946(4) 0.4952(2)
H89 H 0.4156 0.4242 0.5164
C149 C 0.4848(4) 0.6248(3) 0.0830(2)
H90 H 0.4898 0.6722 0.0840
H91 H 0.4368 0.6169 0.0839
H92 H 0.5115 0.6061 0.0527
C150 C 0.5954(4) 0.0214(4) 0.0967(3)
H93 H 0.5765 -0.0098 0.0783
C151 C 0.1270(3) 0.4600(3) 0.3301(3)
C152 C 0.2092(3) -0.2435(3) 0.3404(3)
C153 C -0.0634(4) 0.1778(4) 0.4007(3)
H94 H -0.0874 0.1490 0.4232
C154 C 0.2870(4) 0.4225(4) 0.4555(3)
H95 H 0.3066 0.4096 0.4836
C155 C -0.0399(3) 0.1582(3) 0.3540(2)
H96 H -0.0463 0.1147 0.3443
C156 C 0.2282(3) 0.4587(3) 0.3726(2)
C157 C 0.3461(4) 0.5388(3) 0.2472(2)
H97 H 0.3928 0.5453 0.2469
C158 C 0.4359(3) 0.3296(3) 0.4980(2)
H98 H 0.3992 0.3145 0.5205
C159 C -0.0066(4) 0.4297(3) 0.3261(3)
C160 C 0.4452(4) 0.2563(4) 0.6217(2)
H99 H 0.4845 0.2787 0.6287
H100 H 0.4351 0.2215 0.6458
H101 H 0.4058 0.2880 0.6235
C161 C 0.0734(4) 0.5076(3) 0.3393(3)
C162 C 0.2496(3) 0.1140(4) 0.6471(2)
H102 H 0.2081 0.0942 0.6623
H103 H 0.2477 0.1601 0.6575
H104 H 0.2892 0.0900 0.6572
C163 C 0.0831(4) 0.3390(4) 0.2154(3)
H105 H 0.0849 0.3836 0.2245
C164 C 0.3168(4) 0.5596(3) 0.2083(3)
H106 H 0.3424 0.5809 0.1815
C165 C 0.0074(4) 0.4936(3) 0.3383(3)
H107 H -0.0285 0.5267 0.3458
C166 C 0.2163(4) 0.4215(4) 0.4574(3)
H108 H 0.1885 0.4090 0.4868
C167 C 0.1606(4) -0.1864(3) 0.1503(3)
C168 C 0.1703(4) 0.1122(3) 0.4435(3)
C169 C 0.1877(4) 0.4384(3) 0.4172(3)
H109 H 0.1400 0.4367 0.4186
C170 C 0.2234(4) 0.1058(3) -0.1049(2)
H110 H 0.1970 0.0694 -0.1122
H111 H 0.2626 0.1090 -0.1310
H112 H 0.1948 0.1469 -0.1029
C171 C -0.0518(4) 0.2419(4) 0.4158(3)
H113 H -0.0655 0.2543 0.4493
C172 C 0.3276(3) 0.4415(3) 0.4146(2)
H114 H 0.3753 0.4403 0.4141
C173 C 0.0510(3) 0.2262(3) 0.2361(2)
C174 C 0.2466(4) 0.5490(4) 0.2079(3)
H115 H 0.2261 0.5620 0.1802
C175 C 0.8267(6) 0.3017(6) 0.3518(4)
H116 H 0.8087 0.3318 0.3790
H117 H 0.8761 0.3036 0.3440
H118 H 0.8158 0.2568 0.3611
C176 C 0.3673(4) -0.1220(4) 0.3752(3)
H119 H 0.3207 -0.1305 0.3834
C177 C 0.3985(5) -0.0973(5) 0.4087(3)
H120 H 0.3739 -0.0885 0.4407
C178 C 0.1058(4) 0.3198(4) 0.1686(3)
H121 H 0.1234 0.3511 0.1451
C179 C 0.4671(5) -0.0836(5) 0.3985(3)
H122 H 0.4884 -0.0667 0.4237
C180 C 0.7683(4) 0.5391(4) 0.2305(3)
C181 C 0.0405(4) 0.6214(4) 0.3582(4)
H123 H 0.0609 0.6618 0.3655
H124 H 0.0056 0.6110 0.3858
H125 H 0.0199 0.6275 0.3284
C182 C 0.1303(5) 0.1553(4) 0.4155(3)
H126 H 0.0978 0.1379 0.3984
C183 C 0.2251(4) 0.2098(4) 0.4660(3)
H127 H 0.2575 0.2290 0.4823
C184 C 0.2299(4) -0.3525(4) 0.3703(4)
H128 H 0.2051 -0.3876 0.3878
H129 H 0.2641 -0.3388 0.3892
H130 H 0.2523 -0.3686 0.3379
C185 C -0.1242(5) 0.4615(4) 0.3320(5)
H131 H -0.1667 0.4430 0.3272
H132 H -0.1155 0.4988 0.3099
H133 H -0.1279 0.4765 0.3661
C186 C 0.1847(5) 0.2484(4) 0.4406(4)
H134 H 0.1870 0.2947 0.4409
C187 C 0.1393(5) 0.2199(5) 0.4137(4)
H135 H 0.1145 0.2474 0.3939
C188 C 0.3509(3) 0.3062(3) -0.1242(2)
H136 H 0.3714 0.3462 -0.1375
H137 H 0.3013 0.3125 -0.1212
H138 H 0.3673 0.2692 -0.1464
C189 C 0.4610(3) 0.2785(3) 0.02152(18)
C190 C 0.4770(3) 0.4214(3) 0.10694(18)
C191 C 0.1273(7) -0.2945(5) 0.1677(4)
H139 H 0.1254 -0.3360 0.1504
H140 H 0.0815 -0.2794 0.1838
H141 H 0.1571 -0.3011 0.1926
C192 C 0.7857(7) 0.4065(5) 0.0667(5)
H142 H 0.8189 0.4122 0.0370
H143 H 0.8030 0.4232 0.0953
H144 H 0.7427 0.4308 0.0634
C193 C 0.2544(7) 0.1253(7) 0.2867(6)
C194 C -0.0450(3) -0.2415(4) 0.2653(3)
Cu1 Cu 0.11441(4) -0.07347(4) 0.28258(2)
Cu2 Cu 0.58176(4) 0.39300(3) 0.22891(2)
F1 F 0.3035(4) 0.1643(4) 0.2705(4)
F2 F 0.1962(4) 0.1593(3) 0.2863(4)
F3 F 0.2612(5) 0.1070(5) 0.3350(3)
F4 F 0.7984(3) 0.5938(3) 0.2158(3)
F5 F 0.7510(3) 0.5405(3) 0.27819(19)
F6 F 0.8157(2) 0.4910(3) 0.2181(2)
F7 F 0.0046(4) -0.2887(2) 0.2583(2)
F8 F -0.1033(4) -0.2687(4) 0.2807(3)
F9 F -0.0484(3) -0.2129(3) 0.22280(17)
N1 N 0.0528(2) -0.0015(2) 0.25743(16)
N2 N 0.1470(2) -0.1051(2) 0.21301(17)
N3 N 0.1822(2) -0.1407(2) 0.30452(18)
N4 N 0.0840(2) -0.0397(2) 0.35139(16)
N5 N 0.5340(2) 0.4349(2) 0.17601(16)
N6 N 0.6431(2) 0.3355(2) 0.17793(15)
N7 N 0.6299(2) 0.3490(2) 0.28125(16)
N8 N 0.5240(2) 0.4508(2) 0.28141(16)
O1 O 0.1526(4) -0.2474(3) 0.1343(2)
O2 O 0.2467(2) 0.09413(18) -0.05916(13)
O3 O 0.3693(2) 0.29266(19) -0.07668(13)
O4 O 0.5088(2) 0.59408(18) 0.12512(14)
O5 O 0.1821(2) -0.2961(2) 0.3641(2)
O6 O 0.6184(2) -0.23055(18) 0.26494(14)
O7 O 0.78175(19) -0.06957(18) 0.21252(13)
O8 O 0.7755(3) 0.3427(3) 0.07294(18)
O9 O -0.0728(2) 0.0090(2) 0.43286(14)
O10 O 0.2550(2) 0.1110(2) 0.59543(14)
C195 C 0.4073(3) -0.1781(3) 0.2436(2)
O11 O 0.4601(2) 0.2285(2) 0.57410(14)
O12 O 0.5442(2) 0.5618(2) 0.38017(15)
O13 O 0.7976(2) 0.3199(2) 0.31075(15)
O14 O 0.0921(2) 0.5685(2) 0.3507(2)
O15 O -0.0694(3) 0.4123(2) 0.3216(2)
O16 O -0.0700(2) 0.01132(19) 0.17552(14)
O17 O 0.2482(5) 0.0850(5) 0.2035(3)
O18 O 0.2050(2) 0.0170(2) 0.27340(16)
O19 O 0.3247(4) 0.0205(4) 0.2530(3)
O20 O 0.7218(3) 0.5280(2) 0.14841(17)
O21 O 0.6713(2) 0.46734(18) 0.21907(14)
O22 O 0.6504(2) 0.5842(2) 0.21797(18)
O23 O 0.0302(3) -0.1527(4) 0.2870(3)
O24 O -0.0156(3) -0.2229(3) 0.3516(2)
O25 O -0.0884(3) -0.1405(3) 0.3194(2)
O26 O 0.4974(2) 0.3097(2) 0.24110(14)
S1 S 0.25970(15) 0.05203(13) 0.25383(11)
S2 S 0.69522(9) 0.52926(8) 0.20132(6)
S3 S -0.02893(9) -0.18279(10) 0.31133(7)
N9 N 0.1163(9) 0.2915(7) 0.0059(5)
C196 C 0.0702(9) 0.3141(8) 0.0293(7)
C197 C 0.0050(10) 0.3425(13) 0.0567(10)
H145 H 0.0085 0.3894 0.0626
H146 H -0.0051 0.3200 0.0882
H147 H -0.0315 0.3370 0.0375
O27 O 1.0558(12) 0.5536(12) 0.4690(9)
C198 C 0.7623(4) 0.1237(3) 0.0189(2)
C199 C 0.7769(4) 0.0582(3) 0.0389(2)
H148 H 0.7348 0.0421 0.0567
H149 H 0.8098 0.0611 0.0615
H150 H 0.7957 0.0279 0.0120
N10 N 0.7527(3) 0.1737(3) 0.0033(2)
C200 C 0.9170(8) 0.1743(7) 0.0153(6)
C201 C 0.9167(11) 0.2386(7) -0.0092(7)
H151 H 0.8699 0.2578 -0.0064
H152 H 0.9361 0.2328 -0.0440
H153 H 0.9439 0.2679 0.0063
N11 N 0.9161(8) 0.1278(8) 0.0372(7)
C202 C 0.8677(6) 0.7194(8) 0.1389(6)
C203 C 0.9412(7) 0.7007(12) 0.1227(9)
H154 H 0.9553 0.7174 0.0895
H155 H 0.9487 0.6527 0.1225
H156 H 0.9678 0.7196 0.1453
N12 N 0.8139(5) 0.7310(4) 0.1547(4)
C204 C 0.9784(8) 0.8959(7) 0.0897(5)
C205 C 0.9518(7) 0.9422(6) 0.0550(4)
H157 H 0.9062 0.9310 0.0507
H158 H 0.9820 0.9393 0.0233
H159 H 0.9496 0.9871 0.0680
N13 N 0.9996(8) 0.8625(8) 0.1171(5)
C206 C 0.2801(6) 0.6663(6) 0.0909(4)
C207 C 0.2460(6) 0.6522(6) 0.0491(4)
H160 H 0.2029 0.6329 0.0610
H161 H 0.2753 0.6212 0.0267
H162 H 0.2372 0.6931 0.0316
N14 N 0.3050(6) 0.6787(7) 0.1229(4)
C208 C 0.3308(4) 0.7220(5) 0.4928(3)
C209 C 0.3941(4) 0.7109(6) 0.4575(3)
H163 H 0.3833 0.6987 0.4255
H164 H 0.4228 0.6754 0.4694
H165 H 0.4184 0.7513 0.4543
N15 N 0.2836(4) 0.7286(4) 0.5211(3)
C210 C 0.4536(3) 0.6684(3) 0.2909(2)
C211 C 0.5002(3) 0.6631(3) 0.2439(2)
H166 H 0.4747 0.6532 0.2176
H167 H 0.5355 0.6278 0.2458
H168 H 0.5214 0.7048 0.2369
N16 N 0.4189(3) 0.6725(3) 0.32735(19)
C212 C 0.9059(10) 0.2929(7) 0.1807(6)
C213 C 0.9042(5) 0.2353(5) 0.1500(4)
H169 H 0.9361 0.2003 0.1588
H170 H 0.9172 0.2469 0.1154
H171 H 0.8581 0.2200 0.1551
N17 N 0.9039(9) 0.3425(6) 0.1998(6)
C214 C 0.0687(8) 0.5194(9) 0.1244(5)
C215 C 0.0700(8) 0.5440(7) 0.0722(5)
H172 H 0.0233 0.5537 0.0662
H173 H 0.0927 0.5102 0.0490
H174 H 0.0947 0.5840 0.0678
N18 N 0.0986(9) 0.5031(9) 0.1552(5)
C216 C 0.6348(5) 0.4995(4) 0.0175(3)
C217 C 0.6672(6) 0.5467(5) 0.0454(4)
H175 H 0.7167 0.5401 0.0369
H176 H 0.6536 0.5397 0.0807
H177 H 0.6526 0.5917 0.0371
N19 N 0.6053(4) 0.4664(3) -0.0017(2)
C218 C 0.0175(8) 0.8115(7) 0.4607(5)
C219 C -0.0137(14) 0.7470(10) 0.4647(8)
H178 H -0.0634 0.7543 0.4710
H179 H 0.0014 0.7219 0.4918
H180 H 0.0002 0.7223 0.4340
N20 N 0.0563(9) 0.8488(7) 0.4575(5)
C220 C 0.7475(9) 0.4326(10) 0.4564(7)
C221 C 0.8118(10) 0.4150(9) 0.4756(7)
H181 H 0.8028 0.4154 0.5116
H182 H 0.8451 0.4470 0.4640
H183 H 0.8297 0.3710 0.4638
N21 N 0.7110(9) 0.4453(8) 0.4298(8)
C222 C 0.8249(8) 0.6095(8) 0.3956(5)
F10 F 0.8658(9) 0.6007(10) 0.4287(7)
F11 F 0.7848(10) 0.5600(6) 0.3982(9)
F12 F 0.8619(10) 0.6107(9) 0.3514(6)
O28 O 0.8257(8) 0.7296(9) 0.4077(6)
O29 O 0.7426(10) 0.6861(12) 0.3652(6)
O30 O 0.7307(9) 0.6766(11) 0.4524(5)
S4 S 0.7729(5) 0.6870(5) 0.4084(4)
C223 C 0.4939(6) 0.1323(5) 0.2844(4)
C224 C 0.4550(6) 0.0863(6) 0.3174(4)
H184 H 0.4605 0.0424 0.3024
H185 H 0.4067 0.1015 0.3228
H186 H 0.4718 0.0844 0.3489
N22 N 0.5222(5) 0.1713(5) 0.2626(3)
C225 C 0.3650(7) 0.2691(9) 0.3536(5)
C226 C 0.2994(7) 0.2940(7) 0.3407(6)
H187 H 0.3009 0.2904 0.3052
H188 H 0.2903 0.3402 0.3508
H189 H 0.2632 0.2682 0.3577
N23 N 0.4163(8) 0.2501(12) 0.3605(7)
C227 C 0.3222(6) 0.3206(6) 0.2036(4)
C228 C 0.2833(8) 0.2781(7) 0.1766(5)
H190 H 0.2410 0.3023 0.1712
H191 H 0.2725 0.2387 0.1959
H192 H 0.3106 0.2653 0.1449
N24 N 0.3610(6) 0.3436(5) 0.2221(4)
C229 C 0.4397(8) 0.1657(6) 0.1527(6)
C230 C 0.4337(9) 0.0947(6) 0.1612(5)
H193 H 0.3960 0.0802 0.1461
H194 H 0.4251 0.0862 0.1965
H195 H 0.4761 0.0705 0.1464
N25 N 0.4507(10) 0.2186(6) 0.1491(6)
H196? H 0.0222 0.5159 0.1375
C231? C -0.0581(10) -0.2295(9) 0.3121(7)
C232? C 0.0688(8) 0.5400(9) 0.1091(6)
C233? C 0.0051(8) 0.5364(11) 0.1477(7)
C234? C 0.8487(6) 0.3306(6) 0.2664(4)
C235? C 0.8194(11) 0.3133(10) 0.0420(7)
F13? F -0.0219(16) -0.2814(6) 0.2911(12)
F14? F -0.1231(11) -0.2351(14) 0.3090(12)
F15? F -0.0515(15) -0.2277(14) 0.3591(7)
H197? H 0.0620 0.5194 0.0797
H198? H -0.0258 0.5070 0.1360
H199? H -0.0177 0.5804 0.1534
H200? H 0.0180 0.5194 0.1785
H201? H 0.8253 0.3434 0.2388
H202? H 0.8771 0.2898 0.2581
H203? H 0.8774 0.3655 0.2731
H204? H 0.8424 0.3453 0.0197
H205? H 0.7975 0.2829 0.0231
H206? H 0.8527 0.2887 0.0588
N26? N 0.1235(8) 0.5597(8) 0.1036(6)
O31? O 0.0342(8) -0.1459(19) 0.2973(11)
O32? O -0.0249(11) -0.1731(12) 0.2319(5)
O33? O -0.0817(9) -0.1061(11) 0.2995(7)
O34? O 0.9901(9) 0.5501(9) 0.4914(5)
S5? S -0.0291(4) -0.1541(5) 0.2816(3)
loop_
_geom_bond_atom_site_label_1
_geom_bond_atom_site_label_2
_geom_bond_site_symmetry_1
_geom_bond_site_symmetry_2
C1 C6 1_555 1_555
C2 H1 1_555 1_555
C3 C16 1_555 1_555
C4 C15 1_555 1_555
C5 C11 1_555 1_555
C6 H2 1_555 1_555
C7 H3 1_555 1_555
C8 C33 1_555 1_555
C9 C2 1_555 1_555
C10 C11 1_555 1_555
C11 C28 1_555 1_555
C12 C54 1_555 1_555
C13 C30 1_555 1_555
C14 C23 1_555 1_555
C15 H4 1_555 1_555
C16 H5 1_555 1_555
C17 C1 1_555 1_555
C18 H6 1_555 1_555
C19 C3 1_555 1_555
C20 H7 1_555 1_555
C21 C61 1_555 1_555
C22 C9 1_555 1_555
C23 C2 1_555 1_555
C24 H8 1_555 1_555
C25 C35 1_555 1_555
C26 C37 1_555 1_555
C27 H9 1_555 1_555
C28 H10 1_555 1_555
C29 H11 1_555 1_555
C30 C102 1_555 1_555
C31 H12 1_555 1_555
C32 C33 1_555 1_555
C33 C112 1_555 1_555
C34 C24 1_555 1_555
C35 H13 1_555 1_555
C36 H14 1_555 1_555
C37 C48 1_555 1_555
C38 H15 1_555 1_555
C39 H16 1_555 1_555
C40 H17 1_555 1_555
C41 C18 1_555 1_555
C42 C14 1_555 1_555
H18 C42 1_555 1_555
C43 C49 1_555 1_555
C44 C4 1_555 1_555
H19 C44 1_555 1_555
C45 C105 1_555 1_555
C46 H20 1_555 1_555
C47 H21 1_555 1_555
C48 H22 1_555 1_555
C49 C5 1_555 1_555
C50 C31 1_555 1_555
C51 C28 1_555 1_555
H23 C51 1_555 1_555
C52 C8 1_555 1_555
H24 C52 1_555 1_555
C53 C26 1_555 1_555
C54 C32 1_555 1_555
C55 C9 1_555 1_555
C56 C10 1_555 1_555
C57 C48 1_555 1_555
H25 C57 1_555 1_555
C58 C74 1_555 1_555
C59 H26 1_555 1_555
C60 C41 1_555 1_555
H27 C60 1_555 1_555
C61 C1 1_555 1_555
C62 C74 1_555 1_555
C63 C8 1_555 1_555
C64 H28 1_555 1_555
C65 H29 1_555 1_555
C66 C39 1_555 1_555
C67 C36 1_555 1_555
C68 C67 1_555 1_555
C69 C38 1_555 1_555
C70 C71 1_555 1_555
C71 C27 1_555 1_555
C72 C61 1_555 1_555
C73 C53 1_555 1_555
C74 C104 1_555 1_555
C75 C21 1_555 1_555
H30 C75 1_555 1_555
C76 C53 1_555 1_555
H31 C76 1_555 1_555
C77 H32 1_555 1_555
C78 C68 1_555 1_555
C79 C25 1_555 1_555
H33 C79 1_555 1_555
C80 C78 1_555 1_555
H34 C80 1_555 1_555
C81 H35 1_555 1_555
C82 C62 1_555 1_555
C83 C7 1_555 1_555
C84 C13 1_555 1_555
H36 C84 1_555 1_555
C85 C73 1_555 1_555
H37 C85 1_555 1_555
C86 H38 1_555 1_555
C87 C20 1_555 1_555
H39 C87 1_555 1_555
C88 C72 1_555 1_555
C89 C66 1_555 1_555
C90 C13 1_555 1_555
H40 C90 1_555 1_555
C91 C76 1_555 1_555
H41 C91 1_555 1_555
C92 H42 1_555 1_555
H43 C92 1_555 1_555
H44 C92 1_555 1_555
C93 C5 1_555 1_555
H45 C93 1_555 1_555
C94 C95 1_555 1_555
C95 C151 1_555 1_555
C96 H46 1_555 1_555
H47 C96 1_555 1_555
H48 C96 1_555 1_555
C97 H49 1_555 1_555
H50 C97 1_555 1_555
H51 C97 1_555 1_555
C98 C68 1_555 1_555
C99 C113 1_555 1_555
C100 C43 1_555 1_555
H52 C100 1_555 1_555
C101 C62 1_555 1_555
H53 C101 1_555 1_555
C102 C67 1_555 1_555
C103 H54 1_555 1_555
C104 H55 1_555 1_555
C105 C29 1_555 1_555
C106 C45 1_555 1_555
C107 C12 1_555 1_555
H56 C107 1_555 1_555
C108 H57 1_555 1_555
C109 H58 1_555 1_555
C110 C60 1_555 1_555
C111 C104 1_555 1_555
H59 C111 1_555 1_555
C112 C109 1_555 1_555
H60 C112 1_555 1_555
C113 C124 1_555 1_555
C114 C45 1_555 1_555
C115 C59 1_555 1_555
H61 C115 1_555 1_555
C116 C110 1_555 1_555
H62 C116 1_555 1_555
C117 C59 1_555 1_555
H63 C117 1_555 1_555
C118 C52 1_555 1_555
H64 C118 1_555 1_555
C119 C51 1_555 1_555
H65 C119 1_555 1_555
C120 C54 1_555 1_555
H66 C120 1_555 1_555
C121 C30 1_555 1_555
C122 C86 1_555 1_555
H67 C122 1_555 1_555
C123 C58 1_555 1_555
C124 C70 1_555 1_555
C125 C108 1_555 1_555
H68 C125 1_555 1_555
C126 H69 1_555 1_555
H70 C126 1_555 1_555
H71 C126 1_555 1_555
C127 C101 1_555 1_555
H72 C127 1_555 1_555
C128 C36 1_555 1_555
H73 C128 1_555 1_555
C129 C78 1_555 1_555
C130 C103 1_555 1_555
H74 C130 1_555 1_555
C131 C100 1_555 1_555
H75 C131 1_555 1_555
C132 H76 1_555 1_555
C133 C99 1_555 1_555
C134 C81 1_555 1_555
C135 C66 1_555 1_555
H77 C135 1_555 1_555
C136 C34 1_555 1_555
H78 C136 1_555 1_555
C137 C46 1_555 1_555
C138 C113 1_555 1_555
H79 C138 1_555 1_555
C139 C72 1_555 1_555
H80 C139 1_555 1_555
C140 C94 1_555 1_555
H81 C140 1_555 1_555
C141 H82 1_555 1_555
H83 C141 1_555 1_555
H84 C141 1_555 1_555
C142 H85 1_555 1_555
C143 H86 1_555 1_555
C144 C50 1_555 1_555
H87 C144 1_555 1_555
C145 C143 1_555 1_555
H88 C145 1_555 1_555
C146 C99 1_555 1_555
C147 C58 1_555 1_555
C148 C108 1_555 1_555
H89 C148 1_555 1_555
C149 H90 1_555 1_555
H91 C149 1_555 1_555
H92 C149 1_555 1_555
C150 C40 1_555 1_555
H93 C150 1_555 1_555
C151 C142 1_555 1_555
C152 C64 1_555 1_555
C153 H94 1_555 1_555
C154 H95 1_555 1_555
C155 C124 1_555 1_555
H96 C155 1_555 1_555
C156 C95 1_555 1_555
C157 C114 1_555 1_555
H97 C157 1_555 1_555
C158 C98 1_555 1_555
H98 C158 1_555 1_555
C159 C146 1_555 1_555
C160 H99 1_555 1_555
H100 C160 1_555 1_555
H101 C160 1_555 1_555
C161 C151 1_555 1_555
C162 H102 1_555 1_555
H103 C162 1_555 1_555
H104 C162 1_555 1_555
C163 C133 1_555 1_555
H105 C163 1_555 1_555
C164 C157 1_555 1_555
H106 C164 1_555 1_555
C165 C159 1_555 1_555
H107 C165 1_555 1_555
C166 C154 1_555 1_555
H108 C166 1_555 1_555
C167 C132 1_555 1_555
C168 C82 1_555 1_555
C169 C156 1_555 1_555
H109 C169 1_555 1_555
C170 H110 1_555 1_555
H111 C170 1_555 1_555
H112 C170 1_555 1_555
C171 C138 1_555 1_555
H113 C171 1_555 1_555
C172 C106 1_555 1_555
H114 C172 1_555 1_555
C173 C70 1_555 1_555
C174 C140 1_555 1_555
H115 C174 1_555 1_555
C175 H116 1_555 1_555
H117 C175 1_555 1_555
H118 C175 1_555 1_555
C176 C88 1_555 1_555
H119 C176 1_555 1_555
C177 C176 1_555 1_555
H120 C177 1_555 1_555
C178 C145 1_555 1_555
H121 C178 1_555 1_555
C179 C139 1_555 1_555
H122 C179 1_555 1_555
C180 F4 1_555 1_555
C181 H123 1_555 1_555
H124 C181 1_555 1_555
H125 C181 1_555 1_555
C182 C168 1_555 1_555
H126 C182 1_555 1_555
C183 C147 1_555 1_555
H127 C183 1_555 1_555
C184 H128 1_555 1_555
H129 C184 1_555 1_555
H130 C184 1_555 1_555
C185 H131 1_555 1_555
H132 C185 1_555 1_555
H133 C185 1_555 1_555
C186 C183 1_555 1_555
H134 C186 1_555 1_555
C187 C182 1_555 1_555
H135 C187 1_555 1_555
C188 H136 1_555 1_555
H137 C188 1_555 1_555
H138 C188 1_555 1_555
C189 C20 1_555 1_555
C190 C15 1_555 1_555
C191 H139 1_555 1_555
H140 C191 1_555 1_555
H141 C191 1_555 1_555
C192 H142 1_555 1_555
H143 C192 1_555 1_555
H144 C192 1_555 1_555
C193 F1 1_555 1_555
C194 F7 1_555 1_555
Cu1 N1 1_555 1_555
Cu2 N5 1_555 1_555
F2 C193 1_555 1_555
F3 C193 1_555 1_555
F5 C180 1_555 1_555
F6 C180 1_555 1_555
F8 C194 1_555 1_555
F9 C194 1_555 1_555
N1 C27 1_555 1_555
N2 C31 1_555 1_555
N3 C39 1_555 1_555
N4 C18 1_555 1_555
N5 C44 1_555 1_555
N6 C35 1_555 1_555
N7 C7 1_555 1_555
N8 C24 1_555 1_555
O1 C167 1_555 1_555
O2 C14 1_555 1_555
O3 C22 1_555 1_555
O4 C4 1_555 1_555
O5 C152 1_555 1_555
O6 C17 1_555 1_555
O7 C3 1_555 1_555
O8 C137 1_555 1_555
O9 C41 1_555 1_555
O10 C134 1_555 1_555
C195 C21 1_555 1_555
O11 C129 1_555 1_555
O12 C34 1_555 1_555
O13 C83 1_555 1_555
O14 C161 1_555 1_555
O15 C159 1_555 1_555
O16 C69 1_555 1_555
O17 S1 1_555 1_555
O18 Cu1 1_555 1_555
O19 S1 1_555 1_555
O20 S2 1_555 1_555
O21 Cu2 1_555 1_555
O22 S2 1_555 1_555
O23 Cu1 1_555 1_555
O24 S3 1_555 1_555
O25 S3 1_555 1_555
O26 Cu2 1_555 1_555
S1 C193 1_555 1_555
S2 C180 1_555 1_555
S3 C194 1_555 1_555
N9 C196 1_555 1_555
C196 C197 1_555 1_555
C197 H145 1_555 1_555
H146 C197 1_555 1_555
H147 C197 1_555 1_555
C198 C199 1_555 1_555
C199 H148 1_555 1_555
H149 C199 1_555 1_555
H150 C199 1_555 1_555
N10 C198 1_555 1_555
C200 C201 1_555 1_555
C201 H151 1_555 1_555
H152 C201 1_555 1_555
H153 C201 1_555 1_555
N11 C200 1_555 1_555
C202 C203 1_555 1_555
C203 H154 1_555 1_555
H155 C203 1_555 1_555
H156 C203 1_555 1_555
N12 C202 1_555 1_555
C204 C205 1_555 1_555
C205 H157 1_555 1_555
H158 C205 1_555 1_555
H159 C205 1_555 1_555
N13 C204 1_555 1_555
C206 C207 1_555 1_555
C207 H160 1_555 1_555
H161 C207 1_555 1_555
H162 C207 1_555 1_555
N14 C206 1_555 1_555
C208 C209 1_555 1_555
C209 H163 1_555 1_555
H164 C209 1_555 1_555
H165 C209 1_555 1_555
N15 C208 1_555 1_555
C210 C211 1_555 1_555
C211 H166 1_555 1_555
H167 C211 1_555 1_555
H168 C211 1_555 1_555
N16 C210 1_555 1_555
C212 C213 1_555 1_555
C213 H169 1_555 1_555
H170 C213 1_555 1_555
H171 C213 1_555 1_555
N17 C212 1_555 1_555
C214 C215 1_555 1_555
C215 H172 1_555 1_555
H173 C215 1_555 1_555
H174 C215 1_555 1_555
N18 C214 1_555 1_555
C216 C217 1_555 1_555
C217 H175 1_555 1_555
H176 C217 1_555 1_555
H177 C217 1_555 1_555
N19 C216 1_555 1_555
C218 C219 1_555 1_555
C219 H178 1_555 1_555
H179 C219 1_555 1_555
H180 C219 1_555 1_555
N20 C218 1_555 1_555
C220 C221 1_555 1_555
C221 H181 1_555 1_555
H182 C221 1_555 1_555
H183 C221 1_555 1_555
N21 C220 1_555 1_555
C222 F10 1_555 1_555
F11 C222 1_555 1_555
F12 C222 1_555 1_555
O28 S4 1_555 1_555
O29 S4 1_555 1_555
O30 S4 1_555 1_555
S4 C222 1_555 1_555
C223 C224 1_555 1_555
C224 H184 1_555 1_555
H185 C224 1_555 1_555
H186 C224 1_555 1_555
N22 C223 1_555 1_555
C225 C226 1_555 1_555
C226 H187 1_555 1_555
H188 C226 1_555 1_555
H189 C226 1_555 1_555
N23 C225 1_555 1_555
C227 C228 1_555 1_555
C228 H190 1_555 1_555
H191 C228 1_555 1_555
H192 C228 1_555 1_555
N24 C227 1_555 1_555
C229 C230 1_555 1_555
C230 H193 1_555 1_555
H194 C230 1_555 1_555
H195 C230 1_555 1_555
N25 C229 1_555 1_555
C6 C19 1_555 1_555
C10 C19 1_555 1_555
C12 C63 1_555 1_555
C16 C17 1_555 1_555
C22 C42 1_555 1_555
C23 C63 1_555 1_555
C25 C49 1_555 1_555
C26 C190 1_555 1_555
C29 N8 1_555 1_555
C32 C50 1_555 1_555
C37 C189 1_555 1_555
C38 C71 1_555 1_555
C40 C56 1_555 1_555
C43 C56 1_555 1_555
C46 N6 1_555 1_555
C47 C190 1_555 1_555
C47 N5 1_555 1_555
C55 C73 1_555 1_555
C55 C189 1_555 1_555
C57 C87 1_555 1_555
C64 N3 1_555 1_555
C65 C69 1_555 1_555
C65 N1 1_555 1_555
C75 C115 1_555 1_555
C77 C85 1_555 1_555
C77 C91 1_555 1_555
C79 C137 1_555 1_555
C80 C123 1_555 1_555
C81 C129 1_555 1_555
C82 C110 1_555 1_555
C83 C90 1_555 1_555
C84 N7 1_555 1_555
C86 C102 1_555 1_555
C88 C89 1_555 1_555
C89 C195 1_555 1_555
C92 O9 1_555 1_555
C93 C119 1_555 1_555
C94 C114 1_555 1_555
C96 O7 1_555 1_555
C97 O16 1_555 1_555
C98 C121 1_555 1_555
C103 C120 1_555 1_555
C105 C136 1_555 1_555
C106 C156 1_555 1_555
C107 C130 1_555 1_555
C109 C118 1_555 1_555
C111 C127 1_555 1_555
C116 N4 1_555 1_555
C117 C195 1_555 1_555
C121 C125 1_555 1_555
C122 C128 1_555 1_555
C123 C134 1_555 1_555
C126 O12 1_555 1_555
C131 C150 1_555 1_555
C132 N2 1_555 1_555
C133 C173 1_555 1_555
C135 C152 1_555 1_555
C141 O6 1_555 1_555
C142 C146 1_555 1_555
C143 C173 1_555 1_555
C144 C167 1_555 1_555
C147 C168 1_555 1_555
C148 C158 1_555 1_555
C149 O4 1_555 1_555
C153 C155 1_555 1_555
C153 C171 1_555 1_555
C154 C172 1_555 1_555
C160 O11 1_555 1_555
C161 C165 1_555 1_555
C162 O10 1_555 1_555
C163 C178 1_555 1_555
C164 C174 1_555 1_555
C166 C169 1_555 1_555
C170 O2 1_555 1_555
C175 O13 1_555 1_555
C177 C179 1_555 1_555
C181 O14 1_555 1_555
C184 O5 1_555 1_555
C185 O15 1_555 1_555
C186 C187 1_555 1_555
C188 O3 1_555 1_555
C191 O1 1_555 1_555
C192 O8 1_555 1_555
Cu1 N2 1_555 1_555
Cu1 N3 1_555 1_555
Cu1 N4 1_555 1_555
Cu2 N6 1_555 1_555
Cu2 N7 1_555 1_555
Cu2 N8 1_555 1_555
O18 S1 1_555 1_555
O21 S2 1_555 1_555
O23 S3 1_555 1_555

#END
