
#######################################################################
#
#                 Cambridge Crystallographic Data Centre
#                                CCDC 
#
#######################################################################
#
# If this CIF has been generated from an entry in the Cambridge 
# Structural Database, then it will include bibliographic, chemical, 
# crystal, experimental, refinement or atomic coordinate data resulting 
# from the CCDC's data processing and validation procedures.
#
#######################################################################

data_GEBHEC
_chemical_formula_moiety         
'C195 H146 F9 N8 O26 S3 Zn2 1+,C1 F3 O3 S1 1-,14.5(C2 H3 N1),1.5(H2 O1)'
_chemical_name_systematic        
'tetrakis(\m~2~-4,6-dimethoxy-1,3-bis(9-(5-methoxypyridin-3-yl)anthracen-10-yl)benzene)-aqua-tris(trifluoromethanesulfonato)-di-zinc(ii) trifluoromethanesulfone acetonitrile solvate sesquihydrate'
_symmetry_cell_setting           triclinic
_symmetry_space_group_name_H-M   'P -1'
_symmetry_Int_Tables_number      2
_space_group_name_Hall           '-P 1'
loop_
_symmetry_equiv_pos_site_id
_symmetry_equiv_pos_as_xyz
1 x,y,z
2 -x,-y,-z
_cell_length_a                   20.0218(18)
_cell_length_b                   20.3017(18)
_cell_length_c                   27.845(3)
_cell_angle_alpha                89.7120(10)
_cell_angle_beta                 80.1680(10)
_cell_angle_gamma                86.7880(10)
_cell_volume                     11134.5
_exptl_crystal_colour            'pale yellow'
_exptl_crystal_description       column
_cell_formula_units_Z            2
loop_
_atom_site_label
_atom_site_type_symbol
_atom_site_fract_x
_atom_site_fract_y
_atom_site_fract_z
C1 C 1.2197(2) 0.4085(2) 0.72609(16)
C2 C 1.0839(2) 0.3766(2) 0.75505(17)
C3 C 0.9772(3) 0.9228(2) 0.60426(18)
C4 C 0.9777(2) 0.3336(2) 0.73308(18)
C5 C 1.1968(3) 0.7249(2) 0.65574(19)
C6 C 0.7992(2) 0.6297(2) 0.50271(17)
C7 C 1.1010(2) 0.4395(2) 0.74124(18)
H1 H 1.0656 0.4728 0.7420
C8 C 1.2146(2) 0.5692(2) 0.73059(18)
C9 C 1.1812(2) 0.5246(2) 0.70674(18)
C10 C 0.6989(3) 0.5045(3) 0.97414(17)
C11 C 0.9617(3) 0.7775(2) 0.52026(17)
C12 C 1.1385(2) 0.3283(2) 0.75280(17)
C13 C 1.2053(2) 0.3441(2) 0.73904(16)
H2 H 1.2411 0.3111 0.7385
C14 C 0.9749(3) 0.9905(2) 0.59640(18)
H3 H 0.9552 1.0088 0.5702
C15 C 0.7017(3) 0.5731(3) 0.55094(19)
C16 C 1.2236(2) 0.6347(2) 0.71169(18)
C17 C 0.7840(3) 0.6394(2) 0.45607(18)
C18 C 0.9550(3) 0.9577(2) 0.78954(19)
H4 H 0.9340 0.9333 0.7678
C19 C 0.8179(3) 0.5252(2) 0.54818(18)
C20 C 0.5149(2) 0.4723(3) 0.87101(17)
H5 H 0.4840 0.4558 0.8523
C21 C 1.1571(3) 0.5424(2) 0.66353(19)
C22 C 1.1680(2) 0.4569(2) 0.72608(17)
C23 C 1.1628(3) 0.6091(3) 0.64616(19)
C24 C 0.8452(3) 0.7387(2) 0.44729(18)
C25 C 1.0155(3) 1.0268(2) 0.85140(19)
C26 C 1.0116(2) 0.3596(2) 0.76846(19)
C27 C 1.0290(3) 1.0031(2) 0.66516(18)
H6 H 1.0463 1.0314 0.6866
C28 C 0.8780(3) 0.8805(2) 0.57245(18)
C29 C 0.8600(3) 0.7311(2) 0.49405(17)
C30 C 1.1505(3) 0.7685(2) 0.68365(18)
H7 H 1.1200 0.7516 0.7102
C31 C 0.8737(2) 0.3299(2) 0.7939(2)
C32 C 0.7787(3) 0.2613(3) 0.8347(2)
H8 H 0.8103 0.2288 0.8436
C33 C 0.9484(3) 0.8755(2) 0.57331(18)
C34 C 0.9772(3) 0.3717(3) 0.8159(2)
C35 C 1.2416(3) 0.5525(3) 0.77376(18)
H9 H 1.2343 0.5102 0.7878
C36 C 1.3391(2) 0.3800(3) 0.7123(2)
H10 H 1.3823 0.4002 0.7009
H11 H 1.3346 0.3428 0.6910
H12 H 1.3380 0.3642 0.7457
C37 C 1.1916(3) 0.7927(3) 0.85780(19)
H13 H 1.2123 0.7741 0.8834
C38 C 0.5108(3) 0.4868(3) 0.72595(18)
H14 H 0.5095 0.4421 0.7165
C39 C 1.0117(3) 0.3216(2) 0.68427(19)
H15 H 1.0575 0.3330 0.6751
C40 C 1.1958(3) 0.6540(2) 0.67049(19)
C41 C 1.0531(3) 0.9892(2) 0.81381(18)
H16 H 1.1013 0.9876 0.8096
C42 C 1.1128(3) 0.6524(3) 0.8758(2)
H17 H 1.1442 0.6681 0.8493
C43 C 0.5358(3) 0.5301(3) 0.94155(18)
H18 H 0.5198 0.5534 0.9712
C44 C 1.1983(3) 0.8467(2) 0.78085(18)
H19 H 1.2254 0.8648 0.7531
C45 C 0.8383(3) 0.9932(3) 0.8293(2)
C46 C 0.7574(3) 0.6010(3) 0.99642(19)
C47 C 1.0188(3) 0.6032(3) 0.9511(2)
H20 H 0.9869 0.5856 0.9765
C48 C 0.8773(3) 0.2898(3) 0.7089(2)
H21 H 0.8312 0.2788 0.7168
C49 C 1.0059(3) 0.7263(2) 0.49530(19)
H22 H 0.9872 0.6935 0.4782
C50 C 1.1272(3) 0.4966(3) 0.6354(2)
H23 H 1.1240 0.4520 0.6456
C51 C 1.0017(3) 1.0306(2) 0.62711(19)
C52 C 1.2770(3) 0.5947(3) 0.7952(2)
H24 H 1.2947 0.5818 0.8235
C53 C 1.1203(3) 0.7937(3) 0.86004(19)
C54 C 0.6991(3) 0.9800(3) 0.8293(3)
C55 C 0.4895(3) 0.5055(3) 0.91412(18)
C56 C 0.7382(3) 0.8877(3) 0.5677(2)
H25 H 0.6914 0.8916 0.5654
C57 C 0.5183(3) 0.6851(3) 0.7681(2)
C58 C 0.9902(3) 0.8259(2) 0.54732(18)
C59 C 1.0066(3) 0.8988(2) 0.64282(18)
H26 H 1.0088 0.8525 0.6481
C60 C 0.9076(3) 0.3558(3) 0.8291(2)
C61 C 0.5131(3) 0.6149(2) 0.75311(18)
C62 C 0.8925(3) 0.7825(2) 0.51913(18)
C63 C 1.0741(3) 0.7668(3) 0.90136(18)
C64 C 1.1024(3) 0.7716(3) 0.5210(2)
H27 H 1.1499 0.7693 0.5211
C65 C 0.7788(3) 0.8394(3) 0.54306(19)
H28 H 0.7596 0.8084 0.5247
C66 C 0.4707(3) 0.5992(3) 0.72081(19)
H29 H 0.4428 0.6325 0.7086
C67 C 0.6045(3) 0.5201(3) 0.92497(19)
C68 C 1.2299(3) 0.8192(3) 0.81774(18)
C69 C 0.7725(3) 0.5740(2) 0.53400(17)
C70 C 0.8008(3) 0.3159(3) 0.8074(2)
C71 C 0.6258(3) 0.4851(3) 0.88147(19)
H30 H 0.6731 0.4769 0.8704
C72 C 0.6765(3) 0.5192(3) 0.5810(2)
C73 C 0.6568(3) 0.5472(3) 0.95050(19)
C74 C 0.7220(3) 0.4697(3) 0.59509(19)
C75 C 1.0634(3) 0.8211(3) 0.5454(2)
H31 H 1.0840 0.8534 0.5616
C76 C 0.6642(3) 0.3040(3) 0.8352(2)
H32 H 0.6168 0.3003 0.8455
C77 C 0.8075(3) 0.6929(3) 0.42755(18)
H33 H 0.7982 0.6980 0.3954
C78 C 1.0189(3) 0.6734(3) 0.94531(18)
C79 C 0.8504(3) 0.8337(2) 0.54388(18)
C80 C 1.0745(3) 0.7231(3) 0.49530(19)
H34 H 1.1029 0.6887 0.4782
C81 C 0.9156(3) 0.6908(3) 1.0078(2)
C82 C 1.0934(3) 0.8222(3) 0.82211(18)
H35 H 1.0456 0.8233 0.8236
C83 C 0.8328(3) 0.9284(3) 0.5997(2)
H36 H 0.8499 0.9581 0.6203
C84 C 0.4700(3) 0.5340(3) 0.70694(18)
C85 C 0.3763(3) 0.4921(3) 0.9033(2)
H37 H 0.3297 0.5031 0.9196
H38 H 0.3837 0.4441 0.9000
H39 H 0.3837 0.5123 0.8709
C86 C 1.0704(3) 0.6984(3) 0.90701(18)
C87 C 0.9457(3) 1.0285(3) 0.8580(2)
H40 H 0.9195 1.0531 0.8843
C88 C 1.2879(3) 0.6588(3) 0.7752(2)
H41 H 1.3143 0.6879 0.7898
C89 C 1.0617(3) 0.5615(3) 0.9222(2)
H42 H 1.0603 0.5153 0.9279
C90 C 0.9799(3) 0.2944(3) 0.6510(2)
H43 H 1.0039 0.2860 0.6190
C91 C 0.7972(3) 0.9711(3) 0.8716(2)
C92 C 1.2612(3) 0.6785(3) 0.7359(2)
H44 H 1.2673 0.7221 0.7240
C93 C 0.6560(3) 0.6241(3) 0.5409(2)
H45 H 0.6731 0.6599 0.5214
C94 C 0.5517(3) 0.5651(3) 0.77029(19)
H46 H 0.5800 0.5760 0.7929
C95 C 0.7499(3) 0.5321(3) 0.99722(18)
C96 C 0.9778(3) 0.7863(3) 0.96771(19)
C97 C 0.9719(3) 0.7169(3) 0.97318(18)
C98 C 0.4605(3) 0.6620(3) 0.8522(2)
H47 H 0.4525 0.6186 0.8430
C99 C 0.9113(3) 0.2783(3) 0.6632(2)
H48 H 0.8892 0.2595 0.6393
C100 C 0.9135(3) 0.9940(2) 0.8259(2)
C101 C 0.5037(3) 0.7715(3) 0.8321(2)
C102 C 0.8111(3) 0.6308(3) 1.0198(2)
C103 C 1.1884(3) 0.8567(3) 0.63688(19)
H49 H 1.1853 0.9025 0.6299
C104 C 0.7834(3) 0.4226(3) 1.0220(2)
H50 H 0.8118 0.3942 1.0381
C105 C 0.6719(3) 0.4353(3) 0.6776(2)
H51 H 0.6720 0.4803 0.6867
C106 C 0.8521(3) 0.8073(3) 0.37603(19)
H52 H 0.8732 0.8475 0.3630
H53 H 0.8026 0.8138 0.3795
H54 H 0.8679 0.7704 0.3536
C107 C 1.2400(3) 0.7492(3) 0.6168(2)
H55 H 1.2722 0.7206 0.5968
C108 C 0.7923(3) 0.4724(3) 0.57975(19)
C109 C 1.0376(3) 0.8801(3) 0.9295(2)
H56 H 1.0731 0.8970 0.9064
C110 C 0.6908(3) 0.4353(3) 0.97677(18)
H57 H 0.6564 0.4167 0.9624
C111 C 0.8654(3) 0.6557(3) 0.9900(2)
H58 H 0.8698 0.6491 0.9558
C112 C 0.8101(3) 1.0139(3) 0.7887(2)
C113 C 0.3795(3) 0.5554(3) 0.6622(2)
H59 H 0.3558 0.5335 0.6392
H60 H 0.3994 0.5951 0.6470
H61 H 0.3472 0.5678 0.6917
C114 C 0.4946(3) 0.7051(3) 0.8166(2)
C115 C 0.7392(3) 1.0057(3) 0.7887(3)
C116 C 1.1160(3) 1.0624(3) 0.8769(2)
H62 H 1.1293 1.0896 0.9022
H63 H 1.1336 1.0803 0.8447
H64 H 1.1347 1.0171 0.8792
C117 C 0.7091(3) 0.2551(3) 0.8486(2)
C118 C 1.0305(3) 0.8108(3) 0.93259(18)
C119 C 0.7450(3) 0.6172(3) 1.14867(19)
H65 H 0.7040 0.5964 1.1644
H66 H 0.7422 0.6639 1.1581
H67 H 0.7849 0.5950 1.1590
C120 C 0.9810(4) 1.1267(3) 0.5818(2)
H68 H 0.9836 1.1747 0.5832
H69 H 0.9340 1.1159 0.5814
H70 H 1.0102 1.1094 0.5521
C121 C 0.7530(3) 0.3613(3) 0.7950(2)
H71 H 0.7682 0.3982 0.7759
C122 C 0.4805(3) 0.7895(3) 0.8813(2)
H72 H 0.4863 0.8329 0.8919
C123 C 0.8054(3) 0.6387(3) 1.0697(2)
C124 C 1.1734(3) 0.2159(3) 0.7648(2)
H73 H 1.1541 0.1732 0.7733
H74 H 1.2009 0.2278 0.7890
H75 H 1.2019 0.2127 0.7325
C125 C 0.6122(3) 0.9021(3) 0.8160(3)
H76 H 0.6481 0.8691 0.8096
C126 C 0.7655(3) 0.9328(3) 0.5971(2)
H77 H 0.7366 0.9661 0.6150
C127 C 1.1093(3) 0.5857(3) 0.8831(2)
H78 H 1.1386 0.5557 0.8622
C128 C 0.7924(3) 0.4883(3) 1.02052(19)
H79 H 0.8274 0.5053 1.0352
C129 C 0.8533(3) 0.6730(3) 1.0895(2)
H80 H 0.8490 0.6782 1.1237
C130 C 0.9403(3) 0.8994(3) 0.9923(2)
H81 H 0.9098 0.9297 1.0122
C131 C 0.6647(3) 0.6152(3) 0.9491(2)
C132 C 0.9067(3) 0.6993(3) 1.0586(2)
C133 C 1.2358(3) 0.8161(3) 0.6074(2)
C134 C 0.7153(3) 0.6426(3) 0.9735(2)
C135 C 0.9938(3) 0.9230(3) 0.9594(2)
H82 H 1.0002 0.9690 0.9576
C136 C 0.4396(4) 0.6820(3) 0.8985(2)
H83 H 0.4170 0.6525 0.9216
C137 C 0.8892(3) 0.5261(3) 0.53284(19)
H84 H 0.9074 0.5596 0.5113
C138 C 0.8226(3) 0.9498(3) 0.9143(3)
H85 H 0.8700 0.9501 0.9143
C139 C 0.5349(3) 0.8160(3) 0.7978(2)
C140 C 0.9384(3) 0.7630(3) 1.1222(2)
H86 H 0.9765 0.7879 1.1287
H87 H 0.9302 0.7276 1.1462
H88 H 0.8976 0.7927 1.1245
C141 C 0.7325(3) 0.3958(3) 1.0000(2)
H89 H 0.7271 0.3495 1.0013
C142 C 0.6951(4) 0.4176(3) 0.6297(2)
C143 C 0.7820(3) 0.9293(3) 0.9548(3)
H90 H 0.8006 0.9153 0.9826
C144 C 1.1045(3) 0.5824(3) 0.5798(2)
H91 H 1.0851 0.5956 0.5522
C145 C 0.5562(3) 0.7969(3) 0.7495(2)
C146 C 0.7262(3) 0.9655(3) 0.8713(3)
C147 C 1.1034(3) 0.5161(3) 0.5948(2)
H92 H 1.0857 0.4846 0.5760
C148 C 1.0099(3) 0.3979(3) 0.8535(2)
H93 H 1.0556 0.4100 0.8452
C149 C 0.5768(3) 0.7121(3) 0.6853(2)
H94 H 0.5751 0.6676 0.6754
C150 C 0.6046(3) 0.5193(4) 0.5969(2)
H95 H 0.5862 0.4834 0.6157
C151 C 0.7175(4) 0.6078(3) 0.3972(2)
H96 H 0.6910 0.5710 0.3900
H97 H 0.7543 0.6140 0.3698
H98 H 0.6879 0.6481 0.4024
C152 C 0.5459(3) 0.8847(3) 0.8130(3)
C153 C 0.7241(3) 0.1495(3) 0.8837(3)
H99 H 0.6978 0.1163 0.9029
H100 H 0.7584 0.1647 0.9016
H101 H 0.7466 0.1300 0.8525
C154 C 0.7118(3) 1.0253(3) 0.7458(3)
H102 H 0.6656 1.0185 0.7446
C155 C 0.8203(3) 1.0637(3) 0.7083(3)
H103 H 0.8472 1.0840 0.6814
C156 C 0.5070(3) 0.9970(3) 0.8349(3)
H104 H 0.4707 1.0297 0.8415
C157 C 0.7509(4) 1.0534(3) 0.7069(3)
H105 H 0.7318 1.0661 0.6791
C158 C 0.9078(4) 0.3914(4) 0.9125(3)
H106 H 0.8850 0.3984 0.9450
C159 C 0.9782(4) 0.4057(4) 0.8992(3)
H107 H 1.0022 0.4207 0.9233
C160 C 1.1330(3) 0.6275(3) 0.6043(2)
H108 H 1.1333 0.6720 0.5937
C161 C 0.4944(3) 0.9337(3) 0.8232(3)
C162 C 0.4507(4) 0.7463(3) 0.9132(3)
H109 H 0.4366 0.7592 0.9463
C163 C 0.8393(4) 0.4270(3) 0.5961(2)
H110 H 0.8230 0.3930 0.6178
C164 C 0.9321(3) 0.4789(3) 0.5490(2)
H111 H 0.9796 0.4792 0.5376
C165 C 0.6840(3) 0.9446(3) 0.9150(3)
H112 H 0.6366 0.9419 0.9156
C166 C 0.6044(4) 0.7560(4) 0.6523(3)
H113 H 0.6215 0.7424 0.6197
C167 C 0.8480(3) 1.0449(3) 0.7472(2)
H114 H 0.8944 1.0523 0.7472
C168 C 0.5503(3) 0.7298(3) 0.7340(2)
C169 C 0.8741(3) 0.3679(3) 0.8780(2)
H115 H 0.8274 0.3594 0.8868
C170 C 0.9310(3) 0.8338(3) 0.9965(2)
H116 H 0.8934 0.8189 1.0185
C171 C 0.9071(4) 0.4306(4) 0.5816(2)
H117 H 0.9376 0.4000 0.5939
C172 C 0.5848(4) 0.8424(3) 0.7129(3)
H118 H 0.5877 0.8872 0.7216
C173 C 0.5740(3) 1.0130(3) 0.8370(3)
C174 C 0.6275(3) 0.9645(3) 0.8277(3)
C175 C 0.5891(4) 0.6244(4) 0.5579(2)
H119 H 0.5600 0.6608 0.5515
C176 C 0.7101(3) 0.9289(3) 0.9552(3)
H120 H 0.6807 0.9173 0.9841
C177 C 0.6335(5) 0.7246(4) 0.9235(4)
H121 H 0.6079 0.7529 0.9053
C178 C 0.6481(5) 0.3292(3) 0.6995(3)
H122 H 0.6335 0.2981 0.7242
C179 C 0.3766(4) 0.9640(4) 0.8271(4)
H123 H 0.3344 0.9446 0.8224
H124 H 0.3856 1.0011 0.8047
H125 H 0.3722 0.9796 0.8608
C180 C 0.6922(5) 0.3528(4) 0.6163(3)
H126 H 0.7070 0.3393 0.5834
C181 C 0.5619(4) 0.5695(5) 0.5857(3)
H127 H 0.5143 0.5681 0.5963
C182 C 0.6674(6) 0.3073(4) 0.6514(3)
C183 C 1.3283(6) 0.8023(6) 0.8511(4)
H128 H 1.2981 0.7968 0.8755
H129 H 1.3570 0.8373 0.8582
H130 H 1.3561 0.7611 0.8439
C184 C 0.6238(4) 0.6598(4) 0.9245(3)
H131 H 0.5896 0.6432 0.9089
C185 C 0.5383(4) 1.1254(4) 0.8566(4)
H132 H 0.5571 1.1668 0.8646
H133 H 0.5032 1.1131 0.8837
H134 H 0.5184 1.1314 0.8270
C186 C 0.7204(4) 0.7119(4) 0.9728(3)
H135 H 0.7522 0.7307 0.9897
C187 C 1.2860(8) 0.9073(7) 0.5652(6)
H136 H 1.3176 0.9155 0.5351
H137 H 1.3044 0.9233 0.5931
H138 H 1.2421 0.9304 0.5640
C188 C 0.6078(4) 0.8227(4) 0.6664(3)
H139 H 0.6264 0.8538 0.6430
C189 C 0.6264(10) 0.1989(7) 0.6684(6)
H140 H 0.5904 0.2219 0.6916
H141 H 0.6576 0.1741 0.6864
H142 H 0.6063 0.1684 0.6485
C190 C 0.6812(5) 0.7521(4) 0.9489(4)
H143 H 0.6856 0.7985 0.9491
C191 C 0.9087(3) 0.3179(2) 0.74594(19)
C192 C 0.8368(3) 0.6760(2) 0.52107(18)
H144 H 0.8471 0.6701 0.5529
C193 C 0.4656(3) 0.2666(3) 0.7610(2)
C194 C 0.7478(3) 0.6113(3) 0.7971(3)
C195 C 1.2630(3) 1.0306(2) 0.7301(2)
F1 F 0.4676(3) 0.2969(3) 0.71877(16)
F2 F 0.4066(3) 0.2390(3) 0.7729(3)
F3 F 0.5153(3) 0.2193(2) 0.7561(2)
F4 F 0.6877(3) 0.6445(3) 0.8020(3)
F5 F 0.7563(4) 0.5898(4) 0.8405(2)
F6 F 0.7954(3) 0.6522(3) 0.7805(3)
F7 F 1.2442(2) 1.0312(2) 0.77826(14)
F8 F 1.30776(19) 0.9800(2) 0.71779(18)
F9 F 1.2947(2) 1.0856(2) 0.71698(19)
N1 N 0.5514(2) 0.5013(2) 0.75675(15)
N2 N 0.6494(3) 0.3920(2) 0.71177(18)
N3 N 0.6855(2) 0.3559(2) 0.80858(17)
N4 N 0.5820(2) 0.4628(2) 0.85483(16)
N5 N 1.0229(2) 0.9548(2) 0.78311(15)
N6 N 1.0322(2) 0.93807(19) 0.67307(15)
N7 N 1.1468(2) 0.83340(19) 0.67488(15)
N8 N 1.1312(2) 0.8483(2) 0.78324(15)
O1 O 0.87037(19) 0.79294(17) 0.42271(13)
O2 O 0.74535(18) 0.59338(17) 0.44015(12)
O3 O 0.75089(19) 0.6120(2) 1.09769(13)
O4 O 0.6623(5) 0.2451(3) 0.6381(3)
O5 O 1.0033(2) 1.09754(17) 0.62353(14)
O6 O 0.67936(19) 0.20456(19) 0.87471(17)
O7 O 1.11960(17) 0.26523(16) 0.76413(13)
O8 O 1.28423(16) 0.42786(16) 0.71122(12)
O9 O 1.2780(3) 0.8427(2) 0.56980(18)
O10 O 0.42337(17) 0.51703(19) 0.93175(13)
O11 O 0.9544(2) 0.7352(2) 1.07440(13)
O12 O 1.29812(19) 0.8200(2) 0.81140(14)
O13 O 0.43183(18) 0.51160(18) 0.67452(13)
O14 O 0.4316(2) 0.9152(2) 0.8174(2)
O15 O 0.5919(2) 1.0739(2) 0.8486(2)
O16 O 1.04311(18) 1.06272(19) 0.88333(13)
O17 O 1.00623(19) 0.81968(17) 0.73916(13)
O18 O 0.5403(2) 0.3520(2) 0.7891(2)
O19 O 0.4808(3) 0.2802(3) 0.84953(18)
O20 O 0.4192(2) 0.3685(3) 0.8128(2)
O21 O 0.6956(3) 0.5038(3) 0.7777(2)
O22 O 0.8161(3) 0.5131(4) 0.7512(3)
O23 O 0.7350(4) 0.5770(4) 0.7118(2)
O24 O 1.14744(18) 1.08146(16) 0.71698(15)
O25 O 1.16311(18) 0.96257(15) 0.71824(12)
O26 O 1.2179(2) 1.0237(2) 0.64915(13)
S1 S 0.47702(9) 0.32378(9) 0.80855(7)
S2 S 0.74987(16) 0.54272(15) 0.75512(11)
S3 S 1.18971(7) 1.02475(6) 0.70074(5)
Zn1 Zn 0.61685(3) 0.42687(3) 0.78389(2)
Zn2 Zn 1.08079(3) 0.89290(3) 0.72807(2)
C196 C 0.3232(7) 0.1651(6) 0.8666(5)
F10 F 0.3724(9) 0.1332(8) 0.8375(6)
F11 F 0.3465(10) 0.2160(7) 0.8868(6)
F12 F 0.2752(9) 0.1867(10) 0.8420(6)
O27 O 0.3394(8) 0.0960(11) 0.9411(7)
O28 O 0.2299(8) 0.1538(8) 0.9391(6)
O29 O 0.2643(11) 0.0576(7) 0.8887(7)
S4 S 0.2852(5) 0.1109(5) 0.9156(4)
C197 C 0.0552(12) 0.3683(12) 0.1603(8)
C198 C 0.0100(12) 0.3504(12) 0.2077(9)
H145 H -0.0240 0.3865 0.2176
H146 H 0.0379 0.3431 0.2332
H147 H -0.0128 0.3101 0.2029
N9 N 0.0915(10) 0.4111(11) 0.1430(7)
C199 C 0.4716(14) 0.3970(13) 0.5861(10)
C200 C 0.4532(11) 0.4448(10) 0.5497(8)
H148 H 0.4069 0.4381 0.5443
H149 H 0.4848 0.4382 0.5189
H150 H 0.4555 0.4897 0.5616
N10 N 0.4943(11) 0.3575(11) 0.6125(8)
C201 C 0.7475(10) 0.0682(9) 0.0415(7)
C202 C 0.6832(9) 0.0889(8) 0.0260(6)
H151 H 0.6910 0.0962 -0.0093
H152 H 0.6647 0.1299 0.0428
H153 H 0.6508 0.0544 0.0341
N11 N 0.7842(9) 0.0533(8) 0.0704(7)
C203 C 0.8633(5) 1.0016(4) 0.4806(3)
C204 C 0.8342(6) 0.9528(5) 0.4539(4)
H154 H 0.7946 0.9728 0.4419
H155 H 0.8204 0.9159 0.4754
H156 H 0.8681 0.9366 0.4262
N12 N 0.8928(4) 1.0355(4) 0.5019(3)
C205 C 0.9559(3) 0.1695(2) 0.7916(2)
C206 C 0.9999(3) 0.1618(3) 0.7449(2)
H157 H 0.9751 0.1767 0.7190
H158 H 1.0150 0.1152 0.7396
H159 H 1.0395 0.1882 0.7443
N13 N 0.9220(3) 0.1747(2) 0.8287(2)
C207 C 0.1375(9) 0.2084(13) 0.1463(9)
C208 C 0.2087(8) 0.2028(10) 0.1584(9)
H160 H 0.2134 0.2373 0.1819
H161 H 0.2419 0.2082 0.1286
H162 H 0.2168 0.1594 0.1725
N14 N 0.0800(8) 0.1932(9) 0.1623(7)
C209 C 0.8370(4) 0.2178(4) 0.9917(3)
C210 C 0.8995(3) 0.2016(4) 0.9575(3)
H163 H 0.8913 0.2085 0.9241
H164 H 0.9142 0.1554 0.9616
H165 H 0.9350 0.2301 0.9638
N15 N 0.7880(4) 0.2285(4) 1.0193(3)
C211 C 0.5216(8) 0.3039(7) 0.9599(5)
C212 C 0.5116(9) 0.2330(6) 0.9573(6)
H166 H 0.4630 0.2261 0.9603
H167 H 0.5297 0.2103 0.9838
H168 H 0.5355 0.2153 0.9259
N16 N 0.5436(6) 0.3533(6) 0.9626(4)
C213 C 0.3383(10) 0.1772(9) 0.6247(8)
C214 C 0.3453(11) 0.1191(9) 0.5931(8)
H169 H 0.3693 0.1302 0.5607
H170 H 0.3002 0.1046 0.5905
H171 H 0.3711 0.0835 0.6070
N17 N 0.3239(11) 0.2235(14) 0.6504(12)
C215 C 0.7314(4) 0.3773(3) 0.4815(3)
C216 C 0.7143(5) 0.4406(3) 0.4598(3)
H172 H 0.6654 0.4512 0.4686
H173 H 0.7270 0.4376 0.4243
H174 H 0.7392 0.4753 0.4722
N18 N 0.7469(3) 0.3281(3) 0.4979(2)
C217 C 0.8230(8) 0.8266(9) 0.7079(6)
C218 C 0.7804(8) 0.7853(9) 0.6839(6)
H175 H 0.7371 0.8095 0.6824
H176 H 0.7720 0.7447 0.7026
H177 H 0.8037 0.7742 0.6509
N19 N 0.8734(7) 0.8397(7) 0.7217(5)
C219 C 1.4054(6) 0.7789(7) 0.6690(5)
C220 C 1.4040(9) 0.8361(8) 0.7005(7)
H178 H 1.4079 0.8761 0.6807
H179 H 1.4420 0.8315 0.7185
N20 N 1.4055(5) 0.7319(5) 0.6449(4)
C221 C 0.5642(7) 0.0263(8) 0.6215(5)
C222 C 0.5655(4) 0.0404(4) 0.5674(3)
H180 H 0.5188 0.0461 0.5611
H181 H 0.5892 0.0034 0.5479
H182 H 0.5892 0.0808 0.5585
N21 N 0.6015(7) 0.0088(7) 0.6515(5)
C223 C 0.7784(9) 0.1672(10) 0.5870(6)
C224 C 0.7452(9) 0.1535(10) 0.5458(5)
H183 H 0.7067 0.1855 0.5455
H184 H 0.7288 0.1088 0.5487
H185 H 0.7776 0.1569 0.5154
N22 N 0.8027(8) 0.1785(9) 0.6206(5)
C225 C 0.9549(14) 0.6693(11) 0.6599(10)
C226 C 0.9417(14) 0.5986(10) 0.6604(11)
H186 H 0.9183 0.5887 0.6333
H187 H 0.9132 0.5877 0.6913
H188 H 0.9849 0.5723 0.6568
N23 N 0.9747(12) 0.7206(10) 0.6729(8)
O30 O 0.3972(7) 0.2032(5) 0.4885(5)
O31 O 0.4893(9) 0.0515(9) 0.9899(7)
loop_
_geom_bond_atom_site_label_1
_geom_bond_atom_site_label_2
_geom_bond_site_symmetry_1
_geom_bond_site_symmetry_2
C1 C13 1_555 1_555
C2 C7 1_555 1_555
C3 C14 1_555 1_555
C4 C26 1_555 1_555
C5 C30 1_555 1_555
C6 C17 1_555 1_555
C7 H1 1_555 1_555
C8 C9 1_555 1_555
C9 C21 1_555 1_555
C10 C73 1_555 1_555
C11 C49 1_555 1_555
C12 C2 1_555 1_555
C13 C12 1_555 1_555
H2 C13 1_555 1_555
C14 H3 1_555 1_555
C15 C69 1_555 1_555
C16 C8 1_555 1_555
C17 C77 1_555 1_555
C18 H4 1_555 1_555
C19 C69 1_555 1_555
C20 H5 1_555 1_555
C21 C23 1_555 1_555
C22 C1 1_555 1_555
C23 C40 1_555 1_555
C24 C29 1_555 1_555
C25 C41 1_555 1_555
C26 C2 1_555 1_555
C27 H6 1_555 1_555
C28 C33 1_555 1_555
C29 C62 1_555 1_555
C30 H7 1_555 1_555
C31 C60 1_555 1_555
C32 H8 1_555 1_555
C33 C3 1_555 1_555
C34 C26 1_555 1_555
C35 C8 1_555 1_555
H9 C35 1_555 1_555
C36 H10 1_555 1_555
H11 C36 1_555 1_555
H12 C36 1_555 1_555
C37 H13 1_555 1_555
C38 H14 1_555 1_555
C39 C4 1_555 1_555
H15 C39 1_555 1_555
C40 C5 1_555 1_555
C41 H16 1_555 1_555
C42 H17 1_555 1_555
C43 H18 1_555 1_555
C44 H19 1_555 1_555
C45 C91 1_555 1_555
C46 C95 1_555 1_555
C47 H20 1_555 1_555
C48 H21 1_555 1_555
C49 H22 1_555 1_555
C50 C21 1_555 1_555
H23 C50 1_555 1_555
C51 C14 1_555 1_555
C52 C35 1_555 1_555
H24 C52 1_555 1_555
C53 C37 1_555 1_555
C54 C115 1_555 1_555
C55 C20 1_555 1_555
C56 H25 1_555 1_555
C57 C61 1_555 1_555
C58 C11 1_555 1_555
C59 C3 1_555 1_555
H26 C59 1_555 1_555
C60 C34 1_555 1_555
C61 C66 1_555 1_555
C62 C11 1_555 1_555
C63 C53 1_555 1_555
C64 H27 1_555 1_555
C65 C56 1_555 1_555
H28 C65 1_555 1_555
C66 H29 1_555 1_555
C67 C43 1_555 1_555
C68 C37 1_555 1_555
C69 C6 1_555 1_555
C70 C31 1_555 1_555
C71 C67 1_555 1_555
H30 C71 1_555 1_555
C72 C15 1_555 1_555
C73 C67 1_555 1_555
C74 C72 1_555 1_555
C75 C58 1_555 1_555
H31 C75 1_555 1_555
C76 H32 1_555 1_555
C77 C24 1_555 1_555
H33 C77 1_555 1_555
C78 C47 1_555 1_555
C79 C28 1_555 1_555
C80 C49 1_555 1_555
H34 C80 1_555 1_555
C81 C97 1_555 1_555
C82 C53 1_555 1_555
H35 C82 1_555 1_555
C83 C28 1_555 1_555
H36 C83 1_555 1_555
C84 C38 1_555 1_555
C85 H37 1_555 1_555
H38 C85 1_555 1_555
H39 C85 1_555 1_555
C86 C42 1_555 1_555
C87 C25 1_555 1_555
H40 C87 1_555 1_555
C88 C52 1_555 1_555
H41 C88 1_555 1_555
C89 C47 1_555 1_555
H42 C89 1_555 1_555
C90 C39 1_555 1_555
H43 C90 1_555 1_555
C91 C138 1_555 1_555
C92 C16 1_555 1_555
H44 C92 1_555 1_555
C93 C15 1_555 1_555
H45 C93 1_555 1_555
C94 C61 1_555 1_555
H46 C94 1_555 1_555
C95 C10 1_555 1_555
C96 C97 1_555 1_555
C97 C78 1_555 1_555
C98 H47 1_555 1_555
C99 C48 1_555 1_555
H48 C99 1_555 1_555
C100 C18 1_555 1_555
C101 C114 1_555 1_555
C102 C46 1_555 1_555
C103 H49 1_555 1_555
C104 H50 1_555 1_555
C105 H51 1_555 1_555
C106 H52 1_555 1_555
H53 C106 1_555 1_555
H54 C106 1_555 1_555
C107 C5 1_555 1_555
H55 C107 1_555 1_555
C108 C19 1_555 1_555
C109 H56 1_555 1_555
C110 C10 1_555 1_555
H57 C110 1_555 1_555
C111 C81 1_555 1_555
H58 C111 1_555 1_555
C112 C45 1_555 1_555
C113 H59 1_555 1_555
H60 C113 1_555 1_555
H61 C113 1_555 1_555
C114 C57 1_555 1_555
C115 C112 1_555 1_555
C116 H62 1_555 1_555
H63 C116 1_555 1_555
H64 C116 1_555 1_555
C117 C32 1_555 1_555
C118 C63 1_555 1_555
C119 H65 1_555 1_555
H66 C119 1_555 1_555
H67 C119 1_555 1_555
C120 H68 1_555 1_555
H69 C120 1_555 1_555
H70 C120 1_555 1_555
C121 C70 1_555 1_555
H71 C121 1_555 1_555
C122 C101 1_555 1_555
H72 C122 1_555 1_555
C123 C102 1_555 1_555
C124 H73 1_555 1_555
H74 C124 1_555 1_555
H75 C124 1_555 1_555
C125 H76 1_555 1_555
C126 C56 1_555 1_555
H77 C126 1_555 1_555
C127 C42 1_555 1_555
H78 C127 1_555 1_555
C128 C95 1_555 1_555
H79 C128 1_555 1_555
C129 C123 1_555 1_555
H80 C129 1_555 1_555
C130 H81 1_555 1_555
C131 C73 1_555 1_555
C132 C81 1_555 1_555
C133 C103 1_555 1_555
C134 C46 1_555 1_555
C135 C109 1_555 1_555
H82 C135 1_555 1_555
C136 C98 1_555 1_555
H83 C136 1_555 1_555
C137 C19 1_555 1_555
H84 C137 1_555 1_555
C138 H85 1_555 1_555
C139 C101 1_555 1_555
C140 H86 1_555 1_555
H87 C140 1_555 1_555
H88 C140 1_555 1_555
C141 C104 1_555 1_555
H89 C141 1_555 1_555
C142 C74 1_555 1_555
C143 C138 1_555 1_555
H90 C143 1_555 1_555
C144 H91 1_555 1_555
C145 C139 1_555 1_555
C146 C54 1_555 1_555
C147 C50 1_555 1_555
H92 C147 1_555 1_555
C148 C34 1_555 1_555
H93 C148 1_555 1_555
C149 H94 1_555 1_555
C150 C72 1_555 1_555
H95 C150 1_555 1_555
C151 H96 1_555 1_555
H97 C151 1_555 1_555
H98 C151 1_555 1_555
C152 C125 1_555 1_555
C153 H99 1_555 1_555
H100 C153 1_555 1_555
H101 C153 1_555 1_555
C154 C115 1_555 1_555
H102 C154 1_555 1_555
C155 H103 1_555 1_555
C156 H104 1_555 1_555
C157 C154 1_555 1_555
H105 C157 1_555 1_555
C158 H106 1_555 1_555
C159 C148 1_555 1_555
H107 C159 1_555 1_555
C160 C23 1_555 1_555
H108 C160 1_555 1_555
C161 C152 1_555 1_555
C162 C122 1_555 1_555
H109 C162 1_555 1_555
C163 C108 1_555 1_555
H110 C163 1_555 1_555
C164 C137 1_555 1_555
H111 C164 1_555 1_555
C165 C146 1_555 1_555
H112 C165 1_555 1_555
C166 C149 1_555 1_555
H113 C166 1_555 1_555
C167 C112 1_555 1_555
H114 C167 1_555 1_555
C168 C57 1_555 1_555
C169 C60 1_555 1_555
H115 C169 1_555 1_555
C170 C96 1_555 1_555
H116 C170 1_555 1_555
C171 C163 1_555 1_555
H117 C171 1_555 1_555
C172 C145 1_555 1_555
H118 C172 1_555 1_555
C173 C156 1_555 1_555
C174 C54 1_555 1_555
C175 C93 1_555 1_555
H119 C175 1_555 1_555
C176 C143 1_555 1_555
H120 C176 1_555 1_555
C177 H121 1_555 1_555
C178 H122 1_555 1_555
C179 H123 1_555 1_555
H124 C179 1_555 1_555
H125 C179 1_555 1_555
C180 C142 1_555 1_555
H126 C180 1_555 1_555
C181 C150 1_555 1_555
H127 C181 1_555 1_555
C182 C178 1_555 1_555
C183 H128 1_555 1_555
H129 C183 1_555 1_555
H130 C183 1_555 1_555
C184 C131 1_555 1_555
H131 C184 1_555 1_555
C185 H132 1_555 1_555
H133 C185 1_555 1_555
H134 C185 1_555 1_555
C186 C134 1_555 1_555
H135 C186 1_555 1_555
C187 H136 1_555 1_555
H137 C187 1_555 1_555
H138 C187 1_555 1_555
C188 C166 1_555 1_555
H139 C188 1_555 1_555
C189 H140 1_555 1_555
H141 C189 1_555 1_555
H142 C189 1_555 1_555
C190 C177 1_555 1_555
H143 C190 1_555 1_555
C191 C4 1_555 1_555
C192 C6 1_555 1_555
H144 C192 1_555 1_555
C193 F1 1_555 1_555
C194 F4 1_555 1_555
C195 F7 1_555 1_555
F2 C193 1_555 1_555
F3 C193 1_555 1_555
F5 C194 1_555 1_555
F6 C194 1_555 1_555
F8 C195 1_555 1_555
F9 C195 1_555 1_555
N1 C38 1_555 1_555
N2 C105 1_555 1_555
N3 C76 1_555 1_555
N4 C20 1_555 1_555
N5 C18 1_555 1_555
N6 C27 1_555 1_555
N7 C30 1_555 1_555
N8 C44 1_555 1_555
O1 C24 1_555 1_555
O2 C17 1_555 1_555
O3 C119 1_555 1_555
O4 C182 1_555 1_555
O5 C51 1_555 1_555
O6 C117 1_555 1_555
O7 C12 1_555 1_555
O8 C1 1_555 1_555
O9 C133 1_555 1_555
O10 C55 1_555 1_555
O11 C132 1_555 1_555
O12 C68 1_555 1_555
O13 C84 1_555 1_555
O14 C161 1_555 1_555
O15 C173 1_555 1_555
O16 C25 1_555 1_555
O17 Zn2 1_555 1_555
O18 S1 1_555 1_555
O19 S1 1_555 1_555
O20 S1 1_555 1_555
O21 S2 1_555 1_555
O22 S2 1_555 1_555
O23 S2 1_555 1_555
O24 S3 1_555 1_555
O25 S3 1_555 1_555
O26 S3 1_555 1_555
S1 C193 1_555 1_555
S2 C194 1_555 1_555
S3 C195 1_555 1_555
Zn1 N1 1_555 1_555
Zn2 N5 1_555 1_555
C196 F10 1_555 1_555
F11 C196 1_555 1_555
F12 C196 1_555 1_555
O27 S4 1_555 1_555
O28 S4 1_555 1_555
O29 S4 1_555 1_555
S4 C196 1_555 1_555
C197 C198 1_555 1_555
C198 H145 1_555 1_555
H146 C198 1_555 1_555
H147 C198 1_555 1_555
N9 C197 1_555 1_555
C199 C200 1_555 1_555
C200 H148 1_555 1_555
H149 C200 1_555 1_555
H150 C200 1_555 1_555
N10 C199 1_555 1_555
C201 C202 1_555 1_555
C202 H151 1_555 1_555
H152 C202 1_555 1_555
H153 C202 1_555 1_555
N11 C201 1_555 1_555
C203 C204 1_555 1_555
C204 H154 1_555 1_555
H155 C204 1_555 1_555
H156 C204 1_555 1_555
N12 C203 1_555 1_555
C205 C206 1_555 1_555
C206 H157 1_555 1_555
H158 C206 1_555 1_555
H159 C206 1_555 1_555
N13 C205 1_555 1_555
C207 C208 1_555 1_555
C208 H160 1_555 1_555
H161 C208 1_555 1_555
H162 C208 1_555 1_555
N14 C207 1_555 1_555
C209 C210 1_555 1_555
C210 H163 1_555 1_555
H164 C210 1_555 1_555
H165 C210 1_555 1_555
N15 C209 1_555 1_555
C211 C212 1_555 1_555
C212 H166 1_555 1_555
H167 C212 1_555 1_555
H168 C212 1_555 1_555
N16 C211 1_555 1_555
C213 C214 1_555 1_555
C214 H169 1_555 1_555
H170 C214 1_555 1_555
H171 C214 1_555 1_555
N17 C213 1_555 1_555
C215 C216 1_555 1_555
C216 H172 1_555 1_555
H173 C216 1_555 1_555
H174 C216 1_555 1_555
N18 C215 1_555 1_555
C217 C218 1_555 1_555
C218 H175 1_555 1_555
H176 C218 1_555 1_555
H177 C218 1_555 1_555
N19 C217 1_555 1_555
C219 C220 1_555 1_555
C220 H178 1_555 1_555
H179 C220 1_555 1_555
N20 C219 1_555 1_555
C221 C222 1_555 1_555
C222 H180 1_555 1_555
H181 C222 1_555 1_555
H182 C222 1_555 1_555
N21 C221 1_555 1_555
C223 C224 1_555 1_555
C224 H183 1_555 1_555
H184 C224 1_555 1_555
H185 C224 1_555 1_555
N22 C223 1_555 1_555
C225 C226 1_555 1_555
C226 H186 1_555 1_555
H187 C226 1_555 1_555
H188 C226 1_555 1_555
N23 C225 1_555 1_555
C7 C22 1_555 1_555
C9 C22 1_555 1_555
C16 C40 1_555 1_555
C27 C51 1_555 1_555
C29 C192 1_555 1_555
C31 C191 1_555 1_555
C32 C70 1_555 1_555
C33 C58 1_555 1_555
C36 O8 1_555 1_555
C41 N5 1_555 1_555
C43 C55 1_555 1_555
C44 C68 1_555 1_555
C45 C100 1_555 1_555
C48 C191 1_555 1_555
C59 N6 1_555 1_555
C62 C79 1_555 1_555
C63 C86 1_555 1_555
C64 C75 1_555 1_555
C64 C80 1_555 1_555
C65 C79 1_555 1_555
C66 C84 1_555 1_555
C71 N4 1_555 1_555
C74 C108 1_555 1_555
C76 C117 1_555 1_555
C78 C86 1_555 1_555
C82 N8 1_555 1_555
C83 C126 1_555 1_555
C85 O10 1_555 1_555
C87 C100 1_555 1_555
C88 C92 1_555 1_555
C89 C127 1_555 1_555
C90 C99 1_555 1_555
C91 C146 1_555 1_555
C94 N1 1_555 1_555
C96 C118 1_555 1_555
C98 C114 1_555 1_555
C102 C111 1_555 1_555
C103 N7 1_555 1_555
C104 C128 1_555 1_555
C105 C142 1_555 1_555
C106 O1 1_555 1_555
C107 C133 1_555 1_555
C109 C118 1_555 1_555
C110 C141 1_555 1_555
C113 O13 1_555 1_555
C116 O16 1_555 1_555
C120 O5 1_555 1_555
C121 N3 1_555 1_555
C123 O3 1_555 1_555
C124 O7 1_555 1_555
C125 C174 1_555 1_555
C129 C132 1_555 1_555
C130 C135 1_555 1_555
C130 C170 1_555 1_555
C131 C134 1_555 1_555
C136 C162 1_555 1_555
C139 C152 1_555 1_555
C140 O11 1_555 1_555
C144 C147 1_555 1_555
C144 C160 1_555 1_555
C145 C168 1_555 1_555
C149 C168 1_555 1_555
C151 O2 1_555 1_555
C153 O6 1_555 1_555
C155 C157 1_555 1_555
C155 C167 1_555 1_555
C156 C161 1_555 1_555
C158 C159 1_555 1_555
C158 C169 1_555 1_555
C164 C171 1_555 1_555
C165 C176 1_555 1_555
C172 C188 1_555 1_555
C173 C174 1_555 1_555
C175 C181 1_555 1_555
C177 C184 1_555 1_555
C178 N2 1_555 1_555
C179 O14 1_555 1_555
C180 C182 1_555 1_555
C183 O12 1_555 1_555
C185 O15 1_555 1_555
C186 C190 1_555 1_555
C187 O9 1_555 1_555
C189 O4 1_555 1_555
N2 Zn1 1_555 1_555
N3 Zn1 1_555 1_555
N4 Zn1 1_555 1_555
N6 Zn2 1_555 1_555
N7 Zn2 1_555 1_555
N8 Zn2 1_555 1_555
O18 Zn1 1_555 1_555
O21 Zn1 1_555 1_555
O25 Zn2 1_555 1_555

#END
