# generated using pymatgen
data_Ni10H134C90N7O38
_symmetry_space_group_name_H-M   'P 1'
_cell_length_a   22.69780000
_cell_length_b   22.69780000
_cell_length_c   22.92840000
_cell_angle_alpha   90.00000000
_cell_angle_beta   90.00000000
_cell_angle_gamma   90.00000000
_symmetry_Int_Tables_number   1
_chemical_formula_structural   Ni10H134C90N7O38
_chemical_formula_sum   'Ni40 H536 C360 N28 O152'
_cell_volume   11812.48525838
_cell_formula_units_Z   4
loop_
 _symmetry_equiv_pos_site_id
 _symmetry_equiv_pos_as_xyz
  1  'x, y, z'
loop_
 _atom_site_type_symbol
 _atom_site_label
 _atom_site_symmetry_multiplicity
 _atom_site_fract_x
 _atom_site_fract_y
 _atom_site_fract_z
 _atom_site_occupancy
  Ni  Ni1  1  0.376459  0.484874  0.749893  1.0
  Ni  Ni2  1  0.515126  0.876459  0.249893  1.0
  Ni  Ni3  1  0.123541  0.015126  0.749893  1.0
  Ni  Ni4  1  0.984874  0.623541  0.249893  1.0
  Ni  Ni5  1  0.623541  0.515126  0.250107  1.0
  Ni  Ni6  1  0.484874  0.123541  0.750107  1.0
  Ni  Ni7  1  0.876459  0.984874  0.250107  1.0
  Ni  Ni8  1  0.015126  0.376459  0.750107  1.0
  Ni  Ni9  1  0.365836  0.542268  0.878829  1.0
  Ni  Ni10  1  0.457732  0.865836  0.378829  1.0
  Ni  Ni11  1  0.134164  0.957732  0.878829  1.0
  Ni  Ni12  1  0.042268  0.634164  0.378829  1.0
  Ni  Ni13  1  0.634164  0.457732  0.121171  1.0
  Ni  Ni14  1  0.542268  0.134164  0.621171  1.0
  Ni  Ni15  1  0.865836  0.042268  0.121171  1.0
  Ni  Ni16  1  0.957732  0.365836  0.621171  1.0
  Ni  Ni17  1  0.262761  0.482077  0.816121  1.0
  Ni  Ni18  1  0.517923  0.762761  0.316121  1.0
  Ni  Ni19  1  0.237239  0.017923  0.816121  1.0
  Ni  Ni20  1  0.982077  0.737239  0.316121  1.0
  Ni  Ni21  1  0.737239  0.517923  0.183879  1.0
  Ni  Ni22  1  0.482077  0.237239  0.683879  1.0
  Ni  Ni23  1  0.762761  0.982077  0.183879  1.0
  Ni  Ni24  1  0.017923  0.262761  0.683879  1.0
  Ni  Ni25  1  0.236387  0.528292  0.933677  1.0
  Ni  Ni26  1  0.471708  0.736387  0.433677  1.0
  Ni  Ni27  1  0.263613  0.971708  0.933677  1.0
  Ni  Ni28  1  0.028292  0.763613  0.433677  1.0
  Ni  Ni29  1  0.763613  0.471708  0.066323  1.0
  Ni  Ni30  1  0.528292  0.263613  0.566323  1.0
  Ni  Ni31  1  0.736387  0.028292  0.066323  1.0
  Ni  Ni32  1  0.971708  0.236387  0.566323  1.0
  Ni  Ni33  1  0.452480  0.359390  0.739230  1.0
  Ni  Ni34  1  0.640610  0.952480  0.239230  1.0
  Ni  Ni35  1  0.047520  0.140610  0.739230  1.0
  Ni  Ni36  1  0.859390  0.547520  0.239230  1.0
  Ni  Ni37  1  0.547520  0.640610  0.260770  1.0
  Ni  Ni38  1  0.359390  0.047520  0.760770  1.0
  Ni  Ni39  1  0.952480  0.859390  0.260770  1.0
  Ni  Ni40  1  0.140610  0.452480  0.760770  1.0
  H  H41  1  0.983600  0.658400  0.012300  1
  H  H42  1  0.341600  0.483600  0.512300  1
  H  H43  1  0.516400  0.841600  0.012300  1
  H  H44  1  0.158400  0.016400  0.512300  1
  H  H45  1  0.016400  0.341600  0.987700  1
  H  H46  1  0.658400  0.516400  0.487700  1
  H  H47  1  0.483600  0.158400  0.987700  1
  H  H48  1  0.841600  0.983600  0.487700  1
  H  H49  1  0.050100  0.640800  0.996400  1
  H  H50  1  0.359200  0.550100  0.496400  1
  H  H51  1  0.449900  0.859200  0.996400  1
  H  H52  1  0.140800  0.949900  0.496400  1
  H  H53  1  0.949900  0.359200  0.003600  1
  H  H54  1  0.640800  0.449900  0.503600  1
  H  H55  1  0.550100  0.140800  0.003600  1
  H  H56  1  0.859200  0.050100  0.503600  1
  H  H57  1  0.017300  0.554400  0.952700  1
  H  H58  1  0.445600  0.517300  0.452700  1
  H  H59  1  0.482700  0.945600  0.952700  1
  H  H60  1  0.054400  0.982700  0.452700  1
  H  H61  1  0.982700  0.445600  0.047300  1
  H  H62  1  0.554400  0.482700  0.547300  1
  H  H63  1  0.517300  0.054400  0.047300  1
  H  H64  1  0.945600  0.017300  0.547300  1
  H  H65  1  0.950400  0.572200  0.965900  1
  H  H66  1  0.427800  0.450400  0.465900  1
  H  H67  1  0.549600  0.927800  0.965900  1
  H  H68  1  0.072200  0.049600  0.465900  1
  H  H69  1  0.049600  0.427800  0.034100  1
  H  H70  1  0.572200  0.549600  0.534100  1
  H  H71  1  0.450400  0.072200  0.034100  1
  H  H72  1  0.927800  0.950400  0.534100  1
  H  H73  1  0.994100  0.556900  0.018600  1
  H  H74  1  0.443100  0.494100  0.518600  1
  H  H75  1  0.505900  0.943100  0.018600  1
  H  H76  1  0.056900  0.005900  0.518600  1
  H  H77  1  0.005900  0.443100  0.981400  1
  H  H78  1  0.556900  0.505900  0.481400  1
  H  H79  1  0.494100  0.056900  0.981400  1
  H  H80  1  0.943100  0.994100  0.481400  1
  H  H81  1  0.059900  0.726200  0.942600  1
  H  H82  1  0.273800  0.559900  0.442600  1
  H  H83  1  0.440100  0.773800  0.942600  1
  H  H84  1  0.226200  0.940100  0.442600  1
  H  H85  1  0.940100  0.273800  0.057400  1
  H  H86  1  0.726200  0.440100  0.557400  1
  H  H87  1  0.559900  0.226200  0.057400  1
  H  H88  1  0.773800  0.059900  0.557400  1
  H  H89  1  0.993000  0.745600  0.954100  1
  H  H90  1  0.254400  0.493000  0.454100  1
  H  H91  1  0.507000  0.754400  0.954100  1
  H  H92  1  0.245600  0.007000  0.454100  1
  H  H93  1  0.007000  0.254400  0.045900  1
  H  H94  1  0.745600  0.507000  0.545900  1
  H  H95  1  0.493000  0.245600  0.045900  1
  H  H96  1  0.754400  0.993000  0.545900  1
  H  H97  1  0.974700  0.746000  0.854700  1
  H  H98  1  0.254000  0.474700  0.354700  1
  H  H99  1  0.525300  0.754000  0.854700  1
  H  H100  1  0.246000  0.025300  0.354700  1
  H  H101  1  0.025300  0.254000  0.145300  1
  H  H102  1  0.746000  0.525300  0.645300  1
  H  H103  1  0.474700  0.246000  0.145300  1
  H  H104  1  0.754000  0.974700  0.645300  1
  H  H105  1  0.040500  0.723900  0.842100  1
  H  H106  1  0.276100  0.540500  0.342100  1
  H  H107  1  0.459500  0.776100  0.842100  1
  H  H108  1  0.223900  0.959500  0.342100  1
  H  H109  1  0.959500  0.276100  0.157900  1
  H  H110  1  0.723900  0.459500  0.657900  1
  H  H111  1  0.540500  0.223900  0.157900  1
  H  H112  1  0.776100  0.040500  0.657900  1
  H  H113  1  0.029500  0.788200  0.868600  1
  H  H114  1  0.211800  0.529500  0.368600  1
  H  H115  1  0.470500  0.711800  0.868600  1
  H  H116  1  0.288200  0.970500  0.368600  1
  H  H117  1  0.970500  0.211800  0.131400  1
  H  H118  1  0.788200  0.470500  0.631400  1
  H  H119  1  0.529500  0.288200  0.131400  1
  H  H120  1  0.711800  0.029500  0.631400  1
  H  H121  1  0.642100  0.314600  0.817100  1
  H  H122  1  0.685400  0.142100  0.317100  1
  H  H123  1  0.857900  0.185400  0.817100  1
  H  H124  1  0.814600  0.357900  0.317100  1
  H  H125  1  0.357900  0.685400  0.182900  1
  H  H126  1  0.314600  0.857900  0.682900  1
  H  H127  1  0.142100  0.814600  0.182900  1
  H  H128  1  0.185400  0.642100  0.682900  1
  H  H129  1  0.602100  0.371500  0.828500  1
  H  H130  1  0.628500  0.102100  0.328500  1
  H  H131  1  0.897900  0.128500  0.828500  1
  H  H132  1  0.871500  0.397900  0.328500  1
  H  H133  1  0.397900  0.628500  0.171500  1
  H  H134  1  0.371500  0.897900  0.671500  1
  H  H135  1  0.102100  0.871500  0.171500  1
  H  H136  1  0.128500  0.602100  0.671500  1
  H  H137  1  0.571800  0.309300  0.814900  1
  H  H138  1  0.690700  0.071800  0.314900  1
  H  H139  1  0.928200  0.190700  0.814900  1
  H  H140  1  0.809300  0.428200  0.314900  1
  H  H141  1  0.428200  0.690700  0.185100  1
  H  H142  1  0.309300  0.928200  0.685100  1
  H  H143  1  0.071800  0.809300  0.185100  1
  H  H144  1  0.190700  0.571800  0.685100  1
  H  H145  1  0.289700  0.620400  0.803200  1.0
  H  H146  1  0.379600  0.789700  0.303200  1.0
  H  H147  1  0.210300  0.879600  0.803200  1.0
  H  H148  1  0.120400  0.710300  0.303200  1.0
  H  H149  1  0.710300  0.379600  0.196800  1.0
  H  H150  1  0.620400  0.210300  0.696800  1.0
  H  H151  1  0.789700  0.120400  0.196800  1.0
  H  H152  1  0.879600  0.289700  0.696800  1.0
  H  H153  1  0.283300  0.588500  0.741300  1.0
  H  H154  1  0.411500  0.783300  0.241300  1.0
  H  H155  1  0.216700  0.911500  0.741300  1.0
  H  H156  1  0.088500  0.716700  0.241300  1.0
  H  H157  1  0.716700  0.411500  0.258700  1.0
  H  H158  1  0.588500  0.216700  0.758700  1.0
  H  H159  1  0.783300  0.088500  0.258700  1.0
  H  H160  1  0.911500  0.283300  0.758700  1.0
  H  H161  1  0.392000  0.636500  0.781400  1.0
  H  H162  1  0.363500  0.892000  0.281400  1.0
  H  H163  1  0.108000  0.863500  0.781400  1.0
  H  H164  1  0.136500  0.608000  0.281400  1.0
  H  H165  1  0.608000  0.363500  0.218600  1.0
  H  H166  1  0.636500  0.108000  0.718600  1.0
  H  H167  1  0.892000  0.136500  0.218600  1.0
  H  H168  1  0.863500  0.392000  0.718600  1.0
  H  H169  1  0.347600  0.672600  0.740800  1.0
  H  H170  1  0.327400  0.847600  0.240800  1.0
  H  H171  1  0.152400  0.827400  0.740800  1.0
  H  H172  1  0.172600  0.652400  0.240800  1.0
  H  H173  1  0.652400  0.327400  0.259200  1.0
  H  H174  1  0.672600  0.152400  0.759200  1.0
  H  H175  1  0.847600  0.172600  0.259200  1.0
  H  H176  1  0.827400  0.347600  0.759200  1.0
  H  H177  1  0.360500  0.597500  0.667100  1.0
  H  H178  1  0.402500  0.860500  0.167100  1.0
  H  H179  1  0.139500  0.902500  0.667100  1.0
  H  H180  1  0.097500  0.639500  0.167100  1.0
  H  H181  1  0.639500  0.402500  0.332900  1.0
  H  H182  1  0.597500  0.139500  0.832900  1.0
  H  H183  1  0.860500  0.097500  0.332900  1.0
  H  H184  1  0.902500  0.360500  0.832900  1.0
  H  H185  1  0.417700  0.636600  0.679100  1.0
  H  H186  1  0.363400  0.917700  0.179100  1.0
  H  H187  1  0.082300  0.863400  0.679100  1.0
  H  H188  1  0.136600  0.582300  0.179100  1.0
  H  H189  1  0.582300  0.363400  0.320900  1.0
  H  H190  1  0.636600  0.082300  0.820900  1.0
  H  H191  1  0.917700  0.136600  0.320900  1.0
  H  H192  1  0.863400  0.417700  0.820900  1.0
  H  H193  1  0.464500  0.439200  0.625000  1.0
  H  H194  1  0.560800  0.964500  0.125000  1.0
  H  H195  1  0.035500  0.060800  0.625000  1.0
  H  H196  1  0.939200  0.535500  0.125000  1.0
  H  H197  1  0.535500  0.560800  0.375000  1.0
  H  H198  1  0.439200  0.035500  0.875000  1.0
  H  H199  1  0.964500  0.939200  0.375000  1.0
  H  H200  1  0.060800  0.464500  0.875000  1.0
  H  H201  1  0.503600  0.464200  0.677700  1.0
  H  H202  1  0.535800  0.003600  0.177700  1.0
  H  H203  1  0.996400  0.035800  0.677700  1.0
  H  H204  1  0.964200  0.496400  0.177700  1.0
  H  H205  1  0.496400  0.535800  0.322300  1.0
  H  H206  1  0.464200  0.996400  0.822300  1.0
  H  H207  1  0.003600  0.964200  0.322300  1.0
  H  H208  1  0.035800  0.503600  0.822300  1.0
  H  H209  1  0.468600  0.546400  0.629000  1.0
  H  H210  1  0.453600  0.968600  0.129000  1.0
  H  H211  1  0.031400  0.953600  0.629000  1.0
  H  H212  1  0.046400  0.531400  0.129000  1.0
  H  H213  1  0.531400  0.453600  0.371000  1.0
  H  H214  1  0.546400  0.031400  0.871000  1.0
  H  H215  1  0.968600  0.046400  0.371000  1.0
  H  H216  1  0.953600  0.468600  0.871000  1.0
  H  H217  1  0.402800  0.520400  0.627100  1.0
  H  H218  1  0.479600  0.902800  0.127100  1.0
  H  H219  1  0.097200  0.979600  0.627100  1.0
  H  H220  1  0.020400  0.597200  0.127100  1.0
  H  H221  1  0.597200  0.479600  0.372900  1.0
  H  H222  1  0.520400  0.097200  0.872900  1.0
  H  H223  1  0.902800  0.020400  0.372900  1.0
  H  H224  1  0.979600  0.402800  0.872900  1.0
  H  H225  1  0.500100  0.525500  0.749400  1.0
  H  H226  1  0.474500  0.000100  0.249400  1.0
  H  H227  1  0.999900  0.974500  0.749400  1.0
  H  H228  1  0.025500  0.499900  0.249400  1.0
  H  H229  1  0.499900  0.474500  0.250600  1.0
  H  H230  1  0.525500  0.999900  0.750600  1.0
  H  H231  1  0.000100  0.025500  0.250600  1.0
  H  H232  1  0.974500  0.500100  0.750600  1.0
  H  H233  1  0.469500  0.580900  0.779600  1.0
  H  H234  1  0.419100  0.969500  0.279600  1.0
  H  H235  1  0.030500  0.919100  0.779600  1.0
  H  H236  1  0.080900  0.530500  0.279600  1.0
  H  H237  1  0.530500  0.419100  0.220400  1.0
  H  H238  1  0.580900  0.030500  0.720400  1.0
  H  H239  1  0.969500  0.080900  0.220400  1.0
  H  H240  1  0.919100  0.469500  0.720400  1.0
  H  H241  1  0.570200  0.541400  0.668200  1.0
  H  H242  1  0.458600  0.070200  0.168200  1.0
  H  H243  1  0.929800  0.958600  0.668200  1.0
  H  H244  1  0.041400  0.429800  0.168200  1.0
  H  H245  1  0.429800  0.458600  0.331800  1.0
  H  H246  1  0.541400  0.929800  0.831800  1.0
  H  H247  1  0.070200  0.041400  0.331800  1.0
  H  H248  1  0.958600  0.570200  0.831800  1.0
  H  H249  1  0.640300  0.603500  0.626600  1.0
  H  H250  1  0.396500  0.140300  0.126600  1.0
  H  H251  1  0.859700  0.896500  0.626600  1.0
  H  H252  1  0.103500  0.359700  0.126600  1.0
  H  H253  1  0.359700  0.396500  0.373400  1.0
  H  H254  1  0.603500  0.859700  0.873400  1.0
  H  H255  1  0.140300  0.103500  0.373400  1.0
  H  H256  1  0.896500  0.640300  0.873400  1.0
  H  H257  1  0.638400  0.703800  0.646300  1.0
  H  H258  1  0.296200  0.138400  0.146300  1.0
  H  H259  1  0.861600  0.796200  0.646300  1.0
  H  H260  1  0.203800  0.361600  0.146300  1.0
  H  H261  1  0.361600  0.296200  0.353700  1.0
  H  H262  1  0.703800  0.861600  0.853700  1.0
  H  H263  1  0.138400  0.203800  0.353700  1.0
  H  H264  1  0.796200  0.638400  0.853700  1.0
  H  H265  1  0.566400  0.742600  0.707600  1.0
  H  H266  1  0.257400  0.066400  0.207600  1.0
  H  H267  1  0.933600  0.757400  0.707600  1.0
  H  H268  1  0.242600  0.433600  0.207600  1.0
  H  H269  1  0.433600  0.257400  0.292400  1.0
  H  H270  1  0.742600  0.933600  0.792400  1.0
  H  H271  1  0.066400  0.242600  0.292400  1.0
  H  H272  1  0.757400  0.566400  0.792400  1.0
  H  H273  1  0.495600  0.680000  0.749000  1.0
  H  H274  1  0.320000  0.995600  0.249000  1.0
  H  H275  1  0.004400  0.820000  0.749000  1.0
  H  H276  1  0.180000  0.504400  0.249000  1.0
  H  H277  1  0.504400  0.320000  0.251000  1.0
  H  H278  1  0.680000  0.004400  0.751000  1.0
  H  H279  1  0.995600  0.180000  0.251000  1.0
  H  H280  1  0.820000  0.495600  0.751000  1.0
  H  H281  1  0.353900  0.412200  0.904400  1.0
  H  H282  1  0.587800  0.853900  0.404400  1.0
  H  H283  1  0.146100  0.087800  0.904400  1.0
  H  H284  1  0.912200  0.646100  0.404400  1.0
  H  H285  1  0.646100  0.587800  0.095600  1.0
  H  H286  1  0.412200  0.146100  0.595600  1.0
  H  H287  1  0.853900  0.912200  0.095600  1.0
  H  H288  1  0.087800  0.353900  0.595600  1.0
  H  H289  1  0.286200  0.399200  0.918700  1.0
  H  H290  1  0.600800  0.786200  0.418700  1.0
  H  H291  1  0.213800  0.100800  0.918700  1.0
  H  H292  1  0.899200  0.713800  0.418700  1.0
  H  H293  1  0.713800  0.600800  0.081300  1.0
  H  H294  1  0.399200  0.213800  0.581300  1.0
  H  H295  1  0.786200  0.899200  0.081300  1.0
  H  H296  1  0.100800  0.286200  0.581300  1.0
  H  H297  1  0.360400  0.465600  0.994600  1.0
  H  H298  1  0.534400  0.860400  0.494600  1.0
  H  H299  1  0.139600  0.034400  0.994600  1.0
  H  H300  1  0.965600  0.639600  0.494600  1.0
  H  H301  1  0.639600  0.534400  0.005400  1.0
  H  H302  1  0.465600  0.139600  0.505400  1.0
  H  H303  1  0.860400  0.965600  0.005400  1.0
  H  H304  1  0.034400  0.360400  0.505400  1.0
  H  H305  1  0.349600  0.396400  0.002600  1.0
  H  H306  1  0.603600  0.849600  0.502600  1.0
  H  H307  1  0.150400  0.103600  0.002600  1.0
  H  H308  1  0.896400  0.650400  0.502600  1.0
  H  H309  1  0.650400  0.603600  0.997400  1.0
  H  H310  1  0.396400  0.150400  0.497400  1.0
  H  H311  1  0.849600  0.896400  0.997400  1.0
  H  H312  1  0.103600  0.349600  0.497400  1.0
  H  H313  1  0.245200  0.419100  0.014500  1.0
  H  H314  1  0.580900  0.745200  0.514500  1.0
  H  H315  1  0.254800  0.080900  0.014500  1.0
  H  H316  1  0.919100  0.754800  0.514500  1.0
  H  H317  1  0.754800  0.580900  0.985500  1.0
  H  H318  1  0.419100  0.254800  0.485500  1.0
  H  H319  1  0.745200  0.919100  0.985500  1.0
  H  H320  1  0.080900  0.245200  0.485500  1.0
  H  H321  1  0.286900  0.438200  0.067400  1.0
  H  H322  1  0.561800  0.786900  0.567400  1.0
  H  H323  1  0.213100  0.061800  0.067400  1.0
  H  H324  1  0.938200  0.713100  0.567400  1.0
  H  H325  1  0.713100  0.561800  0.932600  1.0
  H  H326  1  0.438200  0.213100  0.432600  1.0
  H  H327  1  0.786900  0.938200  0.932600  1.0
  H  H328  1  0.061800  0.286900  0.432600  1.0
  H  H329  1  0.124500  0.568200  0.044600  1.0
  H  H330  1  0.431800  0.624500  0.544600  1.0
  H  H331  1  0.375500  0.931800  0.044600  1.0
  H  H332  1  0.068200  0.875500  0.544600  1.0
  H  H333  1  0.875500  0.431800  0.955400  1.0
  H  H334  1  0.568200  0.375500  0.455400  1.0
  H  H335  1  0.624500  0.068200  0.955400  1.0
  H  H336  1  0.931800  0.124500  0.455400  1.0
  H  H337  1  0.185500  0.602300  0.055300  1.0
  H  H338  1  0.397700  0.685500  0.555300  1.0
  H  H339  1  0.314500  0.897700  0.055300  1.0
  H  H340  1  0.102300  0.814500  0.555300  1.0
  H  H341  1  0.814500  0.397700  0.944700  1.0
  H  H342  1  0.602300  0.314500  0.444700  1.0
  H  H343  1  0.685500  0.102300  0.944700  1.0
  H  H344  1  0.897700  0.185500  0.444700  1.0
  H  H345  1  0.200600  0.509200  0.092300  1.0
  H  H346  1  0.490800  0.700600  0.592300  1.0
  H  H347  1  0.299400  0.990800  0.092300  1.0
  H  H348  1  0.009200  0.799400  0.592300  1.0
  H  H349  1  0.799400  0.490800  0.907700  1.0
  H  H350  1  0.509200  0.299400  0.407700  1.0
  H  H351  1  0.700600  0.009200  0.907700  1.0
  H  H352  1  0.990800  0.200600  0.407700  1.0
  H  H353  1  0.171200  0.478600  0.036400  1.0
  H  H354  1  0.521400  0.671200  0.536400  1.0
  H  H355  1  0.328800  0.021400  0.036400  1.0
  H  H356  1  0.978600  0.828800  0.536400  1.0
  H  H357  1  0.828800  0.521400  0.963600  1.0
  H  H358  1  0.478600  0.328800  0.463600  1.0
  H  H359  1  0.671200  0.978600  0.963600  1.0
  H  H360  1  0.021400  0.171200  0.463600  1.0
  H  H361  1  0.380400  0.485800  0.098300  1.0
  H  H362  1  0.514200  0.880400  0.598300  1.0
  H  H363  1  0.119600  0.014200  0.098300  1.0
  H  H364  1  0.985800  0.619600  0.598300  1.0
  H  H365  1  0.619600  0.514200  0.901700  1.0
  H  H366  1  0.485800  0.119600  0.401700  1.0
  H  H367  1  0.880400  0.985800  0.901700  1.0
  H  H368  1  0.014200  0.380400  0.401700  1.0
  H  H369  1  0.403000  0.469600  0.196300  1.0
  H  H370  1  0.530400  0.903000  0.696300  1.0
  H  H371  1  0.097000  0.030400  0.196300  1.0
  H  H372  1  0.969600  0.597000  0.696300  1.0
  H  H373  1  0.597000  0.530400  0.803700  1.0
  H  H374  1  0.469600  0.097000  0.303700  1.0
  H  H375  1  0.903000  0.969600  0.803700  1.0
  H  H376  1  0.030400  0.403000  0.303700  1.0
  H  H377  1  0.348100  0.517600  0.268100  1.0
  H  H378  1  0.482400  0.848100  0.768100  1.0
  H  H379  1  0.151900  0.982400  0.268100  1.0
  H  H380  1  0.017600  0.651900  0.768100  1.0
  H  H381  1  0.651900  0.482400  0.731900  1.0
  H  H382  1  0.517600  0.151900  0.231900  1.0
  H  H383  1  0.848100  0.017600  0.731900  1.0
  H  H384  1  0.982400  0.348100  0.231900  1.0
  H  H385  1  0.271800  0.580500  0.242400  1.0
  H  H386  1  0.419500  0.771800  0.742400  1.0
  H  H387  1  0.228200  0.919500  0.242400  1.0
  H  H388  1  0.080500  0.728200  0.742400  1.0
  H  H389  1  0.728200  0.419500  0.757600  1.0
  H  H390  1  0.580500  0.228200  0.257600  1.0
  H  H391  1  0.771800  0.080500  0.757600  1.0
  H  H392  1  0.919500  0.271800  0.257600  1.0
  H  H393  1  0.248700  0.595500  0.144900  1.0
  H  H394  1  0.404500  0.748700  0.644900  1.0
  H  H395  1  0.251300  0.904500  0.144900  1.0
  H  H396  1  0.095500  0.751300  0.644900  1.0
  H  H397  1  0.751300  0.404500  0.855100  1.0
  H  H398  1  0.595500  0.251300  0.355100  1.0
  H  H399  1  0.748700  0.095500  0.855100  1.0
  H  H400  1  0.904500  0.248700  0.355100  1.0
  H  H401  1  0.514500  0.485900  0.902900  1.0
  H  H402  1  0.514100  0.014500  0.402900  1.0
  H  H403  1  0.985500  0.014100  0.902900  1.0
  H  H404  1  0.985900  0.485500  0.402900  1.0
  H  H405  1  0.485500  0.514100  0.097100  1.0
  H  H406  1  0.485900  0.985500  0.597100  1.0
  H  H407  1  0.014500  0.985900  0.097100  1.0
  H  H408  1  0.014100  0.514500  0.597100  1.0
  H  H409  1  0.516900  0.415700  0.909100  1.0
  H  H410  1  0.584300  0.016900  0.409100  1.0
  H  H411  1  0.983100  0.084300  0.909100  1.0
  H  H412  1  0.915700  0.483100  0.409100  1.0
  H  H413  1  0.483100  0.584300  0.090900  1.0
  H  H414  1  0.415700  0.983100  0.590900  1.0
  H  H415  1  0.016900  0.915700  0.090900  1.0
  H  H416  1  0.084300  0.516900  0.590900  1.0
  H  H417  1  0.461000  0.451300  0.932800  1.0
  H  H418  1  0.548700  0.961000  0.432800  1.0
  H  H419  1  0.039000  0.048700  0.932800  1.0
  H  H420  1  0.951300  0.539000  0.432800  1.0
  H  H421  1  0.539000  0.548700  0.067200  1.0
  H  H422  1  0.451300  0.039000  0.567200  1.0
  H  H423  1  0.961000  0.951300  0.067200  1.0
  H  H424  1  0.048700  0.461000  0.567200  1.0
  H  H425  1  0.279200  0.328300  0.853900  1.0
  H  H426  1  0.671700  0.779200  0.353900  1.0
  H  H427  1  0.220800  0.171700  0.853900  1.0
  H  H428  1  0.828300  0.720800  0.353900  1.0
  H  H429  1  0.720800  0.671700  0.146100  1.0
  H  H430  1  0.328300  0.220800  0.646100  1.0
  H  H431  1  0.779200  0.828300  0.146100  1.0
  H  H432  1  0.171700  0.279200  0.646100  1.0
  H  H433  1  0.284300  0.286400  0.798000  1.0
  H  H434  1  0.713600  0.784300  0.298000  1.0
  H  H435  1  0.215700  0.213600  0.798000  1.0
  H  H436  1  0.786400  0.715700  0.298000  1.0
  H  H437  1  0.715700  0.713600  0.202000  1.0
  H  H438  1  0.286400  0.215700  0.702000  1.0
  H  H439  1  0.784300  0.786400  0.202000  1.0
  H  H440  1  0.213600  0.284300  0.702000  1.0
  H  H441  1  0.241400  0.342300  0.796600  1.0
  H  H442  1  0.657700  0.741400  0.296600  1.0
  H  H443  1  0.258600  0.157700  0.796600  1.0
  H  H444  1  0.842300  0.758600  0.296600  1.0
  H  H445  1  0.758600  0.657700  0.203400  1.0
  H  H446  1  0.342300  0.258600  0.703400  1.0
  H  H447  1  0.741400  0.842300  0.203400  1.0
  H  H448  1  0.157700  0.241400  0.703400  1.0
  H  H449  1  0.224100  0.411000  0.634300  1.0
  H  H450  1  0.589000  0.724100  0.134300  1.0
  H  H451  1  0.275900  0.089000  0.634300  1.0
  H  H452  1  0.911000  0.775900  0.134300  1.0
  H  H453  1  0.775900  0.589000  0.365700  1.0
  H  H454  1  0.411000  0.275900  0.865700  1.0
  H  H455  1  0.724100  0.911000  0.365700  1.0
  H  H456  1  0.089000  0.224100  0.865700  1.0
  H  H457  1  0.250800  0.465400  0.598700  1.0
  H  H458  1  0.534600  0.750800  0.098700  1.0
  H  H459  1  0.249200  0.034600  0.598700  1.0
  H  H460  1  0.965400  0.749200  0.098700  1.0
  H  H461  1  0.749200  0.534600  0.401300  1.0
  H  H462  1  0.465400  0.249200  0.901300  1.0
  H  H463  1  0.750800  0.965400  0.401300  1.0
  H  H464  1  0.034600  0.250800  0.901300  1.0
  H  H465  1  0.188300  0.471700  0.630500  1.0
  H  H466  1  0.528300  0.688300  0.130500  1.0
  H  H467  1  0.311700  0.028300  0.630500  1.0
  H  H468  1  0.971700  0.811700  0.130500  1.0
  H  H469  1  0.811700  0.528300  0.369500  1.0
  H  H470  1  0.471700  0.311700  0.869500  1.0
  H  H471  1  0.688300  0.971700  0.369500  1.0
  H  H472  1  0.028300  0.188300  0.869500  1.0
  H  H473  1  0.486900  0.645600  0.985100  1.0
  H  H474  1  0.354400  0.986900  0.485100  1.0
  H  H475  1  0.013100  0.854400  0.985100  1.0
  H  H476  1  0.145600  0.513100  0.485100  1.0
  H  H477  1  0.513100  0.354400  0.014900  1.0
  H  H478  1  0.645600  0.013100  0.514900  1.0
  H  H479  1  0.986900  0.145600  0.014900  1.0
  H  H480  1  0.854400  0.486900  0.514900  1.0
  H  H481  1  0.524600  0.635400  0.927000  1.0
  H  H482  1  0.364600  0.024600  0.427000  1.0
  H  H483  1  0.975400  0.864600  0.927000  1.0
  H  H484  1  0.135400  0.475400  0.427000  1.0
  H  H485  1  0.475400  0.364600  0.073000  1.0
  H  H486  1  0.635400  0.975400  0.573000  1.0
  H  H487  1  0.024600  0.135400  0.073000  1.0
  H  H488  1  0.864600  0.524600  0.573000  1.0
  H  H489  1  0.522600  0.585500  0.976200  1.0
  H  H490  1  0.414500  0.022600  0.476200  1.0
  H  H491  1  0.977400  0.914500  0.976200  1.0
  H  H492  1  0.085500  0.477400  0.476200  1.0
  H  H493  1  0.477400  0.414500  0.023800  1.0
  H  H494  1  0.585500  0.977400  0.523800  1.0
  H  H495  1  0.022600  0.085500  0.023800  1.0
  H  H496  1  0.914500  0.522600  0.523800  1.0
  H  H497  1  0.358400  0.702200  0.945300  1.0
  H  H498  1  0.297800  0.858400  0.445300  1.0
  H  H499  1  0.141600  0.797800  0.945300  1.0
  H  H500  1  0.202200  0.641600  0.445300  1.0
  H  H501  1  0.641600  0.297800  0.054700  1.0
  H  H502  1  0.702200  0.141600  0.554700  1.0
  H  H503  1  0.858400  0.202200  0.054700  1.0
  H  H504  1  0.797800  0.358400  0.554700  1.0
  H  H505  1  0.311000  0.731900  0.902800  1.0
  H  H506  1  0.268100  0.811000  0.402800  1.0
  H  H507  1  0.189000  0.768100  0.902800  1.0
  H  H508  1  0.231900  0.689000  0.402800  1.0
  H  H509  1  0.689000  0.268100  0.097200  1.0
  H  H510  1  0.731900  0.189000  0.597200  1.0
  H  H511  1  0.811000  0.231900  0.097200  1.0
  H  H512  1  0.768100  0.311000  0.597200  1.0
  H  H513  1  0.353500  0.681100  0.878900  1.0
  H  H514  1  0.318900  0.853500  0.378900  1.0
  H  H515  1  0.146500  0.818900  0.878900  1.0
  H  H516  1  0.181100  0.646500  0.378900  1.0
  H  H517  1  0.646500  0.318900  0.121100  1.0
  H  H518  1  0.681100  0.146500  0.621100  1.0
  H  H519  1  0.853500  0.181100  0.121100  1.0
  H  H520  1  0.818900  0.353500  0.621100  1.0
  H  H521  1  0.107300  0.619200  0.873400  1.0
  H  H522  1  0.380800  0.607300  0.373400  1.0
  H  H523  1  0.392700  0.880800  0.873400  1.0
  H  H524  1  0.119200  0.892700  0.373400  1.0
  H  H525  1  0.892700  0.380800  0.126600  1.0
  H  H526  1  0.619200  0.392700  0.626600  1.0
  H  H527  1  0.607300  0.119200  0.126600  1.0
  H  H528  1  0.880800  0.107300  0.626600  1.0
  H  H529  1  0.123500  0.645700  0.810800  1.0
  H  H530  1  0.354300  0.623500  0.310800  1.0
  H  H531  1  0.376500  0.854300  0.810800  1.0
  H  H532  1  0.145700  0.876500  0.310800  1.0
  H  H533  1  0.876500  0.354300  0.189200  1.0
  H  H534  1  0.645700  0.376500  0.689200  1.0
  H  H535  1  0.623500  0.145700  0.189200  1.0
  H  H536  1  0.854300  0.123500  0.689200  1.0
  H  H537  1  0.170800  0.647700  0.862500  1.0
  H  H538  1  0.352300  0.670800  0.362500  1.0
  H  H539  1  0.329200  0.852300  0.862500  1.0
  H  H540  1  0.147700  0.829200  0.362500  1.0
  H  H541  1  0.829200  0.352300  0.137500  1.0
  H  H542  1  0.647700  0.329200  0.637500  1.0
  H  H543  1  0.670800  0.147700  0.137500  1.0
  H  H544  1  0.852300  0.170800  0.637500  1.0
  H  H545  1  0.117500  0.370000  0.936800  1.0
  H  H546  1  0.630000  0.617500  0.436800  1.0
  H  H547  1  0.382500  0.130000  0.936800  1.0
  H  H548  1  0.870000  0.882500  0.436800  1.0
  H  H549  1  0.882500  0.630000  0.063200  1.0
  H  H550  1  0.370000  0.382500  0.563200  1.0
  H  H551  1  0.617500  0.870000  0.063200  1.0
  H  H552  1  0.130000  0.117500  0.563200  1.0
  H  H553  1  0.162800  0.332700  0.898000  1.0
  H  H554  1  0.667300  0.662800  0.398000  1.0
  H  H555  1  0.337200  0.167300  0.898000  1.0
  H  H556  1  0.832700  0.837200  0.398000  1.0
  H  H557  1  0.837200  0.667300  0.102000  1.0
  H  H558  1  0.332700  0.337200  0.602000  1.0
  H  H559  1  0.662800  0.832700  0.102000  1.0
  H  H560  1  0.167300  0.162800  0.602000  1.0
  H  H561  1  0.107000  0.363600  0.868100  1.0
  H  H562  1  0.636400  0.607000  0.368100  1.0
  H  H563  1  0.393000  0.136400  0.868100  1.0
  H  H564  1  0.863600  0.893000  0.368100  1.0
  H  H565  1  0.893000  0.636400  0.131900  1.0
  H  H566  1  0.363600  0.393000  0.631900  1.0
  H  H567  1  0.607000  0.863600  0.131900  1.0
  H  H568  1  0.136400  0.107000  0.631900  1.0
  H  H569  1  0.190000  0.612000  0.967000  1.0
  H  H570  1  0.388000  0.690000  0.467000  1.0
  H  H571  1  0.310000  0.888000  0.967000  1.0
  H  H572  1  0.112000  0.810000  0.467000  1.0
  H  H573  1  0.810000  0.388000  0.033000  1.0
  H  H574  1  0.612000  0.310000  0.533000  1.0
  H  H575  1  0.690000  0.112000  0.033000  1.0
  H  H576  1  0.888000  0.190000  0.533000  1.0
  C  C577  1  0.008600  0.637700  0.983500  1
  C  C578  1  0.362300  0.508600  0.483500  1
  C  C579  1  0.491400  0.862300  0.983500  1
  C  C580  1  0.137700  0.991400  0.483500  1
  C  C581  1  0.991400  0.362300  0.016500  1
  C  C582  1  0.637700  0.491400  0.516500  1
  C  C583  1  0.508600  0.137700  0.016500  1
  C  C584  1  0.862300  0.008600  0.516500  1
  C  C585  1  0.991100  0.575000  0.979900  1
  C  C586  1  0.425000  0.491100  0.479900  1
  C  C587  1  0.508900  0.925000  0.979900  1
  C  C588  1  0.075000  0.008900  0.479900  1
  C  C589  1  0.008900  0.425000  0.020100  1
  C  C590  1  0.575000  0.508900  0.520100  1
  C  C591  1  0.491100  0.075000  0.020100  1
  C  C592  1  0.925000  0.991100  0.520100  1
  C  C593  1  0.019000  0.722700  0.927900  1
  C  C594  1  0.277300  0.519000  0.427900  1
  C  C595  1  0.481000  0.777300  0.927900  1
  C  C596  1  0.222700  0.981000  0.427900  1
  C  C597  1  0.981000  0.277300  0.072100  1
  C  C598  1  0.722700  0.481000  0.572100  1
  C  C599  1  0.519000  0.222700  0.072100  1
  C  C600  1  0.777300  0.019000  0.572100  1
  C  C601  1  0.015600  0.747300  0.868300  1
  C  C602  1  0.252700  0.515600  0.368300  1
  C  C603  1  0.484400  0.752700  0.868300  1
  C  C604  1  0.247300  0.984400  0.368300  1
  C  C605  1  0.984400  0.252700  0.131700  1
  C  C606  1  0.747300  0.484400  0.631700  1
  C  C607  1  0.515600  0.247300  0.131700  1
  C  C608  1  0.752700  0.015600  0.631700  1
  C  C609  1  0.750000  0.250000  0.937100  1
  C  C610  1  0.750000  0.250000  0.437100  1
  C  C611  1  0.250000  0.750000  0.062900  1
  C  C612  1  0.250000  0.750000  0.562900  1
  C  C613  1  0.750000  0.250000  0.876500  1
  C  C614  1  0.750000  0.250000  0.376500  1
  C  C615  1  0.250000  0.750000  0.123500  1
  C  C616  1  0.250000  0.750000  0.623500  1
  C  C617  1  0.604100  0.315900  0.893700  1
  C  C618  1  0.684100  0.104100  0.393700  1
  C  C619  1  0.895900  0.184100  0.893700  1
  C  C620  1  0.815900  0.395900  0.393700  1
  C  C621  1  0.395900  0.684100  0.106300  1
  C  C622  1  0.315900  0.895900  0.606300  1
  C  C623  1  0.104100  0.815900  0.106300  1
  C  C624  1  0.184100  0.604100  0.606300  1
  C  C625  1  0.605100  0.328800  0.834100  1
  C  C626  1  0.671200  0.105100  0.334100  1
  C  C627  1  0.894900  0.171200  0.834100  1
  C  C628  1  0.828800  0.394900  0.334100  1
  C  C629  1  0.394900  0.671200  0.165900  1
  C  C630  1  0.328800  0.894900  0.665900  1
  C  C631  1  0.105100  0.828800  0.165900  1
  C  C632  1  0.171200  0.605100  0.665900  1
  C  C633  1  0.310980  0.596660  0.773670  1.0
  C  C634  1  0.403340  0.810980  0.273670  1.0
  C  C635  1  0.189020  0.903340  0.773670  1.0
  C  C636  1  0.096660  0.689020  0.273670  1.0
  C  C637  1  0.689020  0.403340  0.226330  1.0
  C  C638  1  0.596660  0.189020  0.726330  1.0
  C  C639  1  0.810980  0.096660  0.226330  1.0
  C  C640  1  0.903340  0.310980  0.726330  1.0
  C  C641  1  0.361980  0.632560  0.750310  1.0
  C  C642  1  0.367440  0.861980  0.250310  1.0
  C  C643  1  0.138020  0.867440  0.750310  1.0
  C  C644  1  0.132560  0.638020  0.250310  1.0
  C  C645  1  0.638020  0.367440  0.249690  1.0
  C  C646  1  0.632560  0.138020  0.749690  1.0
  C  C647  1  0.861980  0.132560  0.249690  1.0
  C  C648  1  0.867440  0.361980  0.749690  1.0
  C  C649  1  0.391340  0.606510  0.696260  1.0
  C  C650  1  0.393490  0.891340  0.196260  1.0
  C  C651  1  0.108660  0.893490  0.696260  1.0
  C  C652  1  0.106510  0.608660  0.196260  1.0
  C  C653  1  0.608660  0.393490  0.303740  1.0
  C  C654  1  0.606510  0.108660  0.803740  1.0
  C  C655  1  0.891340  0.106510  0.303740  1.0
  C  C656  1  0.893490  0.391340  0.803740  1.0
  C  C657  1  0.463080  0.461560  0.662000  1.0
  C  C658  1  0.538440  0.963080  0.162000  1.0
  C  C659  1  0.036920  0.038440  0.662000  1.0
  C  C660  1  0.961560  0.536920  0.162000  1.0
  C  C661  1  0.536920  0.538440  0.338000  1.0
  C  C662  1  0.461560  0.036920  0.838000  1.0
  C  C663  1  0.963080  0.961560  0.338000  1.0
  C  C664  1  0.038440  0.463080  0.838000  1.0
  C  C665  1  0.439160  0.522980  0.650930  1.0
  C  C666  1  0.477020  0.939160  0.150930  1.0
  C  C667  1  0.060840  0.977020  0.650930  1.0
  C  C668  1  0.022980  0.560840  0.150930  1.0
  C  C669  1  0.560840  0.477020  0.349070  1.0
  C  C670  1  0.522980  0.060840  0.849070  1.0
  C  C671  1  0.939160  0.022980  0.349070  1.0
  C  C672  1  0.977020  0.439160  0.849070  1.0
  C  C673  1  0.480830  0.563820  0.741490  1.0
  C  C674  1  0.436180  0.980830  0.241490  1.0
  C  C675  1  0.019170  0.936180  0.741490  1.0
  C  C676  1  0.063820  0.519170  0.241490  1.0
  C  C677  1  0.519170  0.436180  0.258510  1.0
  C  C678  1  0.563820  0.019170  0.758510  1.0
  C  C679  1  0.980830  0.063820  0.258510  1.0
  C  C680  1  0.936180  0.480830  0.758510  1.0
  C  C681  1  0.525750  0.604200  0.713390  1.0
  C  C682  1  0.395800  0.025750  0.213390  1.0
  C  C683  1  0.974250  0.895800  0.713390  1.0
  C  C684  1  0.104200  0.474250  0.213390  1.0
  C  C685  1  0.474250  0.395800  0.286610  1.0
  C  C686  1  0.604200  0.974250  0.786610  1.0
  C  C687  1  0.025750  0.104200  0.286610  1.0
  C  C688  1  0.895800  0.525750  0.786610  1.0
  C  C689  1  0.569130  0.582420  0.676550  1.0
  C  C690  1  0.417580  0.069130  0.176550  1.0
  C  C691  1  0.930870  0.917580  0.676550  1.0
  C  C692  1  0.082420  0.430870  0.176550  1.0
  C  C693  1  0.430870  0.417580  0.323450  1.0
  C  C694  1  0.582420  0.930870  0.823450  1.0
  C  C695  1  0.069130  0.082420  0.323450  1.0
  C  C696  1  0.917580  0.569130  0.823450  1.0
  C  C697  1  0.610930  0.619280  0.651650  1.0
  C  C698  1  0.380720  0.110930  0.151650  1.0
  C  C699  1  0.889070  0.880720  0.651650  1.0
  C  C700  1  0.119280  0.389070  0.151650  1.0
  C  C701  1  0.389070  0.380720  0.348350  1.0
  C  C702  1  0.619280  0.889070  0.848350  1.0
  C  C703  1  0.110930  0.119280  0.348350  1.0
  C  C704  1  0.880720  0.610930  0.848350  1.0
  C  C705  1  0.609750  0.678500  0.663300  1.0
  C  C706  1  0.321500  0.109750  0.163300  1.0
  C  C707  1  0.890250  0.821500  0.663300  1.0
  C  C708  1  0.178500  0.390250  0.163300  1.0
  C  C709  1  0.390250  0.321500  0.336700  1.0
  C  C710  1  0.678500  0.890250  0.836700  1.0
  C  C711  1  0.109750  0.178500  0.336700  1.0
  C  C712  1  0.821500  0.609750  0.836700  1.0
  C  C713  1  0.567190  0.701550  0.699500  1.0
  C  C714  1  0.298450  0.067190  0.199500  1.0
  C  C715  1  0.932810  0.798450  0.699500  1.0
  C  C716  1  0.201550  0.432810  0.199500  1.0
  C  C717  1  0.432810  0.298450  0.300500  1.0
  C  C718  1  0.701550  0.932810  0.800500  1.0
  C  C719  1  0.067190  0.201550  0.300500  1.0
  C  C720  1  0.798450  0.567190  0.800500  1.0
  C  C721  1  0.525110  0.664020  0.724250  1.0
  C  C722  1  0.335980  0.025110  0.224250  1.0
  C  C723  1  0.974890  0.835980  0.724250  1.0
  C  C724  1  0.164020  0.474890  0.224250  1.0
  C  C725  1  0.474890  0.335980  0.275750  1.0
  C  C726  1  0.664020  0.974890  0.775750  1.0
  C  C727  1  0.025110  0.164020  0.275750  1.0
  C  C728  1  0.835980  0.525110  0.775750  1.0
  C  C729  1  0.318490  0.427960  0.924220  1.0
  C  C730  1  0.572040  0.818490  0.424220  1.0
  C  C731  1  0.181510  0.072040  0.924220  1.0
  C  C732  1  0.927960  0.681510  0.424220  1.0
  C  C733  1  0.681510  0.572040  0.075780  1.0
  C  C734  1  0.427960  0.181510  0.575780  1.0
  C  C735  1  0.818490  0.927960  0.075780  1.0
  C  C736  1  0.072040  0.318490  0.575780  1.0
  C  C737  1  0.331330  0.433530  0.988810  1.0
  C  C738  1  0.566470  0.831330  0.488810  1.0
  C  C739  1  0.168670  0.066470  0.988810  1.0
  C  C740  1  0.933530  0.668670  0.488810  1.0
  C  C741  1  0.668670  0.566470  0.011190  1.0
  C  C742  1  0.433530  0.168670  0.511190  1.0
  C  C743  1  0.831330  0.933530  0.011190  1.0
  C  C744  1  0.066470  0.331330  0.511190  1.0
  C  C745  1  0.277180  0.446350  0.026100  1.0
  C  C746  1  0.553650  0.777180  0.526100  1.0
  C  C747  1  0.222820  0.053650  0.026100  1.0
  C  C748  1  0.946350  0.722820  0.526100  1.0
  C  C749  1  0.722820  0.553650  0.973900  1.0
  C  C750  1  0.446350  0.222820  0.473900  1.0
  C  C751  1  0.777180  0.946350  0.973900  1.0
  C  C752  1  0.053650  0.277180  0.473900  1.0
  C  C753  1  0.166680  0.569650  0.033550  1.0
  C  C754  1  0.430350  0.666680  0.533550  1.0
  C  C755  1  0.333320  0.930350  0.033550  1.0
  C  C756  1  0.069650  0.833320  0.533550  1.0
  C  C757  1  0.833320  0.430350  0.966450  1.0
  C  C758  1  0.569650  0.333320  0.466450  1.0
  C  C759  1  0.666680  0.069650  0.966450  1.0
  C  C760  1  0.930350  0.166680  0.466450  1.0
  C  C761  1  0.196150  0.511880  0.049420  1.0
  C  C762  1  0.488120  0.696150  0.549420  1.0
  C  C763  1  0.303850  0.988120  0.049420  1.0
  C  C764  1  0.011880  0.803850  0.549420  1.0
  C  C765  1  0.803850  0.488120  0.950580  1.0
  C  C766  1  0.511880  0.303850  0.450580  1.0
  C  C767  1  0.696150  0.011880  0.950580  1.0
  C  C768  1  0.988120  0.196150  0.450580  1.0
  C  C769  1  0.297920  0.551630  0.046930  1.0
  C  C770  1  0.448370  0.797920  0.546930  1.0
  C  C771  1  0.202080  0.948370  0.046930  1.0
  C  C772  1  0.051630  0.702080  0.546930  1.0
  C  C773  1  0.702080  0.448370  0.953070  1.0
  C  C774  1  0.551630  0.202080  0.453070  1.0
  C  C775  1  0.797920  0.051630  0.953070  1.0
  C  C776  1  0.948370  0.297920  0.453070  1.0
  C  C777  1  0.311890  0.541430  0.111070  1.0
  C  C778  1  0.458570  0.811890  0.611070  1.0
  C  C779  1  0.188110  0.958570  0.111070  1.0
  C  C780  1  0.041430  0.688110  0.611070  1.0
  C  C781  1  0.688110  0.458570  0.888930  1.0
  C  C782  1  0.541430  0.188110  0.388930  1.0
  C  C783  1  0.811890  0.041430  0.888930  1.0
  C  C784  1  0.958570  0.311890  0.388930  1.0
  C  C785  1  0.357800  0.504900  0.127600  1.0
  C  C786  1  0.495100  0.857800  0.627600  1.0
  C  C787  1  0.142200  0.995100  0.127600  1.0
  C  C788  1  0.004900  0.642200  0.627600  1.0
  C  C789  1  0.642200  0.495100  0.872400  1.0
  C  C790  1  0.504900  0.142200  0.372400  1.0
  C  C791  1  0.857800  0.004900  0.872400  1.0
  C  C792  1  0.995100  0.357800  0.372400  1.0
  C  C793  1  0.371700  0.495300  0.185800  1.0
  C  C794  1  0.504700  0.871700  0.685800  1.0
  C  C795  1  0.128300  0.004700  0.185800  1.0
  C  C796  1  0.995300  0.628300  0.685800  1.0
  C  C797  1  0.628300  0.504700  0.814200  1.0
  C  C798  1  0.495300  0.128300  0.314200  1.0
  C  C799  1  0.871700  0.995300  0.814200  1.0
  C  C800  1  0.004700  0.371700  0.314200  1.0
  C  C801  1  0.339100  0.523800  0.228100  1.0
  C  C802  1  0.476200  0.839100  0.728100  1.0
  C  C803  1  0.160900  0.976200  0.228100  1.0
  C  C804  1  0.023800  0.660900  0.728100  1.0
  C  C805  1  0.660900  0.476200  0.771900  1.0
  C  C806  1  0.523800  0.160900  0.271900  1.0
  C  C807  1  0.839100  0.023800  0.771900  1.0
  C  C808  1  0.976200  0.339100  0.271900  1.0
  C  C809  1  0.293780  0.560900  0.212920  1.0
  C  C810  1  0.439100  0.793780  0.712920  1.0
  C  C811  1  0.206220  0.939100  0.212920  1.0
  C  C812  1  0.060900  0.706220  0.712920  1.0
  C  C813  1  0.706220  0.439100  0.787080  1.0
  C  C814  1  0.560900  0.206220  0.287080  1.0
  C  C815  1  0.793780  0.060900  0.787080  1.0
  C  C816  1  0.939100  0.293780  0.287080  1.0
  C  C817  1  0.280130  0.569750  0.155010  1.0
  C  C818  1  0.430250  0.780130  0.655010  1.0
  C  C819  1  0.219870  0.930250  0.155010  1.0
  C  C820  1  0.069750  0.719870  0.655010  1.0
  C  C821  1  0.719870  0.430250  0.844990  1.0
  C  C822  1  0.569750  0.219870  0.344990  1.0
  C  C823  1  0.780130  0.069750  0.844990  1.0
  C  C824  1  0.930250  0.280130  0.344990  1.0
  C  C825  1  0.461960  0.443510  0.844220  1.0
  C  C826  1  0.556490  0.961960  0.344220  1.0
  C  C827  1  0.038040  0.056490  0.844220  1.0
  C  C828  1  0.943510  0.538040  0.344220  1.0
  C  C829  1  0.538040  0.556490  0.155780  1.0
  C  C830  1  0.443510  0.038040  0.655780  1.0
  C  C831  1  0.961960  0.943510  0.155780  1.0
  C  C832  1  0.056490  0.461960  0.655780  1.0
  C  C833  1  0.491100  0.449600  0.902230  1.0
  C  C834  1  0.550400  0.991100  0.402230  1.0
  C  C835  1  0.008900  0.050400  0.902230  1.0
  C  C836  1  0.949600  0.508900  0.402230  1.0
  C  C837  1  0.508900  0.550400  0.097770  1.0
  C  C838  1  0.449600  0.008900  0.597770  1.0
  C  C839  1  0.991100  0.949600  0.097770  1.0
  C  C840  1  0.050400  0.491100  0.597770  1.0
  C  C841  1  0.328530  0.364520  0.788120  1.0
  C  C842  1  0.635480  0.828530  0.288120  1.0
  C  C843  1  0.171470  0.135480  0.788120  1.0
  C  C844  1  0.864520  0.671470  0.288120  1.0
  C  C845  1  0.671470  0.635480  0.211880  1.0
  C  C846  1  0.364520  0.171470  0.711880  1.0
  C  C847  1  0.828530  0.864520  0.211880  1.0
  C  C848  1  0.135480  0.328530  0.711880  1.0
  C  C849  1  0.279070  0.327110  0.811160  1.0
  C  C850  1  0.672890  0.779070  0.311160  1.0
  C  C851  1  0.220930  0.172890  0.811160  1.0
  C  C852  1  0.827110  0.720930  0.311160  1.0
  C  C853  1  0.720930  0.672890  0.188840  1.0
  C  C854  1  0.327110  0.220930  0.688840  1.0
  C  C855  1  0.779070  0.827110  0.188840  1.0
  C  C856  1  0.172890  0.279070  0.688840  1.0
  C  C857  1  0.258270  0.475540  0.687760  1.0
  C  C858  1  0.524460  0.758270  0.187760  1.0
  C  C859  1  0.241730  0.024460  0.687760  1.0
  C  C860  1  0.975540  0.741730  0.187760  1.0
  C  C861  1  0.741730  0.524460  0.312240  1.0
  C  C862  1  0.475540  0.241730  0.812240  1.0
  C  C863  1  0.758270  0.975540  0.312240  1.0
  C  C864  1  0.024460  0.258270  0.812240  1.0
  C  C865  1  0.227640  0.454000  0.632960  1.0
  C  C866  1  0.546000  0.727640  0.132960  1.0
  C  C867  1  0.272360  0.046000  0.632960  1.0
  C  C868  1  0.954000  0.772360  0.132960  1.0
  C  C869  1  0.772360  0.546000  0.367040  1.0
  C  C870  1  0.454000  0.272360  0.867040  1.0
  C  C871  1  0.727640  0.954000  0.367040  1.0
  C  C872  1  0.046000  0.227640  0.867040  1.0
  C  C873  1  0.447100  0.589340  0.927540  1.0
  C  C874  1  0.410660  0.947100  0.427540  1.0
  C  C875  1  0.052900  0.910660  0.927540  1.0
  C  C876  1  0.089340  0.552900  0.427540  1.0
  C  C877  1  0.552900  0.410660  0.072460  1.0
  C  C878  1  0.589340  0.052900  0.572460  1.0
  C  C879  1  0.947100  0.089340  0.072460  1.0
  C  C880  1  0.910660  0.447100  0.572460  1.0
  C  C881  1  0.499900  0.616300  0.956500  1.0
  C  C882  1  0.383700  0.999900  0.456500  1.0
  C  C883  1  0.000100  0.883700  0.956500  1.0
  C  C884  1  0.116300  0.500100  0.456500  1.0
  C  C885  1  0.500100  0.383700  0.043500  1.0
  C  C886  1  0.616300  0.000100  0.543500  1.0
  C  C887  1  0.999900  0.116300  0.043500  1.0
  C  C888  1  0.883700  0.499900  0.543500  1.0
  C  C889  1  0.286950  0.649660  0.930080  1.0
  C  C890  1  0.350340  0.786950  0.430080  1.0
  C  C891  1  0.213050  0.850340  0.930080  1.0
  C  C892  1  0.149660  0.713050  0.430080  1.0
  C  C893  1  0.713050  0.350340  0.069920  1.0
  C  C894  1  0.649660  0.213050  0.569920  1.0
  C  C895  1  0.786950  0.149660  0.069920  1.0
  C  C896  1  0.850340  0.286950  0.569920  1.0
  C  C897  1  0.331260  0.695150  0.912800  1.0
  C  C898  1  0.304850  0.831260  0.412800  1.0
  C  C899  1  0.168740  0.804850  0.912800  1.0
  C  C900  1  0.195150  0.668740  0.412800  1.0
  C  C901  1  0.668740  0.304850  0.087200  1.0
  C  C902  1  0.695150  0.168740  0.587200  1.0
  C  C903  1  0.831260  0.195150  0.087200  1.0
  C  C904  1  0.804850  0.331260  0.587200  1.0
  C  C905  1  0.162240  0.565490  0.826220  1.0
  C  C906  1  0.434510  0.662240  0.326220  1.0
  C  C907  1  0.337760  0.934510  0.826220  1.0
  C  C908  1  0.065490  0.837760  0.326220  1.0
  C  C909  1  0.837760  0.434510  0.173780  1.0
  C  C910  1  0.565490  0.337760  0.673780  1.0
  C  C911  1  0.662240  0.065490  0.173780  1.0
  C  C912  1  0.934510  0.162240  0.673780  1.0
  C  C913  1  0.138930  0.624710  0.844850  1.0
  C  C914  1  0.375290  0.638930  0.344850  1.0
  C  C915  1  0.361070  0.875290  0.844850  1.0
  C  C916  1  0.124710  0.861070  0.344850  1.0
  C  C917  1  0.861070  0.375290  0.155150  1.0
  C  C918  1  0.624710  0.361070  0.655150  1.0
  C  C919  1  0.638930  0.124710  0.155150  1.0
  C  C920  1  0.875290  0.138930  0.655150  1.0
  C  C921  1  0.172790  0.421940  0.888400  1.0
  C  C922  1  0.578060  0.672790  0.388400  1.0
  C  C923  1  0.327210  0.078060  0.888400  1.0
  C  C924  1  0.921940  0.827210  0.388400  1.0
  C  C925  1  0.827210  0.578060  0.111600  1.0
  C  C926  1  0.421940  0.327210  0.611600  1.0
  C  C927  1  0.672790  0.921940  0.111600  1.0
  C  C928  1  0.078060  0.172790  0.611600  1.0
  C  C929  1  0.136900  0.367310  0.898710  1.0
  C  C930  1  0.632690  0.636900  0.398710  1.0
  C  C931  1  0.363100  0.132690  0.898710  1.0
  C  C932  1  0.867310  0.863100  0.398710  1.0
  C  C933  1  0.863100  0.632690  0.101290  1.0
  C  C934  1  0.367310  0.363100  0.601290  1.0
  C  C935  1  0.636900  0.867310  0.101290  1.0
  C  C936  1  0.132690  0.136900  0.601290  1.0
  N  N937  1  0.750000  0.250000  0.822000  1
  N  N938  1  0.750000  0.250000  0.322000  1
  N  N939  1  0.250000  0.750000  0.178000  1
  N  N940  1  0.250000  0.750000  0.678000  1
  N  N941  1  0.603800  0.307200  0.942700  1
  N  N942  1  0.692800  0.103800  0.442700  1
  N  N943  1  0.896200  0.192800  0.942700  1
  N  N944  1  0.807200  0.396200  0.442700  1
  N  N945  1  0.396200  0.692800  0.057300  1
  N  N946  1  0.307200  0.896200  0.557300  1
  N  N947  1  0.103800  0.807200  0.057300  1
  N  N948  1  0.192800  0.603800  0.557300  1
  N  N949  1  0.425880  0.552480  0.707320  1.0
  N  N950  1  0.447520  0.925880  0.207320  1.0
  N  N951  1  0.074120  0.947520  0.707320  1.0
  N  N952  1  0.052480  0.574120  0.207320  1.0
  N  N953  1  0.574120  0.447520  0.292680  1.0
  N  N954  1  0.552480  0.074120  0.792680  1.0
  N  N955  1  0.925880  0.052480  0.292680  1.0
  N  N956  1  0.947520  0.425880  0.792680  1.0
  N  N957  1  0.255400  0.507730  0.021150  1.0
  N  N958  1  0.492270  0.755400  0.521150  1.0
  N  N959  1  0.244600  0.992270  0.021150  1.0
  N  N960  1  0.007730  0.744600  0.521150  1.0
  N  N961  1  0.744600  0.492270  0.978850  1.0
  N  N962  1  0.507730  0.244600  0.478850  1.0
  N  N963  1  0.755400  0.007730  0.978850  1.0
  N  N964  1  0.992270  0.255400  0.478850  1.0
  O  O965  1  0.002150  0.664150  0.928300  1
  O  O966  1  0.335850  0.502150  0.428300  1
  O  O967  1  0.497850  0.835850  0.928300  1
  O  O968  1  0.164150  0.997850  0.428300  1
  O  O969  1  0.997850  0.335850  0.071700  1
  O  O970  1  0.664150  0.497850  0.571700  1
  O  O971  1  0.502150  0.164150  0.071700  1
  O  O972  1  0.835850  0.002150  0.571700  1
  O  O973  1  0.328260  0.541940  0.799550  1.0
  O  O974  1  0.458060  0.828260  0.299550  1.0
  O  O975  1  0.171740  0.958060  0.799550  1.0
  O  O976  1  0.041940  0.671740  0.299550  1.0
  O  O977  1  0.671740  0.458060  0.200450  1.0
  O  O978  1  0.541940  0.171740  0.700450  1.0
  O  O979  1  0.828260  0.041940  0.200450  1.0
  O  O980  1  0.958060  0.328260  0.700450  1.0
  O  O981  1  0.426530  0.432400  0.702080  1.0
  O  O982  1  0.567600  0.926530  0.202080  1.0
  O  O983  1  0.073470  0.067600  0.702080  1.0
  O  O984  1  0.932400  0.573470  0.202080  1.0
  O  O985  1  0.573470  0.567600  0.297920  1.0
  O  O986  1  0.432400  0.073470  0.797920  1.0
  O  O987  1  0.926530  0.932400  0.297920  1.0
  O  O988  1  0.067600  0.426530  0.797920  1.0
  O  O989  1  0.302380  0.482080  0.897360  1.0
  O  O990  1  0.517920  0.802380  0.397360  1.0
  O  O991  1  0.197620  0.017920  0.897360  1.0
  O  O992  1  0.982080  0.697620  0.397360  1.0
  O  O993  1  0.697620  0.517920  0.102640  1.0
  O  O994  1  0.482080  0.197620  0.602640  1.0
  O  O995  1  0.802380  0.982080  0.102640  1.0
  O  O996  1  0.017920  0.302380  0.602640  1.0
  O  O997  1  0.171850  0.579900  0.972340  1.0
  O  O998  1  0.420100  0.671850  0.472340  1.0
  O  O999  1  0.328150  0.920100  0.972340  1.0
  O  O1000  1  0.079900  0.828150  0.472340  1.0
  O  O1001  1  0.828150  0.420100  0.027660  1.0
  O  O1002  1  0.579900  0.328150  0.527660  1.0
  O  O1003  1  0.671850  0.079900  0.027660  1.0
  O  O1004  1  0.920100  0.171850  0.527660  1.0
  O  O1005  1  0.422130  0.480600  0.830470  1.0
  O  O1006  1  0.519400  0.922130  0.330470  1.0
  O  O1007  1  0.077870  0.019400  0.830470  1.0
  O  O1008  1  0.980600  0.577870  0.330470  1.0
  O  O1009  1  0.577870  0.519400  0.169530  1.0
  O  O1010  1  0.480600  0.077870  0.669530  1.0
  O  O1011  1  0.922130  0.980600  0.169530  1.0
  O  O1012  1  0.019400  0.422130  0.669530  1.0
  O  O1013  1  0.478530  0.401670  0.813000  1.0
  O  O1014  1  0.598330  0.978530  0.313000  1.0
  O  O1015  1  0.021470  0.098330  0.813000  1.0
  O  O1016  1  0.901670  0.521470  0.313000  1.0
  O  O1017  1  0.521470  0.598330  0.187000  1.0
  O  O1018  1  0.401670  0.021470  0.687000  1.0
  O  O1019  1  0.978530  0.901670  0.187000  1.0
  O  O1020  1  0.098330  0.478530  0.687000  1.0
  O  O1021  1  0.322590  0.420290  0.787600  1.0
  O  O1022  1  0.579710  0.822590  0.287600  1.0
  O  O1023  1  0.177410  0.079710  0.787600  1.0
  O  O1024  1  0.920290  0.677410  0.287600  1.0
  O  O1025  1  0.677410  0.579710  0.212400  1.0
  O  O1026  1  0.420290  0.177410  0.712400  1.0
  O  O1027  1  0.822590  0.920290  0.212400  1.0
  O  O1028  1  0.079710  0.322590  0.712400  1.0
  O  O1029  1  0.373210  0.338210  0.770850  1.0
  O  O1030  1  0.661790  0.873210  0.270850  1.0
  O  O1031  1  0.126790  0.161790  0.770850  1.0
  O  O1032  1  0.838210  0.626790  0.270850  1.0
  O  O1033  1  0.626790  0.661790  0.229150  1.0
  O  O1034  1  0.338210  0.126790  0.729150  1.0
  O  O1035  1  0.873210  0.838210  0.229150  1.0
  O  O1036  1  0.161790  0.373210  0.729150  1.0
  O  O1037  1  0.311320  0.487090  0.684830  1.0
  O  O1038  1  0.512910  0.811320  0.184830  1.0
  O  O1039  1  0.188680  0.012910  0.684830  1.0
  O  O1040  1  0.987090  0.688680  0.184830  1.0
  O  O1041  1  0.688680  0.512910  0.315170  1.0
  O  O1042  1  0.487090  0.188680  0.815170  1.0
  O  O1043  1  0.811320  0.987090  0.315170  1.0
  O  O1044  1  0.012910  0.311320  0.815170  1.0
  O  O1045  1  0.226920  0.479140  0.734170  1.0
  O  O1046  1  0.520860  0.726920  0.234170  1.0
  O  O1047  1  0.273080  0.020860  0.734170  1.0
  O  O1048  1  0.979140  0.773080  0.234170  1.0
  O  O1049  1  0.773080  0.520860  0.265830  1.0
  O  O1050  1  0.479140  0.273080  0.765830  1.0
  O  O1051  1  0.726920  0.979140  0.265830  1.0
  O  O1052  1  0.020860  0.226920  0.765830  1.0
  O  O1053  1  0.433310  0.604140  0.876410  1.0
  O  O1054  1  0.395860  0.933310  0.376410  1.0
  O  O1055  1  0.066690  0.895860  0.876410  1.0
  O  O1056  1  0.104140  0.566690  0.376410  1.0
  O  O1057  1  0.566690  0.395860  0.123590  1.0
  O  O1058  1  0.604140  0.066690  0.623590  1.0
  O  O1059  1  0.933310  0.104140  0.123590  1.0
  O  O1060  1  0.895860  0.433310  0.623590  1.0
  O  O1061  1  0.417010  0.550610  0.954140  1.0
  O  O1062  1  0.449390  0.917010  0.454140  1.0
  O  O1063  1  0.082990  0.949390  0.954140  1.0
  O  O1064  1  0.050610  0.582990  0.454140  1.0
  O  O1065  1  0.582990  0.449390  0.045860  1.0
  O  O1066  1  0.550610  0.082990  0.545860  1.0
  O  O1067  1  0.917010  0.050610  0.045860  1.0
  O  O1068  1  0.949390  0.417010  0.545860  1.0
  O  O1069  1  0.298300  0.595270  0.921000  1.0
  O  O1070  1  0.404730  0.798300  0.421000  1.0
  O  O1071  1  0.201700  0.904730  0.921000  1.0
  O  O1072  1  0.095270  0.701700  0.421000  1.0
  O  O1073  1  0.701700  0.404730  0.079000  1.0
  O  O1074  1  0.595270  0.201700  0.579000  1.0
  O  O1075  1  0.798300  0.095270  0.079000  1.0
  O  O1076  1  0.904730  0.298300  0.579000  1.0
  O  O1077  1  0.240070  0.666450  0.953590  1.0
  O  O1078  1  0.333550  0.740070  0.453590  1.0
  O  O1079  1  0.259930  0.833550  0.953590  1.0
  O  O1080  1  0.166450  0.759930  0.453590  1.0
  O  O1081  1  0.759930  0.333550  0.046410  1.0
  O  O1082  1  0.666450  0.259930  0.546410  1.0
  O  O1083  1  0.740070  0.166450  0.046410  1.0
  O  O1084  1  0.833550  0.240070  0.546410  1.0
  O  O1085  1  0.211760  0.549230  0.847810  1.0
  O  O1086  1  0.450770  0.711760  0.347810  1.0
  O  O1087  1  0.288240  0.950770  0.847810  1.0
  O  O1088  1  0.049230  0.788240  0.347810  1.0
  O  O1089  1  0.788240  0.450770  0.152190  1.0
  O  O1090  1  0.549230  0.288240  0.652190  1.0
  O  O1091  1  0.711760  0.049230  0.152190  1.0
  O  O1092  1  0.950770  0.211760  0.652190  1.0
  O  O1093  1  0.537210  0.366730  0.709490  1.0
  O  O1094  1  0.633270  0.037210  0.209490  1.0
  O  O1095  1  0.962790  0.133270  0.709490  1.0
  O  O1096  1  0.866730  0.462790  0.209490  1.0
  O  O1097  1  0.462790  0.633270  0.290510  1.0
  O  O1098  1  0.366730  0.962790  0.790510  1.0
  O  O1099  1  0.037210  0.866730  0.290510  1.0
  O  O1100  1  0.133270  0.537210  0.790510  1.0
  O  O1101  1  0.193930  0.428990  0.837220  1.0
  O  O1102  1  0.571010  0.693930  0.337220  1.0
  O  O1103  1  0.306070  0.071010  0.837220  1.0
  O  O1104  1  0.928990  0.806070  0.337220  1.0
  O  O1105  1  0.806070  0.571010  0.162780  1.0
  O  O1106  1  0.428990  0.306070  0.662780  1.0
  O  O1107  1  0.693930  0.928990  0.162780  1.0
  O  O1108  1  0.071010  0.193930  0.662780  1.0
  O  O1109  1  0.181370  0.456260  0.930130  1.0
  O  O1110  1  0.543740  0.681370  0.430130  1.0
  O  O1111  1  0.318630  0.043740  0.930130  1.0
  O  O1112  1  0.956260  0.818630  0.430130  1.0
  O  O1113  1  0.818630  0.543740  0.069870  1.0
  O  O1114  1  0.456260  0.318630  0.569870  1.0
  O  O1115  1  0.681370  0.956260  0.069870  1.0
  O  O1116  1  0.043740  0.181370  0.569870  1.0
