# generated using pymatgen
data_Co10H112C94N7O39
_symmetry_space_group_name_H-M   'P 1'
_cell_length_a   22.82600000
_cell_length_b   22.82600000
_cell_length_c   23.12900000
_cell_angle_alpha   90.00000000
_cell_angle_beta   90.00000000
_cell_angle_gamma   90.00000000
_symmetry_Int_Tables_number   1
_chemical_formula_structural   Co10H112C94N7O39
_chemical_formula_sum   'Co40 H448 C376 N28 O156'
_cell_volume   12050.81673760
_cell_formula_units_Z   4
loop_
 _symmetry_equiv_pos_site_id
 _symmetry_equiv_pos_as_xyz
  1  'x, y, z'
loop_
 _atom_site_type_symbol
 _atom_site_label
 _atom_site_symmetry_multiplicity
 _atom_site_fract_x
 _atom_site_fract_y
 _atom_site_fract_z
 _atom_site_occupancy
  Co  Co1  1  0.622189  0.985072  0.249690  1.0
  Co  Co2  1  0.014928  0.122189  0.749690  1.0
  Co  Co3  1  0.877811  0.514928  0.249690  1.0
  Co  Co4  1  0.485072  0.377811  0.749690  1.0
  Co  Co5  1  0.377811  0.014928  0.750310  1.0
  Co  Co6  1  0.985072  0.877811  0.250310  1.0
  Co  Co7  1  0.122189  0.485072  0.750310  1.0
  Co  Co8  1  0.514928  0.622189  0.250310  1.0
  Co  Co9  1  0.633106  0.043516  0.119125  1.0
  Co  Co10  1  0.956484  0.133106  0.619125  1.0
  Co  Co11  1  0.866894  0.456484  0.119125  1.0
  Co  Co12  1  0.543516  0.366894  0.619125  1.0
  Co  Co13  1  0.366894  0.956484  0.880875  1.0
  Co  Co14  1  0.043516  0.866894  0.380875  1.0
  Co  Co15  1  0.133106  0.543516  0.880875  1.0
  Co  Co16  1  0.456484  0.633106  0.380875  1.0
  Co  Co17  1  0.736992  0.983213  0.183328  1.0
  Co  Co18  1  0.016787  0.236992  0.683328  1.0
  Co  Co19  1  0.763008  0.516787  0.183328  1.0
  Co  Co20  1  0.483213  0.263008  0.683328  1.0
  Co  Co21  1  0.263008  0.016787  0.816672  1.0
  Co  Co22  1  0.983213  0.763008  0.316672  1.0
  Co  Co23  1  0.236992  0.483213  0.816672  1.0
  Co  Co24  1  0.516787  0.736992  0.316672  1.0
  Co  Co25  1  0.764485  0.029263  0.064681  1.0
  Co  Co26  1  0.970737  0.264485  0.564681  1.0
  Co  Co27  1  0.735515  0.470737  0.064681  1.0
  Co  Co28  1  0.529263  0.235515  0.564681  1.0
  Co  Co29  1  0.235515  0.970737  0.935319  1.0
  Co  Co30  1  0.029263  0.735515  0.435319  1.0
  Co  Co31  1  0.264485  0.529263  0.935319  1.0
  Co  Co32  1  0.470737  0.764485  0.435319  1.0
  Co  Co33  1  0.545540  0.860270  0.259360  1.0
  Co  Co34  1  0.139730  0.045540  0.759360  1.0
  Co  Co35  1  0.954460  0.639730  0.259360  1.0
  Co  Co36  1  0.360270  0.454460  0.759360  1.0
  Co  Co37  1  0.454460  0.139730  0.740640  1.0
  Co  Co38  1  0.860270  0.954460  0.240640  1.0
  Co  Co39  1  0.045540  0.360270  0.740640  1.0
  Co  Co40  1  0.639730  0.545540  0.240640  1.0
  H  H41  1  0.708300  0.121800  0.196700  1.0
  H  H42  1  0.878200  0.208300  0.696700  1.0
  H  H43  1  0.791700  0.378200  0.196700  1.0
  H  H44  1  0.621800  0.291700  0.696700  1.0
  H  H45  1  0.291700  0.878200  0.803300  1.0
  H  H46  1  0.121800  0.791700  0.303300  1.0
  H  H47  1  0.208300  0.621800  0.803300  1.0
  H  H48  1  0.378200  0.708300  0.303300  1.0
  H  H49  1  0.714200  0.090100  0.258100  1.0
  H  H50  1  0.909900  0.214200  0.758100  1.0
  H  H51  1  0.785800  0.409900  0.258100  1.0
  H  H52  1  0.590100  0.285800  0.758100  1.0
  H  H53  1  0.285800  0.909900  0.741900  1.0
  H  H54  1  0.090100  0.785800  0.241900  1.0
  H  H55  1  0.214200  0.590100  0.741900  1.0
  H  H56  1  0.409900  0.714200  0.241900  1.0
  H  H57  1  0.605600  0.137000  0.217800  1.0
  H  H58  1  0.863000  0.105600  0.717800  1.0
  H  H59  1  0.894400  0.363000  0.217800  1.0
  H  H60  1  0.637000  0.394400  0.717800  1.0
  H  H61  1  0.394400  0.863000  0.782200  1.0
  H  H62  1  0.137000  0.894400  0.282200  1.0
  H  H63  1  0.105600  0.637000  0.782200  1.0
  H  H64  1  0.363000  0.605600  0.282200  1.0
  H  H65  1  0.649300  0.174000  0.257500  1.0
  H  H66  1  0.826000  0.149300  0.757500  1.0
  H  H67  1  0.850700  0.326000  0.257500  1.0
  H  H68  1  0.674000  0.350700  0.757500  1.0
  H  H69  1  0.350700  0.826000  0.742500  1.0
  H  H70  1  0.174000  0.850700  0.242500  1.0
  H  H71  1  0.149300  0.674000  0.742500  1.0
  H  H72  1  0.326000  0.649300  0.242500  1.0
  H  H73  1  0.637200  0.100200  0.331900  1.0
  H  H74  1  0.899800  0.137200  0.831900  1.0
  H  H75  1  0.862800  0.399800  0.331900  1.0
  H  H76  1  0.600200  0.362800  0.831900  1.0
  H  H77  1  0.362800  0.899800  0.668100  1.0
  H  H78  1  0.100200  0.862800  0.168100  1.0
  H  H79  1  0.137200  0.600200  0.668100  1.0
  H  H80  1  0.399800  0.637200  0.168100  1.0
  H  H81  1  0.580100  0.138700  0.319600  1.0
  H  H82  1  0.861300  0.080100  0.819600  1.0
  H  H83  1  0.919900  0.361300  0.319600  1.0
  H  H84  1  0.638700  0.419900  0.819600  1.0
  H  H85  1  0.419900  0.861300  0.680400  1.0
  H  H86  1  0.138700  0.919900  0.180400  1.0
  H  H87  1  0.080100  0.638700  0.680400  1.0
  H  H88  1  0.361300  0.580100  0.180400  1.0
  H  H89  1  0.537300  0.940900  0.375000  1.0
  H  H90  1  0.059100  0.037300  0.875000  1.0
  H  H91  1  0.962700  0.559100  0.375000  1.0
  H  H92  1  0.440900  0.462700  0.875000  1.0
  H  H93  1  0.462700  0.059100  0.625000  1.0
  H  H94  1  0.940900  0.962700  0.125000  1.0
  H  H95  1  0.037300  0.440900  0.625000  1.0
  H  H96  1  0.559100  0.537300  0.125000  1.0
  H  H97  1  0.494600  0.966000  0.325800  1.0
  H  H98  1  0.034000  0.994600  0.825800  1.0
  H  H99  1  0.005400  0.534000  0.325800  1.0
  H  H100  1  0.466000  0.505400  0.825800  1.0
  H  H101  1  0.505400  0.034000  0.674200  1.0
  H  H102  1  0.966000  0.005400  0.174200  1.0
  H  H103  1  0.994600  0.466000  0.674200  1.0
  H  H104  1  0.534000  0.494600  0.174200  1.0
  H  H105  1  0.530800  0.048200  0.371100  1.0
  H  H106  1  0.951800  0.030800  0.871100  1.0
  H  H107  1  0.969200  0.451800  0.371100  1.0
  H  H108  1  0.548200  0.469200  0.871100  1.0
  H  H109  1  0.469200  0.951800  0.628900  1.0
  H  H110  1  0.048200  0.969200  0.128900  1.0
  H  H111  1  0.030800  0.548200  0.628900  1.0
  H  H112  1  0.451800  0.530800  0.128900  1.0
  H  H113  1  0.596300  0.022700  0.372000  1.0
  H  H114  1  0.977300  0.096300  0.872000  1.0
  H  H115  1  0.903700  0.477300  0.372000  1.0
  H  H116  1  0.522700  0.403700  0.872000  1.0
  H  H117  1  0.403700  0.977300  0.628000  1.0
  H  H118  1  0.022700  0.903700  0.128000  1.0
  H  H119  1  0.096300  0.522700  0.628000  1.0
  H  H120  1  0.477300  0.596300  0.128000  1.0
  H  H121  1  0.498100  0.027000  0.251300  1.0
  H  H122  1  0.973000  0.998100  0.751300  1.0
  H  H123  1  0.001900  0.473000  0.251300  1.0
  H  H124  1  0.527000  0.501900  0.751300  1.0
  H  H125  1  0.501900  0.973000  0.748700  1.0
  H  H126  1  0.027000  0.001900  0.248700  1.0
  H  H127  1  0.998100  0.527000  0.748700  1.0
  H  H128  1  0.473000  0.498100  0.248700  1.0
  H  H129  1  0.528100  0.082300  0.221200  1.0
  H  H130  1  0.917700  0.028100  0.721200  1.0
  H  H131  1  0.971900  0.417700  0.221200  1.0
  H  H132  1  0.582300  0.471900  0.721200  1.0
  H  H133  1  0.471900  0.917700  0.778800  1.0
  H  H134  1  0.082300  0.971900  0.278800  1.0
  H  H135  1  0.028100  0.582300  0.778800  1.0
  H  H136  1  0.417700  0.528100  0.278800  1.0
  H  H137  1  0.429000  0.043300  0.333900  1.0
  H  H138  1  0.956700  0.929000  0.833900  1.0
  H  H139  1  0.071000  0.456700  0.333900  1.0
  H  H140  1  0.543300  0.571000  0.833900  1.0
  H  H141  1  0.571000  0.956700  0.666100  1.0
  H  H142  1  0.043300  0.071000  0.166100  1.0
  H  H143  1  0.929000  0.543300  0.666100  1.0
  H  H144  1  0.456700  0.429000  0.166100  1.0
  H  H145  1  0.359100  0.105200  0.374900  1.0
  H  H146  1  0.894800  0.859100  0.874900  1.0
  H  H147  1  0.140900  0.394800  0.374900  1.0
  H  H148  1  0.605200  0.640900  0.874900  1.0
  H  H149  1  0.640900  0.894800  0.625100  1.0
  H  H150  1  0.105200  0.140900  0.125100  1.0
  H  H151  1  0.859100  0.605200  0.625100  1.0
  H  H152  1  0.394800  0.359100  0.125100  1.0
  H  H153  1  0.359500  0.204900  0.353800  1.0
  H  H154  1  0.795100  0.859500  0.853800  1.0
  H  H155  1  0.140500  0.295100  0.353800  1.0
  H  H156  1  0.704900  0.640500  0.853800  1.0
  H  H157  1  0.640500  0.795100  0.646200  1.0
  H  H158  1  0.204900  0.140500  0.146200  1.0
  H  H159  1  0.859500  0.704900  0.646200  1.0
  H  H160  1  0.295100  0.359500  0.146200  1.0
  H  H161  1  0.430500  0.242900  0.291300  1.0
  H  H162  1  0.757100  0.930500  0.791300  1.0
  H  H163  1  0.069500  0.257100  0.291300  1.0
  H  H164  1  0.742900  0.569500  0.791300  1.0
  H  H165  1  0.569500  0.757100  0.708700  1.0
  H  H166  1  0.242900  0.069500  0.208700  1.0
  H  H167  1  0.930500  0.742900  0.708700  1.0
  H  H168  1  0.257100  0.430500  0.208700  1.0
  H  H169  1  0.500400  0.180900  0.249400  1.0
  H  H170  1  0.819100  0.000400  0.749400  1.0
  H  H171  1  0.999600  0.319100  0.249400  1.0
  H  H172  1  0.680900  0.499600  0.749400  1.0
  H  H173  1  0.499600  0.819100  0.750600  1.0
  H  H174  1  0.180900  0.999600  0.250600  1.0
  H  H175  1  0.000400  0.680900  0.750600  1.0
  H  H176  1  0.319100  0.500400  0.250600  1.0
  H  H177  1  0.646000  0.912700  0.092200  1.0
  H  H178  1  0.087300  0.146000  0.592200  1.0
  H  H179  1  0.854000  0.587300  0.092200  1.0
  H  H180  1  0.412700  0.354000  0.592200  1.0
  H  H181  1  0.354000  0.087300  0.907800  1.0
  H  H182  1  0.912700  0.854000  0.407800  1.0
  H  H183  1  0.146000  0.412700  0.907800  1.0
  H  H184  1  0.587300  0.646000  0.407800  1.0
  H  H185  1  0.713600  0.900000  0.079400  1.0
  H  H186  1  0.100000  0.213600  0.579400  1.0
  H  H187  1  0.786400  0.600000  0.079400  1.0
  H  H188  1  0.400000  0.286400  0.579400  1.0
  H  H189  1  0.286400  0.100000  0.920600  1.0
  H  H190  1  0.900000  0.786400  0.420600  1.0
  H  H191  1  0.213600  0.400000  0.920600  1.0
  H  H192  1  0.600000  0.713600  0.420600  1.0
  H  H193  1  0.640500  0.964100  0.001700  1.0
  H  H194  1  0.035900  0.140500  0.501700  1.0
  H  H195  1  0.859500  0.535900  0.001700  1.0
  H  H196  1  0.464100  0.359500  0.501700  1.0
  H  H197  1  0.359500  0.035900  0.998300  1.0
  H  H198  1  0.964100  0.859500  0.498300  1.0
  H  H199  1  0.140500  0.464100  0.998300  1.0
  H  H200  1  0.535900  0.640500  0.498300  1.0
  H  H201  1  0.652000  0.895400  0.995100  1.0
  H  H202  1  0.104600  0.152000  0.495100  1.0
  H  H203  1  0.848000  0.604600  0.995100  1.0
  H  H204  1  0.395400  0.348000  0.495100  1.0
  H  H205  1  0.348000  0.104600  0.004900  1.0
  H  H206  1  0.895400  0.848000  0.504900  1.0
  H  H207  1  0.152000  0.395400  0.004900  1.0
  H  H208  1  0.604600  0.652000  0.504900  1.0
  H  H209  1  0.756300  0.919100  0.983500  1.0
  H  H210  1  0.080900  0.256300  0.483500  1.0
  H  H211  1  0.743700  0.580900  0.983500  1.0
  H  H212  1  0.419100  0.243700  0.483500  1.0
  H  H213  1  0.243700  0.080900  0.016500  1.0
  H  H214  1  0.919100  0.743700  0.516500  1.0
  H  H215  1  0.256300  0.419100  0.016500  1.0
  H  H216  1  0.580900  0.756300  0.516500  1.0
  H  H217  1  0.715000  0.936500  0.930400  1.0
  H  H218  1  0.063500  0.215000  0.430400  1.0
  H  H219  1  0.785000  0.563500  0.930400  1.0
  H  H220  1  0.436500  0.285000  0.430400  1.0
  H  H221  1  0.285000  0.063500  0.069600  1.0
  H  H222  1  0.936500  0.785000  0.569600  1.0
  H  H223  1  0.215000  0.436500  0.069600  1.0
  H  H224  1  0.563500  0.715000  0.569600  1.0
  H  H225  1  0.874300  0.069300  0.952100  1.0
  H  H226  1  0.930700  0.374300  0.452100  1.0
  H  H227  1  0.625700  0.430700  0.952100  1.0
  H  H228  1  0.569300  0.125700  0.452100  1.0
  H  H229  1  0.125700  0.930700  0.047900  1.0
  H  H230  1  0.069300  0.625700  0.547900  1.0
  H  H231  1  0.374300  0.569300  0.047900  1.0
  H  H232  1  0.430700  0.874300  0.547900  1.0
  H  H233  1  0.813300  0.101900  0.939900  1.0
  H  H234  1  0.898100  0.313300  0.439900  1.0
  H  H235  1  0.686700  0.398100  0.939900  1.0
  H  H236  1  0.601900  0.186700  0.439900  1.0
  H  H237  1  0.186700  0.898100  0.060100  1.0
  H  H238  1  0.101900  0.686700  0.560100  1.0
  H  H239  1  0.313300  0.601900  0.060100  1.0
  H  H240  1  0.398100  0.813300  0.560100  1.0
  H  H241  1  0.800200  0.008300  0.905200  1.0
  H  H242  1  0.991700  0.300200  0.405200  1.0
  H  H243  1  0.699800  0.491700  0.905200  1.0
  H  H244  1  0.508300  0.199800  0.405200  1.0
  H  H245  1  0.199800  0.991700  0.094800  1.0
  H  H246  1  0.008300  0.699800  0.594800  1.0
  H  H247  1  0.300200  0.508300  0.094800  1.0
  H  H248  1  0.491700  0.800200  0.594800  1.0
  H  H249  1  0.829400  0.979600  0.961500  1.0
  H  H250  1  0.020400  0.329400  0.461500  1.0
  H  H251  1  0.670600  0.520400  0.961500  1.0
  H  H252  1  0.479600  0.170600  0.461500  1.0
  H  H253  1  0.170600  0.020400  0.038500  1.0
  H  H254  1  0.979600  0.670600  0.538500  1.0
  H  H255  1  0.329400  0.479600  0.038500  1.0
  H  H256  1  0.520400  0.829400  0.538500  1.0
  H  H257  1  0.718200  0.089800  0.953900  1.0
  H  H258  1  0.910200  0.218200  0.453900  1.0
  H  H259  1  0.781800  0.410200  0.953900  1.0
  H  H260  1  0.589800  0.281800  0.453900  1.0
  H  H261  1  0.281800  0.910200  0.046100  1.0
  H  H262  1  0.089800  0.781800  0.546100  1.0
  H  H263  1  0.218200  0.589800  0.046100  1.0
  H  H264  1  0.410200  0.718200  0.546100  1.0
  H  H265  1  0.665200  0.047800  0.971500  1.0
  H  H266  1  0.952200  0.165200  0.471500  1.0
  H  H267  1  0.834800  0.452200  0.971500  1.0
  H  H268  1  0.547800  0.334800  0.471500  1.0
  H  H269  1  0.334800  0.952200  0.028500  1.0
  H  H270  1  0.047800  0.834800  0.528500  1.0
  H  H271  1  0.165200  0.547800  0.028500  1.0
  H  H272  1  0.452200  0.665200  0.528500  1.0
  H  H273  1  0.621300  0.981900  0.898100  1.0
  H  H274  1  0.018100  0.121300  0.398100  1.0
  H  H275  1  0.878700  0.518100  0.898100  1.0
  H  H276  1  0.481900  0.378700  0.398100  1.0
  H  H277  1  0.378700  0.018100  0.101900  1.0
  H  H278  1  0.981900  0.878700  0.601900  1.0
  H  H279  1  0.121300  0.481900  0.101900  1.0
  H  H280  1  0.518100  0.621300  0.601900  1.0
  H  H281  1  0.600500  0.965300  0.800400  1.0
  H  H282  1  0.034700  0.100500  0.300400  1.0
  H  H283  1  0.899500  0.534700  0.800400  1.0
  H  H284  1  0.465300  0.399500  0.300400  1.0
  H  H285  1  0.399500  0.034700  0.199600  1.0
  H  H286  1  0.965300  0.899500  0.699600  1.0
  H  H287  1  0.100500  0.465300  0.199600  1.0
  H  H288  1  0.534700  0.600500  0.699600  1.0
  H  H289  1  0.653700  0.014800  0.728900  1.0
  H  H290  1  0.985200  0.153700  0.228900  1.0
  H  H291  1  0.846300  0.485200  0.728900  1.0
  H  H292  1  0.514800  0.346300  0.228900  1.0
  H  H293  1  0.346300  0.985200  0.271100  1.0
  H  H294  1  0.014800  0.846300  0.771100  1.0
  H  H295  1  0.153700  0.514800  0.271100  1.0
  H  H296  1  0.485200  0.653700  0.771100  1.0
  H  H297  1  0.727500  0.079300  0.755000  1.0
  H  H298  1  0.920700  0.227500  0.255000  1.0
  H  H299  1  0.772500  0.420700  0.755000  1.0
  H  H300  1  0.579300  0.272500  0.255000  1.0
  H  H301  1  0.272500  0.920700  0.245000  1.0
  H  H302  1  0.079300  0.772500  0.745000  1.0
  H  H303  1  0.227500  0.579300  0.245000  1.0
  H  H304  1  0.420700  0.727500  0.745000  1.0
  H  H305  1  0.750300  0.094700  0.852100  1.0
  H  H306  1  0.905300  0.250300  0.352100  1.0
  H  H307  1  0.749700  0.405300  0.852100  1.0
  H  H308  1  0.594700  0.249700  0.352100  1.0
  H  H309  1  0.249700  0.905300  0.147900  1.0
  H  H310  1  0.094700  0.749700  0.647900  1.0
  H  H311  1  0.250300  0.594700  0.147900  1.0
  H  H312  1  0.405300  0.750300  0.647900  1.0
  H  H313  1  0.477400  0.985900  0.101100  1.0
  H  H314  1  0.014100  0.977400  0.601100  1.0
  H  H315  1  0.022600  0.514100  0.101100  1.0
  H  H316  1  0.485900  0.522600  0.601100  1.0
  H  H317  1  0.522600  0.014100  0.898900  1.0
  H  H318  1  0.985900  0.022600  0.398900  1.0
  H  H319  1  0.977400  0.485900  0.898900  1.0
  H  H320  1  0.514100  0.477400  0.398900  1.0
  H  H321  1  0.483800  0.917600  0.087200  1.0
  H  H322  1  0.082400  0.983800  0.587200  1.0
  H  H323  1  0.016200  0.582400  0.087200  1.0
  H  H324  1  0.417600  0.516200  0.587200  1.0
  H  H325  1  0.516200  0.082400  0.912800  1.0
  H  H326  1  0.917600  0.016200  0.412800  1.0
  H  H327  1  0.983800  0.417600  0.912800  1.0
  H  H328  1  0.582400  0.483800  0.412800  1.0
  H  H329  1  0.533700  0.962400  0.066900  1.0
  H  H330  1  0.037600  0.033700  0.566900  1.0
  H  H331  1  0.966300  0.537600  0.066900  1.0
  H  H332  1  0.462400  0.466300  0.566900  1.0
  H  H333  1  0.466300  0.037600  0.933100  1.0
  H  H334  1  0.962400  0.966300  0.433100  1.0
  H  H335  1  0.033700  0.462400  0.933100  1.0
  H  H336  1  0.537600  0.533700  0.433100  1.0
  H  H337  1  0.720600  0.827300  0.145200  1.0
  H  H338  1  0.172700  0.220600  0.645200  1.0
  H  H339  1  0.779400  0.672700  0.145200  1.0
  H  H340  1  0.327300  0.279400  0.645200  1.0
  H  H341  1  0.279400  0.172700  0.854800  1.0
  H  H342  1  0.827300  0.779400  0.354800  1.0
  H  H343  1  0.220600  0.327300  0.854800  1.0
  H  H344  1  0.672700  0.720600  0.354800  1.0
  H  H345  1  0.715400  0.785700  0.200700  1.0
  H  H346  1  0.214300  0.215400  0.700700  1.0
  H  H347  1  0.784600  0.714300  0.200700  1.0
  H  H348  1  0.285700  0.284600  0.700700  1.0
  H  H349  1  0.284600  0.214300  0.799300  1.0
  H  H350  1  0.785700  0.784600  0.299300  1.0
  H  H351  1  0.215400  0.285700  0.799300  1.0
  H  H352  1  0.714300  0.715400  0.299300  1.0
  H  H353  1  0.758400  0.841200  0.201900  1.0
  H  H354  1  0.158800  0.258400  0.701900  1.0
  H  H355  1  0.741600  0.658800  0.201900  1.0
  H  H356  1  0.341200  0.241600  0.701900  1.0
  H  H357  1  0.241600  0.158800  0.798100  1.0
  H  H358  1  0.841200  0.741600  0.298100  1.0
  H  H359  1  0.258400  0.341200  0.798100  1.0
  H  H360  1  0.658800  0.758400  0.298100  1.0
  H  H361  1  0.772600  0.911200  0.366600  1.0
  H  H362  1  0.088800  0.272600  0.866600  1.0
  H  H363  1  0.727400  0.588800  0.366600  1.0
  H  H364  1  0.411200  0.227400  0.866600  1.0
  H  H365  1  0.227400  0.088800  0.633400  1.0
  H  H366  1  0.911200  0.727400  0.133400  1.0
  H  H367  1  0.272600  0.411200  0.633400  1.0
  H  H368  1  0.588800  0.772600  0.133400  1.0
  H  H369  1  0.748500  0.967100  0.400900  1.0
  H  H370  1  0.032900  0.248500  0.900900  1.0
  H  H371  1  0.751500  0.532900  0.400900  1.0
  H  H372  1  0.467100  0.251500  0.900900  1.0
  H  H373  1  0.251500  0.032900  0.599100  1.0
  H  H374  1  0.967100  0.751500  0.099100  1.0
  H  H375  1  0.248500  0.467100  0.599100  1.0
  H  H376  1  0.532900  0.748500  0.099100  1.0
  H  H377  1  0.810900  0.969800  0.369500  1.0
  H  H378  1  0.030200  0.310900  0.869500  1.0
  H  H379  1  0.689100  0.530200  0.369500  1.0
  H  H380  1  0.469800  0.189100  0.869500  1.0
  H  H381  1  0.189100  0.030200  0.630500  1.0
  H  H382  1  0.969800  0.689100  0.130500  1.0
  H  H383  1  0.310900  0.469800  0.630500  1.0
  H  H384  1  0.530200  0.810900  0.130500  1.0
  H  H385  1  0.511400  0.148800  0.013500  1.0
  H  H386  1  0.851200  0.011400  0.513500  1.0
  H  H387  1  0.988600  0.351200  0.013500  1.0
  H  H388  1  0.648800  0.488600  0.513500  1.0
  H  H389  1  0.488600  0.851200  0.986500  1.0
  H  H390  1  0.148800  0.988600  0.486500  1.0
  H  H391  1  0.011400  0.648800  0.986500  1.0
  H  H392  1  0.351200  0.511400  0.486500  1.0
  H  H393  1  0.473100  0.136300  0.070100  1.0
  H  H394  1  0.863700  0.973100  0.570100  1.0
  H  H395  1  0.026900  0.363700  0.070100  1.0
  H  H396  1  0.636300  0.526900  0.570100  1.0
  H  H397  1  0.526900  0.863700  0.929900  1.0
  H  H398  1  0.136300  0.026900  0.429900  1.0
  H  H399  1  0.973100  0.636300  0.929900  1.0
  H  H400  1  0.363700  0.473100  0.429900  1.0
  H  H401  1  0.476600  0.088300  0.019800  1.0
  H  H402  1  0.911700  0.976600  0.519800  1.0
  H  H403  1  0.023400  0.411700  0.019800  1.0
  H  H404  1  0.588300  0.523400  0.519800  1.0
  H  H405  1  0.523400  0.911700  0.980200  1.0
  H  H406  1  0.088300  0.023400  0.480200  1.0
  H  H407  1  0.976600  0.588300  0.980200  1.0
  H  H408  1  0.411700  0.476600  0.480200  1.0
  H  H409  1  0.638700  0.200100  0.054600  1.0
  H  H410  1  0.799900  0.138700  0.554600  1.0
  H  H411  1  0.861300  0.299900  0.054600  1.0
  H  H412  1  0.700100  0.361300  0.554600  1.0
  H  H413  1  0.361300  0.799900  0.945400  1.0
  H  H414  1  0.200100  0.861300  0.445400  1.0
  H  H415  1  0.138700  0.700100  0.945400  1.0
  H  H416  1  0.299900  0.638700  0.445400  1.0
  H  H417  1  0.689000  0.235600  0.087600  1.0
  H  H418  1  0.764400  0.189000  0.587600  1.0
  H  H419  1  0.811000  0.264400  0.087600  1.0
  H  H420  1  0.735600  0.311000  0.587600  1.0
  H  H421  1  0.311000  0.764400  0.912400  1.0
  H  H422  1  0.235600  0.811000  0.412400  1.0
  H  H423  1  0.189000  0.735600  0.912400  1.0
  H  H424  1  0.264400  0.689000  0.412400  1.0
  H  H425  1  0.651800  0.186900  0.121300  1.0
  H  H426  1  0.813100  0.151800  0.621300  1.0
  H  H427  1  0.848200  0.313100  0.121300  1.0
  H  H428  1  0.686900  0.348200  0.621300  1.0
  H  H429  1  0.348200  0.813100  0.878700  1.0
  H  H430  1  0.186900  0.848200  0.378700  1.0
  H  H431  1  0.151800  0.686900  0.878700  1.0
  H  H432  1  0.313100  0.651800  0.378700  1.0
  H  H433  1  0.891700  0.119600  0.122300  1.0
  H  H434  1  0.880400  0.391700  0.622300  1.0
  H  H435  1  0.608300  0.380400  0.122300  1.0
  H  H436  1  0.619600  0.108300  0.622300  1.0
  H  H437  1  0.108300  0.880400  0.877700  1.0
  H  H438  1  0.119600  0.608300  0.377700  1.0
  H  H439  1  0.391700  0.619600  0.877700  1.0
  H  H440  1  0.380400  0.891700  0.377700  1.0
  H  H441  1  0.880400  0.146900  0.185000  1.0
  H  H442  1  0.853100  0.380400  0.685000  1.0
  H  H443  1  0.619600  0.353100  0.185000  1.0
  H  H444  1  0.646900  0.119600  0.685000  1.0
  H  H445  1  0.119600  0.853100  0.815000  1.0
  H  H446  1  0.146900  0.619600  0.315000  1.0
  H  H447  1  0.380400  0.646900  0.815000  1.0
  H  H448  1  0.353100  0.880400  0.315000  1.0
  H  H449  1  0.830300  0.150100  0.136700  1.0
  H  H450  1  0.849900  0.330300  0.636700  1.0
  H  H451  1  0.669700  0.349900  0.136700  1.0
  H  H452  1  0.650100  0.169700  0.636700  1.0
  H  H453  1  0.169700  0.849900  0.863300  1.0
  H  H454  1  0.150100  0.669700  0.363300  1.0
  H  H455  1  0.330300  0.650100  0.863300  1.0
  H  H456  1  0.349900  0.830300  0.363300  1.0
  H  H457  1  0.881200  0.867700  0.062900  1.0
  H  H458  1  0.132300  0.381200  0.562900  1.0
  H  H459  1  0.618800  0.632300  0.062900  1.0
  H  H460  1  0.367700  0.118800  0.562900  1.0
  H  H461  1  0.118800  0.132300  0.937100  1.0
  H  H462  1  0.867700  0.618800  0.437100  1.0
  H  H463  1  0.381200  0.367700  0.937100  1.0
  H  H464  1  0.632300  0.881200  0.437100  1.0
  H  H465  1  0.839000  0.833200  0.106300  1.0
  H  H466  1  0.166800  0.339000  0.606300  1.0
  H  H467  1  0.661000  0.666800  0.106300  1.0
  H  H468  1  0.333200  0.161000  0.606300  1.0
  H  H469  1  0.161000  0.166800  0.893700  1.0
  H  H470  1  0.833200  0.661000  0.393700  1.0
  H  H471  1  0.339000  0.333200  0.893700  1.0
  H  H472  1  0.666800  0.839000  0.393700  1.0
  H  H473  1  0.895800  0.866200  0.130500  1.0
  H  H474  1  0.133800  0.395800  0.630500  1.0
  H  H475  1  0.604200  0.633800  0.130500  1.0
  H  H476  1  0.366200  0.104200  0.630500  1.0
  H  H477  1  0.104200  0.133800  0.869500  1.0
  H  H478  1  0.866200  0.604200  0.369500  1.0
  H  H479  1  0.395800  0.366200  0.869500  1.0
  H  H480  1  0.633800  0.895800  0.369500  1.0
  H  H481  1  0.805000  0.120000  0.025000  1.0
  H  H482  1  0.880000  0.305000  0.525000  1.0
  H  H483  1  0.695000  0.380000  0.025000  1.0
  H  H484  1  0.620000  0.195000  0.525000  1.0
  H  H485  1  0.195000  0.880000  0.975000  1.0
  H  H486  1  0.120000  0.695000  0.475000  1.0
  H  H487  1  0.305000  0.620000  0.975000  1.0
  H  H488  1  0.380000  0.805000  0.475000  1.0
  C  C489  1  0.518500  0.277200  0.070900  1
  C  C490  1  0.722800  0.018500  0.570900  1
  C  C491  1  0.981500  0.222800  0.070900  1
  C  C492  1  0.777200  0.481500  0.570900  1
  C  C493  1  0.481500  0.722800  0.929100  1
  C  C494  1  0.277200  0.981500  0.429100  1
  C  C495  1  0.018500  0.777200  0.929100  1
  C  C496  1  0.222800  0.518500  0.429100  1
  C  C497  1  0.513000  0.252200  0.130500  1
  C  C498  1  0.747800  0.013000  0.630500  1
  C  C499  1  0.987000  0.247800  0.130500  1
  C  C500  1  0.752200  0.487000  0.630500  1
  C  C501  1  0.487000  0.747800  0.869500  1
  C  C502  1  0.252200  0.987000  0.369500  1
  C  C503  1  0.013000  0.752200  0.869500  1
  C  C504  1  0.247800  0.513000  0.369500  1
  C  C505  1  0.509700  0.362500  0.015900  1
  C  C506  1  0.637500  0.009700  0.515900  1
  C  C507  1  0.990300  0.137500  0.015900  1
  C  C508  1  0.862500  0.490300  0.515900  1
  C  C509  1  0.490300  0.637500  0.984100  1
  C  C510  1  0.362500  0.990300  0.484100  1
  C  C511  1  0.009700  0.862500  0.984100  1
  C  C512  1  0.137500  0.509700  0.484100  1
  C  C513  1  0.493000  0.426300  0.019400  1
  C  C514  1  0.573700  0.993000  0.519400  1
  C  C515  1  0.007000  0.073700  0.019400  1
  C  C516  1  0.926300  0.507000  0.519400  1
  C  C517  1  0.507000  0.573700  0.980600  1
  C  C518  1  0.426300  0.007000  0.480600  1
  C  C519  1  0.993000  0.926300  0.980600  1
  C  C520  1  0.073700  0.493000  0.480600  1
  C  C521  1  0.250000  0.750000  0.067600  1
  C  C522  1  0.250000  0.750000  0.567600  1
  C  C523  1  0.750000  0.250000  0.932400  1
  C  C524  1  0.750000  0.250000  0.432400  1
  C  C525  1  0.250000  0.750000  0.129500  1
  C  C526  1  0.250000  0.750000  0.629500  1
  C  C527  1  0.750000  0.250000  0.870500  1
  C  C528  1  0.750000  0.250000  0.370500  1
  C  C529  1  0.106100  0.670300  0.166960  1
  C  C530  1  0.329700  0.606100  0.666960  1
  C  C531  1  0.393900  0.829700  0.166960  1
  C  C532  1  0.170300  0.893900  0.666960  1
  C  C533  1  0.893900  0.329700  0.833040  1
  C  C534  1  0.670300  0.393900  0.333040  1
  C  C535  1  0.606100  0.170300  0.833040  1
  C  C536  1  0.829700  0.106100  0.333040  1
  C  C537  1  0.105200  0.681600  0.109200  1
  C  C538  1  0.318400  0.605200  0.609200  1
  C  C539  1  0.394800  0.818400  0.109200  1
  C  C540  1  0.181600  0.894800  0.609200  1
  C  C541  1  0.894800  0.318400  0.890800  1
  C  C542  1  0.681600  0.394800  0.390800  1
  C  C543  1  0.605200  0.181600  0.890800  1
  C  C544  1  0.818400  0.105200  0.390800  1
  C  C545  1  0.156400  0.312100  0.156400  1.0
  C  C546  1  0.687900  0.656400  0.656400  1.0
  C  C547  1  0.343600  0.187900  0.156400  1.0
  C  C548  1  0.812100  0.843600  0.656400  1.0
  C  C549  1  0.843600  0.687900  0.843600  1.0
  C  C550  1  0.312100  0.343600  0.343600  1.0
  C  C551  1  0.656400  0.812100  0.843600  1.0
  C  C552  1  0.187900  0.156400  0.343600  1.0
  C  C553  1  0.201800  0.283300  0.204900  1.0
  C  C554  1  0.716700  0.701800  0.704900  1.0
  C  C555  1  0.298200  0.216700  0.204900  1.0
  C  C556  1  0.783300  0.798200  0.704900  1.0
  C  C557  1  0.798200  0.716700  0.795100  1.0
  C  C558  1  0.283300  0.298200  0.295100  1.0
  C  C559  1  0.701800  0.783300  0.795100  1.0
  C  C560  1  0.216700  0.201800  0.295100  1.0
  C  C561  1  0.686950  0.098130  0.225780  1.0
  C  C562  1  0.901870  0.186950  0.725780  1.0
  C  C563  1  0.813050  0.401870  0.225780  1.0
  C  C564  1  0.598130  0.313050  0.725780  1.0
  C  C565  1  0.313050  0.901870  0.774220  1.0
  C  C566  1  0.098130  0.813050  0.274220  1.0
  C  C567  1  0.186950  0.598130  0.774220  1.0
  C  C568  1  0.401870  0.686950  0.274220  1.0
  C  C569  1  0.635450  0.133900  0.248680  1.0
  C  C570  1  0.866100  0.135450  0.748680  1.0
  C  C571  1  0.864550  0.366100  0.248680  1.0
  C  C572  1  0.633900  0.364550  0.748680  1.0
  C  C573  1  0.364550  0.866100  0.751320  1.0
  C  C574  1  0.133900  0.864550  0.251320  1.0
  C  C575  1  0.135450  0.633900  0.751320  1.0
  C  C576  1  0.366100  0.635450  0.251320  1.0
  C  C577  1  0.606400  0.108620  0.302910  1.0
  C  C578  1  0.891380  0.106400  0.802910  1.0
  C  C579  1  0.893600  0.391380  0.302910  1.0
  C  C580  1  0.608620  0.393600  0.802910  1.0
  C  C581  1  0.393600  0.891380  0.697090  1.0
  C  C582  1  0.108620  0.893600  0.197090  1.0
  C  C583  1  0.106400  0.608620  0.697090  1.0
  C  C584  1  0.391380  0.606400  0.197090  1.0
  C  C585  1  0.535980  0.963590  0.338580  1.0
  C  C586  1  0.036410  0.035980  0.838580  1.0
  C  C587  1  0.964020  0.536410  0.338580  1.0
  C  C588  1  0.463590  0.464020  0.838580  1.0
  C  C589  1  0.464020  0.036410  0.661420  1.0
  C  C590  1  0.963590  0.964020  0.161420  1.0
  C  C591  1  0.035980  0.463590  0.661420  1.0
  C  C592  1  0.536410  0.535980  0.161420  1.0
  C  C593  1  0.559800  0.025030  0.348980  1.0
  C  C594  1  0.974970  0.059800  0.848980  1.0
  C  C595  1  0.940200  0.474970  0.348980  1.0
  C  C596  1  0.525030  0.440200  0.848980  1.0
  C  C597  1  0.440200  0.974970  0.651020  1.0
  C  C598  1  0.025030  0.940200  0.151020  1.0
  C  C599  1  0.059800  0.525030  0.651020  1.0
  C  C600  1  0.474970  0.559800  0.151020  1.0
  C  C601  1  0.517040  0.065260  0.258990  1.0
  C  C602  1  0.934740  0.017040  0.758990  1.0
  C  C603  1  0.982960  0.434740  0.258990  1.0
  C  C604  1  0.565260  0.482960  0.758990  1.0
  C  C605  1  0.482960  0.934740  0.741010  1.0
  C  C606  1  0.065260  0.982960  0.241010  1.0
  C  C607  1  0.017040  0.565260  0.741010  1.0
  C  C608  1  0.434740  0.517040  0.241010  1.0
  C  C609  1  0.472110  0.105280  0.287160  1.0
  C  C610  1  0.894720  0.972110  0.787160  1.0
  C  C611  1  0.027890  0.394720  0.287160  1.0
  C  C612  1  0.605280  0.527890  0.787160  1.0
  C  C613  1  0.527890  0.894720  0.712840  1.0
  C  C614  1  0.105280  0.027890  0.212840  1.0
  C  C615  1  0.972110  0.605280  0.712840  1.0
  C  C616  1  0.394720  0.472110  0.212840  1.0
  C  C617  1  0.429570  0.083890  0.324790  1.0
  C  C618  1  0.916110  0.929570  0.824790  1.0
  C  C619  1  0.070430  0.416110  0.324790  1.0
  C  C620  1  0.583890  0.570430  0.824790  1.0
  C  C621  1  0.570430  0.916110  0.675210  1.0
  C  C622  1  0.083890  0.070430  0.175210  1.0
  C  C623  1  0.929570  0.583890  0.675210  1.0
  C  C624  1  0.416110  0.429570  0.175210  1.0
  C  C625  1  0.387830  0.120810  0.349430  1.0
  C  C626  1  0.879190  0.887830  0.849430  1.0
  C  C627  1  0.112170  0.379190  0.349430  1.0
  C  C628  1  0.620810  0.612170  0.849430  1.0
  C  C629  1  0.612170  0.879190  0.650570  1.0
  C  C630  1  0.120810  0.112170  0.150570  1.0
  C  C631  1  0.887830  0.620810  0.650570  1.0
  C  C632  1  0.379190  0.387830  0.150570  1.0
  C  C633  1  0.388030  0.179760  0.337000  1.0
  C  C634  1  0.820240  0.888030  0.837000  1.0
  C  C635  1  0.111970  0.320240  0.337000  1.0
  C  C636  1  0.679760  0.611970  0.837000  1.0
  C  C637  1  0.611970  0.820240  0.663000  1.0
  C  C638  1  0.179760  0.111970  0.163000  1.0
  C  C639  1  0.888030  0.679760  0.663000  1.0
  C  C640  1  0.320240  0.388030  0.163000  1.0
  C  C641  1  0.430070  0.202240  0.299840  1.0
  C  C642  1  0.797760  0.930070  0.799840  1.0
  C  C643  1  0.069930  0.297760  0.299840  1.0
  C  C644  1  0.702240  0.569930  0.799840  1.0
  C  C645  1  0.569930  0.797760  0.700160  1.0
  C  C646  1  0.202240  0.069930  0.200160  1.0
  C  C647  1  0.930070  0.702240  0.700160  1.0
  C  C648  1  0.297760  0.430070  0.200160  1.0
  C  C649  1  0.471820  0.165160  0.274950  1.0
  C  C650  1  0.834840  0.971820  0.774950  1.0
  C  C651  1  0.028180  0.334840  0.274950  1.0
  C  C652  1  0.665160  0.528180  0.774950  1.0
  C  C653  1  0.528180  0.834840  0.725050  1.0
  C  C654  1  0.165160  0.028180  0.225050  1.0
  C  C655  1  0.971820  0.665160  0.725050  1.0
  C  C656  1  0.334840  0.471820  0.225050  1.0
  C  C657  1  0.681410  0.928250  0.072900  1.0
  C  C658  1  0.071750  0.181410  0.572900  1.0
  C  C659  1  0.818590  0.571750  0.072900  1.0
  C  C660  1  0.428250  0.318590  0.572900  1.0
  C  C661  1  0.318590  0.071750  0.927100  1.0
  C  C662  1  0.928250  0.818590  0.427100  1.0
  C  C663  1  0.181410  0.428250  0.927100  1.0
  C  C664  1  0.571750  0.681410  0.427100  1.0
  C  C665  1  0.669650  0.932690  0.008360  1.0
  C  C666  1  0.067310  0.169650  0.508360  1.0
  C  C667  1  0.830350  0.567310  0.008360  1.0
  C  C668  1  0.432690  0.330350  0.508360  1.0
  C  C669  1  0.330350  0.067310  0.991640  1.0
  C  C670  1  0.932690  0.830350  0.491640  1.0
  C  C671  1  0.169650  0.432690  0.991640  1.0
  C  C672  1  0.567310  0.669650  0.491640  1.0
  C  C673  1  0.724190  0.945510  0.971250  1.0
  C  C674  1  0.054490  0.224190  0.471250  1.0
  C  C675  1  0.775810  0.554490  0.971250  1.0
  C  C676  1  0.445510  0.275810  0.471250  1.0
  C  C677  1  0.275810  0.054490  0.028750  1.0
  C  C678  1  0.945510  0.775810  0.528750  1.0
  C  C679  1  0.224190  0.445510  0.028750  1.0
  C  C680  1  0.554490  0.724190  0.528750  1.0
  C  C681  1  0.832260  0.070290  0.962520  1.0
  C  C682  1  0.929710  0.332260  0.462520  1.0
  C  C683  1  0.667740  0.429710  0.962520  1.0
  C  C684  1  0.570290  0.167740  0.462520  1.0
  C  C685  1  0.167740  0.929710  0.037480  1.0
  C  C686  1  0.070290  0.667740  0.537480  1.0
  C  C687  1  0.332260  0.570290  0.037480  1.0
  C  C688  1  0.429710  0.832260  0.537480  1.0
  C  C689  1  0.804130  0.011870  0.947690  1.0
  C  C690  1  0.988130  0.304130  0.447690  1.0
  C  C691  1  0.695870  0.488130  0.947690  1.0
  C  C692  1  0.511870  0.195870  0.447690  1.0
  C  C693  1  0.195870  0.988130  0.052310  1.0
  C  C694  1  0.011870  0.695870  0.552310  1.0
  C  C695  1  0.304130  0.511870  0.052310  1.0
  C  C696  1  0.488130  0.804130  0.552310  1.0
  C  C697  1  0.702230  0.049710  0.949320  1.0
  C  C698  1  0.950290  0.202230  0.449320  1.0
  C  C699  1  0.797770  0.450290  0.949320  1.0
  C  C700  1  0.549710  0.297770  0.449320  1.0
  C  C701  1  0.297770  0.950290  0.050680  1.0
  C  C702  1  0.049710  0.797770  0.550680  1.0
  C  C703  1  0.202230  0.549710  0.050680  1.0
  C  C704  1  0.450290  0.702230  0.550680  1.0
  C  C705  1  0.688380  0.039790  0.885810  1.0
  C  C706  1  0.960210  0.188380  0.385810  1.0
  C  C707  1  0.811620  0.460210  0.885810  1.0
  C  C708  1  0.539790  0.311620  0.385810  1.0
  C  C709  1  0.311620  0.960210  0.114190  1.0
  C  C710  1  0.039790  0.811620  0.614190  1.0
  C  C711  1  0.188380  0.539790  0.114190  1.0
  C  C712  1  0.460210  0.688380  0.614190  1.0
  C  C713  1  0.643490  0.001600  0.869270  1.0
  C  C714  1  0.998400  0.143490  0.369270  1.0
  C  C715  1  0.856510  0.498400  0.869270  1.0
  C  C716  1  0.501600  0.356510  0.369270  1.0
  C  C717  1  0.356510  0.998400  0.130730  1.0
  C  C718  1  0.001600  0.856510  0.630730  1.0
  C  C719  1  0.143490  0.501600  0.130730  1.0
  C  C720  1  0.498400  0.643490  0.630730  1.0
  C  C721  1  0.630700  0.991800  0.810990  1.0
  C  C722  1  0.008200  0.130700  0.310990  1.0
  C  C723  1  0.869300  0.508200  0.810990  1.0
  C  C724  1  0.491800  0.369300  0.310990  1.0
  C  C725  1  0.369300  0.008200  0.189010  1.0
  C  C726  1  0.991800  0.869300  0.689010  1.0
  C  C727  1  0.130700  0.491800  0.189010  1.0
  C  C728  1  0.508200  0.630700  0.689010  1.0
  C  C729  1  0.662380  0.021100  0.768600  1.0
  C  C730  1  0.978900  0.162380  0.268600  1.0
  C  C731  1  0.837620  0.478900  0.768600  1.0
  C  C732  1  0.521100  0.337620  0.268600  1.0
  C  C733  1  0.337620  0.978900  0.231400  1.0
  C  C734  1  0.021100  0.837620  0.731400  1.0
  C  C735  1  0.162380  0.521100  0.231400  1.0
  C  C736  1  0.478900  0.662380  0.731400  1.0
  C  C737  1  0.706130  0.059140  0.784080  1.0
  C  C738  1  0.940860  0.206130  0.284080  1.0
  C  C739  1  0.793870  0.440860  0.784080  1.0
  C  C740  1  0.559140  0.293870  0.284080  1.0
  C  C741  1  0.293870  0.940860  0.215920  1.0
  C  C742  1  0.059140  0.793870  0.715920  1.0
  C  C743  1  0.206130  0.559140  0.215920  1.0
  C  C744  1  0.440860  0.706130  0.715920  1.0
  C  C745  1  0.719600  0.068540  0.842080  1.0
  C  C746  1  0.931460  0.219600  0.342080  1.0
  C  C747  1  0.780400  0.431460  0.842080  1.0
  C  C748  1  0.568540  0.280400  0.342080  1.0
  C  C749  1  0.280400  0.931460  0.157920  1.0
  C  C750  1  0.068540  0.780400  0.657920  1.0
  C  C751  1  0.219600  0.568540  0.157920  1.0
  C  C752  1  0.431460  0.719600  0.657920  1.0
  C  C753  1  0.536490  0.944640  0.153550  1.0
  C  C754  1  0.055360  0.036490  0.653550  1.0
  C  C755  1  0.963510  0.555360  0.153550  1.0
  C  C756  1  0.444640  0.463510  0.653550  1.0
  C  C757  1  0.463510  0.055360  0.846450  1.0
  C  C758  1  0.944640  0.963510  0.346450  1.0
  C  C759  1  0.036490  0.444640  0.846450  1.0
  C  C760  1  0.555360  0.536490  0.346450  1.0
  C  C761  1  0.505100  0.953400  0.097340  1.0
  C  C762  1  0.046600  0.005100  0.597340  1.0
  C  C763  1  0.994900  0.546600  0.097340  1.0
  C  C764  1  0.453400  0.494900  0.597340  1.0
  C  C765  1  0.494900  0.046600  0.902660  1.0
  C  C766  1  0.953400  0.994900  0.402660  1.0
  C  C767  1  0.005100  0.453400  0.902660  1.0
  C  C768  1  0.546600  0.505100  0.402660  1.0
  C  C769  1  0.671420  0.863960  0.210610  1.0
  C  C770  1  0.136040  0.171420  0.710610  1.0
  C  C771  1  0.828580  0.636040  0.210610  1.0
  C  C772  1  0.363960  0.328580  0.710610  1.0
  C  C773  1  0.328580  0.136040  0.789390  1.0
  C  C774  1  0.863960  0.828580  0.289390  1.0
  C  C775  1  0.171420  0.363960  0.789390  1.0
  C  C776  1  0.636040  0.671420  0.289390  1.0
  C  C777  1  0.720830  0.826190  0.187570  1.0
  C  C778  1  0.173810  0.220830  0.687570  1.0
  C  C779  1  0.779170  0.673810  0.187570  1.0
  C  C780  1  0.326190  0.279170  0.687570  1.0
  C  C781  1  0.279170  0.173810  0.812430  1.0
  C  C782  1  0.826190  0.779170  0.312430  1.0
  C  C783  1  0.220830  0.326190  0.812430  1.0
  C  C784  1  0.673810  0.720830  0.312430  1.0
  C  C785  1  0.741920  0.975830  0.312710  1.0
  C  C786  1  0.024170  0.241920  0.812710  1.0
  C  C787  1  0.758080  0.524170  0.312710  1.0
  C  C788  1  0.475830  0.258080  0.812710  1.0
  C  C789  1  0.258080  0.024170  0.687290  1.0
  C  C790  1  0.975830  0.758080  0.187290  1.0
  C  C791  1  0.241920  0.475830  0.687290  1.0
  C  C792  1  0.524170  0.741920  0.187290  1.0
  C  C793  1  0.771010  0.954070  0.367210  1.0
  C  C794  1  0.045930  0.271010  0.867210  1.0
  C  C795  1  0.728990  0.545930  0.367210  1.0
  C  C796  1  0.454070  0.228990  0.867210  1.0
  C  C797  1  0.228990  0.045930  0.632790  1.0
  C  C798  1  0.954070  0.728990  0.132790  1.0
  C  C799  1  0.271010  0.454070  0.632790  1.0
  C  C800  1  0.545930  0.771010  0.132790  1.0
  C  C801  1  0.551060  0.091340  0.069590  1.0
  C  C802  1  0.908660  0.051060  0.569590  1.0
  C  C803  1  0.948940  0.408660  0.069590  1.0
  C  C804  1  0.591340  0.448940  0.569590  1.0
  C  C805  1  0.448940  0.908660  0.930410  1.0
  C  C806  1  0.091340  0.948940  0.430410  1.0
  C  C807  1  0.051060  0.591340  0.930410  1.0
  C  C808  1  0.408660  0.551060  0.430410  1.0
  C  C809  1  0.498440  0.118600  0.040700  1.0
  C  C810  1  0.881400  0.998440  0.540700  1.0
  C  C811  1  0.001560  0.381400  0.040700  1.0
  C  C812  1  0.618600  0.501560  0.540700  1.0
  C  C813  1  0.501560  0.881400  0.959300  1.0
  C  C814  1  0.118600  0.001560  0.459300  1.0
  C  C815  1  0.998440  0.618600  0.959300  1.0
  C  C816  1  0.381400  0.498440  0.459300  1.0
  C  C817  1  0.713240  0.151970  0.066940  1.0
  C  C818  1  0.848030  0.213240  0.566940  1.0
  C  C819  1  0.786760  0.348030  0.066940  1.0
  C  C820  1  0.651970  0.286760  0.566940  1.0
  C  C821  1  0.286760  0.848030  0.933060  1.0
  C  C822  1  0.151970  0.786760  0.433060  1.0
  C  C823  1  0.213240  0.651970  0.933060  1.0
  C  C824  1  0.348030  0.713240  0.433060  1.0
  C  C825  1  0.669380  0.197600  0.084080  1.0
  C  C826  1  0.802400  0.169380  0.584080  1.0
  C  C827  1  0.830620  0.302400  0.084080  1.0
  C  C828  1  0.697600  0.330620  0.584080  1.0
  C  C829  1  0.330620  0.802400  0.915920  1.0
  C  C830  1  0.197600  0.830620  0.415920  1.0
  C  C831  1  0.169380  0.697600  0.915920  1.0
  C  C832  1  0.302400  0.669380  0.415920  1.0
  C  C833  1  0.838510  0.068270  0.172820  1.0
  C  C834  1  0.931730  0.338510  0.672820  1.0
  C  C835  1  0.661490  0.431730  0.172820  1.0
  C  C836  1  0.568270  0.161490  0.672820  1.0
  C  C837  1  0.161490  0.931730  0.827180  1.0
  C  C838  1  0.068270  0.661490  0.327180  1.0
  C  C839  1  0.338510  0.568270  0.827180  1.0
  C  C840  1  0.431730  0.838510  0.327180  1.0
  C  C841  1  0.862320  0.126300  0.152420  1.0
  C  C842  1  0.873700  0.362320  0.652420  1.0
  C  C843  1  0.637680  0.373700  0.152420  1.0
  C  C844  1  0.626300  0.137680  0.652420  1.0
  C  C845  1  0.137680  0.873700  0.847580  1.0
  C  C846  1  0.126300  0.637680  0.347580  1.0
  C  C847  1  0.362320  0.626300  0.847580  1.0
  C  C848  1  0.373700  0.862320  0.347580  1.0
  C  C849  1  0.828630  0.922380  0.110440  1.0
  C  C850  1  0.077620  0.328630  0.610440  1.0
  C  C851  1  0.671370  0.577620  0.110440  1.0
  C  C852  1  0.422380  0.171370  0.610440  1.0
  C  C853  1  0.171370  0.077620  0.889560  1.0
  C  C854  1  0.922380  0.671370  0.389560  1.0
  C  C855  1  0.328630  0.422380  0.889560  1.0
  C  C856  1  0.577620  0.828630  0.389560  1.0
  C  C857  1  0.864260  0.867600  0.101780  1.0
  C  C858  1  0.132400  0.364260  0.601780  1.0
  C  C859  1  0.635740  0.632400  0.101780  1.0
  C  C860  1  0.367600  0.135740  0.601780  1.0
  C  C861  1  0.135740  0.132400  0.898220  1.0
  C  C862  1  0.867600  0.635740  0.398220  1.0
  C  C863  1  0.364260  0.367600  0.898220  1.0
  C  C864  1  0.632400  0.864260  0.398220  1.0
  N  N865  1  0.250000  0.750000  0.185300  1
  N  N866  1  0.250000  0.750000  0.685300  1
  N  N867  1  0.750000  0.250000  0.814700  1
  N  N868  1  0.750000  0.250000  0.314700  1
  N  N869  1  0.103400  0.689200  0.059400  1
  N  N870  1  0.310800  0.603400  0.559400  1
  N  N871  1  0.396600  0.810800  0.059400  1
  N  N872  1  0.189200  0.896600  0.559400  1
  N  N873  1  0.896600  0.310800  0.940600  1
  N  N874  1  0.689200  0.396600  0.440600  1
  N  N875  1  0.603400  0.189200  0.940600  1
  N  N876  1  0.810800  0.103400  0.440600  1
  N  N877  1  0.572060  0.054460  0.292910  1.0
  N  N878  1  0.945540  0.072060  0.792910  1.0
  N  N879  1  0.927940  0.445540  0.292910  1.0
  N  N880  1  0.554460  0.427940  0.792910  1.0
  N  N881  1  0.427940  0.945540  0.707090  1.0
  N  N882  1  0.054460  0.927940  0.207090  1.0
  N  N883  1  0.072060  0.554460  0.707090  1.0
  N  N884  1  0.445540  0.572060  0.207090  1.0
  N  N885  1  0.744890  0.007050  0.975270  1.0
  N  N886  1  0.992950  0.244890  0.475270  1.0
  N  N887  1  0.755110  0.492950  0.975270  1.0
  N  N888  1  0.507050  0.255110  0.475270  1.0
  N  N889  1  0.255110  0.992950  0.024730  1.0
  N  N890  1  0.007050  0.755110  0.524730  1.0
  N  N891  1  0.244890  0.507050  0.024730  1.0
  N  N892  1  0.492950  0.744890  0.524730  1.0
  O  O893  1  0.502010  0.336060  0.070710  1
  O  O894  1  0.663940  0.002010  0.570710  1
  O  O895  1  0.997990  0.163940  0.070710  1
  O  O896  1  0.836060  0.497990  0.570710  1
  O  O897  1  0.497990  0.663940  0.929290  1
  O  O898  1  0.336060  0.997990  0.429290  1
  O  O899  1  0.002010  0.836060  0.929290  1
  O  O900  1  0.163940  0.502010  0.429290  1
  O  O901  1  0.250000  0.250000  0.172600  1
  O  O902  1  0.750000  0.750000  0.672600  1
  O  O903  1  0.750000  0.750000  0.827400  1
  O  O904  1  0.250000  0.250000  0.327400  1
  O  O905  1  0.670000  0.043490  0.199840  1.0
  O  O906  1  0.956510  0.170000  0.699840  1.0
  O  O907  1  0.830000  0.456510  0.199840  1.0
  O  O908  1  0.543490  0.330000  0.699840  1.0
  O  O909  1  0.330000  0.956510  0.800160  1.0
  O  O910  1  0.043490  0.830000  0.300160  1.0
  O  O911  1  0.170000  0.543490  0.800160  1.0
  O  O912  1  0.456510  0.670000  0.300160  1.0
  O  O913  1  0.569700  0.934960  0.295860  1.0
  O  O914  1  0.065040  0.069700  0.795860  1.0
  O  O915  1  0.930300  0.565040  0.295860  1.0
  O  O916  1  0.434960  0.430300  0.795860  1.0
  O  O917  1  0.430300  0.065040  0.704140  1.0
  O  O918  1  0.934960  0.930300  0.204140  1.0
  O  O919  1  0.069700  0.434960  0.704140  1.0
  O  O920  1  0.565040  0.569700  0.204140  1.0
  O  O921  1  0.696840  0.983190  0.098960  1.0
  O  O922  1  0.016810  0.196840  0.598960  1.0
  O  O923  1  0.803160  0.516810  0.098960  1.0
  O  O924  1  0.483190  0.303160  0.598960  1.0
  O  O925  1  0.303160  0.016810  0.901040  1.0
  O  O926  1  0.983190  0.803160  0.401040  1.0
  O  O927  1  0.196840  0.483190  0.901040  1.0
  O  O928  1  0.516810  0.696840  0.401040  1.0
  O  O929  1  0.826230  0.082190  0.023090  1.0
  O  O930  1  0.917810  0.326230  0.523090  1.0
  O  O931  1  0.673770  0.417810  0.023090  1.0
  O  O932  1  0.582190  0.173770  0.523090  1.0
  O  O933  1  0.173770  0.917810  0.976910  1.0
  O  O934  1  0.082190  0.673770  0.476910  1.0
  O  O935  1  0.326230  0.582190  0.976910  1.0
  O  O936  1  0.417810  0.826230  0.476910  1.0
  O  O937  1  0.576880  0.980590  0.167200  1.0
  O  O938  1  0.019410  0.076880  0.667200  1.0
  O  O939  1  0.923120  0.519410  0.167200  1.0
  O  O940  1  0.480590  0.423120  0.667200  1.0
  O  O941  1  0.423120  0.019410  0.832800  1.0
  O  O942  1  0.980590  0.923120  0.332800  1.0
  O  O943  1  0.076880  0.480590  0.832800  1.0
  O  O944  1  0.519410  0.576880  0.332800  1.0
  O  O945  1  0.520140  0.901960  0.183450  1.0
  O  O946  1  0.098040  0.020140  0.683450  1.0
  O  O947  1  0.979860  0.598040  0.183450  1.0
  O  O948  1  0.401960  0.479860  0.683450  1.0
  O  O949  1  0.479860  0.098040  0.816550  1.0
  O  O950  1  0.901960  0.979860  0.316550  1.0
  O  O951  1  0.020140  0.401960  0.816550  1.0
  O  O952  1  0.598040  0.520140  0.316550  1.0
  O  O953  1  0.677560  0.919550  0.210800  1.0
  O  O954  1  0.080450  0.177560  0.710800  1.0
  O  O955  1  0.822440  0.580450  0.210800  1.0
  O  O956  1  0.419550  0.322440  0.710800  1.0
  O  O957  1  0.322440  0.080450  0.789200  1.0
  O  O958  1  0.919550  0.822440  0.289200  1.0
  O  O959  1  0.177560  0.419550  0.789200  1.0
  O  O960  1  0.580450  0.677560  0.289200  1.0
  O  O961  1  0.626940  0.838210  0.228450  1.0
  O  O962  1  0.161790  0.126940  0.728450  1.0
  O  O963  1  0.873060  0.661790  0.228450  1.0
  O  O964  1  0.338210  0.373060  0.728450  1.0
  O  O965  1  0.373060  0.161790  0.771550  1.0
  O  O966  1  0.838210  0.873060  0.271550  1.0
  O  O967  1  0.126940  0.338210  0.771550  1.0
  O  O968  1  0.661790  0.626940  0.271550  1.0
  O  O969  1  0.688660  0.988800  0.314690  1.0
  O  O970  1  0.011200  0.188660  0.814690  1.0
  O  O971  1  0.811340  0.511200  0.314690  1.0
  O  O972  1  0.488800  0.311340  0.814690  1.0
  O  O973  1  0.311340  0.011200  0.685310  1.0
  O  O974  1  0.988800  0.811340  0.185310  1.0
  O  O975  1  0.188660  0.488800  0.685310  1.0
  O  O976  1  0.511200  0.688660  0.185310  1.0
  O  O977  1  0.773440  0.980230  0.266790  1.0
  O  O978  1  0.019770  0.273440  0.766790  1.0
  O  O979  1  0.726560  0.519770  0.266790  1.0
  O  O980  1  0.480230  0.226560  0.766790  1.0
  O  O981  1  0.226560  0.019770  0.733210  1.0
  O  O982  1  0.980230  0.726560  0.233210  1.0
  O  O983  1  0.273440  0.480230  0.733210  1.0
  O  O984  1  0.519770  0.773440  0.233210  1.0
  O  O985  1  0.565040  0.106870  0.120090  1.0
  O  O986  1  0.893130  0.065040  0.620090  1.0
  O  O987  1  0.934960  0.393130  0.120090  1.0
  O  O988  1  0.606870  0.434960  0.620090  1.0
  O  O989  1  0.434960  0.893130  0.879910  1.0
  O  O990  1  0.106870  0.934960  0.379910  1.0
  O  O991  1  0.065040  0.606870  0.879910  1.0
  O  O992  1  0.393130  0.565040  0.379910  1.0
  O  O993  1  0.580460  0.052240  0.043360  1.0
  O  O994  1  0.947760  0.080460  0.543360  1.0
  O  O995  1  0.919540  0.447760  0.043360  1.0
  O  O996  1  0.552240  0.419540  0.543360  1.0
  O  O997  1  0.419540  0.947760  0.956640  1.0
  O  O998  1  0.052240  0.919540  0.456640  1.0
  O  O999  1  0.080460  0.552240  0.956640  1.0
  O  O1000  1  0.447760  0.580460  0.456640  1.0
  O  O1001  1  0.702180  0.098160  0.077700  1.0
  O  O1002  1  0.901840  0.202180  0.577700  1.0
  O  O1003  1  0.797820  0.401840  0.077700  1.0
  O  O1004  1  0.598160  0.297820  0.577700  1.0
  O  O1005  1  0.297820  0.901840  0.922300  1.0
  O  O1006  1  0.098160  0.797820  0.422300  1.0
  O  O1007  1  0.202180  0.598160  0.922300  1.0
  O  O1008  1  0.401840  0.702180  0.422300  1.0
  O  O1009  1  0.759310  0.168510  0.042070  1.0
  O  O1010  1  0.831490  0.259310  0.542070  1.0
  O  O1011  1  0.740690  0.331490  0.042070  1.0
  O  O1012  1  0.668510  0.240690  0.542070  1.0
  O  O1013  1  0.240690  0.831490  0.957930  1.0
  O  O1014  1  0.168510  0.740690  0.457930  1.0
  O  O1015  1  0.259310  0.668510  0.957930  1.0
  O  O1016  1  0.331490  0.759310  0.457930  1.0
  O  O1017  1  0.789200  0.051440  0.151800  1.0
  O  O1018  1  0.948560  0.289200  0.651800  1.0
  O  O1019  1  0.710800  0.448560  0.151800  1.0
  O  O1020  1  0.551440  0.210800  0.651800  1.0
  O  O1021  1  0.210800  0.948560  0.848200  1.0
  O  O1022  1  0.051440  0.710800  0.348200  1.0
  O  O1023  1  0.289200  0.551440  0.848200  1.0
  O  O1024  1  0.448560  0.789200  0.348200  1.0
  O  O1025  1  0.459630  0.867150  0.290370  1.0
  O  O1026  1  0.132850  0.959630  0.790370  1.0
  O  O1027  1  0.040370  0.632850  0.290370  1.0
  O  O1028  1  0.367150  0.540370  0.790370  1.0
  O  O1029  1  0.540370  0.132850  0.709630  1.0
  O  O1030  1  0.867150  0.040370  0.209630  1.0
  O  O1031  1  0.959630  0.367150  0.709630  1.0
  O  O1032  1  0.632850  0.459630  0.209630  1.0
  O  O1033  1  0.807130  0.930420  0.161280  1.0
  O  O1034  1  0.069580  0.307130  0.661280  1.0
  O  O1035  1  0.692870  0.569580  0.161280  1.0
  O  O1036  1  0.430420  0.192870  0.661280  1.0
  O  O1037  1  0.192870  0.069580  0.838720  1.0
  O  O1038  1  0.930420  0.692870  0.338720  1.0
  O  O1039  1  0.307130  0.430420  0.838720  1.0
  O  O1040  1  0.569580  0.807130  0.338720  1.0
  O  O1041  1  0.820130  0.955950  0.068290  1.0
  O  O1042  1  0.044050  0.320130  0.568290  1.0
  O  O1043  1  0.679870  0.544050  0.068290  1.0
  O  O1044  1  0.455950  0.179870  0.568290  1.0
  O  O1045  1  0.179870  0.044050  0.931710  1.0
  O  O1046  1  0.955950  0.679870  0.431710  1.0
  O  O1047  1  0.320130  0.455950  0.931710  1.0
  O  O1048  1  0.544050  0.820130  0.431710  1.0
