
#######################################################################
#
#                 Cambridge Crystallographic Data Centre
#                                CCDC 
#
#######################################################################
#
# If this CIF has been generated from an entry in the Cambridge 
# Structural Database, then it will include bibliographic, chemical, 
# crystal, experimental, refinement or atomic coordinate data resulting 
# from the CCDC's data processing and validation procedures.
#
#######################################################################

data_GENWON
_chemical_formula_moiety         
'C152 H224 N8 Ni20 O72,6(C2 H3 N1),4(C4 H10 O1)'
_chemical_name_systematic        
'tetrakis(\m~4~-3-(Benzyl(2-oxidoxyethyl)amino)propan-1-olato)-icosakis(\m~3~-acetato)-tetrakis(\m~3~-3-(benzyl(2-hydroxyethyl)amino)propan-1-olato)-tetrakis(\m~2~-acetato)-tetrakis(acetato)-icosa-nickel(ii) acetonitrile diethyl ether solvate'
_symmetry_cell_setting           tetragonal
_symmetry_space_group_name_H-M   'P 42/n'
_symmetry_Int_Tables_number      86
_space_group_name_Hall           '-P 4bc'
loop_
_symmetry_equiv_pos_site_id
_symmetry_equiv_pos_as_xyz
1 x,y,z
2 -y,1/2+x,1/2+z
3 1/2-x,1/2-y,z
4 1/2+y,-x,1/2+z
5 -x,-y,-z
6 y,1/2-x,1/2-z
7 1/2+x,1/2+y,-z
8 1/2-y,x,1/2-z
_cell_length_a                   22.6978(6)
_cell_length_b                   22.6978(6)
_cell_length_c                   22.9284(8)
_cell_angle_alpha                90
_cell_angle_beta                 90
_cell_angle_gamma                90
_cell_volume                     11812.5
_exptl_crystal_colour            lime
_exptl_crystal_description       block
_cell_formula_units_Z            2
loop_
_atom_site_label
_atom_site_type_symbol
_atom_site_fract_x
_atom_site_fract_y
_atom_site_fract_z
Ni1 Ni 0.376459(16) 0.484874(16) 0.749893(16)
Ni2 Ni 0.365836(16) 0.542268(16) 0.878829(17)
Ni3 Ni 0.262761(16) 0.482077(16) 0.816121(16)
Ni4 Ni 0.236387(16) 0.528292(17) 0.933677(17)
Ni5 Ni 0.452480(16) 0.359390(17) 0.739230(17)
O1 O 0.32826(9) 0.54194(8) 0.79955(9)
O2 O 0.42653(9) 0.43240(9) 0.70208(9)
O3 O 0.30238(9) 0.48208(9) 0.89736(9)
O4 O 0.17185(10) 0.57990(12) 0.97234(11)
O5 O 0.42213(9) 0.48060(9) 0.83047(9)
O6 O 0.47853(10) 0.40167(10) 0.81300(10)
O7 O 0.32259(9) 0.42029(9) 0.78760(9)
O8 O 0.37321(10) 0.33821(9) 0.77085(11)
O9 O 0.31132(9) 0.48709(10) 0.68483(9)
O10 O 0.22692(9) 0.47914(9) 0.73417(9)
O11 O 0.43331(10) 0.60414(10) 0.87641(10)
O12 O 0.41701(10) 0.55061(10) 0.95414(10)
O13 O 0.29830(9) 0.59527(9) 0.92100(10)
O14 O 0.24007(11) 0.66645(11) 0.95359(13)
O15 O 0.21176(9) 0.54923(9) 0.84781(9)
O16 O 0.53721(9) 0.36673(9) 0.70949(10)
O17 O 0.19393(9) 0.42899(9) 0.83722(9)
O18 O 0.18137(10) 0.45626(10) 0.93013(10)
N1 N 0.42588(11) 0.55248(11) 0.70732(11)
N2 N 0.25540(11) 0.50773(12) 1.02115(11)
C2 C 0.31098(13) 0.59666(13) 0.77367(15)
C3 C 0.36198(14) 0.63256(13) 0.75031(14)
C4 C 0.39134(14) 0.60651(13) 0.69626(14)
C5 C 0.46308(14) 0.46156(14) 0.66200(14)
C6 C 0.43916(14) 0.52298(13) 0.65093(13)
C7 C 0.48083(14) 0.56382(14) 0.74149(14)
C8 C 0.52575(14) 0.60420(15) 0.71339(14)
C9 C 0.56913(15) 0.58242(16) 0.67655(17)
C10 C 0.61093(17) 0.61928(19) 0.65165(19)
C11 C 0.60975(18) 0.6785(2) 0.6633(2)
C12 C 0.56719(18) 0.70155(17) 0.6995(2)
C13 C 0.52511(15) 0.66402(16) 0.72425(17)
C14 C 0.31849(14) 0.42796(13) 0.92422(13)
C15 C 0.33133(14) 0.43353(14) 0.98881(14)
C16 C 0.27718(15) 0.44635(15) 1.02610(14)
C17 C 0.16668(16) 0.56965(17) 1.03355(15)
C18 C 0.19615(15) 0.51188(16) 1.04942(15)
C19 C 0.29792(15) 0.55163(16) 1.04693(15)
C20 C 0.31189(15) 0.54143(17) 1.11107(16)
C21 C 0.3578(2) 0.5049(3) 1.1276(2)
C22 C 0.3717(3) 0.4953(3) 1.1858(3)
C23 C 0.3391(3) 0.5238(3) 1.2281(2)
C24 C 0.29378(19) 0.5609(3) 1.21292(18)
C25 C 0.28013(17) 0.56975(18) 1.15501(16)
C26 C 0.46196(13) 0.44351(14) 0.84422(14)
C27 C 0.4911(2) 0.4496(3) 0.90223(19)
C28 C 0.32853(13) 0.36452(13) 0.78812(13)
C29 C 0.27907(14) 0.32711(14) 0.81116(16)
C30 C 0.25827(12) 0.47554(12) 0.68776(13)
C31 C 0.22764(16) 0.45400(18) 0.63296(15)
C32 C 0.44710(14) 0.58934(14) 0.92754(15)
C33 C 0.4999(2) 0.6163(3) 0.9565(2)
C34 C 0.28695(15) 0.64966(14) 0.93008(15)
C35 C 0.33126(19) 0.69515(16) 0.9128(2)
C36 C 0.16224(13) 0.56549(13) 0.82622(14)
C37 C 0.13893(17) 0.62471(16) 0.84485(18)
C38 C 0.17279(13) 0.42194(13) 0.88840(14)
C39 C 0.13690(15) 0.36731(15) 0.89871(17)
H1 H 0.2897 0.6204 0.8032
H2 H 0.2833 0.5885 0.7413
H3 H 0.3920 0.6365 0.7814
H4 H 0.3476 0.6726 0.7408
H5 H 0.3605 0.5975 0.6671
H6 H 0.4177 0.6366 0.6791
H7 H 0.4645 0.4392 0.6250
H8 H 0.5036 0.4642 0.6777
H9 H 0.4686 0.5464 0.6290
H10 H 0.4028 0.5204 0.6271
H11 H 0.5001 0.5255 0.7494
H12 H 0.4695 0.5809 0.7796
H13 H 0.5702 0.5414 0.6682
H14 H 0.6403 0.6035 0.6266
H15 H 0.6384 0.7038 0.6463
H16 H 0.5664 0.7426 0.7076
H17 H 0.4956 0.6800 0.7490
H18 H 0.3539 0.4122 0.9044
H19 H 0.2862 0.3992 0.9187
H20 H 0.3604 0.4656 0.9946
H21 H 0.3496 0.3964 1.0026
H22 H 0.2452 0.4191 1.0145
H23 H 0.2869 0.4382 1.0674
H24 H 0.1245 0.5682 1.0446
H25 H 0.1855 0.6023 1.0553
H26 H 0.2006 0.5092 1.0923
H27 H 0.1712 0.4786 1.0364
H28 H 0.3804 0.4858 1.0983
H29 H 0.4030 0.4696 1.1963
H30 H 0.3481 0.5176 1.2681
H31 H 0.2718 0.5805 1.2424
H32 H 0.2487 0.5955 1.1449
H33 H 0.5145 0.4859 0.9029
H34 H 0.5169 0.4157 0.9091
H35 H 0.4610 0.4513 0.9328
H36 H 0.2792 0.3283 0.8539
H37 H 0.2843 0.2864 0.7980
H38 H 0.2414 0.3423 0.7966
H39 H 0.2241 0.4110 0.6343
H40 H 0.2508 0.4654 0.5987
H41 H 0.1883 0.4717 0.6305
H42 H 0.4869 0.6456 0.9851
H43 H 0.5246 0.6354 0.9270
H44 H 0.5226 0.5855 0.9762
H45 H 0.3584 0.7022 0.9453
H46 H 0.3110 0.7319 0.9028
H47 H 0.3535 0.6811 0.8789
H48 H 0.1073 0.6192 0.8734
H49 H 0.1235 0.6457 0.8108
H50 H 0.1708 0.6477 0.8625
H51 H 0.1175 0.3700 0.9368
H52 H 0.1628 0.3327 0.8980
H53 H 0.1070 0.3636 0.8681
H67 H 0.190(3) 0.612(3) 0.967(3)
Ni1G Ni 0.015126(16) 0.376459(16) 0.750107(16)
Ni1B Ni 0.123541(16) 0.015126(16) 0.749893(16)
Ni1E Ni 0.484874(16) 0.123541(16) 0.750107(16)
Ni2G Ni -0.042268(16) 0.365836(16) 0.621171(17)
Ni2B Ni 0.134164(16) -0.042268(16) 0.878829(17)
Ni2E Ni 0.542268(16) 0.134164(16) 0.621171(17)
Ni3G Ni 0.017923(16) 0.262761(16) 0.683879(16)
Ni3B Ni 0.237239(16) 0.017923(16) 0.816121(16)
Ni3E Ni 0.482077(16) 0.237239(16) 0.683879(16)
Ni4G Ni -0.028292(17) 0.236387(16) 0.566323(17)
Ni4B Ni 0.263613(16) -0.028292(17) 0.933677(17)
Ni4E Ni 0.528292(17) 0.263613(16) 0.566323(17)
Ni5G Ni 0.140610(17) 0.452480(16) 0.760770(17)
Ni5B Ni 0.047520(16) 0.140610(17) 0.739230(17)
Ni5E Ni 0.359390(17) 0.047520(16) 0.760770(17)
O1G O -0.04194(8) 0.32826(9) 0.70045(9)
O1B O 0.17174(9) -0.04194(8) 0.79955(9)
O1E O 0.54194(8) 0.17174(9) 0.70045(9)
O2G O 0.06760(9) 0.42653(9) 0.79792(9)
O2B O 0.07347(9) 0.06760(9) 0.70208(9)
O2E O 0.43240(9) 0.07347(9) 0.79792(9)
O3G O 0.01792(9) 0.30238(9) 0.60264(9)
O3B O 0.19762(9) 0.01792(9) 0.89736(9)
O3E O 0.48208(9) 0.19762(9) 0.60264(9)
O4G O -0.07990(12) 0.17185(10) 0.52766(11)
O4B O 0.32815(10) -0.07990(12) 0.97234(11)
O4E O 0.57990(12) 0.32815(10) 0.52766(11)
O5G O 0.01940(9) 0.42213(9) 0.66953(9)
O5B O 0.07787(9) 0.01940(9) 0.83047(9)
O5E O 0.48060(9) 0.07787(9) 0.66953(9)
O6E O 0.40167(10) 0.02147(10) 0.68700(10)
O6B O 0.02147(10) 0.09833(10) 0.81300(10)
O6G O 0.09833(10) 0.47853(10) 0.68700(10)
O7G O 0.07971(9) 0.32259(9) 0.71240(9)
O7B O 0.17741(9) 0.07971(9) 0.78760(9)
O7E O 0.42029(9) 0.17741(9) 0.71240(9)
O8E O 0.33821(9) 0.12679(10) 0.72915(11)
O8B O 0.12679(10) 0.16179(9) 0.77085(11)
O8G O 0.16179(9) 0.37321(10) 0.72915(11)
O9G O 0.01291(10) 0.31132(9) 0.81517(9)
O9B O 0.18868(9) 0.01291(10) 0.68483(9)
O9E O 0.48709(10) 0.18868(9) 0.81517(9)
O10G O 0.02086(9) 0.22692(9) 0.76583(9)
O10B O 0.27308(9) 0.02086(9) 0.73417(9)
O10E O 0.47914(9) 0.27308(9) 0.76583(9)
O11G O -0.10414(10) 0.43331(10) 0.62359(10)
O11B O 0.06669(10) -0.10414(10) 0.87641(10)
O11E O 0.60414(10) 0.06669(10) 0.62359(10)
O12G O -0.05061(10) 0.41701(10) 0.54586(10)
O12B O 0.08299(10) -0.05061(10) 0.95414(10)
O12E O 0.55061(10) 0.08299(10) 0.54586(10)
O13G O -0.09527(9) 0.29830(9) 0.57900(10)
O13B O 0.20170(9) -0.09527(9) 0.92100(10)
O13E O 0.59527(9) 0.20170(9) 0.57900(10)
O14E O 0.66645(11) 0.25993(11) 0.54641(13)
O14B O 0.25993(11) -0.16645(11) 0.95359(13)
O14G O -0.16645(11) 0.24007(11) 0.54641(13)
O15G O -0.04923(9) 0.21176(9) 0.65219(9)
O15B O 0.28824(9) -0.04923(9) 0.84781(9)
O15E O 0.54923(9) 0.28824(9) 0.65219(9)
O16E O 0.36673(9) -0.03721(9) 0.79051(10)
O16B O -0.03721(9) 0.13327(9) 0.70949(10)
O16G O 0.13327(9) 0.53721(9) 0.79051(10)
O17G O 0.07101(9) 0.19393(9) 0.66278(9)
O17B O 0.30607(9) 0.07101(9) 0.83722(9)
O17E O 0.42899(9) 0.30607(9) 0.66278(9)
O18E O 0.45626(10) 0.31863(10) 0.56987(10)
O18B O 0.31863(10) 0.04374(10) 0.93013(10)
O18G O 0.04374(10) 0.18137(10) 0.56987(10)
N1G N -0.05248(11) 0.42588(11) 0.79268(11)
N1B N 0.07412(11) -0.05248(11) 0.70732(11)
N1E N 0.55248(11) 0.07412(11) 0.79268(11)
N2G N -0.00773(12) 0.25540(11) 0.47885(11)
N2B N 0.24460(11) -0.00773(12) 1.02115(11)
N2E N 0.50773(12) 0.24460(11) 0.47885(11)
C2G C -0.09666(13) 0.31098(13) 0.72633(15)
C2B C 0.18902(13) -0.09666(13) 0.77367(15)
C2E C 0.59666(13) 0.18902(13) 0.72633(15)
C3G C -0.13256(13) 0.36198(14) 0.74969(14)
C3B C 0.13802(14) -0.13256(13) 0.75031(14)
C3E C 0.63256(13) 0.13802(14) 0.74969(14)
C4G C -0.10651(13) 0.39134(14) 0.80374(14)
C4B C 0.10866(14) -0.10651(13) 0.69626(14)
C4E C 0.60651(13) 0.10866(14) 0.80374(14)
C5E C 0.46156(14) 0.03692(14) 0.83800(14)
C5B C 0.03692(14) 0.03844(14) 0.66200(14)
C5G C 0.03844(14) 0.46308(14) 0.83800(14)
C6E C 0.52298(13) 0.06084(14) 0.84907(13)
C6B C 0.06084(14) -0.02298(13) 0.65093(13)
C6G C -0.02298(13) 0.43916(14) 0.84907(13)
C7E C 0.56382(14) 0.01917(14) 0.75851(14)
C7B C 0.01917(14) -0.06382(14) 0.74149(14)
C7G C -0.06382(14) 0.48083(14) 0.75851(14)
C8E C 0.60420(15) -0.02575(14) 0.78661(14)
C8B C -0.02575(14) -0.10420(15) 0.71339(14)
C8G C -0.10420(15) 0.52575(14) 0.78661(14)
C9E C 0.58242(16) -0.06913(15) 0.82345(17)
C9B C -0.06913(15) -0.08242(16) 0.67655(17)
C9G C -0.08242(16) 0.56913(15) 0.82345(17)
C10E C 0.61928(19) -0.11093(17) 0.84835(19)
C10B C -0.11093(17) -0.11928(19) 0.65165(19)
C10G C -0.11928(19) 0.61093(17) 0.84835(19)
C11E C 0.6785(2) -0.10975(18) 0.8367(2)
C11B C -0.10975(18) -0.1785(2) 0.6633(2)
C11G C -0.1785(2) 0.60975(18) 0.8367(2)
C12E C 0.70155(17) -0.06719(18) 0.8005(2)
C12B C -0.06719(18) -0.20155(17) 0.6995(2)
C12G C -0.20155(17) 0.56719(18) 0.8005(2)
C13E C 0.66402(16) -0.02511(15) 0.77575(17)
C13B C -0.02511(15) -0.16402(16) 0.72425(17)
C13G C -0.16402(16) 0.52511(15) 0.77575(17)
C14G C 0.07204(13) 0.31849(14) 0.57578(13)
C14B C 0.18151(14) 0.07204(13) 0.92422(13)
C14E C 0.42796(13) 0.18151(14) 0.57578(13)
C15G C 0.06647(14) 0.33133(14) 0.51119(14)
C15B C 0.16867(14) 0.06647(14) 0.98881(14)
C15E C 0.43353(14) 0.16867(14) 0.51119(14)
C16G C 0.05365(15) 0.27718(15) 0.47390(14)
C16B C 0.22282(15) 0.05365(15) 1.02610(14)
C16E C 0.44635(15) 0.22282(15) 0.47390(14)
C17G C -0.06965(17) 0.16668(16) 0.46645(15)
C17B C 0.33332(16) -0.06965(17) 1.03355(15)
C17E C 0.56965(17) 0.33332(16) 0.46645(15)
C18G C -0.01188(16) 0.19615(15) 0.45058(15)
C18B C 0.30385(15) -0.01188(16) 1.04942(15)
C18E C 0.51188(16) 0.30385(15) 0.45058(15)
C19G C -0.05163(16) 0.29792(15) 0.45307(15)
C19B C 0.20208(15) -0.05163(16) 1.04693(15)
C19E C 0.55163(16) 0.20208(15) 0.45307(15)
C20G C -0.04143(17) 0.31189(15) 0.38893(16)
C20B C 0.18811(15) -0.04143(17) 1.11107(16)
C20E C 0.54143(17) 0.18811(15) 0.38893(16)
C21G C -0.0049(3) 0.3578(2) 0.3724(2)
C21B C 0.1422(2) -0.0049(3) 1.1276(2)
C21E C 0.5049(3) 0.1422(2) 0.3724(2)
C22G C 0.0047(3) 0.3717(3) 0.3142(3)
C22B C 0.1283(3) 0.0047(3) 1.1858(3)
C22E C 0.4953(3) 0.1283(3) 0.3142(3)
C23G C -0.0238(3) 0.3391(3) 0.2719(2)
C23B C 0.1609(3) -0.0238(3) 1.2281(2)
C23E C 0.5238(3) 0.1609(3) 0.2719(2)
C24G C -0.0609(3) 0.29378(19) 0.28708(18)
C24B C 0.20622(19) -0.0609(3) 1.21292(18)
C24E C 0.5609(3) 0.20622(19) 0.28708(18)
C25G C -0.06975(18) 0.28013(17) 0.34499(16)
C25B C 0.21987(17) -0.06975(18) 1.15501(16)
C25E C 0.56975(18) 0.21987(17) 0.34499(16)
C26E C 0.44351(14) 0.03804(13) 0.65578(14)
C26B C 0.03804(13) 0.05649(14) 0.84422(14)
C26G C 0.05649(14) 0.46196(13) 0.65578(14)
C27E C 0.4496(3) 0.0089(2) 0.59777(19)
C27B C 0.0089(2) 0.0504(3) 0.90223(19)
C27G C 0.0504(3) 0.4911(2) 0.59777(19)
C28E C 0.36452(13) 0.17147(13) 0.71188(13)
C28B C 0.17147(13) 0.13548(13) 0.78812(13)
C28G C 0.13548(13) 0.32853(13) 0.71188(13)
C29E C 0.32711(14) 0.22093(14) 0.68884(16)
C29B C 0.22093(14) 0.17289(14) 0.81116(16)
C29G C 0.17289(14) 0.27907(14) 0.68884(16)
C30G C 0.02446(12) 0.25827(12) 0.81224(13)
C30B C 0.24173(12) 0.02446(12) 0.68776(13)
C30E C 0.47554(12) 0.24173(12) 0.81224(13)
C31E C 0.45400(18) 0.27236(16) 0.86704(15)
C31B C 0.27236(16) 0.04600(18) 0.63296(15)
C31G C 0.04600(18) 0.22764(16) 0.86704(15)
C32G C -0.08934(14) 0.44710(14) 0.57246(15)
C32B C 0.05290(14) -0.08934(14) 0.92754(15)
C32E C 0.58934(14) 0.05290(14) 0.57246(15)
C33E C 0.6163(3) 0.0001(2) 0.5435(2)
C33B C 0.0001(2) -0.1163(3) 0.9565(2)
C33G C -0.1163(3) 0.4999(2) 0.5435(2)
C34E C 0.64966(14) 0.21305(15) 0.56992(15)
C34B C 0.21305(15) -0.14966(14) 0.93008(15)
C34G C -0.14966(14) 0.28695(15) 0.56992(15)
C35E C 0.69515(16) 0.16874(19) 0.5872(2)
C35B C 0.16874(19) -0.19515(16) 0.9128(2)
C35G C -0.19515(16) 0.33126(19) 0.5872(2)
C36E C 0.56549(13) 0.33776(13) 0.67378(14)
C36B C 0.33776(13) -0.06549(13) 0.82622(14)
C36G C -0.06549(13) 0.16224(13) 0.67378(14)
C37E C 0.62471(16) 0.36107(17) 0.65515(18)
C37B C 0.36107(17) -0.12471(16) 0.84485(18)
C37G C -0.12471(16) 0.13893(17) 0.65515(18)
C38E C 0.42194(13) 0.32721(13) 0.61160(14)
C38B C 0.32721(13) 0.07806(13) 0.88840(14)
C38G C 0.07806(13) 0.17279(13) 0.61160(14)
C39E C 0.36731(15) 0.36310(15) 0.60129(17)
C39B C 0.36310(15) 0.13269(15) 0.89871(17)
C39G C 0.13269(15) 0.13690(15) 0.60129(17)
H1E H 0.6204 0.2103 0.6968
H1B H 0.2103 -0.1204 0.8032
H1G H -0.1204 0.2897 0.6968
H2E H 0.5885 0.2167 0.7587
H2B H 0.2167 -0.0885 0.7413
H2G H -0.0885 0.2833 0.7587
H3E H 0.6365 0.1080 0.7186
H3B H 0.1080 -0.1365 0.7814
H3G H -0.1365 0.3920 0.7186
H4E H 0.6726 0.1524 0.7592
H4B H 0.1524 -0.1726 0.7408
H4G H -0.1726 0.3476 0.7592
H5E H 0.5975 0.1395 0.8329
H5B H 0.1395 -0.0975 0.6671
H5G H -0.0975 0.3605 0.8329
H6E H 0.6366 0.0823 0.8209
H6B H 0.0823 -0.1366 0.6791
H6G H -0.1366 0.4177 0.8209
H7E H 0.4392 0.0355 0.8750
H7B H 0.0355 0.0608 0.6250
H7G H 0.0608 0.4645 0.8750
H8E H 0.4642 -0.0036 0.8223
H8B H -0.0036 0.0358 0.6777
H8G H 0.0358 0.5036 0.8223
H9E H 0.5464 0.0314 0.8710
H9B H 0.0314 -0.0464 0.6290
H9G H -0.0464 0.4686 0.8710
H10E H 0.5204 0.0972 0.8729
H10B H 0.0972 -0.0204 0.6271
H10G H -0.0204 0.4028 0.8729
H11E H 0.5255 -0.0001 0.7506
H11B H -0.0001 -0.0255 0.7494
H11G H -0.0255 0.5001 0.7506
H12E H 0.5809 0.0305 0.7204
H12B H 0.0305 -0.0809 0.7796
H12G H -0.0809 0.4695 0.7204
H13E H 0.5414 -0.0702 0.8318
H13B H -0.0702 -0.0414 0.6682
H13G H -0.0414 0.5702 0.8318
H14E H 0.6035 -0.1403 0.8734
H14B H -0.1403 -0.1035 0.6266
H14G H -0.1035 0.6403 0.8734
H15E H 0.7038 -0.1384 0.8537
H15B H -0.1384 -0.2038 0.6463
H15G H -0.2038 0.6384 0.8537
H16E H 0.7426 -0.0664 0.7924
H16B H -0.0664 -0.2426 0.7076
H16G H -0.2426 0.5664 0.7924
H17E H 0.6800 0.0044 0.7510
H17B H 0.0044 -0.1800 0.7490
H17G H -0.1800 0.4956 0.7510
H18E H 0.4122 0.1461 0.5956
H18B H 0.1461 0.0878 0.9044
H18G H 0.0878 0.3539 0.5956
H19E H 0.3992 0.2138 0.5813
H19B H 0.2138 0.1008 0.9187
H19G H 0.1008 0.2862 0.5813
H20E H 0.4656 0.1396 0.5054
H20B H 0.1396 0.0344 0.9946
H20G H 0.0344 0.3604 0.5054
H21E H 0.3964 0.1504 0.4974
H21B H 0.1504 0.1036 1.0026
H21G H 0.1036 0.3496 0.4974
H22E H 0.4191 0.2548 0.4855
H22B H 0.2548 0.0809 1.0145
H22G H 0.0809 0.2452 0.4855
H23E H 0.4382 0.2131 0.4326
H23B H 0.2131 0.0618 1.0674
H23G H 0.0618 0.2869 0.4326
H24G H -0.0682 0.1245 0.4554
H24B H 0.3755 -0.0682 1.0446
H24E H 0.5682 0.3755 0.4554
H25G H -0.1023 0.1855 0.4447
H25B H 0.3145 -0.1023 1.0553
H25E H 0.6023 0.3145 0.4447
H26G H -0.0092 0.2006 0.4077
H26B H 0.2994 -0.0092 1.0923
H26E H 0.5092 0.2994 0.4077
H27G H 0.0214 0.1712 0.4636
H27B H 0.3288 0.0214 1.0364
H27E H 0.4786 0.3288 0.4636
H28G H 0.0142 0.3804 0.4017
H28B H 0.1196 0.0142 1.0983
H28E H 0.4858 0.1196 0.4017
H29G H 0.0304 0.4030 0.3037
H29B H 0.0970 0.0304 1.1963
H29E H 0.4696 0.0970 0.3037
H30G H -0.0176 0.3481 0.2319
H30B H 0.1519 -0.0176 1.2681
H30E H 0.5176 0.1519 0.2319
H31G H -0.0805 0.2718 0.2576
H31B H 0.2282 -0.0805 1.2424
H31E H 0.5805 0.2282 0.2576
H32G H -0.0955 0.2487 0.3551
H32B H 0.2513 -0.0955 1.1449
H32E H 0.5955 0.2513 0.3551
H33E H 0.4859 -0.0145 0.5971
H33B H -0.0145 0.0141 0.9029
H33G H 0.0141 0.5145 0.5971
H34E H 0.4157 -0.0169 0.5909
H34B H -0.0169 0.0843 0.9091
H34G H 0.0843 0.5169 0.5909
H35E H 0.4513 0.0390 0.5672
H35B H 0.0390 0.0487 0.9328
H35G H 0.0487 0.4610 0.5672
H36E H 0.3283 0.2208 0.6461
H36B H 0.2208 0.1717 0.8539
H36G H 0.1717 0.2792 0.6461
H37E H 0.2864 0.2157 0.7020
H37B H 0.2157 0.2136 0.7980
H37G H 0.2136 0.2843 0.7020
H38E H 0.3423 0.2586 0.7034
H38B H 0.2586 0.1577 0.7966
H38G H 0.1577 0.2414 0.7034
H39E H 0.4110 0.2759 0.8657
H39B H 0.2759 0.0890 0.6343
H39G H 0.0890 0.2241 0.8657
H40E H 0.4654 0.2492 0.9013
H40B H 0.2492 0.0346 0.5987
H40G H 0.0346 0.2508 0.9013
H41E H 0.4717 0.3117 0.8695
H41B H 0.3117 0.0283 0.6305
H41G H 0.0283 0.1883 0.8695
H42E H 0.6456 0.0131 0.5149
H42B H 0.0131 -0.1456 0.9851
H42G H -0.1456 0.4869 0.5149
H43E H 0.6354 -0.0246 0.5730
H43B H -0.0246 -0.1354 0.9270
H43G H -0.1354 0.5246 0.5730
H44E H 0.5855 -0.0226 0.5238
H44B H -0.0226 -0.0855 0.9762
H44G H -0.0855 0.5226 0.5238
H45E H 0.7022 0.1416 0.5547
H45B H 0.1416 -0.2022 0.9453
H45G H -0.2022 0.3584 0.5547
H46E H 0.7319 0.1890 0.5972
H46B H 0.1890 -0.2319 0.9028
H46G H -0.2319 0.3110 0.5972
H47E H 0.6811 0.1465 0.6211
H47B H 0.1465 -0.1811 0.8789
H47G H -0.1811 0.3535 0.6211
H48E H 0.6192 0.3927 0.6266
H48B H 0.3927 -0.1192 0.8734
H48G H -0.1192 0.1073 0.6266
H49E H 0.6457 0.3765 0.6892
H49B H 0.3765 -0.1457 0.8108
H49G H -0.1457 0.1235 0.6892
H50E H 0.6477 0.3292 0.6375
H50B H 0.3292 -0.1477 0.8625
H50G H -0.1477 0.1708 0.6375
H51E H 0.3700 0.3825 0.5632
H51B H 0.3825 0.1300 0.9368
H51G H 0.1300 0.1175 0.5632
H52E H 0.3327 0.3372 0.6020
H52B H 0.3372 0.1673 0.8980
H52G H 0.1673 0.1628 0.6020
H53E H 0.3636 0.3930 0.6319
H53B H 0.3930 0.1364 0.8681
H53G H 0.1364 0.1070 0.6319
H67G H -0.112(3) 0.190(3) 0.533(3)
H67B H 0.310(3) -0.112(3) 0.967(3)
H67E H 0.612(3) 0.310(3) 0.533(3)
O19 O 1.00215(18) 0.66415(16) 0.92830(16)
C40 C 1.0086(4) 0.6377(3) 0.9835(3)
C41 C 0.9911(5) 0.5750(3) 0.9799(4)
C42 C 1.0190(4) 0.7227(3) 0.9279(3)
C43 C 1.0156(4) 0.7473(3) 0.8683(3)
H54 H 0.9836 0.6584 1.0123
H55 H 1.0501 0.6408 0.9964
H56 H 1.0173 0.5544 0.9527
H57 H 0.9504 0.5722 0.9659
H58 H 0.9941 0.5569 1.0186
H59 H 1.0599 0.7262 0.9426
H60 H 0.9930 0.7456 0.9541
H61 H 0.9747 0.7460 0.8547
H62 H 1.0405 0.7239 0.8421
H63 H 1.0295 0.7882 0.8686
C1 C 0.7500 0.2500 0.9371(5)
C44 C 0.7500 0.2500 0.8765(7)
N4 N 0.7500 0.2500 0.8220(9)
N3 N 0.6038(5) 0.3072(6) 0.9427(4)
C45 C 0.6041(3) 0.3159(4) 0.8937(4)
C46 C 0.6051(3) 0.3288(3) 0.8341(3)
H64 H 0.6421 0.3146 0.8171
H65 H 0.6021 0.3715 0.8285
H66 H 0.5718 0.3093 0.8149
loop_
_geom_bond_atom_site_label_1
_geom_bond_atom_site_label_2
_geom_bond_site_symmetry_1
_geom_bond_site_symmetry_2
Ni1 O1 1_555 1_555
Ni2 O1 1_555 1_555
Ni3 O1 1_555 1_555
Ni4 O3 1_555 1_555
Ni5 O2 1_555 1_555
O1 C2 1_555 1_555
O2 Ni1 1_555 1_555
O3 Ni2 1_555 1_555
O4 Ni4 1_555 1_555
O5 Ni1 1_555 1_555
O6 Ni5 1_555 1_555
O7 Ni1 1_555 1_555
O8 Ni5 1_555 1_555
O9 Ni1 1_555 1_555
O10 Ni3 1_555 1_555
O11 Ni2 1_555 1_555
O12 Ni2 1_555 1_555
O13 Ni2 1_555 1_555
O14 C34 1_555 1_555
O15 Ni3 1_555 1_555
O16 Ni5 1_555 1_555
O17 Ni3 1_555 1_555
O18 Ni4 1_555 1_555
O19 C40 1_555 1_555
N1 Ni1 1_555 1_555
N2 Ni4 1_555 1_555
C1 C44 1_555 1_555
N3 C45 1_555 1_555
C2 C3 1_555 1_555
C3 C4 1_555 1_555
C4 N1 1_555 1_555
C5 O2 1_555 1_555
C6 N1 1_555 1_555
C7 N1 1_555 1_555
C8 C7 1_555 1_555
C9 C8 1_555 1_555
C10 C9 1_555 1_555
C11 C10 1_555 1_555
C12 C11 1_555 1_555
C13 C8 1_555 1_555
C14 O3 1_555 1_555
C15 C14 1_555 1_555
C16 N2 1_555 1_555
C17 O4 1_555 1_555
C18 N2 1_555 1_555
C19 N2 1_555 1_555
C20 C19 1_555 1_555
C21 C20 1_555 1_555
C22 C21 1_555 1_555
C23 C22 1_555 1_555
C24 C23 1_555 1_555
C25 C20 1_555 1_555
C26 O5 1_555 1_555
C27 C26 1_555 1_555
C28 O7 1_555 1_555
C29 C28 1_555 1_555
C30 O9 1_555 1_555
C31 C30 1_555 1_555
C32 O11 1_555 1_555
C33 C32 1_555 1_555
C34 O13 1_555 1_555
C35 C34 1_555 1_555
C36 O15 1_555 1_555
C37 C36 1_555 1_555
C38 O17 1_555 1_555
C39 C38 1_555 1_555
C40 C41 1_555 1_555
C41 H56 1_555 1_555
C42 O19 1_555 1_555
C43 C42 1_555 1_555
C44 N4 1_555 1_555
C45 C46 1_555 1_555
C46 H64 1_555 1_555
H1 C2 1_555 1_555
H2 C2 1_555 1_555
H3 C3 1_555 1_555
H4 C3 1_555 1_555
H5 C4 1_555 1_555
H6 C4 1_555 1_555
H7 C5 1_555 1_555
H8 C5 1_555 1_555
H9 C6 1_555 1_555
H10 C6 1_555 1_555
H11 C7 1_555 1_555
H12 C7 1_555 1_555
H13 C9 1_555 1_555
H14 C10 1_555 1_555
H15 C11 1_555 1_555
H16 C12 1_555 1_555
H17 C13 1_555 1_555
H18 C14 1_555 1_555
H19 C14 1_555 1_555
H20 C15 1_555 1_555
H21 C15 1_555 1_555
H22 C16 1_555 1_555
H23 C16 1_555 1_555
H24 C17 1_555 1_555
H25 C17 1_555 1_555
H26 C18 1_555 1_555
H27 C18 1_555 1_555
H28 C21 1_555 1_555
H29 C22 1_555 1_555
H30 C23 1_555 1_555
H31 C24 1_555 1_555
H32 C25 1_555 1_555
H33 C27 1_555 1_555
H34 C27 1_555 1_555
H35 C27 1_555 1_555
H36 C29 1_555 1_555
H37 C29 1_555 1_555
H38 C29 1_555 1_555
H39 C31 1_555 1_555
H40 C31 1_555 1_555
H41 C31 1_555 1_555
H42 C33 1_555 1_555
H43 C33 1_555 1_555
H44 C33 1_555 1_555
H45 C35 1_555 1_555
H46 C35 1_555 1_555
H47 C35 1_555 1_555
H48 C37 1_555 1_555
H49 C37 1_555 1_555
H50 C37 1_555 1_555
H51 C39 1_555 1_555
H52 C39 1_555 1_555
H53 C39 1_555 1_555
H54 C40 1_555 1_555
H55 C40 1_555 1_555
H57 C41 1_555 1_555
H58 C41 1_555 1_555
H59 C42 1_555 1_555
H60 C42 1_555 1_555
H61 C43 1_555 1_555
H62 C43 1_555 1_555
H63 C43 1_555 1_555
H65 C46 1_555 1_555
H66 C46 1_555 1_555
H67 O4 1_555 1_555
Ni1G O1G 1_555 1_555
Ni1B O1B 1_555 1_555
Ni1E O1E 1_555 1_555
Ni2G O1G 1_555 1_555
Ni2B O1B 1_555 1_555
Ni2E O1E 1_555 1_555
Ni3G O1G 1_555 1_555
Ni3B O1B 1_555 1_555
Ni3E O1E 1_555 1_555
Ni4G O3G 1_555 1_555
Ni4B O3B 1_555 1_555
Ni4E O3E 1_555 1_555
Ni5G O10 1_555 1_555
Ni5B O2B 1_555 1_555
Ni5E O2E 1_555 1_555
O1G C2G 1_555 1_555
O1B C2B 1_555 1_555
O1E C2E 1_555 1_555
O2G Ni1G 1_555 1_555
O2B Ni1B 1_555 1_555
O2E Ni1E 1_555 1_555
O3G Ni2G 1_555 1_555
O3B Ni2B 1_555 1_555
O3E Ni2E 1_555 1_555
O4G Ni4G 1_555 1_555
O4B Ni4B 1_555 1_555
O4E Ni4E 1_555 1_555
O5G Ni1G 1_555 1_555
O5B Ni1B 1_555 1_555
O5E Ni1E 1_555 1_555
O6E Ni5E 1_555 1_555
O6B Ni5B 1_555 1_555
O6G Ni5G 1_555 1_555
O7G Ni1G 1_555 1_555
O7B Ni1B 1_555 1_555
O7E Ni1E 1_555 1_555
O8E Ni5E 1_555 1_555
O8B Ni5B 1_555 1_555
O8G Ni5G 1_555 1_555
O9G Ni1G 1_555 1_555
O9B Ni1B 1_555 1_555
O9E Ni1E 1_555 1_555
O10G Ni3G 1_555 1_555
O10B Ni3B 1_555 1_555
O10E Ni5 1_555 1_555
O11G Ni2G 1_555 1_555
O11B Ni2B 1_555 1_555
O11E Ni2E 1_555 1_555
O12G Ni2G 1_555 1_555
O12B Ni2B 1_555 1_555
O12E Ni2E 1_555 1_555
O13G Ni2G 1_555 1_555
O13B Ni2B 1_555 1_555
O13E Ni2E 1_555 1_555
O14E C34E 1_555 1_555
O14B C34B 1_555 1_555
O14G C34G 1_555 1_555
O15G Ni3G 1_555 1_555
O15B Ni3B 1_555 1_555
O15E Ni3E 1_555 1_555
O16E Ni5E 1_555 1_555
O16B Ni5B 1_555 1_555
O16G C36 1_555 1_555
O17G Ni3G 1_555 1_555
O17B Ni3B 1_555 1_555
O17E Ni5 1_555 1_555
O18E Ni4E 1_555 1_555
O18B Ni4B 1_555 1_555
O18G Ni4G 1_555 1_555
N1G Ni1G 1_555 1_555
N1B Ni1B 1_555 1_555
N1E Ni1E 1_555 1_555
N2G Ni4G 1_555 1_555
N2B Ni4B 1_555 1_555
N2E Ni4E 1_555 1_555
C2G C3G 1_555 1_555
C2B C3B 1_555 1_555
C2E C3E 1_555 1_555
C3G C4G 1_555 1_555
C3B C4B 1_555 1_555
C3E C4E 1_555 1_555
C4G N1G 1_555 1_555
C4B N1B 1_555 1_555
C4E N1E 1_555 1_555
C5E O2E 1_555 1_555
C5B O2B 1_555 1_555
C5G O2G 1_555 1_555
C6E N1E 1_555 1_555
C6B N1B 1_555 1_555
C6G N1G 1_555 1_555
C7E N1E 1_555 1_555
C7B N1B 1_555 1_555
C7G N1G 1_555 1_555
C8E C7E 1_555 1_555
C8B C7B 1_555 1_555
C8G C7G 1_555 1_555
C9E C8E 1_555 1_555
C9B C8B 1_555 1_555
C9G C8G 1_555 1_555
C10E C9E 1_555 1_555
C10B C9B 1_555 1_555
C10G C9G 1_555 1_555
C11E C10E 1_555 1_555
C11B C10B 1_555 1_555
C11G C10G 1_555 1_555
C12E C11E 1_555 1_555
C12B C11B 1_555 1_555
C12G C11G 1_555 1_555
C13E C8E 1_555 1_555
C13B C8B 1_555 1_555
C13G C8G 1_555 1_555
C14G O3G 1_555 1_555
C14B O3B 1_555 1_555
C14E O3E 1_555 1_555
C15G C14G 1_555 1_555
C15B C14B 1_555 1_555
C15E C14E 1_555 1_555
C16G N2G 1_555 1_555
C16B N2B 1_555 1_555
C16E N2E 1_555 1_555
C17G O4G 1_555 1_555
C17B O4B 1_555 1_555
C17E O4E 1_555 1_555
C18G N2G 1_555 1_555
C18B N2B 1_555 1_555
C18E N2E 1_555 1_555
C19G N2G 1_555 1_555
C19B N2B 1_555 1_555
C19E N2E 1_555 1_555
C20G C19G 1_555 1_555
C20B C19B 1_555 1_555
C20E C19E 1_555 1_555
C21G C20G 1_555 1_555
C21B C20B 1_555 1_555
C21E C20E 1_555 1_555
C22G C21G 1_555 1_555
C22B C21B 1_555 1_555
C22E C21E 1_555 1_555
C23G C22G 1_555 1_555
C23B C22B 1_555 1_555
C23E C22E 1_555 1_555
C24G C23G 1_555 1_555
C24B C23B 1_555 1_555
C24E C23E 1_555 1_555
C25G C20G 1_555 1_555
C25B C20B 1_555 1_555
C25E C20E 1_555 1_555
C26E O5E 1_555 1_555
C26B O5B 1_555 1_555
C26G O5G 1_555 1_555
C27E C26E 1_555 1_555
C27B C26B 1_555 1_555
C27G C26G 1_555 1_555
C28E O7E 1_555 1_555
C28B O7B 1_555 1_555
C28G O7G 1_555 1_555
C29E C28E 1_555 1_555
C29B C28B 1_555 1_555
C29G C28G 1_555 1_555
C30G O9G 1_555 1_555
C30B O9B 1_555 1_555
C30E O9E 1_555 1_555
C31E C30E 1_555 1_555
C31B C30B 1_555 1_555
C31G C30G 1_555 1_555
C32G O11G 1_555 1_555
C32B O11B 1_555 1_555
C32E O11E 1_555 1_555
C33E C32E 1_555 1_555
C33B C32B 1_555 1_555
C33G C32G 1_555 1_555
C34E O13E 1_555 1_555
C34B O13B 1_555 1_555
C34G O13G 1_555 1_555
C35E C34E 1_555 1_555
C35B C34B 1_555 1_555
C35G C34G 1_555 1_555
C36E O16 1_555 1_555
C36B O15B 1_555 1_555
C36G O15G 1_555 1_555
C37E C36E 1_555 1_555
C37B C36B 1_555 1_555
C37G C36G 1_555 1_555
C38E O17E 1_555 1_555
C38B O17B 1_555 1_555
C38G O17G 1_555 1_555
C39E C38E 1_555 1_555
C39B C38B 1_555 1_555
C39G C38G 1_555 1_555
H1E C2E 1_555 1_555
H1B C2B 1_555 1_555
H1G C2G 1_555 1_555
H2E C2E 1_555 1_555
H2B C2B 1_555 1_555
H2G C2G 1_555 1_555
H3E C3E 1_555 1_555
H3B C3B 1_555 1_555
H3G C3G 1_555 1_555
H4E C3E 1_555 1_555
H4B C3B 1_555 1_555
H4G C3G 1_555 1_555
H5E C4E 1_555 1_555
H5B C4B 1_555 1_555
H5G C4G 1_555 1_555
H6E C4E 1_555 1_555
H6B C4B 1_555 1_555
H6G C4G 1_555 1_555
H7E C5E 1_555 1_555
H7B C5B 1_555 1_555
H7G C5G 1_555 1_555
H8E C5E 1_555 1_555
H8B C5B 1_555 1_555
H8G C5G 1_555 1_555
H9E C6E 1_555 1_555
H9B C6B 1_555 1_555
H9G C6G 1_555 1_555
H10E C6E 1_555 1_555
H10B C6B 1_555 1_555
H10G C6G 1_555 1_555
H11E C7E 1_555 1_555
H11B C7B 1_555 1_555
H11G C7G 1_555 1_555
H12E C7E 1_555 1_555
H12B C7B 1_555 1_555
H12G C7G 1_555 1_555
H13E C9E 1_555 1_555
H13B C9B 1_555 1_555
H13G C9G 1_555 1_555
H14E C10E 1_555 1_555
H14B C10B 1_555 1_555
H14G C10G 1_555 1_555
H15E C11E 1_555 1_555
H15B C11B 1_555 1_555
H15G C11G 1_555 1_555
H16E C12E 1_555 1_555
H16B C12B 1_555 1_555
H16G C12G 1_555 1_555
H17E C13E 1_555 1_555
H17B C13B 1_555 1_555
H17G C13G 1_555 1_555
H18E C14E 1_555 1_555
H18B C14B 1_555 1_555
H18G C14G 1_555 1_555
H19E C14E 1_555 1_555
H19B C14B 1_555 1_555
H19G C14G 1_555 1_555
H20E C15E 1_555 1_555
H20B C15B 1_555 1_555
H20G C15G 1_555 1_555
H21E C15E 1_555 1_555
H21B C15B 1_555 1_555
H21G C15G 1_555 1_555
H22E C16E 1_555 1_555
H22B C16B 1_555 1_555
H22G C16G 1_555 1_555
H23E C16E 1_555 1_555
H23B C16B 1_555 1_555
H23G C16G 1_555 1_555
H24G C17G 1_555 1_555
H24B C17B 1_555 1_555
H24E C17E 1_555 1_555
H25G C17G 1_555 1_555
H25B C17B 1_555 1_555
H25E C17E 1_555 1_555
H26G C18G 1_555 1_555
H26B C18B 1_555 1_555
H26E C18E 1_555 1_555
H27G C18G 1_555 1_555
H27B C18B 1_555 1_555
H27E C18E 1_555 1_555
H28G C21G 1_555 1_555
H28B C21B 1_555 1_555
H28E C21E 1_555 1_555
H29G C22G 1_555 1_555
H29B C22B 1_555 1_555
H29E C22E 1_555 1_555
H30G C23G 1_555 1_555
H30B C23B 1_555 1_555
H30E C23E 1_555 1_555
H31G C24G 1_555 1_555
H31B C24B 1_555 1_555
H31E C24E 1_555 1_555
H32G C25G 1_555 1_555
H32B C25B 1_555 1_555
H32E C25E 1_555 1_555
H33E C27E 1_555 1_555
H33B C27B 1_555 1_555
H33G C27G 1_555 1_555
H34E C27E 1_555 1_555
H34B C27B 1_555 1_555
H34G C27G 1_555 1_555
H35E C27E 1_555 1_555
H35B C27B 1_555 1_555
H35G C27G 1_555 1_555
H36E C29E 1_555 1_555
H36B C29B 1_555 1_555
H36G C29G 1_555 1_555
H37E C29E 1_555 1_555
H37B C29B 1_555 1_555
H37G C29G 1_555 1_555
H38E C29E 1_555 1_555
H38B C29B 1_555 1_555
H38G C29G 1_555 1_555
H39E C31E 1_555 1_555
H39B C31B 1_555 1_555
H39G C31G 1_555 1_555
H40E C31E 1_555 1_555
H40B C31B 1_555 1_555
H40G C31G 1_555 1_555
H41E C31E 1_555 1_555
H41B C31B 1_555 1_555
H41G C31G 1_555 1_555
H42E C33E 1_555 1_555
H42B C33B 1_555 1_555
H42G C33G 1_555 1_555
H43E C33E 1_555 1_555
H43B C33B 1_555 1_555
H43G C33G 1_555 1_555
H44E C33E 1_555 1_555
H44B C33B 1_555 1_555
H44G C33G 1_555 1_555
H45E C35E 1_555 1_555
H45B C35B 1_555 1_555
H45G C35G 1_555 1_555
H46E C35E 1_555 1_555
H46B C35B 1_555 1_555
H46G C35G 1_555 1_555
H47E C35E 1_555 1_555
H47B C35B 1_555 1_555
H47G C35G 1_555 1_555
H48E C37E 1_555 1_555
H48B C37B 1_555 1_555
H48G C37G 1_555 1_555
H49E C37E 1_555 1_555
H49B C37B 1_555 1_555
H49G C37G 1_555 1_555
H50E C37E 1_555 1_555
H50B C37B 1_555 1_555
H50G C37G 1_555 1_555
H51E C39E 1_555 1_555
H51B C39B 1_555 1_555
H51G C39G 1_555 1_555
H52E C39E 1_555 1_555
H52B C39B 1_555 1_555
H52G C39G 1_555 1_555
H53E C39E 1_555 1_555
H53B C39B 1_555 1_555
H53G C39G 1_555 1_555
H67G O4G 1_555 1_555
H67B O4B 1_555 1_555
H67E O4E 1_555 1_555
Ni2 O5 1_555 1_555
Ni3 O3 1_555 1_555
Ni3 O7 1_555 1_555
Ni4 O13 1_555 1_555
Ni4 O15 1_555 1_555
O6 C26 1_555 1_555
O8 C28 1_555 1_555
O10 C30 1_555 1_555
O12 C32 1_555 1_555
O17 Ni5G 1_555 1_555
O18 C38 1_555 1_555
C5 C6 1_555 1_555
C12 C13 1_555 1_555
C15 C16 1_555 1_555
C17 C18 1_555 1_555
C24 C25 1_555 1_555
Ni2G O5G 1_555 1_555
Ni2B O5B 1_555 1_555
Ni2E O5E 1_555 1_555
Ni3G O3G 1_555 1_555
Ni3G O7G 1_555 1_555
Ni3B O3B 1_555 1_555
Ni3B O7B 1_555 1_555
Ni3E O3E 1_555 1_555
Ni3E O7E 1_555 1_555
Ni3E O10E 1_555 1_555
Ni3E O17E 1_555 1_555
Ni4G O13G 1_555 1_555
Ni4G O15G 1_555 1_555
Ni4B O13B 1_555 1_555
Ni4B O15B 1_555 1_555
Ni4E O13E 1_555 1_555
Ni4E O15E 1_555 1_555
Ni5G O2G 1_555 1_555
Ni5G O16G 1_555 1_555
Ni5B O10G 1_555 1_555
Ni5B O17G 1_555 1_555
Ni5E O10B 1_555 1_555
Ni5E O17B 1_555 1_555
O6E C26E 1_555 1_555
O6B C26B 1_555 1_555
O6G C26G 1_555 1_555
O8E C28E 1_555 1_555
O8B C28B 1_555 1_555
O8G C28G 1_555 1_555
O10G C30G 1_555 1_555
O10B C30B 1_555 1_555
O10E C30E 1_555 1_555
O12G C32G 1_555 1_555
O12B C32B 1_555 1_555
O12E C32E 1_555 1_555
O15E C36E 1_555 1_555
O16E C36B 1_555 1_555
O16B C36G 1_555 1_555
O18E C38E 1_555 1_555
O18B C38B 1_555 1_555
O18G C38G 1_555 1_555
C5E C6E 1_555 1_555
C5B C6B 1_555 1_555
C5G C6G 1_555 1_555
C12E C13E 1_555 1_555
C12B C13B 1_555 1_555
C12G C13G 1_555 1_555
C15G C16G 1_555 1_555
C15B C16B 1_555 1_555
C15E C16E 1_555 1_555
C17G C18G 1_555 1_555
C17B C18B 1_555 1_555
C17E C18E 1_555 1_555
C24G C25G 1_555 1_555
C24B C25B 1_555 1_555
C24E C25E 1_555 1_555

#END
