
#######################################################################
#
#                 Cambridge Crystallographic Data Centre
#                                CCDC 
#
#######################################################################
#
# If this CIF has been generated from an entry in the Cambridge 
# Structural Database, then it will include bibliographic, chemical, 
# crystal, experimental, refinement or atomic coordinate data resulting 
# from the CCDC's data processing and validation procedures.
#
#######################################################################

data_GENWUT
_chemical_formula_moiety         
'C152 H224 Co20 N8 O72,6(C2 H3 N1),6(C4 H10 O1)'
_chemical_name_systematic        
'tetrakis(\m~4~-3-(Benzyl(2-oxidoxyethyl)amino)propan-1-olato)-icosakis(\m~3~-acetato)-tetrakis(\m~3~-3-(benzyl(2-hydroxyethyl)amino)propan-1-olato)-tetrakis(\m~2~-acetato)-tetrakis(acetato)-icosa-cobalt(ii) acetonitrile diethyl ether solvate'
_symmetry_cell_setting           tetragonal
_symmetry_space_group_name_H-M   'P 42/n'
_symmetry_Int_Tables_number      86
_space_group_name_Hall           '-P 4bc'
loop_
_symmetry_equiv_pos_site_id
_symmetry_equiv_pos_as_xyz
1 x,y,z
2 -y,1/2+x,1/2+z
3 1/2-x,1/2-y,z
4 1/2+y,-x,1/2+z
5 -x,-y,-z
6 y,1/2-x,1/2-z
7 1/2+x,1/2+y,-z
8 1/2-y,x,1/2-z
_cell_length_a                   22.826(7)
_cell_length_b                   22.826(7)
_cell_length_c                   23.129(7)
_cell_angle_alpha                90
_cell_angle_beta                 90
_cell_angle_gamma                90
_cell_volume                     12050.8
_exptl_crystal_colour            purple
_exptl_crystal_description       block
_cell_formula_units_Z            2
loop_
_atom_site_label
_atom_site_type_symbol
_atom_site_fract_x
_atom_site_fract_y
_atom_site_fract_z
Co1 Co 0.622189(14) 0.985072(14) 0.249690(14)
Co2 Co 0.633106(14) 1.043516(14) 0.119125(15)
Co3 Co 0.736992(14) 0.983213(14) 0.183328(14)
Co4 Co 0.764485(14) 1.029263(15) 0.064681(14)
Co5 Co 0.545540(14) 0.860270(15) 0.259360(15)
O1 O 0.67000(7) 1.04349(7) 0.19984(7)
O2 O 0.56970(8) 0.93496(7) 0.29586(8)
O3 O 0.69684(7) 0.98319(7) 0.09896(8)
O4 O 0.82623(9) 1.08219(9) 0.02309(8)
O5 O 0.57688(8) 0.98059(7) 0.16720(8)
O6 O 0.52014(9) 0.90196(8) 0.18345(9)
O7 O 0.67756(7) 0.91955(7) 0.21080(8)
O8 O 0.62694(8) 0.83821(8) 0.22845(9)
O9 O 0.68866(8) 0.98880(8) 0.31469(8)
O10 O 0.77344(7) 0.98023(8) 0.26679(8)
O11 O 0.56504(9) 1.10687(9) 0.12009(10)
O12 O 0.58046(9) 1.05224(10) 0.04336(9)
O13 O 0.70218(8) 1.09816(8) 0.07770(8)
O14 O 0.75931(10) 1.16851(9) 0.04207(11)
O15 O 0.78920(7) 1.05144(8) 0.15180(8)
O16 O 0.45963(8) 0.86715(8) 0.29037(8)
O17 O 0.80713(7) 0.93042(8) 0.16128(8)
O18 O 0.82013(8) 0.95595(9) 0.06829(8)
N1 N 0.57206(9) 1.05446(9) 0.29291(9)
N2 N 0.74489(9) 1.00705(10) -0.02473(10)
C3 C 0.68695(11) 1.09813(11) 0.22578(12)
C4 C 0.63545(12) 1.13390(11) 0.24868(12)
C5 C 0.60640(12) 1.10862(11) 0.30291(12)
C6 C 0.53598(11) 0.96359(11) 0.33858(11)
C7 C 0.55980(11) 1.02503(11) 0.34898(11)
C8 C 0.51704(11) 1.06526(11) 0.25899(11)
C9 C 0.47211(11) 1.10528(12) 0.28716(12)
C10 C 0.42957(13) 1.08389(13) 0.32479(14)
C11 C 0.38783(14) 1.12081(16) 0.34943(15)
C12 C 0.38803(14) 1.17976(16) 0.33700(16)
C13 C 0.43007(15) 1.20224(14) 0.29984(16)
C14 C 0.47182(13) 1.16516(13) 0.27495(14)
C15 C 0.68141(11) 0.92825(11) 0.07290(11)
C16 C 0.66965(12) 0.93269(12) 0.00836(12)
C17 C 0.72419(12) 0.94551(12) -0.02875(12)
C18 C 0.83226(12) 1.07029(13) -0.03748(12)
C19 C 0.80413(12) 1.01187(13) -0.05231(12)
C20 C 0.70223(12) 1.04971(13) -0.05068(13)
C21 C 0.68838(13) 1.03979(14) -0.11419(13)
C22 C 0.64349(17) 1.0016(2) -0.13073(17)
C23 C 0.6307(2) 0.9918(3) -0.18901(18)
C24 C 0.66238(19) 1.0211(2) -0.23140(17)
C25 C 0.70613(16) 1.05914(18) -0.21592(15)
C26 C 0.71960(14) 1.06854(15) -0.15792(13)
C27 C 0.53649(11) 0.94464(12) 0.15355(11)
C28 C 0.5051(2) 0.9534(3) 0.09734(18)
C29 C 0.67142(11) 0.86396(10) 0.21061(10)
C30 C 0.72083(12) 0.82619(11) 0.18757(13)
C31 C 0.74192(11) 0.97583(10) 0.31271(11)
C32 C 0.77101(13) 0.95407(15) 0.36721(13)
C33 C 0.55106(13) 1.09134(14) 0.06959(15)
C34 C 0.49844(19) 1.1186(2) 0.0407(3)
C35 C 0.71324(12) 1.15197(12) 0.06694(13)
C36 C 0.66938(16) 1.19760(13) 0.08408(19)
C37 C 0.83851(11) 1.06827(11) 0.17282(11)
C38 C 0.86232(15) 1.12630(14) 0.15242(15)
C39 C 0.82863(10) 0.92238(11) 0.11044(11)
C40 C 0.86426(13) 0.86760(12) 0.10178(13)
H1 H 0.7083 1.1218 0.1967
H2 H 0.7142 1.0901 0.2581
H3 H 0.6056 1.1370 0.2178
H4 H 0.6493 1.1740 0.2575
H5 H 0.6372 1.1002 0.3319
H6 H 0.5801 1.1387 0.3196
H7 H 0.5373 0.9409 0.3750
H8 H 0.4946 0.9660 0.3258
H9 H 0.5308 1.0482 0.3711
H10 H 0.5963 1.0227 0.3720
H11 H 0.4981 1.0270 0.2513
H12 H 0.5281 1.0823 0.2212
H13 H 0.4290 1.0433 0.3339
H14 H 0.3591 1.1052 0.3749
H15 H 0.3595 1.2049 0.3538
H16 H 0.4305 1.2429 0.2913
H17 H 0.5004 1.1809 0.2494
H18 H 0.6460 0.9127 0.0922
H19 H 0.7136 0.9000 0.0794
H20 H 0.6405 0.9641 0.0017
H21 H 0.6520 0.8954 -0.0049
H22 H 0.7563 0.9191 -0.0165
H23 H 0.7150 0.9365 -0.0696
H24 H 0.8743 1.0693 -0.0479
H25 H 0.8133 1.1019 -0.0601
H26 H 0.8002 1.0083 -0.0948
H27 H 0.8294 0.9796 -0.0385
H28 H 0.7182 1.0898 -0.0461
H29 H 0.6652 1.0478 -0.0285
H30 H 0.6213 0.9819 -0.1019
H31 H 0.6005 0.9653 -0.1996
H32 H 0.6537 1.0148 -0.2711
H33 H 0.7275 1.0793 -0.2450
H34 H 0.7503 1.0947 -0.1479
H35 H 0.4774 0.9859 0.1011
H36 H 0.4838 0.9176 0.0872
H37 H 0.5337 0.9624 0.0669
H38 H 0.7206 0.8273 0.1452
H39 H 0.7154 0.7857 0.2007
H40 H 0.7584 0.8412 0.2019
H41 H 0.7726 0.9112 0.3666
H42 H 0.7485 0.9671 0.4009
H43 H 0.8109 0.9698 0.3695
H44 H 0.5114 1.1488 0.0135
H45 H 0.4731 1.1363 0.0701
H46 H 0.4766 1.0883 0.0198
H47 H 0.6387 1.2001 0.0546
H48 H 0.6890 1.2356 0.0876
H49 H 0.6518 1.1869 0.1213
H50 H 0.8917 1.1196 0.1223
H51 H 0.8804 1.1469 0.1850
H52 H 0.8303 1.1501 0.1367
H53 H 0.8812 0.8677 0.0629
H54 H 0.8390 0.8332 0.1063
H55 H 0.8958 0.8662 0.1305
H56 H 0.805(3) 1.120(3) 0.025(3)
Co1E Co 0.985072(14) 0.877811(14) 0.250310(14)
Co1B Co 0.877811(14) 0.514928(14) 0.249690(14)
Co1G Co 0.514928(14) 0.622189(14) 0.250310(14)
Co2E Co 1.043516(14) 0.866894(14) 0.380875(15)
Co2B Co 0.866894(14) 0.456484(14) 0.119125(15)
Co2G Co 0.456484(14) 0.633106(14) 0.380875(15)
Co3E Co 0.983213(14) 0.763008(14) 0.316672(14)
Co3B Co 0.763008(14) 0.516787(14) 0.183328(14)
Co3G Co 0.516787(14) 0.736992(14) 0.316672(14)
Co4E Co 1.029263(15) 0.735515(14) 0.435319(14)
Co4B Co 0.735515(14) 0.470737(15) 0.064681(14)
Co4G Co 0.470737(15) 0.764485(14) 0.435319(14)
Co5E Co 0.860270(15) 0.954460(14) 0.240640(15)
Co5B Co 0.954460(14) 0.639730(15) 0.259360(15)
Co5G Co 0.639730(15) 0.545540(14) 0.240640(15)
O1E O 1.04349(7) 0.83000(7) 0.30016(7)
O1B O 0.83000(7) 0.45651(7) 0.19984(7)
O1G O 0.45651(7) 0.67000(7) 0.30016(7)
O2E O 0.93496(7) 0.93030(8) 0.20414(8)
O2B O 0.93030(8) 0.56504(7) 0.29586(8)
O2G O 0.56504(7) 0.56970(8) 0.20414(8)
O3E O 0.98319(7) 0.80316(7) 0.40104(8)
O3B O 0.80316(7) 0.51681(7) 0.09896(8)
O3G O 0.51681(7) 0.69684(7) 0.40104(8)
O4E O 1.08219(9) 0.67377(9) 0.47691(8)
O4B O 0.67377(9) 0.41781(9) 0.02309(8)
O4G O 0.41781(9) 0.82623(9) 0.47691(8)
O5E O 0.98059(7) 0.92312(8) 0.33280(8)
O5B O 0.92312(8) 0.51941(7) 0.16720(8)
O5G O 0.51941(7) 0.57688(8) 0.33280(8)
O6G O 0.59804(8) 0.52014(9) 0.31655(9)
O6B O 0.97986(9) 0.59804(8) 0.18345(9)
O6E O 0.90196(8) 0.97986(9) 0.31655(9)
O7E O 0.91955(7) 0.82244(7) 0.28920(8)
O7B O 0.82244(7) 0.58045(7) 0.21080(8)
O7G O 0.58045(7) 0.67756(7) 0.28920(8)
O8G O 0.66179(8) 0.62694(8) 0.27155(9)
O8B O 0.87306(8) 0.66179(8) 0.22845(9)
O8E O 0.83821(8) 0.87306(8) 0.27155(9)
O9E O 0.98880(8) 0.81134(8) 0.18531(8)
O9B O 0.81134(8) 0.51120(8) 0.31469(8)
O9G O 0.51120(8) 0.68866(8) 0.18531(8)
O10E O 0.98023(8) 0.72656(7) 0.23321(8)
O10B O 0.72656(7) 0.51977(8) 0.26679(8)
O10G O 0.51977(8) 0.77344(7) 0.23321(8)
O11E O 1.10687(9) 0.93496(9) 0.37991(10)
O11B O 0.93496(9) 0.39313(9) 0.12009(10)
O11G O 0.39313(9) 0.56504(9) 0.37991(10)
O12E O 1.05224(10) 0.91954(9) 0.45664(9)
O12B O 0.91954(9) 0.44776(10) 0.04336(9)
O12G O 0.44776(10) 0.58046(9) 0.45664(9)
O13E O 1.09816(8) 0.79782(8) 0.42230(8)
O13B O 0.79782(8) 0.40184(8) 0.07770(8)
O13G O 0.40184(8) 0.70218(8) 0.42230(8)
O14G O 0.33149(9) 0.75931(10) 0.45793(11)
O14B O 0.74069(10) 0.33149(9) 0.04207(11)
O14E O 1.16851(9) 0.74069(10) 0.45793(11)
O15E O 1.05144(8) 0.71080(7) 0.34820(8)
O15B O 0.71080(7) 0.44856(8) 0.15180(8)
O15G O 0.44856(8) 0.78920(7) 0.34820(8)
O16G O 0.63285(8) 0.45963(8) 0.20963(8)
O16B O 1.04037(8) 0.63285(8) 0.29037(8)
O16E O 0.86715(8) 1.04037(8) 0.20963(8)
O17E O 0.93042(8) 0.69287(7) 0.33872(8)
O17B O 0.69287(7) 0.56958(8) 0.16128(8)
O17G O 0.56958(8) 0.80713(7) 0.33872(8)
O18G O 0.54405(9) 0.82013(8) 0.43171(8)
O18B O 0.67987(8) 0.54405(9) 0.06829(8)
O18E O 0.95595(9) 0.67987(8) 0.43171(8)
N1E N 1.05446(9) 0.92794(9) 0.20709(9)
N1B N 0.92794(9) 0.44554(9) 0.29291(9)
N1G N 0.44554(9) 0.57206(9) 0.20709(9)
N2E N 1.00705(10) 0.75511(9) 0.52473(10)
N2B N 0.75511(9) 0.49295(10) -0.02473(10)
N2G N 0.49295(10) 0.74489(9) 0.52473(10)
C3E C 1.09813(11) 0.81305(11) 0.27422(12)
C3B C 0.81305(11) 0.40187(11) 0.22578(12)
C3G C 0.40187(11) 0.68695(11) 0.27422(12)
C4E C 1.13390(11) 0.86455(12) 0.25132(12)
C4B C 0.86455(12) 0.36610(11) 0.24868(12)
C4G C 0.36610(11) 0.63545(12) 0.25132(12)
C5E C 1.10862(11) 0.89360(12) 0.19709(12)
C5B C 0.89360(12) 0.39138(11) 0.30291(12)
C5G C 0.39138(11) 0.60640(12) 0.19709(12)
C6G C 0.53641(11) 0.53598(11) 0.16142(11)
C6B C 0.96402(11) 0.53641(11) 0.33858(11)
C6E C 0.96359(11) 0.96402(11) 0.16142(11)
C7G C 0.47497(11) 0.55980(11) 0.15102(11)
C7B C 0.94020(11) 0.47497(11) 0.34898(11)
C7E C 1.02503(11) 0.94020(11) 0.15102(11)
C8G C 0.43474(11) 0.51704(11) 0.24101(11)
C8B C 0.98296(11) 0.43474(11) 0.25899(11)
C8E C 1.06526(11) 0.98296(11) 0.24101(11)
C9G C 0.39472(12) 0.47211(11) 0.21284(12)
C9B C 1.02789(11) 0.39472(12) 0.28716(12)
C9E C 1.10528(12) 1.02789(11) 0.21284(12)
C10G C 0.41611(13) 0.42957(13) 0.17521(14)
C10B C 1.07043(13) 0.41611(13) 0.32479(14)
C10E C 1.08389(13) 1.07043(13) 0.17521(14)
C11G C 0.37919(16) 0.38783(14) 0.15057(15)
C11B C 1.11217(14) 0.37919(16) 0.34943(15)
C11E C 1.12081(16) 1.11217(14) 0.15057(15)
C12G C 0.32024(16) 0.38803(14) 0.16300(16)
C12B C 1.11197(14) 0.32024(16) 0.33700(16)
C12E C 1.17976(16) 1.11197(14) 0.16300(16)
C13G C 0.29776(14) 0.43007(15) 0.20016(16)
C13B C 1.06993(15) 0.29776(14) 0.29984(16)
C13E C 1.20224(14) 1.06993(15) 0.20016(16)
C14G C 0.33484(13) 0.47182(13) 0.22505(14)
C14B C 1.02818(13) 0.33484(13) 0.27495(14)
C14E C 1.16516(13) 1.02818(13) 0.22505(14)
C15E C 0.92825(11) 0.81859(11) 0.42710(11)
C15B C 0.81859(11) 0.57175(11) 0.07290(11)
C15G C 0.57175(11) 0.68141(11) 0.42710(11)
C16E C 0.93269(12) 0.83035(12) 0.49164(12)
C16B C 0.83035(12) 0.56731(12) 0.00836(12)
C16G C 0.56731(12) 0.66965(12) 0.49164(12)
C17E C 0.94551(12) 0.77581(12) 0.52875(12)
C17B C 0.77581(12) 0.55449(12) -0.02875(12)
C17G C 0.55449(12) 0.72419(12) 0.52875(12)
C18E C 1.07029(13) 0.66774(12) 0.53748(12)
C18B C 0.66774(12) 0.42971(13) -0.03748(12)
C18G C 0.42971(13) 0.83226(12) 0.53748(12)
C19E C 1.01187(13) 0.69587(12) 0.55231(12)
C19B C 0.69587(12) 0.48813(13) -0.05231(12)
C19G C 0.48813(13) 0.80413(12) 0.55231(12)
C20E C 1.04971(13) 0.79777(12) 0.55068(13)
C20B C 0.79777(12) 0.45029(13) -0.05068(13)
C20G C 0.45029(13) 0.70223(12) 0.55068(13)
C21E C 1.03979(14) 0.81162(13) 0.61419(13)
C21B C 0.81162(13) 0.46021(14) -0.11419(13)
C21G C 0.46021(14) 0.68838(13) 0.61419(13)
C22E C 1.0016(2) 0.85651(17) 0.63073(17)
C22B C 0.85651(17) 0.4984(2) -0.13073(17)
C22G C 0.4984(2) 0.64349(17) 0.63073(17)
C23E C 0.9918(3) 0.8693(2) 0.68901(18)
C23B C 0.8693(2) 0.5082(3) -0.18901(18)
C23G C 0.5082(3) 0.6307(2) 0.68901(18)
C24E C 1.0211(2) 0.83762(19) 0.73140(17)
C24B C 0.83762(19) 0.4789(2) -0.23140(17)
C24G C 0.4789(2) 0.66238(19) 0.73140(17)
C25E C 1.05914(18) 0.79387(16) 0.71592(15)
C25B C 0.79387(16) 0.44086(18) -0.21592(15)
C25G C 0.44086(18) 0.70613(16) 0.71592(15)
C26E C 1.06854(15) 0.78040(14) 0.65792(13)
C26B C 0.78040(14) 0.43146(15) -0.15792(13)
C26G C 0.43146(15) 0.71960(14) 0.65792(13)
C27G C 0.55536(12) 0.53649(11) 0.34645(11)
C27B C 0.96351(11) 0.55536(12) 0.15355(11)
C27E C 0.94464(12) 0.96351(11) 0.34645(11)
C28G C 0.5466(3) 0.5051(2) 0.40266(18)
C28B C 0.9949(2) 0.5466(3) 0.09734(18)
C28E C 0.9534(3) 0.9949(2) 0.40266(18)
C29G C 0.63604(10) 0.67142(11) 0.28939(10)
C29B C 0.82858(11) 0.63604(10) 0.21061(10)
C29E C 0.86396(10) 0.82858(11) 0.28939(10)
C30G C 0.67381(11) 0.72083(12) 0.31243(13)
C30B C 0.77917(12) 0.67381(11) 0.18757(13)
C30E C 0.82619(11) 0.77917(12) 0.31243(13)
C31E C 0.97583(10) 0.75808(11) 0.18729(11)
C31B C 0.75808(11) 0.52417(10) 0.31271(11)
C31G C 0.52417(10) 0.74192(11) 0.18729(11)
C32G C 0.54593(15) 0.77101(13) 0.13279(13)
C32B C 0.72899(13) 0.54593(15) 0.36721(13)
C32E C 0.95407(15) 0.72899(13) 0.13279(13)
C33E C 1.09134(14) 0.94894(13) 0.43041(15)
C33B C 0.94894(13) 0.40866(14) 0.06959(15)
C33G C 0.40866(14) 0.55106(13) 0.43041(15)
C34G C 0.3814(2) 0.49844(19) 0.4593(3)
C34B C 1.00156(19) 0.3814(2) 0.0407(3)
C34E C 1.1186(2) 1.00156(19) 0.4593(3)
C35G C 0.34803(12) 0.71324(12) 0.43306(13)
C35B C 0.78676(12) 0.34803(12) 0.06694(13)
C35E C 1.15197(12) 0.78676(12) 0.43306(13)
C36G C 0.30240(13) 0.66938(16) 0.41592(19)
C36B C 0.83062(16) 0.30240(13) 0.08408(19)
C36E C 1.19760(13) 0.83062(16) 0.41592(19)
C37G C 0.43173(11) 0.83851(11) 0.32718(11)
C37B C 0.66149(11) 0.43173(11) 0.17282(11)
C37E C 1.06827(11) 0.66149(11) 0.32718(11)
C38G C 0.37370(14) 0.86232(15) 0.34758(15)
C38B C 0.63768(15) 0.37370(14) 0.15242(15)
C38E C 1.12630(14) 0.63768(15) 0.34758(15)
C39G C 0.57762(11) 0.82863(10) 0.38956(11)
C39B C 0.67137(10) 0.57762(11) 0.11044(11)
C39E C 0.92238(11) 0.67137(10) 0.38956(11)
C40G C 0.63240(12) 0.86426(13) 0.39822(13)
C40B C 0.63574(13) 0.63240(12) 0.10178(13)
C40E C 0.86760(12) 0.63574(13) 0.39822(13)
H1G H 0.3782 0.7083 0.3033
H1B H 0.7917 0.3782 0.1967
H1E H 1.1218 0.7917 0.3033
H2G H 0.4099 0.7142 0.2419
H2B H 0.7858 0.4099 0.2581
H2E H 1.0901 0.7858 0.2419
H3G H 0.3630 0.6056 0.2822
H3B H 0.8944 0.3630 0.2178
H3E H 1.1370 0.8944 0.2822
H4G H 0.3260 0.6493 0.2425
H4B H 0.8507 0.3260 0.2575
H4E H 1.1740 0.8507 0.2425
H5G H 0.3998 0.6372 0.1681
H5B H 0.8628 0.3998 0.3319
H5E H 1.1002 0.8628 0.1681
H6G H 0.3613 0.5801 0.1804
H6B H 0.9199 0.3613 0.3196
H6E H 1.1387 0.9199 0.1804
H7G H 0.5591 0.5373 0.1250
H7B H 0.9627 0.5591 0.3750
H7E H 0.9409 0.9627 0.1250
H8G H 0.5340 0.4946 0.1742
H8B H 1.0054 0.5340 0.3258
H8E H 0.9660 1.0054 0.1742
H9G H 0.4518 0.5308 0.1289
H9B H 0.9692 0.4518 0.3711
H9E H 1.0482 0.9692 0.1289
H10G H 0.4773 0.5963 0.1280
H10B H 0.9037 0.4773 0.3720
H10E H 1.0227 0.9037 0.1280
H11G H 0.4730 0.4981 0.2487
H11B H 1.0019 0.4730 0.2513
H11E H 1.0270 1.0019 0.2487
H12G H 0.4177 0.5281 0.2788
H12B H 0.9719 0.4177 0.2212
H12E H 1.0823 0.9719 0.2788
H13G H 0.4567 0.4290 0.1661
H13B H 1.0710 0.4567 0.3339
H13E H 1.0433 1.0710 0.1661
H14G H 0.3948 0.3591 0.1251
H14B H 1.1409 0.3948 0.3749
H14E H 1.1052 1.1409 0.1251
H15G H 0.2951 0.3595 0.1462
H15B H 1.1405 0.2951 0.3538
H15E H 1.2049 1.1405 0.1462
H16G H 0.2571 0.4305 0.2087
H16B H 1.0695 0.2571 0.2913
H16E H 1.2429 1.0695 0.2087
H17G H 0.3191 0.5004 0.2506
H17B H 0.9996 0.3191 0.2494
H17E H 1.1809 0.9996 0.2506
H18G H 0.5873 0.6460 0.4078
H18B H 0.8540 0.5873 0.0922
H18E H 0.9127 0.8540 0.4078
H19G H 0.6000 0.7136 0.4206
H19B H 0.7864 0.6000 0.0794
H19E H 0.9000 0.7864 0.4206
H20G H 0.5359 0.6405 0.4983
H20B H 0.8595 0.5359 0.0017
H20E H 0.9641 0.8595 0.4983
H21G H 0.6046 0.6520 0.5049
H21B H 0.8480 0.6046 -0.0049
H21E H 0.8954 0.8480 0.5049
H22G H 0.5809 0.7563 0.5165
H22B H 0.7437 0.5809 -0.0165
H22E H 0.9191 0.7437 0.5165
H23G H 0.5635 0.7150 0.5696
H23B H 0.7850 0.5635 -0.0696
H23E H 0.9365 0.7850 0.5696
H24E H 1.0693 0.6257 0.5479
H24B H 0.6257 0.4307 -0.0479
H24G H 0.4307 0.8743 0.5479
H25E H 1.1019 0.6867 0.5601
H25B H 0.6867 0.3981 -0.0601
H25G H 0.3981 0.8133 0.5601
H26E H 1.0083 0.6998 0.5948
H26B H 0.6998 0.4917 -0.0948
H26G H 0.4917 0.8002 0.5948
H27E H 0.9796 0.6706 0.5385
H27B H 0.6706 0.5204 -0.0385
H27G H 0.5204 0.8294 0.5385
H28E H 1.0898 0.7818 0.5461
H28B H 0.7818 0.4102 -0.0461
H28G H 0.4102 0.7182 0.5461
H29E H 1.0478 0.8348 0.5285
H29B H 0.8348 0.4522 -0.0285
H29G H 0.4522 0.6652 0.5285
H30E H 0.9819 0.8787 0.6019
H30B H 0.8787 0.5181 -0.1019
H30G H 0.5181 0.6213 0.6019
H31E H 0.9653 0.8995 0.6996
H31B H 0.8995 0.5347 -0.1996
H31G H 0.5347 0.6005 0.6996
H32E H 1.0148 0.8463 0.7711
H32B H 0.8463 0.4852 -0.2711
H32G H 0.4852 0.6537 0.7711
H33E H 1.0793 0.7725 0.7450
H33B H 0.7725 0.4207 -0.2450
H33G H 0.4207 0.7275 0.7450
H34E H 1.0947 0.7497 0.6479
H34B H 0.7497 0.4053 -0.1479
H34G H 0.4053 0.7503 0.6479
H35G H 0.5141 0.4774 0.3989
H35B H 1.0226 0.5141 0.1011
H35E H 0.9859 1.0226 0.3989
H36G H 0.5824 0.4838 0.4128
H36B H 1.0162 0.5824 0.0872
H36E H 0.9176 1.0162 0.4128
H37G H 0.5376 0.5337 0.4331
H37B H 0.9663 0.5376 0.0669
H37E H 0.9624 0.9663 0.4331
H38G H 0.6727 0.7206 0.3548
H38B H 0.7794 0.6727 0.1452
H38E H 0.8273 0.7794 0.3548
H39G H 0.7143 0.7154 0.2993
H39B H 0.7846 0.7143 0.2007
H39E H 0.7857 0.7846 0.2993
H40G H 0.6588 0.7584 0.2981
H40B H 0.7416 0.6588 0.2019
H40E H 0.8412 0.7416 0.2981
H41G H 0.5888 0.7726 0.1334
H41B H 0.7274 0.5888 0.3666
H41E H 0.9112 0.7274 0.1334
H42G H 0.5329 0.7485 0.0991
H42B H 0.7515 0.5329 0.4009
H42E H 0.9671 0.7515 0.0991
H43G H 0.5302 0.8109 0.1305
H43B H 0.6891 0.5302 0.3695
H43E H 0.9698 0.6891 0.1305
H44G H 0.3512 0.5114 0.4865
H44B H 0.9886 0.3512 0.0135
H44E H 1.1488 0.9886 0.4865
H45G H 0.3637 0.4731 0.4299
H45B H 1.0269 0.3637 0.0701
H45E H 1.1363 1.0269 0.4299
H46G H 0.4117 0.4766 0.4802
H46B H 1.0234 0.4117 0.0198
H46E H 1.0883 1.0234 0.4802
H47G H 0.2999 0.6387 0.4454
H47B H 0.8613 0.2999 0.0546
H47E H 1.2001 0.8613 0.4454
H48G H 0.2644 0.6890 0.4124
H48B H 0.8110 0.2644 0.0876
H48E H 1.2356 0.8110 0.4124
H49G H 0.3131 0.6518 0.3787
H49B H 0.8482 0.3131 0.1213
H49E H 1.1869 0.8482 0.3787
H50G H 0.3804 0.8917 0.3777
H50B H 0.6083 0.3804 0.1223
H50E H 1.1196 0.6083 0.3777
H51G H 0.3531 0.8804 0.3150
H51B H 0.6196 0.3531 0.1850
H51E H 1.1469 0.6196 0.3150
H52G H 0.3499 0.8303 0.3633
H52B H 0.6697 0.3499 0.1367
H52E H 1.1501 0.6697 0.3633
H53G H 0.6323 0.8812 0.4371
H53B H 0.6188 0.6323 0.0629
H53E H 0.8677 0.6188 0.4371
H54G H 0.6668 0.8390 0.3937
H54B H 0.6610 0.6668 0.1063
H54E H 0.8332 0.6610 0.3937
H55G H 0.6338 0.8958 0.3695
H55B H 0.6042 0.6338 0.1305
H55E H 0.8662 0.6042 0.3695
H56E H 1.120(3) 0.695(3) 0.475(3)
H56B H 0.695(3) 0.380(3) 0.025(3)
H56G H 0.380(3) 0.805(3) 0.475(3)
O19 O 0.50201(15) 0.33606(15) 0.07071(14)
C41 C 0.5185(3) 0.2772(3) 0.0709(3)
C42 C 0.5130(3) 0.2522(3) 0.1305(3)
C43 C 0.5097(3) 0.3625(3) 0.0159(3)
C44 C 0.4930(4) 0.4263(4) 0.0194(4)
O20 O 0.2500 0.2500 0.1726(5)
C47 C 0.1564(6) 0.3121(6) 0.1564(6)
C48 C 0.2018(8) 0.2833(8) 0.2049(8)
C47B C 0.3436(6) 0.1879(6) 0.1564(6)
C48B C 0.2982(8) 0.2167(8) 0.2049(8)
C1 C 0.2500 0.7500 0.0676(5)
C45 C 0.2500 0.7500 0.1295(5)
N3 N 0.2500 0.7500 0.1853(8)
C2 C 0.1061(2) 0.6703(2) 0.16696(19)
C46 C 0.1052(3) 0.6816(4) 0.1092(3)
N4 N 0.1034(5) 0.6892(5) 0.0594(5)
loop_
_geom_bond_atom_site_label_1
_geom_bond_atom_site_label_2
_geom_bond_site_symmetry_1
_geom_bond_site_symmetry_2
Co1 O1 1_555 1_555
Co2 O1 1_555 1_555
Co3 O1 1_555 1_555
Co4 O3 1_555 1_555
Co5 O2 1_555 1_555
O1 C3 1_555 1_555
O2 Co1 1_555 1_555
O3 Co2 1_555 1_555
O4 Co4 1_555 1_555
O5 Co1 1_555 1_555
O6 Co5 1_555 1_555
O7 Co1 1_555 1_555
O8 Co5 1_555 1_555
O9 Co1 1_555 1_555
O10 Co3 1_555 1_555
O11 Co2 1_555 1_555
O12 Co2 1_555 1_555
O13 Co2 1_555 1_555
O14 C35 1_555 1_555
O15 Co3 1_555 1_555
O16 Co5 1_555 1_555
O17 Co3 1_555 1_555
O18 Co4 1_555 1_555
O19 C41 1_555 1_555
O20 C48 1_555 1_555
N1 Co1 1_555 1_555
N2 Co4 1_555 1_555
C1 C45 1_555 1_555
C2 C46 1_555 1_555
C3 C4 1_555 1_555
C4 C5 1_555 1_555
C5 N1 1_555 1_555
C6 O2 1_555 1_555
C7 N1 1_555 1_555
C8 N1 1_555 1_555
C9 C8 1_555 1_555
C10 C9 1_555 1_555
C11 C10 1_555 1_555
C12 C11 1_555 1_555
C13 C12 1_555 1_555
C14 C9 1_555 1_555
C15 O3 1_555 1_555
C16 C15 1_555 1_555
C17 N2 1_555 1_555
C18 O4 1_555 1_555
C19 N2 1_555 1_555
C20 N2 1_555 1_555
C21 C20 1_555 1_555
C22 C21 1_555 1_555
C23 C22 1_555 1_555
C24 C23 1_555 1_555
C25 C24 1_555 1_555
C26 C21 1_555 1_555
C27 O5 1_555 1_555
C28 C27 1_555 1_555
C29 O7 1_555 1_555
C30 C29 1_555 1_555
C31 O9 1_555 1_555
C32 C31 1_555 1_555
C33 O11 1_555 1_555
C34 C33 1_555 1_555
C35 O13 1_555 1_555
C36 C35 1_555 1_555
C37 O15 1_555 1_555
C38 C37 1_555 1_555
C39 O17 1_555 1_555
C40 C39 1_555 1_555
C41 C42 1_555 1_555
C43 O19 1_555 1_555
C44 C43 1_555 1_555
C45 N3 1_555 1_555
C46 N4 1_555 1_555
C47 C48 1_555 1_555
H1 C3 1_555 1_555
H2 C3 1_555 1_555
H3 C4 1_555 1_555
H4 C4 1_555 1_555
H5 C5 1_555 1_555
H6 C5 1_555 1_555
H7 C6 1_555 1_555
H8 C6 1_555 1_555
H9 C7 1_555 1_555
H10 C7 1_555 1_555
H11 C8 1_555 1_555
H12 C8 1_555 1_555
H13 C10 1_555 1_555
H14 C11 1_555 1_555
H15 C12 1_555 1_555
H16 C13 1_555 1_555
H17 C14 1_555 1_555
H18 C15 1_555 1_555
H19 C15 1_555 1_555
H20 C16 1_555 1_555
H21 C16 1_555 1_555
H22 C17 1_555 1_555
H23 C17 1_555 1_555
H24 C18 1_555 1_555
H25 C18 1_555 1_555
H26 C19 1_555 1_555
H27 C19 1_555 1_555
H28 C20 1_555 1_555
H29 C20 1_555 1_555
H30 C22 1_555 1_555
H31 C23 1_555 1_555
H32 C24 1_555 1_555
H33 C25 1_555 1_555
H34 C26 1_555 1_555
H35 C28 1_555 1_555
H36 C28 1_555 1_555
H37 C28 1_555 1_555
H38 C30 1_555 1_555
H39 C30 1_555 1_555
H40 C30 1_555 1_555
H41 C32 1_555 1_555
H42 C32 1_555 1_555
H43 C32 1_555 1_555
H44 C34 1_555 1_555
H45 C34 1_555 1_555
H46 C34 1_555 1_555
H47 C36 1_555 1_555
H48 C36 1_555 1_555
H49 C36 1_555 1_555
H50 C38 1_555 1_555
H51 C38 1_555 1_555
H52 C38 1_555 1_555
H53 C40 1_555 1_555
H54 C40 1_555 1_555
H55 C40 1_555 1_555
H56 O4 1_555 1_555
Co1E O1E 1_555 1_555
Co1B O1B 1_555 1_555
Co1G O1G 1_555 1_555
Co2E O1E 1_555 1_555
Co2B O1B 1_555 1_555
Co2G O1G 1_555 1_555
Co3E O1E 1_555 1_555
Co3B O1B 1_555 1_555
Co3G O1G 1_555 1_555
Co4E O3E 1_555 1_555
Co4B O3B 1_555 1_555
Co4G O3G 1_555 1_555
Co5E O10 1_555 1_555
Co5B O2B 1_555 1_555
Co5G O2G 1_555 1_555
O1E C3E 1_555 1_555
O1B C3B 1_555 1_555
O1G C3G 1_555 1_555
O2E Co1E 1_555 1_555
O2B Co1B 1_555 1_555
O2G Co1G 1_555 1_555
O3E Co2E 1_555 1_555
O3B Co2B 1_555 1_555
O3G Co2G 1_555 1_555
O4E Co4E 1_555 1_555
O4B Co4B 1_555 1_555
O4G Co4G 1_555 1_555
O5E Co1E 1_555 1_555
O5B Co1B 1_555 1_555
O5G Co1G 1_555 1_555
O6G Co5G 1_555 1_555
O6B Co5B 1_555 1_555
O6E Co5E 1_555 1_555
O7E Co1E 1_555 1_555
O7B Co1B 1_555 1_555
O7G Co1G 1_555 1_555
O8G Co5G 1_555 1_555
O8B Co5B 1_555 1_555
O8E Co5E 1_555 1_555
O9E Co1E 1_555 1_555
O9B Co1B 1_555 1_555
O9G Co1G 1_555 1_555
O10E Co3E 1_555 1_555
O10B Co3B 1_555 1_555
O10G Co5 1_555 1_555
O11E Co2E 1_555 1_555
O11B Co2B 1_555 1_555
O11G Co2G 1_555 1_555
O12E Co2E 1_555 1_555
O12B Co2B 1_555 1_555
O12G Co2G 1_555 1_555
O13E Co2E 1_555 1_555
O13B Co2B 1_555 1_555
O13G Co2G 1_555 1_555
O14G C35G 1_555 1_555
O14B C35B 1_555 1_555
O14E C35E 1_555 1_555
O15E Co3E 1_555 1_555
O15B Co3B 1_555 1_555
O15G Co3G 1_555 1_555
O16G Co5G 1_555 1_555
O16B Co5B 1_555 1_555
O16E C37 1_555 1_555
O17E Co3E 1_555 1_555
O17B Co3B 1_555 1_555
O17G Co5 1_555 1_555
O18G Co4G 1_555 1_555
O18B Co4B 1_555 1_555
O18E Co4E 1_555 1_555
N1E Co1E 1_555 1_555
N1B Co1B 1_555 1_555
N1G Co1G 1_555 1_555
N2E Co4E 1_555 1_555
N2B Co4B 1_555 1_555
N2G Co4G 1_555 1_555
C3E C4E 1_555 1_555
C3B C4B 1_555 1_555
C3G C4G 1_555 1_555
C4E C5E 1_555 1_555
C4B C5B 1_555 1_555
C4G C5G 1_555 1_555
C5E N1E 1_555 1_555
C5B N1B 1_555 1_555
C5G N1G 1_555 1_555
C6G O2G 1_555 1_555
C6B O2B 1_555 1_555
C6E O2E 1_555 1_555
C7G N1G 1_555 1_555
C7B N1B 1_555 1_555
C7E N1E 1_555 1_555
C8G N1G 1_555 1_555
C8B N1B 1_555 1_555
C8E N1E 1_555 1_555
C9G C8G 1_555 1_555
C9B C8B 1_555 1_555
C9E C8E 1_555 1_555
C10G C9G 1_555 1_555
C10B C9B 1_555 1_555
C10E C9E 1_555 1_555
C11G C10G 1_555 1_555
C11B C10B 1_555 1_555
C11E C10E 1_555 1_555
C12G C11G 1_555 1_555
C12B C11B 1_555 1_555
C12E C11E 1_555 1_555
C13G C12G 1_555 1_555
C13B C12B 1_555 1_555
C13E C12E 1_555 1_555
C14G C9G 1_555 1_555
C14B C9B 1_555 1_555
C14E C9E 1_555 1_555
C15E O3E 1_555 1_555
C15B O3B 1_555 1_555
C15G O3G 1_555 1_555
C16E C15E 1_555 1_555
C16B C15B 1_555 1_555
C16G C15G 1_555 1_555
C17E N2E 1_555 1_555
C17B N2B 1_555 1_555
C17G N2G 1_555 1_555
C18E O4E 1_555 1_555
C18B O4B 1_555 1_555
C18G O4G 1_555 1_555
C19E N2E 1_555 1_555
C19B N2B 1_555 1_555
C19G N2G 1_555 1_555
C20E N2E 1_555 1_555
C20B N2B 1_555 1_555
C20G N2G 1_555 1_555
C21E C20E 1_555 1_555
C21B C20B 1_555 1_555
C21G C20G 1_555 1_555
C22E C21E 1_555 1_555
C22B C21B 1_555 1_555
C22G C21G 1_555 1_555
C23E C22E 1_555 1_555
C23B C22B 1_555 1_555
C23G C22G 1_555 1_555
C24E C23E 1_555 1_555
C24B C23B 1_555 1_555
C24G C23G 1_555 1_555
C25E C24E 1_555 1_555
C25B C24B 1_555 1_555
C25G C24G 1_555 1_555
C26E C21E 1_555 1_555
C26B C21B 1_555 1_555
C26G C21G 1_555 1_555
C27G O5G 1_555 1_555
C27B O5B 1_555 1_555
C27E O5E 1_555 1_555
C28G C27G 1_555 1_555
C28B C27B 1_555 1_555
C28E C27E 1_555 1_555
C29G O7G 1_555 1_555
C29B O7B 1_555 1_555
C29E O7E 1_555 1_555
C30G C29G 1_555 1_555
C30B C29B 1_555 1_555
C30E C29E 1_555 1_555
C31E O9E 1_555 1_555
C31B O9B 1_555 1_555
C31G O9G 1_555 1_555
C32G C31G 1_555 1_555
C32B C31B 1_555 1_555
C32E C31E 1_555 1_555
C33E O11E 1_555 1_555
C33B O11B 1_555 1_555
C33G O11G 1_555 1_555
C34G C33G 1_555 1_555
C34B C33B 1_555 1_555
C34E C33E 1_555 1_555
C35G O13G 1_555 1_555
C35B O13B 1_555 1_555
C35E O13E 1_555 1_555
C36G C35G 1_555 1_555
C36B C35B 1_555 1_555
C36E C35E 1_555 1_555
C37G O16 1_555 1_555
C37B O15B 1_555 1_555
C37E O15E 1_555 1_555
C38G C37G 1_555 1_555
C38B C37B 1_555 1_555
C38E C37E 1_555 1_555
C39G O17G 1_555 1_555
C39B O17B 1_555 1_555
C39E O17E 1_555 1_555
C40G C39G 1_555 1_555
C40B C39B 1_555 1_555
C40E C39E 1_555 1_555
C47B C48B 1_555 1_555
C48B O20 1_555 1_555
H1G C3G 1_555 1_555
H1B C3B 1_555 1_555
H1E C3E 1_555 1_555
H2G C3G 1_555 1_555
H2B C3B 1_555 1_555
H2E C3E 1_555 1_555
H3G C4G 1_555 1_555
H3B C4B 1_555 1_555
H3E C4E 1_555 1_555
H4G C4G 1_555 1_555
H4B C4B 1_555 1_555
H4E C4E 1_555 1_555
H5G C5G 1_555 1_555
H5B C5B 1_555 1_555
H5E C5E 1_555 1_555
H6G C5G 1_555 1_555
H6B C5B 1_555 1_555
H6E C5E 1_555 1_555
H7G C6G 1_555 1_555
H7B C6B 1_555 1_555
H7E C6E 1_555 1_555
H8G C6G 1_555 1_555
H8B C6B 1_555 1_555
H8E C6E 1_555 1_555
H9G C7G 1_555 1_555
H9B C7B 1_555 1_555
H9E C7E 1_555 1_555
H10G C7G 1_555 1_555
H10B C7B 1_555 1_555
H10E C7E 1_555 1_555
H11G C8G 1_555 1_555
H11B C8B 1_555 1_555
H11E C8E 1_555 1_555
H12G C8G 1_555 1_555
H12B C8B 1_555 1_555
H12E C8E 1_555 1_555
H13G C10G 1_555 1_555
H13B C10B 1_555 1_555
H13E C10E 1_555 1_555
H14G C11G 1_555 1_555
H14B C11B 1_555 1_555
H14E C11E 1_555 1_555
H15G C12G 1_555 1_555
H15B C12B 1_555 1_555
H15E C12E 1_555 1_555
H16G C13G 1_555 1_555
H16B C13B 1_555 1_555
H16E C13E 1_555 1_555
H17G C14G 1_555 1_555
H17B C14B 1_555 1_555
H17E C14E 1_555 1_555
H18G C15G 1_555 1_555
H18B C15B 1_555 1_555
H18E C15E 1_555 1_555
H19G C15G 1_555 1_555
H19B C15B 1_555 1_555
H19E C15E 1_555 1_555
H20G C16G 1_555 1_555
H20B C16B 1_555 1_555
H20E C16E 1_555 1_555
H21G C16G 1_555 1_555
H21B C16B 1_555 1_555
H21E C16E 1_555 1_555
H22G C17G 1_555 1_555
H22B C17B 1_555 1_555
H22E C17E 1_555 1_555
H23G C17G 1_555 1_555
H23B C17B 1_555 1_555
H23E C17E 1_555 1_555
H24E C18E 1_555 1_555
H24B C18B 1_555 1_555
H24G C18G 1_555 1_555
H25E C18E 1_555 1_555
H25B C18B 1_555 1_555
H25G C18G 1_555 1_555
H26E C19E 1_555 1_555
H26B C19B 1_555 1_555
H26G C19G 1_555 1_555
H27E C19E 1_555 1_555
H27B C19B 1_555 1_555
H27G C19G 1_555 1_555
H28E C20E 1_555 1_555
H28B C20B 1_555 1_555
H28G C20G 1_555 1_555
H29E C20E 1_555 1_555
H29B C20B 1_555 1_555
H29G C20G 1_555 1_555
H30E C22E 1_555 1_555
H30B C22B 1_555 1_555
H30G C22G 1_555 1_555
H31E C23E 1_555 1_555
H31B C23B 1_555 1_555
H31G C23G 1_555 1_555
H32E C24E 1_555 1_555
H32B C24B 1_555 1_555
H32G C24G 1_555 1_555
H33E C25E 1_555 1_555
H33B C25B 1_555 1_555
H33G C25G 1_555 1_555
H34E C26E 1_555 1_555
H34B C26B 1_555 1_555
H34G C26G 1_555 1_555
H35G C28G 1_555 1_555
H35B C28B 1_555 1_555
H35E C28E 1_555 1_555
H36G C28G 1_555 1_555
H36B C28B 1_555 1_555
H36E C28E 1_555 1_555
H37G C28G 1_555 1_555
H37B C28B 1_555 1_555
H37E C28E 1_555 1_555
H38G C30G 1_555 1_555
H38B C30B 1_555 1_555
H38E C30E 1_555 1_555
H39G C30G 1_555 1_555
H39B C30B 1_555 1_555
H39E C30E 1_555 1_555
H40G C30G 1_555 1_555
H40B C30B 1_555 1_555
H40E C30E 1_555 1_555
H41G C32G 1_555 1_555
H41B C32B 1_555 1_555
H41E C32E 1_555 1_555
H42G C32G 1_555 1_555
H42B C32B 1_555 1_555
H42E C32E 1_555 1_555
H43G C32G 1_555 1_555
H43B C32B 1_555 1_555
H43E C32E 1_555 1_555
H44G C34G 1_555 1_555
H44B C34B 1_555 1_555
H44E C34E 1_555 1_555
H45G C34G 1_555 1_555
H45B C34B 1_555 1_555
H45E C34E 1_555 1_555
H46G C34G 1_555 1_555
H46B C34B 1_555 1_555
H46E C34E 1_555 1_555
H47G C36G 1_555 1_555
H47B C36B 1_555 1_555
H47E C36E 1_555 1_555
H48G C36G 1_555 1_555
H48B C36B 1_555 1_555
H48E C36E 1_555 1_555
H49G C36G 1_555 1_555
H49B C36B 1_555 1_555
H49E C36E 1_555 1_555
H50G C38G 1_555 1_555
H50B C38B 1_555 1_555
H50E C38E 1_555 1_555
H51G C38G 1_555 1_555
H51B C38B 1_555 1_555
H51E C38E 1_555 1_555
H52G C38G 1_555 1_555
H52B C38B 1_555 1_555
H52E C38E 1_555 1_555
H53G C40G 1_555 1_555
H53B C40B 1_555 1_555
H53E C40E 1_555 1_555
H54G C40G 1_555 1_555
H54B C40B 1_555 1_555
H54E C40E 1_555 1_555
H55G C40G 1_555 1_555
H55B C40B 1_555 1_555
H55E C40E 1_555 1_555
H56E O4E 1_555 1_555
H56B O4B 1_555 1_555
H56G O4G 1_555 1_555
Co2 O5 1_555 1_555
Co3 O3 1_555 1_555
Co3 O7 1_555 1_555
Co4 O13 1_555 1_555
Co4 O15 1_555 1_555
O6 C27 1_555 1_555
O8 C29 1_555 1_555
O10 C31 1_555 1_555
O12 C33 1_555 1_555
O17 Co5E 1_555 1_555
O18 C39 1_555 1_555
C6 C7 1_555 1_555
C13 C14 1_555 1_555
C16 C17 1_555 1_555
C18 C19 1_555 1_555
C25 C26 1_555 1_555
Co2E O5E 1_555 1_555
Co2B O5B 1_555 1_555
Co2G O5G 1_555 1_555
Co3E O3E 1_555 1_555
Co3E O7E 1_555 1_555
Co3B O3B 1_555 1_555
Co3B O7B 1_555 1_555
Co3G O3G 1_555 1_555
Co3G O7G 1_555 1_555
Co3G O10G 1_555 1_555
Co3G O17G 1_555 1_555
Co4E O13E 1_555 1_555
Co4E O15E 1_555 1_555
Co4B O13B 1_555 1_555
Co4B O15B 1_555 1_555
Co4G O13G 1_555 1_555
Co4G O15G 1_555 1_555
Co5E O2E 1_555 1_555
Co5E O16E 1_555 1_555
Co5B O10E 1_555 1_555
Co5B O17E 1_555 1_555
Co5G O10B 1_555 1_555
Co5G O17B 1_555 1_555
O6G C27G 1_555 1_555
O6B C27B 1_555 1_555
O6E C27E 1_555 1_555
O8G C29G 1_555 1_555
O8B C29B 1_555 1_555
O8E C29E 1_555 1_555
O10E C31E 1_555 1_555
O10B C31B 1_555 1_555
O10G C31G 1_555 1_555
O12E C33E 1_555 1_555
O12B C33B 1_555 1_555
O12G C33G 1_555 1_555
O15G C37G 1_555 1_555
O16G C37B 1_555 1_555
O16B C37E 1_555 1_555
O18G C39G 1_555 1_555
O18B C39B 1_555 1_555
O18E C39E 1_555 1_555
C6G C7G 1_555 1_555
C6B C7B 1_555 1_555
C6E C7E 1_555 1_555
C13G C14G 1_555 1_555
C13B C14B 1_555 1_555
C13E C14E 1_555 1_555
C16E C17E 1_555 1_555
C16B C17B 1_555 1_555
C16G C17G 1_555 1_555
C18E C19E 1_555 1_555
C18B C19B 1_555 1_555
C18G C19G 1_555 1_555
C25E C26E 1_555 1_555
C25B C26B 1_555 1_555
C25G C26G 1_555 1_555

#END
