# generated using pymatgen
data_Cu2Ni3H52C44(NO10)2
_symmetry_space_group_name_H-M   'P 1'
_cell_length_a   16.83000000
_cell_length_b   29.06928749
_cell_length_c   29.06928749
_cell_angle_alpha   85.19302677
_cell_angle_beta   73.17312640
_cell_angle_gamma   73.17312640
_symmetry_Int_Tables_number   1
_chemical_formula_structural   Cu2Ni3H52C44(NO10)2
_chemical_formula_sum   'Cu16 Ni24 H416 C352 N16 O160'
_cell_volume   13029.97533750
_cell_formula_units_Z   8
loop_
 _symmetry_equiv_pos_site_id
 _symmetry_equiv_pos_as_xyz
  1  'x, y, z'
loop_
 _atom_site_type_symbol
 _atom_site_label
 _atom_site_symmetry_multiplicity
 _atom_site_fract_x
 _atom_site_fract_y
 _atom_site_fract_z
 _atom_site_occupancy
  C  C1  1  0.987400  0.546000  0.807400  1
  C  C2  1  0.794800  0.692600  0.546000  1
  C  C3  1  0.340800  0.954000  0.692600  1
  C  C4  1  0.033400  0.807400  0.954000  1
  C  C5  1  0.012600  0.454000  0.192600  1
  C  C6  1  0.205200  0.307400  0.454000  1
  C  C7  1  0.659200  0.046000  0.307400  1
  C  C8  1  0.966600  0.192600  0.046000  1
  C  C9  1  0.054400  0.521500  0.786300  1
  C  C10  1  0.840700  0.713700  0.521500  1
  C  C11  1  0.362200  0.978500  0.713700  1
  C  C12  1  0.075900  0.786300  0.978500  1
  C  C13  1  0.945600  0.478500  0.213700  1
  C  C14  1  0.159300  0.286300  0.478500  1
  C  C15  1  0.637800  0.021500  0.286300  1
  C  C16  1  0.924100  0.213700  0.021500  1
  C  C17  1  0.820700  0.577800  0.835800  1
  C  C18  1  0.656500  0.664200  0.577800  1
  C  C19  1  0.234300  0.922200  0.664200  1
  C  C20  1  0.898500  0.835800  0.922200  1
  C  C21  1  0.179300  0.422200  0.164200  1
  C  C22  1  0.343500  0.335800  0.422200  1
  C  C23  1  0.765700  0.077800  0.335800  1
  C  C24  1  0.101500  0.164200  0.077800  1
  C  C25  1  0.759900  0.563600  0.833400  1
  C  C26  1  0.593300  0.666600  0.563600  1
  C  C27  1  0.156900  0.936400  0.666600  1
  C  C28  1  0.823500  0.833400  0.936400  1
  C  C29  1  0.240100  0.436400  0.166600  1
  C  C30  1  0.406700  0.333400  0.436400  1
  C  C31  1  0.843100  0.063600  0.333400  1
  C  C32  1  0.176500  0.166600  0.063600  1
  C  C33  1  0.050000  0.211400  0.709400  1
  C  C34  1  0.759400  0.790600  0.211400  1
  C  C35  1  0.970800  0.288600  0.790600  1
  C  C36  1  0.761400  0.709400  0.288600  1
  C  C37  1  0.950000  0.788600  0.290600  1
  C  C38  1  0.240600  0.209400  0.788600  1
  C  C39  1  0.029200  0.711400  0.209400  1
  C  C40  1  0.238600  0.290600  0.711400  1
  C  C41  1  0.083100  0.208400  0.661400  1
  C  C42  1  0.744500  0.838600  0.208400  1
  C  C43  1  0.952900  0.291600  0.838600  1
  C  C44  1  0.791500  0.661400  0.291600  1
  C  C45  1  0.916900  0.791600  0.338600  1
  C  C46  1  0.255500  0.161400  0.791600  1
  C  C47  1  0.047100  0.708400  0.161400  1
  C  C48  1  0.208500  0.338600  0.708400  1
  C  C49  1  0.647110  0.471470  0.572110  1.0
  C  C50  1  0.219220  0.927890  0.471470  1.0
  C  C51  1  0.690690  0.028530  0.927890  1.0
  C  C52  1  0.618580  0.572110  0.028530  1.0
  C  C53  1  0.352890  0.528530  0.427890  1.0
  C  C54  1  0.780780  0.072110  0.528530  1.0
  C  C55  1  0.309310  0.971470  0.072110  1.0
  C  C56  1  0.381420  0.427890  0.971470  1.0
  C  C57  1  0.631790  0.478180  0.523040  1.0
  C  C58  1  0.154830  0.976960  0.478180  1.0
  C  C59  1  0.633010  0.021820  0.976960  1.0
  C  C60  1  0.609970  0.523040  0.021820  1.0
  C  C61  1  0.368210  0.521820  0.476960  1.0
  C  C62  1  0.845170  0.023040  0.521820  1.0
  C  C63  1  0.366990  0.978180  0.023040  1.0
  C  C64  1  0.390030  0.476960  0.978180  1.0
  C  C65  1  0.574250  0.448980  0.515320  1.0
  C  C66  1  0.089570  0.984680  0.448980  1.0
  C  C67  1  0.538550  0.051020  0.984680  1.0
  C  C68  1  0.523230  0.515320  0.051020  1.0
  C  C69  1  0.425750  0.551020  0.484680  1.0
  C  C70  1  0.910430  0.015320  0.551020  1.0
  C  C71  1  0.461450  0.948980  0.015320  1.0
  C  C72  1  0.476770  0.484680  0.948980  1.0
  C  C73  1  0.590190  0.317410  0.514810  1.0
  C  C74  1  0.105000  0.985190  0.317410  1.0
  C  C75  1  0.422410  0.182590  0.985190  1.0
  C  C76  1  0.407600  0.514810  0.182590  1.0
  C  C77  1  0.409810  0.682590  0.485190  1.0
  C  C78  1  0.895000  0.014810  0.682590  1.0
  C  C79  1  0.577590  0.817410  0.014810  1.0
  C  C80  1  0.592400  0.485190  0.817410  1.0
  C  C81  1  0.552070  0.371160  0.510900  1.0
  C  C82  1  0.062970  0.989100  0.371160  1.0
  C  C83  1  0.434130  0.128840  0.989100  1.0
  C  C84  1  0.423230  0.510900  0.128840  1.0
  C  C85  1  0.447930  0.628840  0.489100  1.0
  C  C86  1  0.937030  0.010900  0.628840  1.0
  C  C87  1  0.565870  0.871160  0.010900  1.0
  C  C88  1  0.576770  0.489100  0.871160  1.0
  C  C89  1  0.686910  0.386930  0.460450  1.0
  C  C90  1  0.147360  0.039550  0.386930  1.0
  C  C91  1  0.534290  0.113070  0.039550  1.0
  C  C92  1  0.573840  0.460450  0.113070  1.0
  C  C93  1  0.313090  0.613070  0.539550  1.0
  C  C94  1  0.852640  0.960450  0.613070  1.0
  C  C95  1  0.465710  0.886930  0.960450  1.0
  C  C96  1  0.426160  0.539550  0.886930  1.0
  C  C97  1  0.656890  0.405860  0.416760  1.0
  C  C98  1  0.073650  0.083240  0.405860  1.0
  C  C99  1  0.479510  0.094140  0.083240  1.0
  C  C100  1  0.562750  0.416760  0.094140  1.0
  C  C101  1  0.343110  0.594140  0.583240  1.0
  C  C102  1  0.926350  0.916760  0.594140  1.0
  C  C103  1  0.520490  0.905860  0.916760  1.0
  C  C104  1  0.437250  0.583240  0.905860  1.0
  C  C105  1  0.622680  0.380670  0.393770  1.0
  C  C106  1  0.016450  0.106230  0.380670  1.0
  C  C107  1  0.397120  0.119330  0.106230  1.0
  C  C108  1  0.503350  0.393770  0.119330  1.0
  C  C109  1  0.377320  0.619330  0.606230  1.0
  C  C110  1  0.983550  0.893770  0.619330  1.0
  C  C111  1  0.602880  0.880670  0.893770  1.0
  C  C112  1  0.496650  0.606230  0.880670  1.0
  C  C113  1  0.592900  0.398920  0.354080  1.0
  C  C114  1  0.946980  0.145920  0.398920  1.0
  C  C115  1  0.345900  0.101080  0.145920  1.0
  C  C116  1  0.491820  0.354080  0.101080  1.0
  C  C117  1  0.407100  0.601080  0.645920  1.0
  C  C118  1  0.053020  0.854080  0.601080  1.0
  C  C119  1  0.654100  0.898920  0.854080  1.0
  C  C120  1  0.508180  0.645920  0.898920  1.0
  C  C121  1  0.595200  0.444580  0.338220  1.0
  C  C122  1  0.933420  0.161780  0.444580  1.0
  C  C123  1  0.378000  0.055420  0.161780  1.0
  C  C124  1  0.539780  0.338220  0.055420  1.0
  C  C125  1  0.404800  0.555420  0.661780  1.0
  C  C126  1  0.066580  0.838220  0.555420  1.0
  C  C127  1  0.622000  0.944580  0.838220  1.0
  C  C128  1  0.460220  0.661780  0.944580  1.0
  C  C129  1  0.630870  0.469790  0.359670  1.0
  C  C130  1  0.990540  0.140330  0.469790  1.0
  C  C131  1  0.460330  0.030210  0.140330  1.0
  C  C132  1  0.600660  0.359670  0.030210  1.0
  C  C133  1  0.369130  0.530210  0.640330  1.0
  C  C134  1  0.009460  0.859670  0.530210  1.0
  C  C135  1  0.539670  0.969790  0.859670  1.0
  C  C136  1  0.399340  0.640330  0.969790  1.0
  C  C137  1  0.659450  0.451170  0.398730  1.0
  C  C138  1  0.058180  0.101270  0.451170  1.0
  C  C139  1  0.509350  0.048830  0.101270  1.0
  C  C140  1  0.610620  0.398730  0.048830  1.0
  C  C141  1  0.340550  0.548830  0.601270  1.0
  C  C142  1  0.941820  0.898730  0.548830  1.0
  C  C143  1  0.490650  0.951170  0.898730  1.0
  C  C144  1  0.389380  0.601270  0.951170  1.0
  C  C145  1  0.882480  0.345500  0.627340  1.0
  C  C146  1  0.509820  0.872660  0.345500  1.0
  C  C147  1  0.855320  0.154500  0.872660  1.0
  C  C148  1  0.727980  0.627340  0.154500  1.0
  C  C149  1  0.117520  0.654500  0.372660  1.0
  C  C150  1  0.490180  0.127340  0.654500  1.0
  C  C151  1  0.144680  0.845500  0.127340  1.0
  C  C152  1  0.272020  0.372660  0.845500  1.0
  C  C153  1  0.976970  0.342800  0.617260  1.0
  C  C154  1  0.594230  0.882740  0.342800  1.0
  C  C155  1  0.937030  0.157200  0.882740  1.0
  C  C156  1  0.819770  0.617260  0.157200  1.0
  C  C157  1  0.023030  0.657200  0.382740  1.0
  C  C158  1  0.405770  0.117260  0.657200  1.0
  C  C159  1  0.062970  0.842800  0.117260  1.0
  C  C160  1  0.180230  0.382740  0.842800  1.0
  C  C161  1  0.995670  0.370010  0.653250  1.0
  C  C162  1  0.648920  0.846750  0.370010  1.0
  C  C163  1  0.018930  0.129990  0.846750  1.0
  C  C164  1  0.865680  0.653250  0.129990  1.0
  C  C165  1  0.004330  0.629990  0.346750  1.0
  C  C166  1  0.351080  0.153250  0.629990  1.0
  C  C167  1  0.981070  0.870010  0.153250  1.0
  C  C168  1  0.134320  0.346750  0.870010  1.0
  C  C169  1  0.931950  0.500110  0.690190  1.0
  C  C170  1  0.622140  0.809810  0.500110  1.0
  C  C171  1  0.122250  0.999890  0.809810  1.0
  C  C172  1  0.932060  0.690190  0.999890  1.0
  C  C173  1  0.068050  0.499890  0.309810  1.0
  C  C174  1  0.377860  0.190190  0.499890  1.0
  C  C175  1  0.877750  0.000110  0.190190  1.0
  C  C176  1  0.067940  0.309810  0.000110  1.0
  C  C177  1  0.976360  0.446820  0.688860  1.0
  C  C178  1  0.665220  0.811140  0.446820  1.0
  C  C179  1  0.112040  0.053180  0.811140  1.0
  C  C180  1  0.923180  0.688860  0.053180  1.0
  C  C181  1  0.023640  0.553180  0.311140  1.0
  C  C182  1  0.334780  0.188860  0.553180  1.0
  C  C183  1  0.887960  0.946820  0.188860  1.0
  C  C184  1  0.076820  0.311140  0.946820  1.0
  C  C185  1  0.024790  0.437930  0.600490  1.0
  C  C186  1  0.625280  0.899510  0.437930  1.0
  C  C187  1  0.063210  0.062070  0.899510  1.0
  C  C188  1  0.962720  0.600490  0.062070  1.0
  C  C189  1  0.975210  0.562070  0.399510  1.0
  C  C190  1  0.374720  0.100490  0.562070  1.0
  C  C191  1  0.936790  0.937930  0.100490  1.0
  C  C192  1  0.037280  0.399510  0.937930  1.0
  C  C193  1  0.121400  0.423040  0.594960  1.0
  C  C194  1  0.716360  0.905040  0.423040  1.0
  C  C195  1  0.139400  0.076960  0.905040  1.0
  C  C196  1  0.044440  0.594960  0.076960  1.0
  C  C197  1  0.878600  0.576960  0.405040  1.0
  C  C198  1  0.283640  0.094960  0.576960  1.0
  C  C199  1  0.860600  0.923040  0.094960  1.0
  C  C200  1  0.955560  0.405040  0.923040  1.0
  C  C201  1  0.173590  0.379190  0.573630  1.0
  C  C202  1  0.747220  0.926370  0.379190  1.0
  C  C203  1  0.126410  0.120810  0.926370  1.0
  C  C204  1  0.052780  0.573630  0.120810  1.0
  C  C205  1  0.826410  0.620810  0.426370  1.0
  C  C206  1  0.252780  0.073630  0.620810  1.0
  C  C207  1  0.873590  0.879190  0.073630  1.0
  C  C208  1  0.947220  0.426370  0.879190  1.0
  C  C209  1  0.261200  0.365830  0.567770  1.0
  C  C210  1  0.828970  0.932230  0.365830  1.0
  C  C211  1  0.194800  0.134170  0.932230  1.0
  C  C212  1  0.127030  0.567770  0.134170  1.0
  C  C213  1  0.738800  0.634170  0.432230  1.0
  C  C214  1  0.171030  0.067770  0.634170  1.0
  C  C215  1  0.805200  0.865830  0.067770  1.0
  C  C216  1  0.872970  0.432230  0.865830  1.0
  C  C217  1  0.298600  0.395200  0.583200  1.0
  C  C218  1  0.881800  0.916800  0.395200  1.0
  C  C219  1  0.277000  0.104800  0.916800  1.0
  C  C220  1  0.193800  0.583200  0.104800  1.0
  C  C221  1  0.701400  0.604800  0.416800  1.0
  C  C222  1  0.118200  0.083200  0.604800  1.0
  C  C223  1  0.723000  0.895200  0.083200  1.0
  C  C224  1  0.806200  0.416800  0.895200  1.0
  C  C225  1  0.250200  0.437840  0.603760  1.0
  C  C226  1  0.853960  0.896240  0.437840  1.0
  C  C227  1  0.291800  0.062160  0.896240  1.0
  C  C228  1  0.188040  0.603760  0.062160  1.0
  C  C229  1  0.749800  0.562160  0.396240  1.0
  C  C230  1  0.146040  0.103760  0.562160  1.0
  C  C231  1  0.708200  0.937840  0.103760  1.0
  C  C232  1  0.811960  0.396240  0.937840  1.0
  C  C233  1  0.162200  0.451080  0.608320  1.0
  C  C234  1  0.770520  0.891680  0.451080  1.0
  C  C235  1  0.221600  0.048920  0.891680  1.0
  C  C236  1  0.113280  0.608320  0.048920  1.0
  C  C237  1  0.837800  0.548920  0.391680  1.0
  C  C238  1  0.229480  0.108320  0.548920  1.0
  C  C239  1  0.778400  0.951080  0.108320  1.0
  C  C240  1  0.886720  0.391680  0.951080  1.0
  C  C241  1  0.839980  0.299500  0.513540  1.0
  C  C242  1  0.353520  0.986460  0.299500  1.0
  C  C243  1  0.653020  0.200500  0.986460  1.0
  C  C244  1  0.639480  0.513540  0.200500  1.0
  C  C245  1  0.160020  0.700500  0.486460  1.0
  C  C246  1  0.646480  0.013540  0.700500  1.0
  C  C247  1  0.346980  0.799500  0.013540  1.0
  C  C248  1  0.360520  0.486460  0.799500  1.0
  C  C249  1  0.929010  0.295090  0.481090  1.0
  C  C250  1  0.410100  0.018910  0.295090  1.0
  C  C251  1  0.705190  0.204910  0.018910  1.0
  C  C252  1  0.724100  0.481090  0.204910  1.0
  C  C253  1  0.070990  0.704910  0.518910  1.0
  C  C254  1  0.589900  0.981090  0.704910  1.0
  C  C255  1  0.294810  0.795090  0.981090  1.0
  C  C256  1  0.275900  0.518910  0.795090  1.0
  C  C257  1  0.706010  0.298460  0.647560  1.0
  C  C258  1  0.353570  0.852440  0.298460  1.0
  C  C259  1  0.652030  0.201540  0.852440  1.0
  C  C260  1  0.504470  0.647560  0.201540  1.0
  C  C261  1  0.293990  0.701540  0.352440  1.0
  C  C262  1  0.646430  0.147560  0.701540  1.0
  C  C263  1  0.347970  0.798460  0.147560  1.0
  C  C264  1  0.495530  0.352440  0.798460  1.0
  C  C265  1  0.716920  0.289710  0.697450  1.0
  C  C266  1  0.414370  0.802550  0.289710  1.0
  C  C267  1  0.704080  0.210290  0.802550  1.0
  C  C268  1  0.506630  0.697450  0.210290  1.0
  C  C269  1  0.283080  0.710290  0.302550  1.0
  C  C270  1  0.585630  0.197450  0.710290  1.0
  C  C271  1  0.295920  0.789710  0.197450  1.0
  C  C272  1  0.493370  0.302550  0.789710  1.0
  C  C273  1  0.517610  0.406090  0.656070  1.0
  C  C274  1  0.173680  0.843930  0.406090  1.0
  C  C275  1  0.579770  0.093910  0.843930  1.0
  C  C276  1  0.423700  0.656070  0.093910  1.0
  C  C277  1  0.482390  0.593910  0.343930  1.0
  C  C278  1  0.826320  0.156070  0.593910  1.0
  C  C279  1  0.420230  0.906090  0.156070  1.0
  C  C280  1  0.576300  0.343930  0.906090  1.0
  C  C281  1  0.429510  0.403500  0.686080  1.0
  C  C282  1  0.115590  0.813920  0.403500  1.0
  C  C283  1  0.519090  0.096500  0.813920  1.0
  C  C284  1  0.333010  0.686080  0.096500  1.0
  C  C285  1  0.570490  0.596500  0.313920  1.0
  C  C286  1  0.884410  0.186080  0.596500  1.0
  C  C287  1  0.480910  0.903500  0.186080  1.0
  C  C288  1  0.666990  0.313920  0.903500  1.0
  C  C289  1  0.753890  0.397140  0.737880  1.0
  C  C290  1  0.491770  0.762120  0.397140  1.0
  C  C291  1  0.888910  0.102860  0.762120  1.0
  C  C292  1  0.651030  0.737880  0.102860  1.0
  C  C293  1  0.246110  0.602860  0.262120  1.0
  C  C294  1  0.508230  0.237880  0.602860  1.0
  C  C295  1  0.111090  0.897140  0.237880  1.0
  C  C296  1  0.348970  0.262120  0.897140  1.0
  C  C297  1  0.750490  0.374610  0.786610  1.0
  C  C298  1  0.537100  0.713390  0.374610  1.0
  C  C299  1  0.911710  0.125390  0.713390  1.0
  C  C300  1  0.625100  0.786610  0.125390  1.0
  C  C301  1  0.249510  0.625390  0.213390  1.0
  C  C302  1  0.462900  0.286610  0.625390  1.0
  C  C303  1  0.088290  0.874610  0.286610  1.0
  C  C304  1  0.374900  0.213390  0.874610  1.0
  C  C305  1  0.846420  0.523390  0.574970  1.0
  C  C306  1  0.421390  0.925030  0.523390  1.0
  C  C307  1  0.944780  0.976610  0.925030  1.0
  C  C308  1  0.869810  0.574970  0.976610  1.0
  C  C309  1  0.153580  0.476610  0.425030  1.0
  C  C310  1  0.578610  0.074970  0.476610  1.0
  C  C311  1  0.055220  0.023390  0.074970  1.0
  C  C312  1  0.130190  0.425030  0.023390  1.0
  C  C313  1  0.849590  0.538540  0.523880  1.0
  C  C314  1  0.373470  0.976120  0.538540  1.0
  C  C315  1  0.912010  0.961460  0.976120  1.0
  C  C316  1  0.888130  0.523880  0.961460  1.0
  C  C317  1  0.150410  0.461460  0.476120  1.0
  C  C318  1  0.626530  0.023880  0.461460  1.0
  C  C319  1  0.087990  0.038540  0.023880  1.0
  C  C320  1  0.111870  0.476120  0.038540  1.0
  C  C321  1  0.670140  0.188310  0.493410  1.0
  C  C322  1  0.163550  0.006590  0.188310  1.0
  C  C323  1  0.351860  0.311690  0.006590  1.0
  C  C324  1  0.358450  0.493410  0.311690  1.0
  C  C325  1  0.329860  0.811690  0.506590  1.0
  C  C326  1  0.836450  0.993410  0.811690  1.0
  C  C327  1  0.648140  0.688310  0.993410  1.0
  C  C328  1  0.641550  0.506590  0.688310  1.0
  C  C329  1  0.673210  0.180770  0.442210  1.0
  C  C330  1  0.115420  0.057790  0.180770  1.0
  C  C331  1  0.296190  0.319230  0.057790  1.0
  C  C332  1  0.353980  0.442210  0.319230  1.0
  C  C333  1  0.326790  0.819230  0.557790  1.0
  C  C334  1  0.884580  0.942210  0.819230  1.0
  C  C335  1  0.703810  0.680770  0.942210  1.0
  C  C336  1  0.646020  0.557790  0.680770  1.0
  C  C337  1  0.922160  0.413260  0.477420  1.0
  C  C338  1  0.399580  0.022580  0.413260  1.0
  C  C339  1  0.812840  0.086740  0.022580  1.0
  C  C340  1  0.835420  0.477420  0.086740  1.0
  C  C341  1  0.077840  0.586740  0.522580  1.0
  C  C342  1  0.600420  0.977420  0.586740  1.0
  C  C343  1  0.187160  0.913260  0.977420  1.0
  C  C344  1  0.164580  0.522580  0.913260  1.0
  C  C345  1  0.983260  0.410630  0.428050  1.0
  C  C346  1  0.411310  0.071950  0.410630  1.0
  C  C347  1  0.821940  0.089370  0.071950  1.0
  C  C348  1  0.893890  0.428050  0.089370  1.0
  C  C349  1  0.016740  0.589370  0.571950  1.0
  C  C350  1  0.588690  0.928050  0.589370  1.0
  C  C351  1  0.178060  0.910630  0.928050  1.0
  C  C352  1  0.106110  0.571950  0.910630  1.0
  Cu  Cu353  1  0.824653  0.411158  0.553496  1.0
  Cu  Cu354  1  0.378149  0.946504  0.411158  1.0
  Cu  Cu355  1  0.789307  0.088842  0.946504  1.0
  Cu  Cu356  1  0.735811  0.553496  0.088842  1.0
  Cu  Cu357  1  0.175347  0.588842  0.446504  1.0
  Cu  Cu358  1  0.621851  0.053496  0.588842  1.0
  Cu  Cu359  1  0.210693  0.911158  0.053496  1.0
  Cu  Cu360  1  0.264189  0.446504  0.911158  1.0
  Cu  Cu361  1  0.703340  0.246370  0.562150  1.0
  Cu  Cu362  1  0.265490  0.937850  0.246370  1.0
  Cu  Cu363  1  0.511860  0.253630  0.937850  1.0
  Cu  Cu364  1  0.449710  0.562150  0.253630  1.0
  Cu  Cu365  1  0.296660  0.753630  0.437850  1.0
  Cu  Cu366  1  0.734510  0.062150  0.753630  1.0
  Cu  Cu367  1  0.488140  0.746370  0.062150  1.0
  Cu  Cu368  1  0.550290  0.437850  0.746370  1.0
  H  H369  1  0.590700  0.477600  0.596800  1.0
  H  H370  1  0.187500  0.903200  0.477600  1.0
  H  H371  1  0.665100  0.022400  0.903200  1.0
  H  H372  1  0.568300  0.596800  0.022400  1.0
  H  H373  1  0.409300  0.522400  0.403200  1.0
  H  H374  1  0.812500  0.096800  0.522400  1.0
  H  H375  1  0.334900  0.977600  0.096800  1.0
  H  H376  1  0.431700  0.403200  0.977600  1.0
  H  H377  1  0.675600  0.495500  0.576500  1.0
  H  H378  1  0.252100  0.923500  0.495500  1.0
  H  H379  1  0.747600  0.004500  0.923500  1.0
  H  H380  1  0.671100  0.576500  0.004500  1.0
  H  H381  1  0.324400  0.504500  0.423500  1.0
  H  H382  1  0.747900  0.076500  0.504500  1.0
  H  H383  1  0.252400  0.995500  0.076500  1.0
  H  H384  1  0.328900  0.423500  0.995500  1.0
  H  H385  1  0.604600  0.512600  0.518400  1.0
  H  H386  1  0.123000  0.981600  0.512600  1.0
  H  H387  1  0.635600  0.987400  0.981600  1.0
  H  H388  1  0.617200  0.518400  0.987400  1.0
  H  H389  1  0.395400  0.487400  0.481600  1.0
  H  H390  1  0.877000  0.018400  0.487400  1.0
  H  H391  1  0.364400  0.012600  0.018400  1.0
  H  H392  1  0.382800  0.481600  0.012600  1.0
  H  H393  1  0.688200  0.468800  0.498400  1.0
  H  H394  1  0.186600  0.001600  0.468800  1.0
  H  H395  1  0.655400  0.031200  0.001600  1.0
  H  H396  1  0.657000  0.498400  0.031200  1.0
  H  H397  1  0.311800  0.531200  0.501600  1.0
  H  H398  1  0.813400  0.998400  0.531200  1.0
  H  H399  1  0.344600  0.968800  0.998400  1.0
  H  H400  1  0.343000  0.501600  0.968800  1.0
  H  H401  1  0.553300  0.462100  0.487100  1.0
  H  H402  1  0.040400  0.012900  0.462100  1.0
  H  H403  1  0.502500  0.037900  0.012900  1.0
  H  H404  1  0.515400  0.487100  0.037900  1.0
  H  H405  1  0.446700  0.537900  0.512900  1.0
  H  H406  1  0.959600  0.987100  0.537900  1.0
  H  H407  1  0.497500  0.962100  0.987100  1.0
  H  H408  1  0.484600  0.512900  0.962100  1.0
  H  H409  1  0.523200  0.453100  0.543700  1.0
  H  H410  1  0.066900  0.956300  0.453100  1.0
  H  H411  1  0.520000  0.046900  0.956300  1.0
  H  H412  1  0.476300  0.543700  0.046900  1.0
  H  H413  1  0.476800  0.546900  0.456300  1.0
  H  H414  1  0.933100  0.043700  0.546900  1.0
  H  H415  1  0.480000  0.953100  0.043700  1.0
  H  H416  1  0.523700  0.456300  0.953100  1.0
  H  H417  1  0.633200  0.304800  0.484200  1.0
  H  H418  1  0.117400  0.015800  0.304800  1.0
  H  H419  1  0.422200  0.195200  0.015800  1.0
  H  H420  1  0.438000  0.484200  0.195200  1.0
  H  H421  1  0.366800  0.695200  0.515800  1.0
  H  H422  1  0.882600  0.984200  0.695200  1.0
  H  H423  1  0.577800  0.804800  0.984200  1.0
  H  H424  1  0.562000  0.515800  0.804800  1.0
  H  H425  1  0.544100  0.300900  0.521700  1.0
  H  H426  1  0.065800  0.978300  0.300900  1.0
  H  H427  1  0.366700  0.199100  0.978300  1.0
  H  H428  1  0.345000  0.521700  0.199100  1.0
  H  H429  1  0.455900  0.699100  0.478300  1.0
  H  H430  1  0.934200  0.021700  0.699100  1.0
  H  H431  1  0.633300  0.800900  0.021700  1.0
  H  H432  1  0.655000  0.478300  0.800900  1.0
  H  H433  1  0.502400  0.382600  0.539400  1.0
  H  H434  1  0.041800  0.960600  0.382600  1.0
  H  H435  1  0.424400  0.117400  0.960600  1.0
  H  H436  1  0.385000  0.539400  0.117400  1.0
  H  H437  1  0.497600  0.617400  0.460600  1.0
  H  H438  1  0.958200  0.039400  0.617400  1.0
  H  H439  1  0.575600  0.882600  0.039400  1.0
  H  H440  1  0.615000  0.460600  0.882600  1.0
  H  H441  1  0.530800  0.378200  0.482000  1.0
  H  H442  1  0.012800  0.018000  0.378200  1.0
  H  H443  1  0.391000  0.121800  0.018000  1.0
  H  H444  1  0.409000  0.482000  0.121800  1.0
  H  H445  1  0.469200  0.621800  0.518000  1.0
  H  H446  1  0.987200  0.982000  0.621800  1.0
  H  H447  1  0.609000  0.878200  0.982000  1.0
  H  H448  1  0.591000  0.518000  0.878200  1.0
  H  H449  1  0.712800  0.351800  0.456800  1.0
  H  H450  1  0.169600  0.043200  0.351800  1.0
  H  H451  1  0.521400  0.148200  0.043200  1.0
  H  H452  1  0.564600  0.456800  0.148200  1.0
  H  H453  1  0.287200  0.648200  0.543200  1.0
  H  H454  1  0.830400  0.956800  0.648200  1.0
  H  H455  1  0.478600  0.851800  0.956800  1.0
  H  H456  1  0.435400  0.543200  0.851800  1.0
  H  H457  1  0.733100  0.401300  0.461500  1.0
  H  H458  1  0.194600  0.038500  0.401300  1.0
  H  H459  1  0.595900  0.098700  0.038500  1.0
  H  H460  1  0.634400  0.461500  0.098700  1.0
  H  H461  1  0.266900  0.598700  0.538500  1.0
  H  H462  1  0.805400  0.961500  0.598700  1.0
  H  H463  1  0.404100  0.901300  0.961500  1.0
  H  H464  1  0.365600  0.538500  0.901300  1.0
  H  H465  1  0.619000  0.349600  0.405200  1.0
  H  H466  1  0.024200  0.094800  0.349600  1.0
  H  H467  1  0.373800  0.150400  0.094800  1.0
  H  H468  1  0.468600  0.405200  0.150400  1.0
  H  H469  1  0.381000  0.650400  0.594800  1.0
  H  H470  1  0.975800  0.905200  0.650400  1.0
  H  H471  1  0.626200  0.849600  0.905200  1.0
  H  H472  1  0.531400  0.594800  0.849600  1.0
  H  H473  1  0.571100  0.380100  0.338300  1.0
  H  H474  1  0.909400  0.161700  0.380100  1.0
  H  H475  1  0.289500  0.119900  0.161700  1.0
  H  H476  1  0.451200  0.338300  0.119900  1.0
  H  H477  1  0.428900  0.619900  0.661700  1.0
  H  H478  1  0.090600  0.838300  0.619900  1.0
  H  H479  1  0.710500  0.880100  0.838300  1.0
  H  H480  1  0.548800  0.661700  0.880100  1.0
  H  H481  1  0.572100  0.458200  0.312400  1.0
  H  H482  1  0.884500  0.187600  0.458200  1.0
  H  H483  1  0.342700  0.041800  0.187600  1.0
  H  H484  1  0.530300  0.312400  0.041800  1.0
  H  H485  1  0.427900  0.541800  0.687600  1.0
  H  H486  1  0.115500  0.812400  0.541800  1.0
  H  H487  1  0.657300  0.958200  0.812400  1.0
  H  H488  1  0.469700  0.687600  0.958200  1.0
  H  H489  1  0.636000  0.500600  0.347600  1.0
  H  H490  1  0.983600  0.152400  0.500600  1.0
  H  H491  1  0.484200  0.999400  0.152400  1.0
  H  H492  1  0.636600  0.347600  0.999400  1.0
  H  H493  1  0.364000  0.499400  0.652400  1.0
  H  H494  1  0.016400  0.847600  0.499400  1.0
  H  H495  1  0.515800  0.000600  0.847600  1.0
  H  H496  1  0.363400  0.652400  0.000600  1.0
  H  H497  1  0.681800  0.470100  0.414100  1.0
  H  H498  1  0.095900  0.085900  0.470100  1.0
  H  H499  1  0.566000  0.029900  0.085900  1.0
  H  H500  1  0.651900  0.414100  0.029900  1.0
  H  H501  1  0.318200  0.529900  0.585900  1.0
  H  H502  1  0.904100  0.914100  0.529900  1.0
  H  H503  1  0.434000  0.970100  0.914100  1.0
  H  H504  1  0.348100  0.585900  0.970100  1.0
  H  H505  1  0.860800  0.335900  0.661100  1.0
  H  H506  1  0.521900  0.838900  0.335900  1.0
  H  H507  1  0.857800  0.164100  0.838900  1.0
  H  H508  1  0.696700  0.661100  0.164100  1.0
  H  H509  1  0.139200  0.664100  0.338900  1.0
  H  H510  1  0.478100  0.161100  0.664100  1.0
  H  H511  1  0.142200  0.835900  0.161100  1.0
  H  H512  1  0.303300  0.338900  0.835900  1.0
  H  H513  1  0.876700  0.322200  0.606400  1.0
  H  H514  1  0.483100  0.893600  0.322200  1.0
  H  H515  1  0.805300  0.177800  0.893600  1.0
  H  H516  1  0.698900  0.606400  0.177800  1.0
  H  H517  1  0.123300  0.677800  0.393600  1.0
  H  H518  1  0.516900  0.106400  0.677800  1.0
  H  H519  1  0.194700  0.822200  0.106400  1.0
  H  H520  1  0.301100  0.393600  0.822200  1.0
  H  H521  1  0.010500  0.308700  0.617300  1.0
  H  H522  1  0.627800  0.882700  0.308700  1.0
  H  H523  1  0.936500  0.191300  0.882700  1.0
  H  H524  1  0.819200  0.617300  0.191300  1.0
  H  H525  1  0.989500  0.691300  0.382700  1.0
  H  H526  1  0.372200  0.117300  0.691300  1.0
  H  H527  1  0.063500  0.808700  0.117300  1.0
  H  H528  1  0.180800  0.382700  0.808700  1.0
  H  H529  1  0.997000  0.355800  0.584800  1.0
  H  H530  1  0.581800  0.915200  0.355800  1.0
  H  H531  1  0.937600  0.144200  0.915200  1.0
  H  H532  1  0.852800  0.584800  0.144200  1.0
  H  H533  1  0.003000  0.644200  0.415200  1.0
  H  H534  1  0.418200  0.084800  0.644200  1.0
  H  H535  1  0.062400  0.855800  0.084800  1.0
  H  H536  1  0.147200  0.415200  0.855800  1.0
  H  H537  1  0.058300  0.358900  0.650500  1.0
  H  H538  1  0.708800  0.849500  0.358900  1.0
  H  H539  1  0.067700  0.141100  0.849500  1.0
  H  H540  1  0.917200  0.650500  0.141100  1.0
  H  H541  1  0.941700  0.641100  0.349500  1.0
  H  H542  1  0.291200  0.150500  0.641100  1.0
  H  H543  1  0.932300  0.858900  0.150500  1.0
  H  H544  1  0.082800  0.349500  0.858900  1.0
  H  H545  1  0.964500  0.362200  0.686000  1.0
  H  H546  1  0.650500  0.814000  0.362200  1.0
  H  H547  1  0.012700  0.137800  0.814000  1.0
  H  H548  1  0.826700  0.686000  0.137800  1.0
  H  H549  1  0.035500  0.637800  0.314000  1.0
  H  H550  1  0.349500  0.186000  0.637800  1.0
  H  H551  1  0.987300  0.862200  0.186000  1.0
  H  H552  1  0.173300  0.314000  0.862200  1.0
  H  H553  1  0.967500  0.516600  0.664800  1.0
  H  H554  1  0.632300  0.835200  0.516600  1.0
  H  H555  1  0.148900  0.983400  0.835200  1.0
  H  H556  1  0.984100  0.664800  0.983400  1.0
  H  H557  1  0.032500  0.483400  0.335200  1.0
  H  H558  1  0.367700  0.164800  0.483400  1.0
  H  H559  1  0.851100  0.016600  0.164800  1.0
  H  H560  1  0.015900  0.335200  0.016600  1.0
  H  H561  1  0.926000  0.513400  0.721600  1.0
  H  H562  1  0.647600  0.778400  0.513400  1.0
  H  H563  1  0.161000  0.986600  0.778400  1.0
  H  H564  1  0.939400  0.721600  0.986600  1.0
  H  H565  1  0.074000  0.486600  0.278400  1.0
  H  H566  1  0.352400  0.221600  0.486600  1.0
  H  H567  1  0.839000  0.013400  0.221600  1.0
  H  H568  1  0.060600  0.278400  0.013400  1.0
  H  H569  1  0.949400  0.431900  0.718900  1.0
  H  H570  1  0.668300  0.781100  0.431900  1.0
  H  H571  1  0.100200  0.068100  0.781100  1.0
  H  H572  1  0.881300  0.718900  0.068100  1.0
  H  H573  1  0.050600  0.568100  0.281100  1.0
  H  H574  1  0.331700  0.218900  0.568100  1.0
  H  H575  1  0.899800  0.931900  0.218900  1.0
  H  H576  1  0.118700  0.281100  0.931900  1.0
  H  H577  1  0.038000  0.441700  0.687100  1.0
  H  H578  1  0.725100  0.812900  0.441700  1.0
  H  H579  1  0.166800  0.058300  0.812900  1.0
  H  H580  1  0.979700  0.687100  0.058300  1.0
  H  H581  1  0.962000  0.558300  0.312900  1.0
  H  H582  1  0.274900  0.187100  0.558300  1.0
  H  H583  1  0.833200  0.941700  0.187100  1.0
  H  H584  1  0.020300  0.312900  0.941700  1.0
  H  H585  1  0.014500  0.424100  0.573500  1.0
  H  H586  1  0.588000  0.926500  0.424100  1.0
  H  H587  1  0.012100  0.075900  0.926500  1.0
  H  H588  1  0.938600  0.573500  0.075900  1.0
  H  H589  1  0.985500  0.575900  0.426500  1.0
  H  H590  1  0.412000  0.073500  0.575900  1.0
  H  H591  1  0.987900  0.924100  0.073500  1.0
  H  H592  1  0.061400  0.426500  0.924100  1.0
  H  H593  1  0.005200  0.473300  0.597700  1.0
  H  H594  1  0.602900  0.902300  0.473300  1.0
  H  H595  1  0.076200  0.026700  0.902300  1.0
  H  H596  1  0.978500  0.597700  0.026700  1.0
  H  H597  1  0.994800  0.526700  0.402300  1.0
  H  H598  1  0.397100  0.097700  0.526700  1.0
  H  H599  1  0.923800  0.973300  0.097700  1.0
  H  H600  1  0.021500  0.402300  0.973300  1.0
  H  H601  1  0.148200  0.358300  0.563100  1.0
  H  H602  1  0.711300  0.936900  0.358300  1.0
  H  H603  1  0.069600  0.141700  0.936900  1.0
  H  H604  1  0.006500  0.563100  0.141700  1.0
  H  H605  1  0.851800  0.641700  0.436900  1.0
  H  H606  1  0.288700  0.063100  0.641700  1.0
  H  H607  1  0.930400  0.858300  0.063100  1.0
  H  H608  1  0.993500  0.436900  0.858300  1.0
  H  H609  1  0.296000  0.336000  0.552800  1.0
  H  H610  1  0.848800  0.947200  0.336000  1.0
  H  H611  1  0.184800  0.164000  0.947200  1.0
  H  H612  1  0.132000  0.552800  0.164000  1.0
  H  H613  1  0.704000  0.664000  0.447200  1.0
  H  H614  1  0.151200  0.052800  0.664000  1.0
  H  H615  1  0.815200  0.836000  0.052800  1.0
  H  H616  1  0.868000  0.447200  0.836000  1.0
  H  H617  1  0.359000  0.385500  0.579500  1.0
  H  H618  1  0.938500  0.920500  0.385500  1.0
  H  H619  1  0.324000  0.114500  0.920500  1.0
  H  H620  1  0.244500  0.579500  0.114500  1.0
  H  H621  1  0.641000  0.614500  0.420500  1.0
  H  H622  1  0.061500  0.079500  0.614500  1.0
  H  H623  1  0.676000  0.885500  0.079500  1.0
  H  H624  1  0.755500  0.420500  0.885500  1.0
  H  H625  1  0.275700  0.458300  0.614900  1.0
  H  H626  1  0.890600  0.885100  0.458300  1.0
  H  H627  1  0.348900  0.041700  0.885100  1.0
  H  H628  1  0.234000  0.614900  0.041700  1.0
  H  H629  1  0.724300  0.541700  0.385100  1.0
  H  H630  1  0.109400  0.114900  0.541700  1.0
  H  H631  1  0.651100  0.958300  0.114900  1.0
  H  H632  1  0.766000  0.385100  0.958300  1.0
  H  H633  1  0.128700  0.481700  0.621700  1.0
  H  H634  1  0.750400  0.878300  0.481700  1.0
  H  H635  1  0.232100  0.018300  0.878300  1.0
  H  H636  1  0.110400  0.621700  0.018300  1.0
  H  H637  1  0.871300  0.518300  0.378300  1.0
  H  H638  1  0.249600  0.121700  0.518300  1.0
  H  H639  1  0.767900  0.981700  0.121700  1.0
  H  H640  1  0.889600  0.378300  0.981700  1.0
  H  H641  1  0.958500  0.261100  0.473100  1.0
  H  H642  1  0.431600  0.026900  0.261100  1.0
  H  H643  1  0.692700  0.238900  0.026900  1.0
  H  H644  1  0.719600  0.473100  0.238900  1.0
  H  H645  1  0.041500  0.738900  0.526900  1.0
  H  H646  1  0.568400  0.973100  0.738900  1.0
  H  H647  1  0.307300  0.761100  0.973100  1.0
  H  H648  1  0.280400  0.526900  0.761100  1.0
  H  H649  1  0.925100  0.313400  0.451600  1.0
  H  H650  1  0.376700  0.048400  0.313400  1.0
  H  H651  1  0.690100  0.186600  0.048400  1.0
  H  H652  1  0.738500  0.451600  0.186600  1.0
  H  H653  1  0.074900  0.686600  0.548400  1.0
  H  H654  1  0.623300  0.951600  0.686600  1.0
  H  H655  1  0.309900  0.813400  0.951600  1.0
  H  H656  1  0.261500  0.548400  0.813400  1.0
  H  H657  1  0.961600  0.307700  0.497500  1.0
  H  H658  1  0.459100  0.002500  0.307700  1.0
  H  H659  1  0.766800  0.192300  0.002500  1.0
  H  H660  1  0.769300  0.497500  0.192300  1.0
  H  H661  1  0.038400  0.692300  0.502500  1.0
  H  H662  1  0.540900  0.997500  0.692300  1.0
  H  H663  1  0.233200  0.807700  0.997500  1.0
  H  H664  1  0.230700  0.502500  0.807700  1.0
  H  H665  1  0.670900  0.313200  0.719600  1.0
  H  H666  1  0.390500  0.780400  0.313200  1.0
  H  H667  1  0.703700  0.186800  0.780400  1.0
  H  H668  1  0.484100  0.719600  0.186800  1.0
  H  H669  1  0.329100  0.686800  0.280400  1.0
  H  H670  1  0.609500  0.219600  0.686800  1.0
  H  H671  1  0.296300  0.813200  0.219600  1.0
  H  H672  1  0.515900  0.280400  0.813200  1.0
  H  H673  1  0.713600  0.257200  0.707800  1.0
  H  H674  1  0.421400  0.792200  0.257200  1.0
  H  H675  1  0.678600  0.242800  0.792200  1.0
  H  H676  1  0.470800  0.707800  0.242800  1.0
  H  H677  1  0.286400  0.742800  0.292200  1.0
  H  H678  1  0.578600  0.207800  0.742800  1.0
  H  H679  1  0.321400  0.757200  0.207800  1.0
  H  H680  1  0.529200  0.292200  0.757200  1.0
  H  H681  1  0.773200  0.293000  0.697400  1.0
  H  H682  1  0.470600  0.802600  0.293000  1.0
  H  H683  1  0.763600  0.207000  0.802600  1.0
  H  H684  1  0.566200  0.697400  0.207000  1.0
  H  H685  1  0.226800  0.707000  0.302600  1.0
  H  H686  1  0.529400  0.197400  0.707000  1.0
  H  H687  1  0.236400  0.793000  0.197400  1.0
  H  H688  1  0.433800  0.302600  0.793000  1.0
  H  H689  1  0.394600  0.401500  0.664900  1.0
  H  H690  1  0.059500  0.835100  0.401500  1.0
  H  H691  1  0.461000  0.098500  0.835100  1.0
  H  H692  1  0.296100  0.664900  0.098500  1.0
  H  H693  1  0.605400  0.598500  0.335100  1.0
  H  H694  1  0.940500  0.164900  0.598500  1.0
  H  H695  1  0.539000  0.901500  0.164900  1.0
  H  H696  1  0.703900  0.335100  0.901500  1.0
  H  H697  1  0.435600  0.374900  0.706700  1.0
  H  H698  1  0.142300  0.793300  0.374900  1.0
  H  H699  1  0.517200  0.125100  0.793300  1.0
  H  H700  1  0.310500  0.706700  0.125100  1.0
  H  H701  1  0.564400  0.625100  0.293300  1.0
  H  H702  1  0.857700  0.206700  0.625100  1.0
  H  H703  1  0.482800  0.874900  0.206700  1.0
  H  H704  1  0.689500  0.293300  0.874900  1.0
  H  H705  1  0.401100  0.432300  0.706100  1.0
  H  H706  1  0.107200  0.793900  0.432300  1.0
  H  H707  1  0.539500  0.067700  0.793900  1.0
  H  H708  1  0.333400  0.706100  0.067700  1.0
  H  H709  1  0.598900  0.567700  0.293900  1.0
  H  H710  1  0.892800  0.206100  0.567700  1.0
  H  H711  1  0.460500  0.932300  0.206100  1.0
  H  H712  1  0.666600  0.293900  0.932300  1.0
  H  H713  1  0.692100  0.386300  0.808100  1.0
  H  H714  1  0.500200  0.691900  0.386300  1.0
  H  H715  1  0.886500  0.113700  0.691900  1.0
  H  H716  1  0.578400  0.808100  0.113700  1.0
  H  H717  1  0.307900  0.613700  0.191900  1.0
  H  H718  1  0.499800  0.308100  0.613700  1.0
  H  H719  1  0.113500  0.886300  0.308100  1.0
  H  H720  1  0.421600  0.191900  0.886300  1.0
  H  H721  1  0.765600  0.339500  0.783700  1.0
  H  H722  1  0.549300  0.716300  0.339500  1.0
  H  H723  1  0.888800  0.160500  0.716300  1.0
  H  H724  1  0.605100  0.783700  0.160500  1.0
  H  H725  1  0.234400  0.660500  0.216300  1.0
  H  H726  1  0.450700  0.283700  0.660500  1.0
  H  H727  1  0.111200  0.839500  0.283700  1.0
  H  H728  1  0.394900  0.216300  0.839500  1.0
  H  H729  1  0.791700  0.383200  0.799800  1.0
  H  H730  1  0.591500  0.700200  0.383200  1.0
  H  H731  1  0.974700  0.116800  0.700200  1.0
  H  H732  1  0.674900  0.799800  0.116800  1.0
  H  H733  1  0.208300  0.616800  0.200200  1.0
  H  H734  1  0.408500  0.299800  0.616800  1.0
  H  H735  1  0.025300  0.883200  0.299800  1.0
  H  H736  1  0.325100  0.200200  0.883200  1.0
  H  H737  1  0.791100  0.547400  0.520000  1.0
  H  H738  1  0.311100  0.980000  0.547400  1.0
  H  H739  1  0.858500  0.952600  0.980000  1.0
  H  H740  1  0.838500  0.520000  0.952600  1.0
  H  H741  1  0.208900  0.452600  0.480000  1.0
  H  H742  1  0.688900  0.020000  0.452600  1.0
  H  H743  1  0.141500  0.047400  0.020000  1.0
  H  H744  1  0.161500  0.480000  0.047400  1.0
  H  H745  1  0.873200  0.566300  0.516100  1.0
  H  H746  1  0.389300  0.983900  0.566300  1.0
  H  H747  1  0.955600  0.933700  0.983900  1.0
  H  H748  1  0.939500  0.516100  0.933700  1.0
  H  H749  1  0.126800  0.433700  0.483900  1.0
  H  H750  1  0.610700  0.016100  0.433700  1.0
  H  H751  1  0.044400  0.066300  0.016100  1.0
  H  H752  1  0.060500  0.483900  0.066300  1.0
  H  H753  1  0.886500  0.511800  0.502200  1.0
  H  H754  1  0.388700  0.997800  0.511800  1.0
  H  H755  1  0.900500  0.988200  0.997800  1.0
  H  H756  1  0.898300  0.502200  0.988200  1.0
  H  H757  1  0.113500  0.488200  0.497800  1.0
  H  H758  1  0.611300  0.002200  0.488200  1.0
  H  H759  1  0.099500  0.011800  0.002200  1.0
  H  H760  1  0.101700  0.497800  0.011800  1.0
  H  H761  1  0.008800  0.377000  0.418000  1.0
  H  H762  1  0.426800  0.082000  0.377000  1.0
  H  H763  1  0.803800  0.123000  0.082000  1.0
  H  H764  1  0.885800  0.418000  0.123000  1.0
  H  H765  1  0.991200  0.623000  0.582000  1.0
  H  H766  1  0.573200  0.918000  0.623000  1.0
  H  H767  1  0.196200  0.877000  0.918000  1.0
  H  H768  1  0.114200  0.582000  0.877000  1.0
  H  H769  1  0.951800  0.428300  0.405500  1.0
  H  H770  1  0.357300  0.094500  0.428300  1.0
  H  H771  1  0.785600  0.071700  0.094500  1.0
  H  H772  1  0.880100  0.405500  0.071700  1.0
  H  H773  1  0.048200  0.571700  0.594500  1.0
  H  H774  1  0.642700  0.905500  0.571700  1.0
  H  H775  1  0.214400  0.928300  0.905500  1.0
  H  H776  1  0.119900  0.594500  0.928300  1.0
  H  H777  1  0.029200  0.424900  0.428300  1.0
  H  H778  1  0.457500  0.071700  0.424900  1.0
  H  H779  1  0.882400  0.075100  0.071700  1.0
  H  H780  1  0.954100  0.428300  0.075100  1.0
  H  H781  1  0.970800  0.575100  0.571700  1.0
  H  H782  1  0.542500  0.928300  0.575100  1.0
  H  H783  1  0.117600  0.924900  0.928300  1.0
  H  H784  1  0.045900  0.571700  0.924900  1.0
  N  N785  1  0.617940  0.396700  0.507700  1.0
  N  N786  1  0.125640  0.992300  0.396700  1.0
  N  N787  1  0.522340  0.103300  0.992300  1.0
  N  N788  1  0.514640  0.507700  0.103300  1.0
  N  N789  1  0.382060  0.603300  0.492300  1.0
  N  N790  1  0.874360  0.007700  0.603300  1.0
  N  N791  1  0.477660  0.896700  0.007700  1.0
  N  N792  1  0.485360  0.492300  0.896700  1.0
  N  N793  1  0.970510  0.423050  0.646830  1.0
  N  N794  1  0.617340  0.853170  0.423050  1.0
  N  N795  1  0.040390  0.076950  0.853170  1.0
  N  N796  1  0.893560  0.646830  0.076950  1.0
  N  N797  1  0.029490  0.576950  0.353170  1.0
  N  N798  1  0.382660  0.146830  0.576950  1.0
  N  N799  1  0.959610  0.923050  0.146830  1.0
  N  N800  1  0.106440  0.353170  0.923050  1.0
  Ni  Ni801  1  0.665579  0.364983  0.565899  1.0
  Ni  Ni802  1  0.231478  0.934101  0.364983  1.0
  Ni  Ni803  1  0.596461  0.135017  0.934101  1.0
  Ni  Ni804  1  0.530562  0.565899  0.135017  1.0
  Ni  Ni805  1  0.334421  0.635017  0.434101  1.0
  Ni  Ni806  1  0.768522  0.065899  0.635017  1.0
  Ni  Ni807  1  0.403539  0.864983  0.065899  1.0
  Ni  Ni808  1  0.469438  0.434101  0.864983  1.0
  Ni  Ni809  1  0.696382  0.406758  0.649738  1.0
  Ni  Ni810  1  0.346120  0.850262  0.406758  1.0
  Ni  Ni811  1  0.752878  0.093242  0.850262  1.0
  Ni  Ni812  1  0.603140  0.649738  0.093242  1.0
  Ni  Ni813  1  0.303618  0.593242  0.350262  1.0
  Ni  Ni814  1  0.653880  0.149738  0.593242  1.0
  Ni  Ni815  1  0.247122  0.906758  0.149738  1.0
  Ni  Ni816  1  0.396860  0.350262  0.906758  1.0
  Ni  Ni817  1  0.836694  0.449541  0.652491  1.0
  Ni  Ni818  1  0.489185  0.847509  0.449541  1.0
  Ni  Ni819  1  0.938726  0.050459  0.847509  1.0
  Ni  Ni820  1  0.786235  0.652491  0.050459  1.0
  Ni  Ni821  1  0.163306  0.550459  0.347509  1.0
  Ni  Ni822  1  0.510815  0.152491  0.550459  1.0
  Ni  Ni823  1  0.061274  0.949541  0.152491  1.0
  Ni  Ni824  1  0.213765  0.347509  0.949541  1.0
  O  O825  1  0.907100  0.544400  0.812000  1
  O  O826  1  0.719100  0.688000  0.544400  1
  O  O827  1  0.263500  0.955600  0.688000  1
  O  O828  1  0.951500  0.812000  0.955600  1
  O  O829  1  0.092900  0.455600  0.188000  1
  O  O830  1  0.280900  0.312000  0.455600  1
  O  O831  1  0.736500  0.044400  0.312000  1
  O  O832  1  0.048500  0.188000  0.044400  1
  O  O833  1  0.019300  0.251000  0.730000  1
  O  O834  1  0.749300  0.770000  0.251000  1
  O  O835  1  0.000300  0.249000  0.770000  1
  O  O836  1  0.770300  0.730000  0.249000  1
  O  O837  1  0.980700  0.749000  0.270000  1
  O  O838  1  0.250700  0.230000  0.749000  1
  O  O839  1  0.999700  0.751000  0.230000  1
  O  O840  1  0.229700  0.270000  0.751000  1
  O  O841  1  0.699250  0.424650  0.579470  1.0
  O  O842  1  0.278720  0.920530  0.424650  1.0
  O  O843  1  0.703370  0.075350  0.920530  1.0
  O  O844  1  0.623900  0.579470  0.075350  1.0
  O  O845  1  0.300750  0.575350  0.420530  1.0
  O  O846  1  0.721280  0.079470  0.575350  1.0
  O  O847  1  0.296630  0.924650  0.079470  1.0
  O  O848  1  0.376100  0.420530  0.924650  1.0
  O  O849  1  0.629950  0.309060  0.552300  1.0
  O  O850  1  0.182250  0.947700  0.309060  1.0
  O  O851  1  0.491310  0.190940  0.947700  1.0
  O  O852  1  0.439010  0.552300  0.190940  1.0
  O  O853  1  0.370050  0.690940  0.447700  1.0
  O  O854  1  0.817750  0.052300  0.690940  1.0
  O  O855  1  0.508690  0.809060  0.052300  1.0
  O  O856  1  0.560990  0.447700  0.809060  1.0
  O  O857  1  0.829230  0.392500  0.619660  1.0
  O  O858  1  0.448890  0.880340  0.392500  1.0
  O  O859  1  0.841390  0.107500  0.880340  1.0
  O  O860  1  0.721730  0.619660  0.107500  1.0
  O  O861  1  0.170770  0.607500  0.380340  1.0
  O  O862  1  0.551110  0.119660  0.607500  1.0
  O  O863  1  0.158610  0.892500  0.119660  1.0
  O  O864  1  0.278270  0.380340  0.892500  1.0
  O  O865  1  0.846940  0.508900  0.682740  1.0
  O  O866  1  0.529680  0.817260  0.508900  1.0
  O  O867  1  0.038580  0.991100  0.817260  1.0
  O  O868  1  0.855840  0.682740  0.991100  1.0
  O  O869  1  0.153060  0.491100  0.317260  1.0
  O  O870  1  0.470320  0.182740  0.491100  1.0
  O  O871  1  0.961420  0.008900  0.182740  1.0
  O  O872  1  0.144160  0.317260  0.008900  1.0
  O  O873  1  0.795960  0.340850  0.529430  1.0
  O  O874  1  0.325390  0.970570  0.340850  1.0
  O  O875  1  0.666240  0.159150  0.970570  1.0
  O  O876  1  0.636810  0.529430  0.159150  1.0
  O  O877  1  0.204040  0.659150  0.470570  1.0
  O  O878  1  0.674610  0.029430  0.659150  1.0
  O  O879  1  0.333760  0.840850  0.029430  1.0
  O  O880  1  0.363190  0.470570  0.840850  1.0
  O  O881  1  0.817750  0.262130  0.522090  1.0
  O  O882  1  0.339840  0.977910  0.262130  1.0
  O  O883  1  0.601970  0.237870  0.977910  1.0
  O  O884  1  0.579880  0.522090  0.237870  1.0
  O  O885  1  0.182250  0.737870  0.477910  1.0
  O  O886  1  0.660160  0.022090  0.737870  1.0
  O  O887  1  0.398030  0.762130  0.022090  1.0
  O  O888  1  0.420120  0.477910  0.762130  1.0
  O  O889  1  0.700020  0.339760  0.629240  1.0
  O  O890  1  0.329260  0.870760  0.339760  1.0
  O  O891  1  0.669020  0.160240  0.870760  1.0
  O  O892  1  0.539780  0.629240  0.160240  1.0
  O  O893  1  0.299980  0.660240  0.370760  1.0
  O  O894  1  0.670740  0.129240  0.660240  1.0
  O  O895  1  0.330980  0.839760  0.129240  1.0
  O  O896  1  0.460220  0.370760  0.839760  1.0
  O  O897  1  0.704420  0.263020  0.626920  1.0
  O  O898  1  0.331340  0.873080  0.263020  1.0
  O  O899  1  0.594360  0.236980  0.873080  1.0
  O  O900  1  0.467440  0.626920  0.236980  1.0
  O  O901  1  0.295580  0.736980  0.373080  1.0
  O  O902  1  0.668660  0.126920  0.736980  1.0
  O  O903  1  0.405640  0.763020  0.126920  1.0
  O  O904  1  0.532560  0.373080  0.763020  1.0
  O  O905  1  0.540990  0.393300  0.613640  1.0
  O  O906  1  0.154630  0.886360  0.393300  1.0
  O  O907  1  0.547930  0.106700  0.886360  1.0
  O  O908  1  0.434290  0.613640  0.106700  1.0
  O  O909  1  0.459010  0.606700  0.386360  1.0
  O  O910  1  0.845370  0.113640  0.606700  1.0
  O  O911  1  0.452070  0.893300  0.113640  1.0
  O  O912  1  0.565710  0.386360  0.893300  1.0
  O  O913  1  0.564620  0.420820  0.676120  1.0
  O  O914  1  0.240740  0.823880  0.420820  1.0
  O  O915  1  0.661560  0.079180  0.823880  1.0
  O  O916  1  0.485440  0.676120  0.079180  1.0
  O  O917  1  0.435380  0.579180  0.323880  1.0
  O  O918  1  0.759260  0.176120  0.579180  1.0
  O  O919  1  0.338440  0.920820  0.176120  1.0
  O  O920  1  0.514560  0.323880  0.920820  1.0
  O  O921  1  0.698110  0.392900  0.718300  1.0
  O  O922  1  0.416410  0.781700  0.392900  1.0
  O  O923  1  0.809310  0.107100  0.781700  1.0
  O  O924  1  0.591010  0.718300  0.107100  1.0
  O  O925  1  0.301890  0.607100  0.281700  1.0
  O  O926  1  0.583590  0.218300  0.607100  1.0
  O  O927  1  0.190690  0.892900  0.218300  1.0
  O  O928  1  0.408990  0.281700  0.892900  1.0
  O  O929  1  0.812290  0.417440  0.718620  1.0
  O  O930  1  0.530910  0.781380  0.417440  1.0
  O  O931  1  0.948350  0.082560  0.781380  1.0
  O  O932  1  0.729730  0.718620  0.082560  1.0
  O  O933  1  0.187710  0.582560  0.281380  1.0
  O  O934  1  0.469090  0.218620  0.582560  1.0
  O  O935  1  0.051650  0.917440  0.218620  1.0
  O  O936  1  0.270270  0.281380  0.917440  1.0
  O  O937  1  0.847640  0.479740  0.585340  1.0
  O  O938  1  0.432980  0.914660  0.479740  1.0
  O  O939  1  0.912720  0.020260  0.914660  1.0
  O  O940  1  0.827380  0.585340  0.020260  1.0
  O  O941  1  0.152360  0.520260  0.414660  1.0
  O  O942  1  0.567020  0.085340  0.520260  1.0
  O  O943  1  0.087280  0.979740  0.085340  1.0
  O  O944  1  0.172620  0.414660  0.979740  1.0
  O  O945  1  0.844010  0.553860  0.604120  1.0
  O  O946  1  0.448130  0.895880  0.553860  1.0
  O  O947  1  0.001990  0.946140  0.895880  1.0
  O  O948  1  0.897870  0.604120  0.946140  1.0
  O  O949  1  0.155990  0.446140  0.395880  1.0
  O  O950  1  0.551870  0.104120  0.446140  1.0
  O  O951  1  0.998010  0.053860  0.104120  1.0
  O  O952  1  0.102130  0.395880  0.053860  1.0
  O  O953  1  0.702360  0.219080  0.500660  1.0
  O  O954  1  0.203020  0.999340  0.219080  1.0
  O  O955  1  0.422100  0.280920  0.999340  1.0
  O  O956  1  0.421440  0.500660  0.280920  1.0
  O  O957  1  0.297640  0.780920  0.499340  1.0
  O  O958  1  0.796980  0.000660  0.780920  1.0
  O  O959  1  0.577900  0.719080  0.000660  1.0
  O  O960  1  0.578560  0.499340  0.719080  1.0
  O  O961  1  0.702300  0.474240  0.661140  1.0
  O  O962  1  0.363440  0.838860  0.474240  1.0
  O  O963  1  0.837680  0.025760  0.838860  1.0
  O  O964  1  0.676540  0.661140  0.025760  1.0
  O  O965  1  0.297700  0.525760  0.338860  1.0
  O  O966  1  0.636560  0.161140  0.525760  1.0
  O  O967  1  0.162320  0.974240  0.161140  1.0
  O  O968  1  0.323460  0.338860  0.974240  1.0
  O  O969  1  0.949660  0.394870  0.513010  1.0
  O  O970  1  0.462670  0.986990  0.394870  1.0
  O  O971  1  0.857540  0.105130  0.986990  1.0
  O  O972  1  0.844530  0.513010  0.105130  1.0
  O  O973  1  0.050340  0.605130  0.486990  1.0
  O  O974  1  0.537330  0.013010  0.605130  1.0
  O  O975  1  0.142460  0.894870  0.013010  1.0
  O  O976  1  0.155470  0.486990  0.894870  1.0
  O  O977  1  0.842670  0.432670  0.484230  1.0
  O  O978  1  0.326900  0.015770  0.432670  1.0
  O  O979  1  0.759570  0.067330  0.015770  1.0
  O  O980  1  0.775340  0.484230  0.067330  1.0
  O  O981  1  0.157330  0.567330  0.515770  1.0
  O  O982  1  0.673100  0.984230  0.567330  1.0
  O  O983  1  0.240430  0.932670  0.984230  1.0
  O  O984  1  0.224660  0.515770  0.932670  1.0
