# generated using pymatgen
data_Co22.4Ni17.6H440C376N28O156
_symmetry_space_group_name_H-M   'P 1'
_cell_length_a   22.72400000
_cell_length_b   22.72400000
_cell_length_c   22.77800000
_cell_angle_alpha   90.00000000
_cell_angle_beta   90.00000000
_cell_angle_gamma   90.00000000
_symmetry_Int_Tables_number   1
_chemical_formula_structural   Co22.4Ni17.6H440C376N28O156
_chemical_formula_sum   'Co22.4 Ni17.6 H440 C376 N28 O156'
_cell_volume   11762.10764893
_cell_formula_units_Z   1
loop_
 _symmetry_equiv_pos_site_id
 _symmetry_equiv_pos_as_xyz
  1  'x, y, z'
loop_
 _atom_site_type_symbol
 _atom_site_label
 _atom_site_symmetry_multiplicity
 _atom_site_fract_x
 _atom_site_fract_y
 _atom_site_fract_z
 _atom_site_occupancy
  Co  Co1  1  0.876763  0.515101  0.250100  0.8
  Ni  Ni2  1  0.876763  0.515101  0.250100  0.2
  Co  Co3  1  0.484899  0.376763  0.750100  0.8
  Ni  Ni4  1  0.484899  0.376763  0.750100  0.2
  Co  Co5  1  0.623237  0.984899  0.250100  0.8
  Ni  Ni6  1  0.623237  0.984899  0.250100  0.2
  Co  Co7  1  0.015101  0.123237  0.750100  0.8
  Ni  Ni8  1  0.015101  0.123237  0.750100  0.2
  Co  Co9  1  0.123237  0.484899  0.749900  0.8
  Ni  Ni10  1  0.123237  0.484899  0.749900  0.2
  Co  Co11  1  0.515101  0.623237  0.249900  0.8
  Ni  Ni12  1  0.515101  0.623237  0.249900  0.2
  Co  Co13  1  0.376763  0.015101  0.749900  0.8
  Ni  Ni14  1  0.376763  0.015101  0.749900  0.2
  Co  Co15  1  0.984899  0.876763  0.249900  0.8
  Ni  Ni16  1  0.984899  0.876763  0.249900  0.2
  Co  Co17  1  0.866505  0.456758  0.381508  0.8
  Ni  Ni18  1  0.866505  0.456758  0.381508  0.2
  Co  Co19  1  0.543242  0.366505  0.881508  0.8
  Ni  Ni20  1  0.543242  0.366505  0.881508  0.2
  Co  Co21  1  0.633495  0.043242  0.381508  0.8
  Ni  Ni22  1  0.633495  0.043242  0.381508  0.2
  Co  Co23  1  0.956758  0.133495  0.881508  0.8
  Ni  Ni24  1  0.956758  0.133495  0.881508  0.2
  Co  Co25  1  0.133495  0.543242  0.618492  0.8
  Ni  Ni26  1  0.133495  0.543242  0.618492  0.2
  Co  Co27  1  0.456758  0.633495  0.118492  0.8
  Ni  Ni28  1  0.456758  0.633495  0.118492  0.2
  Co  Co29  1  0.366505  0.956758  0.618492  0.8
  Ni  Ni30  1  0.366505  0.956758  0.618492  0.2
  Co  Co31  1  0.043242  0.866505  0.118492  0.8
  Ni  Ni32  1  0.043242  0.866505  0.118492  0.2
  Co  Co33  1  0.953590  0.640020  0.240150  0.8
  Ni  Ni34  1  0.953590  0.640020  0.240150  0.2
  Co  Co35  1  0.359980  0.453590  0.740150  0.8
  Ni  Ni36  1  0.359980  0.453590  0.740150  0.2
  Co  Co37  1  0.546410  0.859980  0.240150  0.8
  Ni  Ni38  1  0.546410  0.859980  0.240150  0.2
  Co  Co39  1  0.140020  0.046410  0.740150  0.8
  Ni  Ni40  1  0.140020  0.046410  0.740150  0.2
  Co  Co41  1  0.046410  0.359980  0.759850  0.8
  Ni  Ni42  1  0.046410  0.359980  0.759850  0.2
  Co  Co43  1  0.640020  0.546410  0.259850  0.8
  Ni  Ni44  1  0.640020  0.546410  0.259850  0.2
  Co  Co45  1  0.453590  0.140020  0.759850  0.8
  Ni  Ni46  1  0.453590  0.140020  0.759850  0.2
  Co  Co47  1  0.859980  0.953590  0.259850  0.8
  Ni  Ni48  1  0.859980  0.953590  0.259850  0.2
  Co  Co49  1  0.762766  0.517201  0.317647  0.2
  Ni  Ni50  1  0.762766  0.517201  0.317647  0.8
  Co  Co51  1  0.482799  0.262766  0.817647  0.2
  Ni  Ni52  1  0.482799  0.262766  0.817647  0.8
  Co  Co53  1  0.737234  0.982799  0.317647  0.2
  Ni  Ni54  1  0.737234  0.982799  0.317647  0.8
  Co  Co55  1  0.017201  0.237234  0.817647  0.2
  Ni  Ni56  1  0.017201  0.237234  0.817647  0.8
  Co  Co57  1  0.237234  0.482799  0.682353  0.2
  Ni  Ni58  1  0.237234  0.482799  0.682353  0.8
  Co  Co59  1  0.517201  0.737234  0.182353  0.2
  Ni  Ni60  1  0.517201  0.737234  0.182353  0.8
  Co  Co61  1  0.262766  0.017201  0.682353  0.2
  Ni  Ni62  1  0.262766  0.017201  0.682353  0.8
  Co  Co63  1  0.982799  0.762766  0.182353  0.2
  Ni  Ni64  1  0.982799  0.762766  0.182353  0.8
  Co  Co65  1  0.736259  0.470857  0.437251  0.2
  Ni  Ni66  1  0.736259  0.470857  0.437251  0.8
  Co  Co67  1  0.529143  0.236259  0.937251  0.2
  Ni  Ni68  1  0.529143  0.236259  0.937251  0.8
  Co  Co69  1  0.763741  0.029143  0.437251  0.2
  Ni  Ni70  1  0.763741  0.029143  0.437251  0.8
  Co  Co71  1  0.970857  0.263741  0.937251  0.2
  Ni  Ni72  1  0.970857  0.263741  0.937251  0.8
  Co  Co73  1  0.263741  0.529143  0.562749  0.2
  Ni  Ni74  1  0.263741  0.529143  0.562749  0.8
  Co  Co75  1  0.470857  0.763741  0.062749  0.2
  Ni  Ni76  1  0.470857  0.763741  0.062749  0.8
  Co  Co77  1  0.236259  0.970857  0.562749  0.2
  Ni  Ni78  1  0.236259  0.970857  0.562749  0.8
  Co  Co79  1  0.029143  0.736259  0.062749  0.2
  Ni  Ni80  1  0.029143  0.736259  0.062749  0.8
  H  H81  1  0.784600  0.411200  0.240900  1.0
  H  H82  1  0.588800  0.284600  0.740900  1.0
  H  H83  1  0.715400  0.088800  0.240900  1.0
  H  H84  1  0.911200  0.215400  0.740900  1.0
  H  H85  1  0.215400  0.588800  0.759100  1.0
  H  H86  1  0.411200  0.715400  0.259100  1.0
  H  H87  1  0.284600  0.911200  0.759100  1.0
  H  H88  1  0.088800  0.784600  0.259100  1.0
  H  H89  1  0.790100  0.379200  0.303200  1.0
  H  H90  1  0.620800  0.290100  0.803200  1.0
  H  H91  1  0.709900  0.120800  0.303200  1.0
  H  H92  1  0.879200  0.209900  0.803200  1.0
  H  H93  1  0.209900  0.620800  0.696800  1.0
  H  H94  1  0.379200  0.709900  0.196800  1.0
  H  H95  1  0.290100  0.879200  0.696800  1.0
  H  H96  1  0.120800  0.790100  0.196800  1.0
  H  H97  1  0.893400  0.363300  0.282400  1.0
  H  H98  1  0.636700  0.393400  0.782400  1.0
  H  H99  1  0.606600  0.136700  0.282400  1.0
  H  H100  1  0.863300  0.106600  0.782400  1.0
  H  H101  1  0.106600  0.636700  0.717600  1.0
  H  H102  1  0.363300  0.606600  0.217600  1.0
  H  H103  1  0.393400  0.863300  0.717600  1.0
  H  H104  1  0.136700  0.893400  0.217600  1.0
  H  H105  1  0.849500  0.326500  0.241700  1.0
  H  H106  1  0.673500  0.349500  0.741700  1.0
  H  H107  1  0.650500  0.173500  0.241700  1.0
  H  H108  1  0.826500  0.150500  0.741700  1.0
  H  H109  1  0.150500  0.673500  0.758300  1.0
  H  H110  1  0.326500  0.650500  0.258300  1.0
  H  H111  1  0.349500  0.826500  0.758300  1.0
  H  H112  1  0.173500  0.849500  0.258300  1.0
  H  H113  1  0.919800  0.362300  0.179600  1.0
  H  H114  1  0.637700  0.419800  0.679600  1.0
  H  H115  1  0.580200  0.137700  0.179600  1.0
  H  H116  1  0.862300  0.080200  0.679600  1.0
  H  H117  1  0.080200  0.637700  0.820400  1.0
  H  H118  1  0.362300  0.580200  0.320400  1.0
  H  H119  1  0.419800  0.862300  0.820400  1.0
  H  H120  1  0.137700  0.919800  0.320400  1.0
  H  H121  1  0.862200  0.400400  0.166600  1.0
  H  H122  1  0.599600  0.362200  0.666600  1.0
  H  H123  1  0.637800  0.099600  0.166600  1.0
  H  H124  1  0.900400  0.137800  0.666600  1.0
  H  H125  1  0.137800  0.599600  0.833400  1.0
  H  H126  1  0.400400  0.637800  0.333400  1.0
  H  H127  1  0.362200  0.900400  0.833400  1.0
  H  H128  1  0.099600  0.862200  0.333400  1.0
  H  H129  1  0.004300  0.535000  0.173600  1.0
  H  H130  1  0.465000  0.504300  0.673600  1.0
  H  H131  1  0.495700  0.965000  0.173600  1.0
  H  H132  1  0.035000  0.995700  0.673600  1.0
  H  H133  1  0.995700  0.465000  0.826400  1.0
  H  H134  1  0.535000  0.495700  0.326400  1.0
  H  H135  1  0.504300  0.035000  0.826400  1.0
  H  H136  1  0.965000  0.004300  0.326400  1.0
  H  H137  1  0.962100  0.560000  0.123000  1.0
  H  H138  1  0.440000  0.462100  0.623000  1.0
  H  H139  1  0.537900  0.940000  0.123000  1.0
  H  H140  1  0.060000  0.037900  0.623000  1.0
  H  H141  1  0.037900  0.440000  0.877000  1.0
  H  H142  1  0.560000  0.537900  0.377000  1.0
  H  H143  1  0.462100  0.060000  0.877000  1.0
  H  H144  1  0.940000  0.962100  0.377000  1.0
  H  H145  1  0.902700  0.478500  0.126200  1.0
  H  H146  1  0.521500  0.402700  0.626200  1.0
  H  H147  1  0.597300  0.021500  0.126200  1.0
  H  H148  1  0.978500  0.097300  0.626200  1.0
  H  H149  1  0.097300  0.521500  0.873800  1.0
  H  H150  1  0.478500  0.597300  0.373800  1.0
  H  H151  1  0.402700  0.978500  0.873800  1.0
  H  H152  1  0.021500  0.902700  0.373800  1.0
  H  H153  1  0.968400  0.452800  0.127300  1.0
  H  H154  1  0.547200  0.468400  0.627300  1.0
  H  H155  1  0.531600  0.047200  0.127300  1.0
  H  H156  1  0.952800  0.031600  0.627300  1.0
  H  H157  1  0.031600  0.547200  0.872700  1.0
  H  H158  1  0.452800  0.531600  0.372700  1.0
  H  H159  1  0.468400  0.952800  0.872700  1.0
  H  H160  1  0.047200  0.968400  0.372700  1.0
  H  H161  1  0.971200  0.418800  0.279600  1.0
  H  H162  1  0.581200  0.471200  0.779600  1.0
  H  H163  1  0.528800  0.081200  0.279600  1.0
  H  H164  1  0.918800  0.028800  0.779600  1.0
  H  H165  1  0.028800  0.581200  0.720400  1.0
  H  H166  1  0.418800  0.528800  0.220400  1.0
  H  H167  1  0.471200  0.918800  0.720400  1.0
  H  H168  1  0.081200  0.971200  0.220400  1.0
  H  H169  1  0.001300  0.474300  0.248900  1.0
  H  H170  1  0.525700  0.501300  0.748900  1.0
  H  H171  1  0.498700  0.025700  0.248900  1.0
  H  H172  1  0.974300  0.998700  0.748900  1.0
  H  H173  1  0.998700  0.525700  0.751100  1.0
  H  H174  1  0.474300  0.498700  0.251100  1.0
  H  H175  1  0.501300  0.974300  0.751100  1.0
  H  H176  1  0.025700  0.001300  0.251100  1.0
  H  H177  1  0.068300  0.457100  0.163300  1.0
  H  H178  1  0.542900  0.568300  0.663300  1.0
  H  H179  1  0.431700  0.042900  0.163300  1.0
  H  H180  1  0.957100  0.931700  0.663300  1.0
  H  H181  1  0.931700  0.542900  0.836700  1.0
  H  H182  1  0.457100  0.431700  0.336700  1.0
  H  H183  1  0.568300  0.957100  0.836700  1.0
  H  H184  1  0.042900  0.068300  0.336700  1.0
  H  H185  1  0.139200  0.396000  0.123000  1.0
  H  H186  1  0.604000  0.639200  0.623000  1.0
  H  H187  1  0.360800  0.104000  0.123000  1.0
  H  H188  1  0.896000  0.860800  0.623000  1.0
  H  H189  1  0.860800  0.604000  0.877000  1.0
  H  H190  1  0.396000  0.360800  0.377000  1.0
  H  H191  1  0.639200  0.896000  0.877000  1.0
  H  H192  1  0.104000  0.139200  0.377000  1.0
  H  H193  1  0.140400  0.296300  0.146200  1.0
  H  H194  1  0.703700  0.640400  0.646200  1.0
  H  H195  1  0.359600  0.203700  0.146200  1.0
  H  H196  1  0.796300  0.859600  0.646200  1.0
  H  H197  1  0.859600  0.703700  0.853800  1.0
  H  H198  1  0.296300  0.359600  0.353800  1.0
  H  H199  1  0.640400  0.796300  0.853800  1.0
  H  H200  1  0.203700  0.140400  0.353800  1.0
  H  H201  1  0.070700  0.258600  0.211600  1.0
  H  H202  1  0.741400  0.570700  0.711600  1.0
  H  H203  1  0.429300  0.241400  0.211600  1.0
  H  H204  1  0.758600  0.929300  0.711600  1.0
  H  H205  1  0.929300  0.741400  0.788400  1.0
  H  H206  1  0.258600  0.429300  0.288400  1.0
  H  H207  1  0.570700  0.758600  0.788400  1.0
  H  H208  1  0.241400  0.070700  0.288400  1.0
  H  H209  1  0.000000  0.320700  0.252500  1.0
  H  H210  1  0.679300  0.500000  0.752500  1.0
  H  H211  1  0.500000  0.179300  0.252500  1.0
  H  H212  1  0.820700  0.000000  0.752500  1.0
  H  H213  1  0.000000  0.679300  0.747500  1.0
  H  H214  1  0.320700  0.500000  0.247500  1.0
  H  H215  1  0.500000  0.820700  0.747500  1.0
  H  H216  1  0.179300  0.000000  0.247500  1.0
  H  H217  1  0.786200  0.600300  0.421200  1.0
  H  H218  1  0.399700  0.286200  0.921200  1.0
  H  H219  1  0.713800  0.899700  0.421200  1.0
  H  H220  1  0.100300  0.213800  0.921200  1.0
  H  H221  1  0.213800  0.399700  0.578800  1.0
  H  H222  1  0.600300  0.713800  0.078800  1.0
  H  H223  1  0.286200  0.100300  0.578800  1.0
  H  H224  1  0.899700  0.786200  0.078800  1.0
  H  H225  1  0.853900  0.587400  0.407200  1.0
  H  H226  1  0.412600  0.353900  0.907200  1.0
  H  H227  1  0.646100  0.912600  0.407200  1.0
  H  H228  1  0.087400  0.146100  0.907200  1.0
  H  H229  1  0.146100  0.412600  0.592800  1.0
  H  H230  1  0.587400  0.646100  0.092800  1.0
  H  H231  1  0.353900  0.087400  0.592800  1.0
  H  H232  1  0.912600  0.853900  0.092800  1.0
  H  H233  1  0.849200  0.604000  0.506100  1.0
  H  H234  1  0.396000  0.349200  0.006100  1.0
  H  H235  1  0.650800  0.896000  0.506100  1.0
  H  H236  1  0.104000  0.150800  0.006100  1.0
  H  H237  1  0.150800  0.396000  0.493900  1.0
  H  H238  1  0.604000  0.650800  0.993900  1.0
  H  H239  1  0.349200  0.104000  0.493900  1.0
  H  H240  1  0.896000  0.849200  0.993900  1.0
  H  H241  1  0.860000  0.534900  0.498800  1.0
  H  H242  1  0.465100  0.360000  0.998800  1.0
  H  H243  1  0.640000  0.965100  0.498800  1.0
  H  H244  1  0.034900  0.140000  0.998800  1.0
  H  H245  1  0.140000  0.465100  0.501200  1.0
  H  H246  1  0.534900  0.640000  0.001200  1.0
  H  H247  1  0.360000  0.034900  0.501200  1.0
  H  H248  1  0.965100  0.860000  0.001200  1.0
  H  H249  1  0.785500  0.562900  0.571800  1.0
  H  H250  1  0.437100  0.285500  0.071800  1.0
  H  H251  1  0.714500  0.937100  0.571800  1.0
  H  H252  1  0.062900  0.214500  0.071800  1.0
  H  H253  1  0.214500  0.437100  0.428200  1.0
  H  H254  1  0.562900  0.714500  0.928200  1.0
  H  H255  1  0.285500  0.062900  0.428200  1.0
  H  H256  1  0.937100  0.785500  0.928200  1.0
  H  H257  1  0.744100  0.581000  0.518000  1.0
  H  H258  1  0.419000  0.244100  0.018000  1.0
  H  H259  1  0.755900  0.919000  0.518000  1.0
  H  H260  1  0.081000  0.255900  0.018000  1.0
  H  H261  1  0.255900  0.419000  0.482000  1.0
  H  H262  1  0.581000  0.755900  0.982000  1.0
  H  H263  1  0.244100  0.081000  0.482000  1.0
  H  H264  1  0.919000  0.744100  0.982000  1.0
  H  H265  1  0.686100  0.398500  0.561600  1.0
  H  H266  1  0.601500  0.186100  0.061600  1.0
  H  H267  1  0.813900  0.101500  0.561600  1.0
  H  H268  1  0.898500  0.313900  0.061600  1.0
  H  H269  1  0.313900  0.601500  0.438400  1.0
  H  H270  1  0.398500  0.813900  0.938400  1.0
  H  H271  1  0.186100  0.898500  0.438400  1.0
  H  H272  1  0.101500  0.686100  0.938400  1.0
  H  H273  1  0.625000  0.431800  0.550200  1.0
  H  H274  1  0.568200  0.125000  0.050200  1.0
  H  H275  1  0.875000  0.068200  0.550200  1.0
  H  H276  1  0.931800  0.375000  0.050200  1.0
  H  H277  1  0.375000  0.568200  0.449800  1.0
  H  H278  1  0.431800  0.875000  0.949800  1.0
  H  H279  1  0.125000  0.931800  0.449800  1.0
  H  H280  1  0.068200  0.625000  0.949800  1.0
  H  H281  1  0.700000  0.491400  0.597200  1.0
  H  H282  1  0.508600  0.200000  0.097200  1.0
  H  H283  1  0.800000  0.008600  0.597200  1.0
  H  H284  1  0.991400  0.300000  0.097200  1.0
  H  H285  1  0.300000  0.508600  0.402800  1.0
  H  H286  1  0.491400  0.800000  0.902800  1.0
  H  H287  1  0.200000  0.991400  0.402800  1.0
  H  H288  1  0.008600  0.700000  0.902800  1.0
  H  H289  1  0.670500  0.520900  0.540500  1.0
  H  H290  1  0.479100  0.170500  0.040500  1.0
  H  H291  1  0.829500  0.979100  0.540500  1.0
  H  H292  1  0.020900  0.329500  0.040500  1.0
  H  H293  1  0.329500  0.479100  0.459500  1.0
  H  H294  1  0.520900  0.829500  0.959500  1.0
  H  H295  1  0.170500  0.020900  0.459500  1.0
  H  H296  1  0.979100  0.670500  0.959500  1.0
  H  H297  1  0.835100  0.451300  0.531600  1.0
  H  H298  1  0.548700  0.335100  0.031600  1.0
  H  H299  1  0.664900  0.048700  0.531600  1.0
  H  H300  1  0.951300  0.164900  0.031600  1.0
  H  H301  1  0.164900  0.548700  0.468400  1.0
  H  H302  1  0.451300  0.664900  0.968400  1.0
  H  H303  1  0.335100  0.951300  0.468400  1.0
  H  H304  1  0.048700  0.835100  0.968400  1.0
  H  H305  1  0.781300  0.409600  0.549100  1.0
  H  H306  1  0.590400  0.281300  0.049100  1.0
  H  H307  1  0.718700  0.090400  0.549100  1.0
  H  H308  1  0.909600  0.218700  0.049100  1.0
  H  H309  1  0.218700  0.590400  0.450900  1.0
  H  H310  1  0.409600  0.718700  0.950900  1.0
  H  H311  1  0.281300  0.909600  0.450900  1.0
  H  H312  1  0.090400  0.781300  0.950900  1.0
  H  H313  1  0.876100  0.519600  0.606800  1.0
  H  H314  1  0.480400  0.376100  0.106800  1.0
  H  H315  1  0.623900  0.980400  0.606800  1.0
  H  H316  1  0.019600  0.123900  0.106800  1.0
  H  H317  1  0.123900  0.480400  0.393200  1.0
  H  H318  1  0.519600  0.623900  0.893200  1.0
  H  H319  1  0.376100  0.019600  0.393200  1.0
  H  H320  1  0.980400  0.876100  0.893200  1.0
  H  H321  1  0.895600  0.536300  0.706500  1.0
  H  H322  1  0.463700  0.395600  0.206500  1.0
  H  H323  1  0.604400  0.963700  0.706500  1.0
  H  H324  1  0.036300  0.104400  0.206500  1.0
  H  H325  1  0.104400  0.463700  0.293500  1.0
  H  H326  1  0.536300  0.604400  0.793500  1.0
  H  H327  1  0.395600  0.036300  0.293500  1.0
  H  H328  1  0.963700  0.895600  0.793500  1.0
  H  H329  1  0.840200  0.487100  0.777700  1.0
  H  H330  1  0.512900  0.340200  0.277700  1.0
  H  H331  1  0.659800  0.012900  0.777700  1.0
  H  H332  1  0.987100  0.159800  0.277700  1.0
  H  H333  1  0.159800  0.512900  0.222300  1.0
  H  H334  1  0.487100  0.659800  0.722300  1.0
  H  H335  1  0.340200  0.987100  0.222300  1.0
  H  H336  1  0.012900  0.840200  0.722300  1.0
  H  H337  1  0.768200  0.420900  0.749900  1.0
  H  H338  1  0.579100  0.268200  0.249900  1.0
  H  H339  1  0.731800  0.079100  0.749900  1.0
  H  H340  1  0.920900  0.231800  0.249900  1.0
  H  H341  1  0.231800  0.579100  0.250100  1.0
  H  H342  1  0.420900  0.731800  0.750100  1.0
  H  H343  1  0.268200  0.920900  0.250100  1.0
  H  H344  1  0.079100  0.768200  0.750100  1.0
  H  H345  1  0.748700  0.403800  0.651100  1.0
  H  H346  1  0.596200  0.248700  0.151100  1.0
  H  H347  1  0.751300  0.096200  0.651100  1.0
  H  H348  1  0.903800  0.251300  0.151100  1.0
  H  H349  1  0.251300  0.596200  0.348900  1.0
  H  H350  1  0.403800  0.751300  0.848900  1.0
  H  H351  1  0.248700  0.903800  0.348900  1.0
  H  H352  1  0.096200  0.748700  0.848900  1.0
  H  H353  1  0.023900  0.575200  0.410000  1.0
  H  H354  1  0.424800  0.523900  0.910000  1.0
  H  H355  1  0.476100  0.924800  0.410000  1.0
  H  H356  1  0.075200  0.976100  0.910000  1.0
  H  H357  1  0.976100  0.424800  0.590000  1.0
  H  H358  1  0.575200  0.476100  0.090000  1.0
  H  H359  1  0.523900  0.075200  0.590000  1.0
  H  H360  1  0.924800  0.023900  0.090000  1.0
  H  H361  1  0.018900  0.505900  0.398500  1.0
  H  H362  1  0.494100  0.518900  0.898500  1.0
  H  H363  1  0.481100  0.994100  0.398500  1.0
  H  H364  1  0.005900  0.981100  0.898500  1.0
  H  H365  1  0.981100  0.494100  0.601500  1.0
  H  H366  1  0.505900  0.481100  0.101500  1.0
  H  H367  1  0.518900  0.005900  0.601500  1.0
  H  H368  1  0.994100  0.018900  0.101500  1.0
  H  H369  1  0.968400  0.539300  0.434400  1.0
  H  H370  1  0.460700  0.468400  0.934400  1.0
  H  H371  1  0.531600  0.960700  0.434400  1.0
  H  H372  1  0.039300  0.031600  0.934400  1.0
  H  H373  1  0.031600  0.460700  0.565600  1.0
  H  H374  1  0.539300  0.531600  0.065600  1.0
  H  H375  1  0.468400  0.039300  0.565600  1.0
  H  H376  1  0.960700  0.968400  0.065600  1.0
  H  H377  1  0.782100  0.712800  0.295900  1.0
  H  H378  1  0.287200  0.282100  0.795900  1.0
  H  H379  1  0.717900  0.787200  0.295900  1.0
  H  H380  1  0.212800  0.217900  0.795900  1.0
  H  H381  1  0.217900  0.287200  0.704100  1.0
  H  H382  1  0.712800  0.717900  0.204100  1.0
  H  H383  1  0.282100  0.212800  0.704100  1.0
  H  H384  1  0.787200  0.782100  0.204100  1.0
  H  H385  1  0.780500  0.674900  0.355100  1.0
  H  H386  1  0.325100  0.280500  0.855100  1.0
  H  H387  1  0.719500  0.825100  0.355100  1.0
  H  H388  1  0.174900  0.219500  0.855100  1.0
  H  H389  1  0.219500  0.325100  0.644900  1.0
  H  H390  1  0.674900  0.719500  0.144900  1.0
  H  H391  1  0.280500  0.174900  0.644900  1.0
  H  H392  1  0.825100  0.780500  0.144900  1.0
  H  H393  1  0.740800  0.655900  0.300200  1.0
  H  H394  1  0.344100  0.240800  0.800200  1.0
  H  H395  1  0.759200  0.844100  0.300200  1.0
  H  H396  1  0.155900  0.259200  0.800200  1.0
  H  H397  1  0.259200  0.344100  0.699800  1.0
  H  H398  1  0.655900  0.759200  0.199800  1.0
  H  H399  1  0.240800  0.155900  0.699800  1.0
  H  H400  1  0.844100  0.740800  0.199800  1.0
  H  H401  1  0.752100  0.535400  0.097300  1.0
  H  H402  1  0.464600  0.252100  0.597300  1.0
  H  H403  1  0.747900  0.964600  0.097300  1.0
  H  H404  1  0.035400  0.247900  0.597300  1.0
  H  H405  1  0.247900  0.464600  0.902700  1.0
  H  H406  1  0.535400  0.747900  0.402700  1.0
  H  H407  1  0.252100  0.035400  0.902700  1.0
  H  H408  1  0.964600  0.752100  0.402700  1.0
  H  H409  1  0.722100  0.587900  0.133300  1.0
  H  H410  1  0.412100  0.222100  0.633300  1.0
  H  H411  1  0.777900  0.912100  0.133300  1.0
  H  H412  1  0.087900  0.277900  0.633300  1.0
  H  H413  1  0.277900  0.412100  0.866700  1.0
  H  H414  1  0.587900  0.777900  0.366700  1.0
  H  H415  1  0.222100  0.087900  0.866700  1.0
  H  H416  1  0.912100  0.722100  0.366700  1.0
  H  H417  1  0.689400  0.525700  0.127800  1.0
  H  H418  1  0.474300  0.189400  0.627800  1.0
  H  H419  1  0.810600  0.974300  0.127800  1.0
  H  H420  1  0.025700  0.310600  0.627800  1.0
  H  H421  1  0.310600  0.474300  0.872200  1.0
  H  H422  1  0.525700  0.810600  0.372200  1.0
  H  H423  1  0.189400  0.025700  0.872200  1.0
  H  H424  1  0.974300  0.689400  0.372200  1.0
  H  H425  1  0.016900  0.349600  0.434000  1.0
  H  H426  1  0.650400  0.516900  0.934000  1.0
  H  H427  1  0.483100  0.150400  0.434000  1.0
  H  H428  1  0.849600  0.983100  0.934000  1.0
  H  H429  1  0.983100  0.650400  0.566000  1.0
  H  H430  1  0.349600  0.483100  0.066000  1.0
  H  H431  1  0.516900  0.849600  0.566000  1.0
  H  H432  1  0.150400  0.016900  0.066000  1.0
  H  H433  1  0.982900  0.353500  0.495400  1.0
  H  H434  1  0.646500  0.482900  0.995400  1.0
  H  H435  1  0.517100  0.146500  0.495400  1.0
  H  H436  1  0.853500  0.017100  0.995400  1.0
  H  H437  1  0.017100  0.646500  0.504600  1.0
  H  H438  1  0.353500  0.517100  0.004600  1.0
  H  H439  1  0.482900  0.853500  0.504600  1.0
  H  H440  1  0.146500  0.982900  0.004600  1.0
  H  H441  1  0.025700  0.405700  0.475500  1.0
  H  H442  1  0.594300  0.525700  0.975500  1.0
  H  H443  1  0.474300  0.094300  0.475500  1.0
  H  H444  1  0.905700  0.974300  0.975500  1.0
  H  H445  1  0.974300  0.594300  0.524500  1.0
  H  H446  1  0.405700  0.474300  0.024500  1.0
  H  H447  1  0.525700  0.905700  0.524500  1.0
  H  H448  1  0.094300  0.025700  0.024500  1.0
  H  H449  1  0.810100  0.264700  0.415400  1.0
  H  H450  1  0.735300  0.310100  0.915400  1.0
  H  H451  1  0.689900  0.235300  0.415400  1.0
  H  H452  1  0.764700  0.189900  0.915400  1.0
  H  H453  1  0.189900  0.735300  0.584600  1.0
  H  H454  1  0.264700  0.689900  0.084600  1.0
  H  H455  1  0.310100  0.764700  0.584600  1.0
  H  H456  1  0.235300  0.810100  0.084600  1.0
  H  H457  1  0.862100  0.302400  0.444300  1.0
  H  H458  1  0.697600  0.362100  0.944300  1.0
  H  H459  1  0.637900  0.197600  0.444300  1.0
  H  H460  1  0.802400  0.137900  0.944300  1.0
  H  H461  1  0.137900  0.697600  0.555700  1.0
  H  H462  1  0.302400  0.637900  0.055700  1.0
  H  H463  1  0.362100  0.802400  0.555700  1.0
  H  H464  1  0.197600  0.862100  0.055700  1.0
  H  H465  1  0.844200  0.312900  0.377100  1.0
  H  H466  1  0.687100  0.344200  0.877100  1.0
  H  H467  1  0.655800  0.187100  0.377100  1.0
  H  H468  1  0.812900  0.155800  0.877100  1.0
  H  H469  1  0.155800  0.687100  0.622900  1.0
  H  H470  1  0.312900  0.655800  0.122900  1.0
  H  H471  1  0.344200  0.812900  0.622900  1.0
  H  H472  1  0.187100  0.844200  0.122900  1.0
  H  H473  1  0.628200  0.350700  0.314100  1.0
  H  H474  1  0.649300  0.128200  0.814100  1.0
  H  H475  1  0.871800  0.149300  0.314100  1.0
  H  H476  1  0.850700  0.371800  0.814100  1.0
  H  H477  1  0.371800  0.649300  0.685900  1.0
  H  H478  1  0.350700  0.871800  0.185900  1.0
  H  H479  1  0.128200  0.850700  0.685900  1.0
  H  H480  1  0.149300  0.628200  0.185900  1.0
  H  H481  1  0.604600  0.380000  0.373500  1.0
  H  H482  1  0.620000  0.104600  0.873500  1.0
  H  H483  1  0.895400  0.120000  0.373500  1.0
  H  H484  1  0.880000  0.395400  0.873500  1.0
  H  H485  1  0.395400  0.620000  0.626500  1.0
  H  H486  1  0.380000  0.895400  0.126500  1.0
  H  H487  1  0.104600  0.880000  0.626500  1.0
  H  H488  1  0.120000  0.604600  0.126500  1.0
  H  H489  1  0.669800  0.353600  0.370800  1.0
  H  H490  1  0.646400  0.169800  0.870800  1.0
  H  H491  1  0.830200  0.146400  0.370800  1.0
  H  H492  1  0.853600  0.330200  0.870800  1.0
  H  H493  1  0.330200  0.646400  0.629200  1.0
  H  H494  1  0.353600  0.830200  0.129200  1.0
  H  H495  1  0.169800  0.853600  0.629200  1.0
  H  H496  1  0.146400  0.669800  0.129200  1.0
  H  H497  1  0.662700  0.666500  0.399900  1.0
  H  H498  1  0.333500  0.162700  0.899900  1.0
  H  H499  1  0.837300  0.833500  0.399900  1.0
  H  H500  1  0.166500  0.337300  0.899900  1.0
  H  H501  1  0.337300  0.333500  0.600100  1.0
  H  H502  1  0.666500  0.837300  0.100100  1.0
  H  H503  1  0.162700  0.166500  0.600100  1.0
  H  H504  1  0.833500  0.662700  0.100100  1.0
  H  H505  1  0.618200  0.629800  0.440200  1.0
  H  H506  1  0.370200  0.118200  0.940200  1.0
  H  H507  1  0.881800  0.870200  0.440200  1.0
  H  H508  1  0.129800  0.381800  0.940200  1.0
  H  H509  1  0.381800  0.370200  0.559800  1.0
  H  H510  1  0.629800  0.881800  0.059800  1.0
  H  H511  1  0.118200  0.129800  0.559800  1.0
  H  H512  1  0.870200  0.618200  0.059800  1.0
  H  H513  1  0.606500  0.635300  0.371100  1.0
  H  H514  1  0.364700  0.106500  0.871100  1.0
  H  H515  1  0.893500  0.864700  0.371100  1.0
  H  H516  1  0.135300  0.393500  0.871100  1.0
  H  H517  1  0.393500  0.364700  0.628900  1.0
  H  H518  1  0.635300  0.893500  0.128900  1.0
  H  H519  1  0.106500  0.135300  0.628900  1.0
  H  H520  1  0.864700  0.606500  0.128900  1.0
  C  C521  1  0.136100  0.513800  0.013200  1
  C  C522  1  0.486200  0.636100  0.513200  1
  C  C523  1  0.363900  0.986200  0.013200  1
  C  C524  1  0.013800  0.863900  0.513200  1
  C  C525  1  0.863900  0.486200  0.986800  1
  C  C526  1  0.513800  0.363900  0.486800  1
  C  C527  1  0.636100  0.013800  0.986800  1
  C  C528  1  0.986200  0.136100  0.486800  1
  C  C529  1  0.065400  0.497600  0.019300  1
  C  C530  1  0.502400  0.565400  0.519300  1
  C  C531  1  0.434600  0.002400  0.019300  1
  C  C532  1  0.997600  0.934600  0.519300  1
  C  C533  1  0.934600  0.502400  0.980700  1
  C  C534  1  0.497600  0.434600  0.480700  1
  C  C535  1  0.565400  0.997600  0.980700  1
  C  C536  1  0.002400  0.065400  0.480700  1
  C  C537  1  0.220700  0.516400  0.065400  1
  C  C538  1  0.483600  0.720700  0.565400  1
  C  C539  1  0.279300  0.983600  0.065400  1
  C  C540  1  0.016400  0.779300  0.565400  1
  C  C541  1  0.779300  0.483600  0.934600  1
  C  C542  1  0.516400  0.279300  0.434600  1
  C  C543  1  0.720700  0.016400  0.934600  1
  C  C544  1  0.983600  0.220700  0.434600  1
  C  C545  1  0.247300  0.510900  0.129600  1
  C  C546  1  0.489100  0.747300  0.629600  1
  C  C547  1  0.252700  0.989100  0.129600  1
  C  C548  1  0.010900  0.752700  0.629600  1
  C  C549  1  0.752700  0.489100  0.870400  1
  C  C550  1  0.510900  0.252700  0.370400  1
  C  C551  1  0.747300  0.010900  0.870400  1
  C  C552  1  0.989100  0.247300  0.370400  1
  C  C553  1  0.750000  0.250000  0.632900  1
  C  C554  1  0.750000  0.250000  0.132900  1
  C  C555  1  0.250000  0.750000  0.367100  1
  C  C556  1  0.250000  0.750000  0.867100  1
  C  C557  1  0.750000  0.250000  0.571500  1
  C  C558  1  0.750000  0.250000  0.071500  1
  C  C559  1  0.250000  0.750000  0.428500  1
  C  C560  1  0.250000  0.750000  0.928500  1
  C  C561  1  0.677800  0.391700  0.113600  1
  C  C562  1  0.608300  0.177800  0.613600  1
  C  C563  1  0.822200  0.108300  0.113600  1
  C  C564  1  0.891700  0.322200  0.613600  1
  C  C565  1  0.322200  0.608300  0.886400  1
  C  C566  1  0.391700  0.822200  0.386400  1
  C  C567  1  0.177800  0.891700  0.886400  1
  C  C568  1  0.108300  0.677800  0.386400  1
  C  C569  1  0.667100  0.393200  0.172300  1
  C  C570  1  0.606800  0.167100  0.672300  1
  C  C571  1  0.832900  0.106800  0.172300  1
  C  C572  1  0.893200  0.332900  0.672300  1
  C  C573  1  0.332900  0.606800  0.827700  1
  C  C574  1  0.393200  0.832900  0.327700  1
  C  C575  1  0.167100  0.893200  0.827700  1
  C  C576  1  0.106800  0.667100  0.327700  1
  C  C577  1  0.281000  0.302300  0.199300  1.0
  C  C578  1  0.697700  0.781000  0.699300  1.0
  C  C579  1  0.219000  0.197700  0.199300  1.0
  C  C580  1  0.802300  0.719000  0.699300  1.0
  C  C581  1  0.719000  0.697700  0.800700  1.0
  C  C582  1  0.302300  0.219000  0.300700  1.0
  C  C583  1  0.781000  0.802300  0.800700  1.0
  C  C584  1  0.197700  0.281000  0.300700  1.0
  C  C585  1  0.318600  0.346700  0.152300  1.0
  C  C586  1  0.653300  0.818600  0.652300  1.0
  C  C587  1  0.181400  0.153300  0.152300  1.0
  C  C588  1  0.846700  0.681400  0.652300  1.0
  C  C589  1  0.681400  0.653300  0.847700  1.0
  C  C590  1  0.346700  0.181400  0.347700  1.0
  C  C591  1  0.818600  0.846700  0.847700  1.0
  C  C592  1  0.153300  0.318600  0.347700  1.0
  C  C593  1  0.811790  0.402890  0.273870  1.0
  C  C594  1  0.597110  0.311790  0.773870  1.0
  C  C595  1  0.688210  0.097110  0.273870  1.0
  C  C596  1  0.902890  0.188210  0.773870  1.0
  C  C597  1  0.188210  0.597110  0.726130  1.0
  C  C598  1  0.402890  0.688210  0.226130  1.0
  C  C599  1  0.311790  0.902890  0.726130  1.0
  C  C600  1  0.097110  0.811790  0.226130  1.0
  C  C601  1  0.863550  0.366690  0.250860  1.0
  C  C602  1  0.633310  0.363550  0.750860  1.0
  C  C603  1  0.636450  0.133310  0.250860  1.0
  C  C604  1  0.866690  0.136450  0.750860  1.0
  C  C605  1  0.136450  0.633310  0.749140  1.0
  C  C606  1  0.366690  0.636450  0.249140  1.0
  C  C607  1  0.363550  0.866690  0.749140  1.0
  C  C608  1  0.133310  0.863550  0.249140  1.0
  C  C609  1  0.892950  0.392250  0.196270  1.0
  C  C610  1  0.607750  0.392950  0.696270  1.0
  C  C611  1  0.607050  0.107750  0.196270  1.0
  C  C612  1  0.892250  0.107050  0.696270  1.0
  C  C613  1  0.107050  0.607750  0.803730  1.0
  C  C614  1  0.392250  0.607050  0.303730  1.0
  C  C615  1  0.392950  0.892250  0.803730  1.0
  C  C616  1  0.107750  0.892950  0.303730  1.0
  C  C617  1  0.962970  0.537370  0.160090  1.0
  C  C618  1  0.462630  0.462970  0.660090  1.0
  C  C619  1  0.537030  0.962630  0.160090  1.0
  C  C620  1  0.037370  0.037030  0.660090  1.0
  C  C621  1  0.037030  0.462630  0.839910  1.0
  C  C622  1  0.537370  0.537030  0.339910  1.0
  C  C623  1  0.462970  0.037370  0.839910  1.0
  C  C624  1  0.962630  0.962970  0.339910  1.0
  C  C625  1  0.939240  0.476180  0.149690  1.0
  C  C626  1  0.523820  0.439240  0.649690  1.0
  C  C627  1  0.560760  0.023820  0.149690  1.0
  C  C628  1  0.976180  0.060760  0.649690  1.0
  C  C629  1  0.060760  0.523820  0.850310  1.0
  C  C630  1  0.476180  0.560760  0.350310  1.0
  C  C631  1  0.439240  0.976180  0.850310  1.0
  C  C632  1  0.023820  0.939240  0.350310  1.0
  C  C633  1  0.982240  0.435870  0.241180  1.0
  C  C634  1  0.564130  0.482240  0.741180  1.0
  C  C635  1  0.517760  0.064130  0.241180  1.0
  C  C636  1  0.935870  0.017760  0.741180  1.0
  C  C637  1  0.017760  0.564130  0.758820  1.0
  C  C638  1  0.435870  0.517760  0.258820  1.0
  C  C639  1  0.482240  0.935870  0.758820  1.0
  C  C640  1  0.064130  0.982240  0.258820  1.0
  C  C641  1  0.027120  0.395710  0.212730  1.0
  C  C642  1  0.604290  0.527120  0.712730  1.0
  C  C643  1  0.472880  0.104290  0.212730  1.0
  C  C644  1  0.895710  0.972880  0.712730  1.0
  C  C645  1  0.972880  0.604290  0.787270  1.0
  C  C646  1  0.395710  0.472880  0.287270  1.0
  C  C647  1  0.527120  0.895710  0.787270  1.0
  C  C648  1  0.104290  0.027120  0.287270  1.0
  C  C649  1  0.068730  0.416560  0.173640  1.0
  C  C650  1  0.583440  0.568730  0.673640  1.0
  C  C651  1  0.431270  0.083440  0.173640  1.0
  C  C652  1  0.916560  0.931270  0.673640  1.0
  C  C653  1  0.931270  0.583440  0.826360  1.0
  C  C654  1  0.416560  0.431270  0.326360  1.0
  C  C655  1  0.568730  0.916560  0.826360  1.0
  C  C656  1  0.083440  0.068730  0.326360  1.0
  C  C657  1  0.110800  0.380260  0.149300  1.0
  C  C658  1  0.619740  0.610800  0.649300  1.0
  C  C659  1  0.389200  0.119740  0.149300  1.0
  C  C660  1  0.880260  0.889200  0.649300  1.0
  C  C661  1  0.889200  0.619740  0.850700  1.0
  C  C662  1  0.380260  0.389200  0.350700  1.0
  C  C663  1  0.610800  0.880260  0.850700  1.0
  C  C664  1  0.119740  0.110800  0.350700  1.0
  C  C665  1  0.111670  0.321500  0.163100  1.0
  C  C666  1  0.678500  0.611670  0.663100  1.0
  C  C667  1  0.388330  0.178500  0.163100  1.0
  C  C668  1  0.821500  0.888330  0.663100  1.0
  C  C669  1  0.888330  0.678500  0.836900  1.0
  C  C670  1  0.321500  0.388330  0.336900  1.0
  C  C671  1  0.611670  0.821500  0.836900  1.0
  C  C672  1  0.178500  0.111670  0.336900  1.0
  C  C673  1  0.070370  0.299180  0.201700  1.0
  C  C674  1  0.700820  0.570370  0.701700  1.0
  C  C675  1  0.429630  0.200820  0.201700  1.0
  C  C676  1  0.799180  0.929630  0.701700  1.0
  C  C677  1  0.929630  0.700820  0.798300  1.0
  C  C678  1  0.299180  0.429630  0.298300  1.0
  C  C679  1  0.570370  0.799180  0.798300  1.0
  C  C680  1  0.200820  0.070370  0.298300  1.0
  C  C681  1  0.028350  0.336390  0.226110  1.0
  C  C682  1  0.663610  0.528350  0.726110  1.0
  C  C683  1  0.471650  0.163610  0.226110  1.0
  C  C684  1  0.836390  0.971650  0.726110  1.0
  C  C685  1  0.971650  0.663610  0.773890  1.0
  C  C686  1  0.336390  0.471650  0.273890  1.0
  C  C687  1  0.528350  0.836390  0.773890  1.0
  C  C688  1  0.163610  0.028350  0.273890  1.0
  C  C689  1  0.818480  0.571730  0.427200  1.0
  C  C690  1  0.428270  0.318480  0.927200  1.0
  C  C691  1  0.681520  0.928270  0.427200  1.0
  C  C692  1  0.071730  0.181520  0.927200  1.0
  C  C693  1  0.181520  0.428270  0.572800  1.0
  C  C694  1  0.571730  0.681520  0.072800  1.0
  C  C695  1  0.318480  0.071730  0.572800  1.0
  C  C696  1  0.928270  0.818480  0.072800  1.0
  C  C697  1  0.831020  0.566810  0.492520  1.0
  C  C698  1  0.433190  0.331020  0.992520  1.0
  C  C699  1  0.668980  0.933190  0.492520  1.0
  C  C700  1  0.066810  0.168980  0.992520  1.0
  C  C701  1  0.168980  0.433190  0.507480  1.0
  C  C702  1  0.566810  0.668980  0.007480  1.0
  C  C703  1  0.331020  0.066810  0.507480  1.0
  C  C704  1  0.933190  0.831020  0.007480  1.0
  C  C705  1  0.776180  0.554250  0.530280  1.0
  C  C706  1  0.445750  0.276180  0.030280  1.0
  C  C707  1  0.723820  0.945750  0.530280  1.0
  C  C708  1  0.054250  0.223820  0.030280  1.0
  C  C709  1  0.223820  0.445750  0.469720  1.0
  C  C710  1  0.554250  0.723820  0.969720  1.0
  C  C711  1  0.276180  0.054250  0.469720  1.0
  C  C712  1  0.945750  0.776180  0.969720  1.0
  C  C713  1  0.667090  0.430550  0.539130  1.0
  C  C714  1  0.569450  0.167090  0.039130  1.0
  C  C715  1  0.832910  0.069450  0.539130  1.0
  C  C716  1  0.930550  0.332910  0.039130  1.0
  C  C717  1  0.332910  0.569450  0.460870  1.0
  C  C718  1  0.430550  0.832910  0.960870  1.0
  C  C719  1  0.167090  0.930550  0.460870  1.0
  C  C720  1  0.069450  0.667090  0.960870  1.0
  C  C721  1  0.695700  0.488100  0.554100  1.0
  C  C722  1  0.511900  0.195700  0.054100  1.0
  C  C723  1  0.804300  0.011900  0.554100  1.0
  C  C724  1  0.988100  0.304300  0.054100  1.0
  C  C725  1  0.304300  0.511900  0.445900  1.0
  C  C726  1  0.488100  0.804300  0.945900  1.0
  C  C727  1  0.195700  0.988100  0.445900  1.0
  C  C728  1  0.011900  0.695700  0.945900  1.0
  C  C729  1  0.797500  0.449850  0.553520  1.0
  C  C730  1  0.550150  0.297500  0.053520  1.0
  C  C731  1  0.702500  0.050150  0.553520  1.0
  C  C732  1  0.949850  0.202500  0.053520  1.0
  C  C733  1  0.202500  0.550150  0.446480  1.0
  C  C734  1  0.449850  0.702500  0.946480  1.0
  C  C735  1  0.297500  0.949850  0.446480  1.0
  C  C736  1  0.050150  0.797500  0.946480  1.0
  C  C737  1  0.810340  0.460450  0.617890  1.0
  C  C738  1  0.539550  0.310340  0.117890  1.0
  C  C739  1  0.689660  0.039550  0.617890  1.0
  C  C740  1  0.960450  0.189660  0.117890  1.0
  C  C741  1  0.189660  0.539550  0.382110  1.0
  C  C742  1  0.460450  0.689660  0.882110  1.0
  C  C743  1  0.310340  0.960450  0.382110  1.0
  C  C744  1  0.039550  0.810340  0.882110  1.0
  C  C745  1  0.853700  0.499300  0.635700  1.0
  C  C746  1  0.500700  0.353700  0.135700  1.0
  C  C747  1  0.646300  0.000700  0.635700  1.0
  C  C748  1  0.999300  0.146300  0.135700  1.0
  C  C749  1  0.146300  0.500700  0.364300  1.0
  C  C750  1  0.499300  0.646300  0.864300  1.0
  C  C751  1  0.353700  0.999300  0.364300  1.0
  C  C752  1  0.000700  0.853700  0.864300  1.0
  C  C753  1  0.865500  0.509500  0.695200  1.0
  C  C754  1  0.490500  0.365500  0.195200  1.0
  C  C755  1  0.634500  0.990500  0.695200  1.0
  C  C756  1  0.009500  0.134500  0.195200  1.0
  C  C757  1  0.134500  0.490500  0.304800  1.0
  C  C758  1  0.509500  0.634500  0.804800  1.0
  C  C759  1  0.365500  0.009500  0.304800  1.0
  C  C760  1  0.990500  0.865500  0.804800  1.0
  C  C761  1  0.832900  0.480200  0.737200  1.0
  C  C762  1  0.519800  0.332900  0.237200  1.0
  C  C763  1  0.667100  0.019800  0.737200  1.0
  C  C764  1  0.980200  0.167100  0.237200  1.0
  C  C765  1  0.167100  0.519800  0.262800  1.0
  C  C766  1  0.480200  0.667100  0.762800  1.0
  C  C767  1  0.332900  0.980200  0.262800  1.0
  C  C768  1  0.019800  0.832900  0.762800  1.0
  C  C769  1  0.790100  0.441100  0.720740  1.0
  C  C770  1  0.558900  0.290100  0.220740  1.0
  C  C771  1  0.709900  0.058900  0.720740  1.0
  C  C772  1  0.941100  0.209900  0.220740  1.0
  C  C773  1  0.209900  0.558900  0.279260  1.0
  C  C774  1  0.441100  0.709900  0.779260  1.0
  C  C775  1  0.290100  0.941100  0.279260  1.0
  C  C776  1  0.058900  0.790100  0.779260  1.0
  C  C777  1  0.778510  0.431000  0.661820  1.0
  C  C778  1  0.569000  0.278510  0.161820  1.0
  C  C779  1  0.721490  0.069000  0.661820  1.0
  C  C780  1  0.931000  0.221490  0.161820  1.0
  C  C781  1  0.221490  0.569000  0.338180  1.0
  C  C782  1  0.431000  0.721490  0.838180  1.0
  C  C783  1  0.278510  0.931000  0.338180  1.0
  C  C784  1  0.069000  0.778510  0.838180  1.0
  C  C785  1  0.964440  0.554360  0.346110  1.0
  C  C786  1  0.445640  0.464440  0.846110  1.0
  C  C787  1  0.535560  0.945640  0.346110  1.0
  C  C788  1  0.054360  0.035560  0.846110  1.0
  C  C789  1  0.035560  0.445640  0.653890  1.0
  C  C790  1  0.554360  0.535560  0.153890  1.0
  C  C791  1  0.464440  0.054360  0.653890  1.0
  C  C792  1  0.945640  0.964440  0.153890  1.0
  C  C793  1  0.996700  0.542700  0.402000  1.0
  C  C794  1  0.457300  0.496700  0.902000  1.0
  C  C795  1  0.503300  0.957300  0.402000  1.0
  C  C796  1  0.042700  0.003300  0.902000  1.0
  C  C797  1  0.003300  0.457300  0.598000  1.0
  C  C798  1  0.542700  0.503300  0.098000  1.0
  C  C799  1  0.496700  0.042700  0.598000  1.0
  C  C800  1  0.957300  0.996700  0.098000  1.0
  C  C801  1  0.828000  0.635390  0.289490  1.0
  C  C802  1  0.364610  0.328000  0.789490  1.0
  C  C803  1  0.672000  0.864610  0.289490  1.0
  C  C804  1  0.135390  0.172000  0.789490  1.0
  C  C805  1  0.172000  0.364610  0.710510  1.0
  C  C806  1  0.635390  0.672000  0.210510  1.0
  C  C807  1  0.328000  0.135390  0.710510  1.0
  C  C808  1  0.864610  0.828000  0.210510  1.0
  C  C809  1  0.778560  0.672990  0.312120  1.0
  C  C810  1  0.327010  0.278560  0.812120  1.0
  C  C811  1  0.721440  0.827010  0.312120  1.0
  C  C812  1  0.172990  0.221440  0.812120  1.0
  C  C813  1  0.221440  0.327010  0.687880  1.0
  C  C814  1  0.672990  0.721440  0.187880  1.0
  C  C815  1  0.278560  0.172990  0.687880  1.0
  C  C816  1  0.827010  0.778560  0.187880  1.0
  C  C817  1  0.758070  0.524290  0.186810  1.0
  C  C818  1  0.475710  0.258070  0.686810  1.0
  C  C819  1  0.741930  0.975710  0.186810  1.0
  C  C820  1  0.024290  0.241930  0.686810  1.0
  C  C821  1  0.241930  0.475710  0.813190  1.0
  C  C822  1  0.524290  0.741930  0.313190  1.0
  C  C823  1  0.258070  0.024290  0.813190  1.0
  C  C824  1  0.975710  0.758070  0.313190  1.0
  C  C825  1  0.727720  0.545160  0.131400  1.0
  C  C826  1  0.454840  0.227720  0.631400  1.0
  C  C827  1  0.772280  0.954840  0.131400  1.0
  C  C828  1  0.045160  0.272280  0.631400  1.0
  C  C829  1  0.272280  0.454840  0.868600  1.0
  C  C830  1  0.545160  0.772280  0.368600  1.0
  C  C831  1  0.227720  0.045160  0.868600  1.0
  C  C832  1  0.954840  0.727720  0.368600  1.0
  C  C833  1  0.946440  0.406510  0.431810  1.0
  C  C834  1  0.593490  0.446440  0.931810  1.0
  C  C835  1  0.553560  0.093490  0.431810  1.0
  C  C836  1  0.906510  0.053560  0.931810  1.0
  C  C837  1  0.053560  0.593490  0.568190  1.0
  C  C838  1  0.406510  0.553560  0.068190  1.0
  C  C839  1  0.446440  0.906510  0.568190  1.0
  C  C840  1  0.093490  0.946440  0.068190  1.0
  C  C841  1  0.997500  0.376100  0.461800  1.0
  C  C842  1  0.623900  0.497500  0.961800  1.0
  C  C843  1  0.502500  0.123900  0.461800  1.0
  C  C844  1  0.876100  0.002500  0.961800  1.0
  C  C845  1  0.002500  0.623900  0.538200  1.0
  C  C846  1  0.376100  0.502500  0.038200  1.0
  C  C847  1  0.497500  0.876100  0.538200  1.0
  C  C848  1  0.123900  0.997500  0.038200  1.0
  C  C849  1  0.785880  0.348790  0.434840  1.0
  C  C850  1  0.651210  0.285880  0.934840  1.0
  C  C851  1  0.714120  0.151210  0.434840  1.0
  C  C852  1  0.848790  0.214120  0.934840  1.0
  C  C853  1  0.214120  0.651210  0.565160  1.0
  C  C854  1  0.348790  0.714120  0.065160  1.0
  C  C855  1  0.285880  0.848790  0.565160  1.0
  C  C856  1  0.151210  0.785880  0.065160  1.0
  C  C857  1  0.829300  0.303300  0.416300  1.0
  C  C858  1  0.696700  0.329300  0.916300  1.0
  C  C859  1  0.670700  0.196700  0.416300  1.0
  C  C860  1  0.803300  0.170700  0.916300  1.0
  C  C861  1  0.170700  0.696700  0.583700  1.0
  C  C862  1  0.303300  0.670700  0.083700  1.0
  C  C863  1  0.329300  0.803300  0.583700  1.0
  C  C864  1  0.196700  0.829300  0.083700  1.0
  C  C865  1  0.662210  0.433060  0.328690  1.0
  C  C866  1  0.566940  0.162210  0.828690  1.0
  C  C867  1  0.837790  0.066940  0.328690  1.0
  C  C868  1  0.933060  0.337790  0.828690  1.0
  C  C869  1  0.337790  0.566940  0.671310  1.0
  C  C870  1  0.433060  0.837790  0.171310  1.0
  C  C871  1  0.162210  0.933060  0.671310  1.0
  C  C872  1  0.066940  0.662210  0.171310  1.0
  C  C873  1  0.639190  0.374210  0.348500  1.0
  C  C874  1  0.625790  0.139190  0.848500  1.0
  C  C875  1  0.860810  0.125790  0.348500  1.0
  C  C876  1  0.874210  0.360810  0.848500  1.0
  C  C877  1  0.360810  0.625790  0.651500  1.0
  C  C878  1  0.374210  0.860810  0.151500  1.0
  C  C879  1  0.139190  0.874210  0.651500  1.0
  C  C880  1  0.125790  0.639190  0.151500  1.0
  C  C881  1  0.672600  0.577220  0.391170  1.0
  C  C882  1  0.422780  0.172600  0.891170  1.0
  C  C883  1  0.827400  0.922780  0.391170  1.0
  C  C884  1  0.077220  0.327400  0.891170  1.0
  C  C885  1  0.327400  0.422780  0.608830  1.0
  C  C886  1  0.577220  0.827400  0.108830  1.0
  C  C887  1  0.172600  0.077220  0.608830  1.0
  C  C888  1  0.922780  0.672600  0.108830  1.0
  C  C889  1  0.636910  0.631960  0.401490  1.0
  C  C890  1  0.368040  0.136910  0.901490  1.0
  C  C891  1  0.863090  0.868040  0.401490  1.0
  C  C892  1  0.131960  0.363090  0.901490  1.0
  C  C893  1  0.363090  0.368040  0.598510  1.0
  C  C894  1  0.631960  0.863090  0.098510  1.0
  C  C895  1  0.136910  0.131960  0.598510  1.0
  C  C896  1  0.868040  0.636910  0.098510  1.0
  N  N897  1  0.750000  0.250000  0.691100  1
  N  N898  1  0.750000  0.250000  0.191100  1
  N  N899  1  0.250000  0.750000  0.308900  1
  N  N900  1  0.250000  0.750000  0.808900  1
  N  N901  1  0.686000  0.390900  0.063200  1
  N  N902  1  0.609100  0.186000  0.563200  1
  N  N903  1  0.814000  0.109100  0.063200  1
  N  N904  1  0.890900  0.314000  0.563200  1
  N  N905  1  0.314000  0.609100  0.936800  1
  N  N906  1  0.390900  0.814000  0.436800  1
  N  N907  1  0.186000  0.890900  0.936800  1
  N  N908  1  0.109100  0.686000  0.436800  1
  N  N909  1  0.926720  0.446730  0.206720  1.0
  N  N910  1  0.553270  0.426720  0.706720  1.0
  N  N911  1  0.573280  0.053270  0.206720  1.0
  N  N912  1  0.946730  0.073280  0.706720  1.0
  N  N913  1  0.073280  0.553270  0.793280  1.0
  N  N914  1  0.446730  0.573280  0.293280  1.0
  N  N915  1  0.426720  0.946730  0.793280  1.0
  N  N916  1  0.053270  0.926720  0.293280  1.0
  N  N917  1  0.755170  0.492650  0.525700  1.0
  N  N918  1  0.507350  0.255170  0.025700  1.0
  N  N919  1  0.744830  0.007350  0.525700  1.0
  N  N920  1  0.992650  0.244830  0.025700  1.0
  N  N921  1  0.244830  0.507350  0.474300  1.0
  N  N922  1  0.492650  0.744830  0.974300  1.0
  N  N923  1  0.255170  0.992650  0.474300  1.0
  N  N924  1  0.007350  0.755170  0.974300  1.0
  O  O925  1  0.165200  0.502300  0.068300  1
  O  O926  1  0.497700  0.665200  0.568300  1
  O  O927  1  0.334800  0.997700  0.068300  1
  O  O928  1  0.002300  0.834800  0.568300  1
  O  O929  1  0.834800  0.497700  0.931700  1
  O  O930  1  0.502300  0.334800  0.431700  1
  O  O931  1  0.665200  0.002300  0.931700  1
  O  O932  1  0.997700  0.165200  0.431700  1
  O  O933  1  0.250000  0.250000  0.168400  1
  O  O934  1  0.750000  0.750000  0.668400  1
  O  O935  1  0.750000  0.750000  0.831600  1
  O  O936  1  0.250000  0.250000  0.331600  1
  O  O937  1  0.829040  0.457300  0.300160  1.0
  O  O938  1  0.542700  0.329040  0.800160  1.0
  O  O939  1  0.670960  0.042700  0.300160  1.0
  O  O940  1  0.957300  0.170960  0.800160  1.0
  O  O941  1  0.170960  0.542700  0.699840  1.0
  O  O942  1  0.457300  0.670960  0.199840  1.0
  O  O943  1  0.329040  0.957300  0.699840  1.0
  O  O944  1  0.042700  0.829040  0.199840  1.0
  O  O945  1  0.928580  0.566100  0.202730  1.0
  O  O946  1  0.433900  0.428580  0.702730  1.0
  O  O947  1  0.571420  0.933900  0.202730  1.0
  O  O948  1  0.066100  0.071420  0.702730  1.0
  O  O949  1  0.071420  0.433900  0.797270  1.0
  O  O950  1  0.566100  0.571420  0.297270  1.0
  O  O951  1  0.428580  0.066100  0.797270  1.0
  O  O952  1  0.933900  0.928580  0.297270  1.0
  O  O953  1  0.802580  0.517100  0.400730  1.0
  O  O954  1  0.482900  0.302580  0.900730  1.0
  O  O955  1  0.697420  0.982900  0.400730  1.0
  O  O956  1  0.017100  0.197420  0.900730  1.0
  O  O957  1  0.197420  0.482900  0.599270  1.0
  O  O958  1  0.517100  0.697420  0.099270  1.0
  O  O959  1  0.302580  0.017100  0.599270  1.0
  O  O960  1  0.982900  0.802580  0.099270  1.0
  O  O961  1  0.672380  0.419020  0.476900  1.0
  O  O962  1  0.580980  0.172380  0.976900  1.0
  O  O963  1  0.827620  0.080980  0.476900  1.0
  O  O964  1  0.919020  0.327620  0.976900  1.0
  O  O965  1  0.327620  0.580980  0.523100  1.0
  O  O966  1  0.419020  0.827620  0.023100  1.0
  O  O967  1  0.172380  0.919020  0.523100  1.0
  O  O968  1  0.080980  0.672380  0.023100  1.0
  O  O969  1  0.922680  0.519120  0.332550  1.0
  O  O970  1  0.480880  0.422680  0.832550  1.0
  O  O971  1  0.577320  0.980880  0.332550  1.0
  O  O972  1  0.019120  0.077320  0.832550  1.0
  O  O973  1  0.077320  0.480880  0.667450  1.0
  O  O974  1  0.519120  0.577320  0.167450  1.0
  O  O975  1  0.422680  0.019120  0.667450  1.0
  O  O976  1  0.980880  0.922680  0.167450  1.0
  O  O977  1  0.980130  0.597250  0.316500  1.0
  O  O978  1  0.402750  0.480130  0.816500  1.0
  O  O979  1  0.519870  0.902750  0.316500  1.0
  O  O980  1  0.097250  0.019870  0.816500  1.0
  O  O981  1  0.019870  0.402750  0.683500  1.0
  O  O982  1  0.597250  0.519870  0.183500  1.0
  O  O983  1  0.480130  0.097250  0.683500  1.0
  O  O984  1  0.902750  0.980130  0.183500  1.0
  O  O985  1  0.821970  0.579700  0.289000  1.0
  O  O986  1  0.420300  0.321970  0.789000  1.0
  O  O987  1  0.678030  0.920300  0.289000  1.0
  O  O988  1  0.079700  0.178030  0.789000  1.0
  O  O989  1  0.178030  0.420300  0.711000  1.0
  O  O990  1  0.579700  0.678030  0.211000  1.0
  O  O991  1  0.321970  0.079700  0.711000  1.0
  O  O992  1  0.920300  0.821970  0.211000  1.0
  O  O993  1  0.872670  0.661250  0.272730  1.0
  O  O994  1  0.338750  0.372670  0.772730  1.0
  O  O995  1  0.627330  0.838750  0.272730  1.0
  O  O996  1  0.161250  0.127330  0.772730  1.0
  O  O997  1  0.127330  0.338750  0.727270  1.0
  O  O998  1  0.661250  0.627330  0.227270  1.0
  O  O999  1  0.372670  0.161250  0.727270  1.0
  O  O1000  1  0.838750  0.872670  0.227270  1.0
  O  O1001  1  0.811130  0.511970  0.184140  1.0
  O  O1002  1  0.488030  0.311130  0.684140  1.0
  O  O1003  1  0.688870  0.988030  0.184140  1.0
  O  O1004  1  0.011970  0.188870  0.684140  1.0
  O  O1005  1  0.188870  0.488030  0.815860  1.0
  O  O1006  1  0.511970  0.688870  0.315860  1.0
  O  O1007  1  0.311130  0.011970  0.815860  1.0
  O  O1008  1  0.988030  0.811130  0.315860  1.0
  O  O1009  1  0.727000  0.520100  0.234120  1.0
  O  O1010  1  0.479900  0.227000  0.734120  1.0
  O  O1011  1  0.773000  0.979900  0.234120  1.0
  O  O1012  1  0.020100  0.273000  0.734120  1.0
  O  O1013  1  0.273000  0.479900  0.765880  1.0
  O  O1014  1  0.520100  0.773000  0.265880  1.0
  O  O1015  1  0.227000  0.020100  0.765880  1.0
  O  O1016  1  0.979900  0.727000  0.265880  1.0
  O  O1017  1  0.933130  0.392860  0.379980  1.0
  O  O1018  1  0.607140  0.433130  0.879980  1.0
  O  O1019  1  0.566870  0.107140  0.379980  1.0
  O  O1020  1  0.892860  0.066870  0.879980  1.0
  O  O1021  1  0.066870  0.607140  0.620020  1.0
  O  O1022  1  0.392860  0.566870  0.120020  1.0
  O  O1023  1  0.433130  0.892860  0.620020  1.0
  O  O1024  1  0.107140  0.933130  0.120020  1.0
  O  O1025  1  0.918930  0.446660  0.458700  1.0
  O  O1026  1  0.553340  0.418930  0.958700  1.0
  O  O1027  1  0.581070  0.053340  0.458700  1.0
  O  O1028  1  0.946660  0.081070  0.958700  1.0
  O  O1029  1  0.081070  0.553340  0.541300  1.0
  O  O1030  1  0.446660  0.581070  0.041300  1.0
  O  O1031  1  0.418930  0.946660  0.541300  1.0
  O  O1032  1  0.053340  0.918930  0.041300  1.0
  O  O1033  1  0.797620  0.403100  0.425000  1.0
  O  O1034  1  0.596900  0.297620  0.925000  1.0
  O  O1035  1  0.702380  0.096900  0.425000  1.0
  O  O1036  1  0.903100  0.202380  0.925000  1.0
  O  O1037  1  0.202380  0.596900  0.575000  1.0
  O  O1038  1  0.403100  0.702380  0.075000  1.0
  O  O1039  1  0.297620  0.903100  0.575000  1.0
  O  O1040  1  0.096900  0.797620  0.075000  1.0
  O  O1041  1  0.739620  0.332360  0.459480  1.0
  O  O1042  1  0.667640  0.239620  0.959480  1.0
  O  O1043  1  0.760380  0.167640  0.459480  1.0
  O  O1044  1  0.832360  0.260380  0.959480  1.0
  O  O1045  1  0.260380  0.667640  0.540520  1.0
  O  O1046  1  0.332360  0.760380  0.040520  1.0
  O  O1047  1  0.239620  0.832360  0.540520  1.0
  O  O1048  1  0.167640  0.739620  0.040520  1.0
  O  O1049  1  0.712130  0.449730  0.349950  1.0
  O  O1050  1  0.550270  0.212130  0.849950  1.0
  O  O1051  1  0.787870  0.050270  0.349950  1.0
  O  O1052  1  0.949730  0.287870  0.849950  1.0
  O  O1053  1  0.287870  0.550270  0.650050  1.0
  O  O1054  1  0.449730  0.787870  0.150050  1.0
  O  O1055  1  0.212130  0.949730  0.650050  1.0
  O  O1056  1  0.050270  0.712130  0.150050  1.0
  O  O1057  1  0.039010  0.633510  0.207850  1.0
  O  O1058  1  0.366490  0.539010  0.707850  1.0
  O  O1059  1  0.460990  0.866490  0.207850  1.0
  O  O1060  1  0.133510  0.960990  0.707850  1.0
  O  O1061  1  0.960990  0.366490  0.792150  1.0
  O  O1062  1  0.633510  0.460990  0.292150  1.0
  O  O1063  1  0.539010  0.133510  0.792150  1.0
  O  O1064  1  0.866490  0.039010  0.292150  1.0
  O  O1065  1  0.694090  0.570690  0.339590  1.0
  O  O1066  1  0.429310  0.194090  0.839590  1.0
  O  O1067  1  0.805910  0.929310  0.339590  1.0
  O  O1068  1  0.070690  0.305910  0.839590  1.0
  O  O1069  1  0.305910  0.429310  0.660410  1.0
  O  O1070  1  0.570690  0.805910  0.160410  1.0
  O  O1071  1  0.194090  0.070690  0.660410  1.0
  O  O1072  1  0.929310  0.694090  0.160410  1.0
  O  O1073  1  0.680900  0.542620  0.433210  1.0
  O  O1074  1  0.457380  0.180900  0.933210  1.0
  O  O1075  1  0.819100  0.957380  0.433210  1.0
  O  O1076  1  0.042620  0.319100  0.933210  1.0
  O  O1077  1  0.319100  0.457380  0.566790  1.0
  O  O1078  1  0.542620  0.819100  0.066790  1.0
  O  O1079  1  0.180900  0.042620  0.566790  1.0
  O  O1080  1  0.957380  0.680900  0.066790  1.0
