
#######################################################################
#
#                 Cambridge Crystallographic Data Centre
#                                CCDC 
#
#######################################################################
#
# If this CIF has been generated from an entry in the Cambridge 
# Structural Database, then it will include bibliographic, chemical, 
# crystal, experimental, refinement or atomic coordinate data resulting 
# from the CCDC's data processing and validation procedures.
#
#######################################################################

data_GENXEE
_chemical_formula_moiety         'C152 H224 Cu8 N8 Ni12 O72,6(C4 H10 O1)'
_chemical_name_systematic        
'tetrakis(\m~4~-3-(Benzyl(2-oxidoxyethyl)amino)propan-1-olato)-icosakis(\m~3~-acetato)-tetrakis(\m~3~-3-(benzyl(2-hydroxyethyl)amino)propan-1-olato)-tetrakis(\m~2~-acetato)-tetrakis(acetato)-octa-copper(ii)-dodeca-nickel(ii) diethyl ether solvate'
_symmetry_cell_setting           tetragonal
_symmetry_space_group_name_H-M   'I 41/a'
_symmetry_Int_Tables_number      88
_space_group_name_Hall           '-I 4ad'
loop_
_symmetry_equiv_pos_site_id
_symmetry_equiv_pos_as_xyz
1 x,y,z
2 3/4-y,1/4+x,1/4+z
3 1/2-x,-y,1/2+z
4 3/4+y,3/4-x,3/4+z
5 1/2+x,1/2+y,1/2+z
6 1/4-y,3/4+x,3/4+z
7 -x,1/2-y,z
8 1/4+y,1/4-x,1/4+z
9 -x,-y,-z
10 1/4+y,3/4-x,3/4-z
11 1/2+x,y,1/2-z
12 1/4-y,1/4+x,1/4-z
13 1/2-x,1/2-y,1/2-z
14 3/4+y,1/4-x,1/4-z
15 x,1/2+y,-z
16 3/4-y,3/4+x,3/4-z
_cell_length_a                   39.350(8)
_cell_length_b                   39.350(8)
_cell_length_c                   16.830(4)
_cell_angle_alpha                90
_cell_angle_beta                 90
_cell_angle_gamma                90
_cell_volume                     26060
_exptl_crystal_colour            green
_exptl_crystal_description       plate
_cell_formula_units_Z            4
loop_
_atom_site_label
_atom_site_type_symbol
_atom_site_fract_x
_atom_site_fract_y
_atom_site_fract_z
Cu1 Cu 0.517673(11) 0.928831(10) 1.30698(2)
Cu2 Cu 0.595740(10) 0.842110(10) 1.10760(2)
Ni1 Ni 0.534559(10) 0.899542(10) 1.13102(2)
Ni2 Ni 0.471752(10) 0.878510(11) 1.22463(2)
Ni3 Ni 0.448984(13) 0.898525(12) 1.38771(3)
O1 O 0.49794(6) 0.92259(6) 1.20131(13)
O2 O 0.56932(6) 0.87838(6) 1.06063(14)
O3 O 0.49392(6) 0.88642(6) 1.33531(14)
O4 O 0.40418(8) 0.91308(8) 1.44276(17)
O5 O 0.56486(6) 0.90571(6) 1.23110(15)
O6 O 0.60789(7) 0.87002(7) 1.20986(17)
O7 O 0.51550(6) 0.85526(5) 1.18452(14)
O8 O 0.55503(6) 0.81805(6) 1.14939(15)
O9 O 0.49653(6) 0.88983(6) 1.04446(14)
O10 O 0.45153(6) 0.87235(6) 1.11309(13)
O11 O 0.44440(7) 0.83730(6) 1.25371(16)
O12 O 0.43197(8) 0.84941(7) 1.38032(15)
O13 O 0.46746(8) 0.94720(7) 1.38018(16)
O14 O 0.42101(10) 0.97487(8) 1.4230(3)
O15 O 0.64013(6) 0.85921(6) 1.06223(15)
O16 O 0.43231(6) 0.90655(6) 1.26999(15)
O17 O 0.54606(8) 0.94093(7) 1.40360(16)
O18 O 0.54155(8) 0.97422(7) 1.30112(16)
N1 N 0.54780(7) 0.94450(7) 1.07014(16)
N2 N 0.46506(10) 0.88811(8) 1.50545(19)
C1 C 0.47821(9) 0.94968(9) 1.1689(2)
C2 C 0.49939(10) 0.97757(9) 1.1324(3)
C3 C 0.51785(9) 0.96683(9) 1.0564(2)
C4 C 0.58389(9) 0.90130(9) 1.0063(2)
C5 C 0.55897(9) 0.93013(9) 0.9931(2)
C6 C 0.57631(9) 0.96324(9) 1.1106(3)
C7 C 0.58869(11) 0.99455(10) 1.0682(3)
C8 C 0.61278(15) 0.99345(13) 1.0099(4)
C9 C 0.6235(2) 1.02242(18) 0.9694(4)
C10 C 0.6086(3) 1.05318(18) 0.9866(5)
C11 C 0.58527(19) 1.05506(14) 1.0456(6)
C12 C 0.57505(15) 1.02622(11) 1.0844(5)
C13 C 0.51358(11) 0.85908(10) 1.3689(3)
C14 C 0.51997(12) 0.86277(11) 1.4570(3)
C15 C 0.48837(13) 0.85838(10) 1.5073(3)
C16 C 0.40485(15) 0.90496(13) 1.5271(3)
C17 C 0.43216(14) 0.87898(12) 1.5442(3)
C18 C 0.48079(14) 0.91872(11) 1.5440(3)
C19 C 0.49100(18) 0.91404(11) 1.6304(3)
C20 C 0.52359(19) 0.90278(13) 1.6500(4)
C21 C 0.5332(3) 0.89903(15) 1.7280(4)
C22 C 0.5108(3) 0.90600(16) 1.7878(4)
C23 C 0.4792(3) 0.91704(16) 1.7710(4)
C24 C 0.4703(3) 0.92138(13) 1.6919(3)
C25 C 0.59348(10) 0.89298(10) 1.2465(3)
C26 C 0.61191(17) 0.9070(3) 1.3171(5)
C27 C 0.52699(8) 0.82545(8) 1.17902(18)
C28 C 0.50642(9) 0.79613(9) 1.2105(3)
C29 C 0.46892(8) 0.87501(8) 1.04869(19)
C30 C 0.45521(10) 0.85871(10) 0.9743(2)
C31 C 0.43249(9) 0.82963(9) 1.3214(2)
C32 C 0.41939(10) 0.79400(10) 1.3311(3)
C33 C 0.45082(14) 0.97421(11) 1.3956(3)
C34 C 0.46879(17) 1.00733(13) 1.3808(5)
C35 C 0.65914(9) 0.84745(9) 1.0110(3)
C36 C 0.68851(14) 0.86928(14) 0.9847(4)
C37 C 0.55466(11) 0.96792(10) 1.3675(3)
C38 C 0.58066(15) 0.99129(14) 1.4026(4)
H1 H 0.4628 0.9404 1.1279
H2 H 0.4640 0.9595 1.2116
H3 H 0.4845 0.9971 1.1201
H4 H 0.5164 0.9852 1.1718
H5 H 0.5254 0.9875 1.0279
H6 H 0.5016 0.9547 1.0216
H7 H 0.6055 0.9103 1.0277
H8 H 0.5887 0.8896 0.9554
H9 H 0.5390 0.9216 0.9634
H10 H 0.5699 0.9481 0.9609
H11 H 0.5957 0.9475 1.1171
H12 H 0.5686 0.9699 1.1645
H13 H 0.6226 0.9722 0.9964
H14 H 0.6408 1.0209 0.9303
H15 H 0.6147 1.0729 0.9574
H16 H 0.5759 1.0765 1.0601
H17 H 0.5579 1.0280 1.1239
H18 H 0.5015 0.8374 1.3593
H19 H 0.5357 0.8579 1.3410
H20 H 0.5370 0.8457 1.4735
H21 H 0.5297 0.8855 1.4673
H22 H 0.4953 0.8542 1.5630
H23 H 0.4759 0.8381 1.4886
H24 H 0.4093 0.9259 1.5582
H25 H 0.3825 0.8959 1.5435
H26 H 0.4246 0.8565 1.5248
H27 H 0.4356 0.8773 1.6024
H28 H 0.5012 0.9253 1.5133
H29 H 0.4645 0.9378 1.5407
H30 H 0.5393 0.8976 1.6089
H31 H 0.5556 0.8916 1.7404
H32 H 0.5175 0.9030 1.8415
H33 H 0.4634 0.9217 1.8123
H34 H 0.4483 0.9300 1.6804
H35 H 0.6329 0.8940 1.3256
H36 H 0.6175 0.9309 1.3076
H37 H 0.5974 0.9051 1.3642
H38 H 0.4836 0.7968 1.1873
H39 H 0.5175 0.7747 1.1961
H40 H 0.5048 0.7978 1.2684
H41 H 0.4668 0.8683 0.9278
H42 H 0.4592 0.8341 0.9764
H43 H 0.4308 0.8631 0.9703
H44 H 0.4028 0.7891 1.2893
H45 H 0.4384 0.7779 1.3272
H46 H 0.4085 0.7917 1.3832
H47 H 0.4663 1.0137 1.3248
H48 H 0.4588 1.0251 1.4144
H49 H 0.4930 1.0048 1.3935
H50 H 0.6025 0.9795 1.4063
H51 H 0.5831 1.0114 1.3687
H52 H 0.5734 0.9983 1.4558
Cu1K Cu 0.321169(10) 0.767673(11) 0.94302(2)
Cu1F Cu 0.482327(11) 0.571169(10) 1.30698(2)
Cu1M Cu 0.678831(10) 0.732327(11) 0.94302(2)
Cu2K Cu 0.407890(10) 0.845740(10) 1.14240(2)
Cu2F Cu 0.404260(10) 0.657890(10) 1.10760(2)
Cu2M Cu 0.592110(10) 0.654260(10) 1.14240(2)
Ni1K Ni 0.350458(10) 0.784559(10) 1.11898(2)
Ni1F Ni 0.465441(10) 0.600458(10) 1.13102(2)
Ni1M Ni 0.649542(10) 0.715441(10) 1.11898(2)
Ni2K Ni 0.371490(11) 0.721752(10) 1.02537(2)
Ni2F Ni 0.528248(10) 0.621490(11) 1.22463(2)
Ni2M Ni 0.628510(11) 0.778248(10) 1.02537(2)
Ni3K Ni 0.351475(12) 0.698984(13) 0.86229(3)
Ni3F Ni 0.551016(13) 0.601475(12) 1.38771(3)
Ni3M Ni 0.648525(12) 0.801016(13) 0.86229(3)
O1K O 0.32741(6) 0.74794(6) 1.04869(13)
O1F O 0.50206(6) 0.57741(6) 1.20131(13)
O1M O 0.67259(6) 0.75206(6) 1.04869(13)
O2K O 0.37162(6) 0.81932(6) 1.18937(14)
O2F O 0.43068(6) 0.62162(6) 1.06063(14)
O2M O 0.62838(6) 0.68068(6) 1.18937(14)
O3K O 0.36358(6) 0.74392(6) 0.91469(14)
O3F O 0.50608(6) 0.61358(6) 1.33531(14)
O3M O 0.63642(6) 0.75608(6) 0.91469(14)
O4K O 0.33692(8) 0.65418(8) 0.80724(17)
O4F O 0.59582(8) 0.58692(8) 1.44276(17)
O4M O 0.66308(8) 0.84582(8) 0.80724(17)
O5K O 0.34429(6) 0.81486(6) 1.01890(15)
O5F O 0.43514(6) 0.59429(6) 1.23110(15)
O5M O 0.65571(6) 0.68514(6) 1.01890(15)
O6M O 0.62002(7) 0.64211(7) 1.04014(17)
O6F O 0.39211(7) 0.62998(7) 1.20986(17)
O6K O 0.37998(7) 0.85789(7) 1.04014(17)
O7M O 0.60526(5) 0.73450(6) 1.06548(14)
O7F O 0.48450(6) 0.64474(5) 1.18452(14)
O7K O 0.39474(5) 0.76550(6) 1.06548(14)
O8M O 0.56805(6) 0.69497(6) 1.10061(15)
O8F O 0.44497(6) 0.68195(6) 1.14939(15)
O8K O 0.43195(6) 0.80503(6) 1.10061(15)
O9M O 0.63983(6) 0.75347(6) 1.20554(14)
O9F O 0.50347(6) 0.61017(6) 1.04446(14)
O9K O 0.36017(6) 0.74653(6) 1.20554(14)
O10M O 0.62235(6) 0.79847(6) 1.13691(13)
O10F O 0.54847(6) 0.62765(6) 1.11309(13)
O10K O 0.37765(6) 0.70153(6) 1.13691(13)
O11K O 0.41270(6) 0.69440(7) 0.99629(16)
O11F O 0.55560(7) 0.66270(6) 1.25371(16)
O11M O 0.58730(6) 0.80560(7) 0.99629(16)
O12K O 0.40059(7) 0.68197(8) 0.86968(15)
O12F O 0.56803(8) 0.65059(7) 1.38032(15)
O12M O 0.59941(7) 0.81803(8) 0.86968(15)
O13K O 0.30280(7) 0.71746(8) 0.86982(16)
O13F O 0.53254(8) 0.55280(7) 1.38018(16)
O13M O 0.69720(7) 0.78254(8) 0.86982(16)
O14M O 0.72487(8) 0.82899(10) 0.8270(3)
O14F O 0.57899(10) 0.52513(8) 1.4230(3)
O14K O 0.27513(8) 0.67101(10) 0.8270(3)
O15K O 0.39079(6) 0.89013(6) 1.18777(15)
O15F O 0.35987(6) 0.64079(6) 1.06223(15)
O15M O 0.60921(6) 0.60987(6) 1.18777(15)
O16K O 0.34345(6) 0.68231(6) 0.98001(15)
O16F O 0.56769(6) 0.59345(6) 1.26999(15)
O16M O 0.65655(6) 0.81769(6) 0.98001(15)
O17M O 0.69093(7) 0.70394(8) 0.84640(16)
O17F O 0.45394(8) 0.55907(7) 1.40360(16)
O17K O 0.30907(7) 0.79606(8) 0.84640(16)
O18M O 0.72422(7) 0.70845(8) 0.94888(16)
O18F O 0.45845(8) 0.52578(7) 1.30112(16)
O18K O 0.27578(7) 0.79155(8) 0.94888(16)
N1K N 0.30550(7) 0.79780(7) 1.17986(16)
N1F N 0.45220(7) 0.55550(7) 1.07014(16)
N1M N 0.69450(7) 0.70220(7) 1.17986(16)
N2K N 0.36189(8) 0.71506(10) 0.74455(19)
N2F N 0.53494(10) 0.61189(8) 1.50545(19)
N2M N 0.63811(8) 0.78494(10) 0.74455(19)
C1K C 0.30032(9) 0.72821(9) 1.0811(2)
C1F C 0.52179(9) 0.55032(9) 1.1689(2)
C1M C 0.69968(9) 0.77179(9) 1.0811(2)
C2K C 0.27243(9) 0.74939(10) 1.1176(3)
C2F C 0.50061(10) 0.52243(9) 1.1324(3)
C2M C 0.72757(9) 0.75061(10) 1.1176(3)
C3K C 0.28317(9) 0.76785(9) 1.1936(2)
C3F C 0.48215(9) 0.53317(9) 1.0564(2)
C3M C 0.71683(9) 0.73215(9) 1.1936(2)
C4M C 0.65130(9) 0.66611(9) 1.2437(2)
C4F C 0.41611(9) 0.59870(9) 1.0063(2)
C4K C 0.34870(9) 0.83389(9) 1.2437(2)
C5M C 0.68013(9) 0.69103(9) 1.2569(2)
C5F C 0.44103(9) 0.56987(9) 0.9931(2)
C5K C 0.31987(9) 0.80897(9) 1.2569(2)
C6M C 0.71324(9) 0.67369(9) 1.1394(3)
C6F C 0.42369(9) 0.53676(9) 1.1106(3)
C6K C 0.28676(9) 0.82631(9) 1.1394(3)
C7M C 0.74455(10) 0.66131(11) 1.1818(3)
C7F C 0.41131(11) 0.50545(10) 1.0682(3)
C7K C 0.25545(10) 0.83869(11) 1.1818(3)
C8M C 0.74345(13) 0.63722(15) 1.2401(4)
C8F C 0.38722(15) 0.50655(13) 1.0099(4)
C8K C 0.25655(13) 0.86278(15) 1.2401(4)
C9M C 0.77242(18) 0.6265(2) 1.2806(4)
C9F C 0.3765(2) 0.47758(18) 0.9694(4)
C9K C 0.22758(18) 0.8735(2) 1.2806(4)
C10M C 0.80318(18) 0.6414(3) 1.2634(5)
C10F C 0.3914(3) 0.44682(18) 0.9866(5)
C10K C 0.19682(18) 0.8586(3) 1.2634(5)
C11M C 0.80506(14) 0.66473(19) 1.2044(6)
C11F C 0.41473(19) 0.44494(14) 1.0456(6)
C11K C 0.19494(14) 0.83527(19) 1.2044(6)
C12M C 0.77622(11) 0.67495(15) 1.1656(5)
C12F C 0.42495(15) 0.47378(11) 1.0844(5)
C12K C 0.22378(11) 0.82505(15) 1.1656(5)
C13K C 0.39092(10) 0.76358(11) 0.8811(3)
C13F C 0.48642(11) 0.64092(10) 1.3689(3)
C13M C 0.60908(10) 0.73642(11) 0.8811(3)
C14K C 0.38723(11) 0.76997(12) 0.7930(3)
C14F C 0.48003(12) 0.63723(11) 1.4570(3)
C14M C 0.61277(11) 0.73003(12) 0.7930(3)
C15K C 0.39162(10) 0.73837(13) 0.7427(3)
C15F C 0.51163(13) 0.64162(10) 1.5073(3)
C15M C 0.60838(10) 0.76163(13) 0.7427(3)
C16K C 0.34504(13) 0.65485(15) 0.7229(3)
C16F C 0.59515(15) 0.59504(13) 1.5271(3)
C16M C 0.65496(13) 0.84515(15) 0.7229(3)
C17K C 0.37102(12) 0.68216(14) 0.7058(3)
C17F C 0.56784(14) 0.62102(12) 1.5442(3)
C17M C 0.62898(12) 0.81784(14) 0.7058(3)
C18K C 0.33128(11) 0.73079(14) 0.7060(3)
C18F C 0.51921(14) 0.58128(11) 1.5440(3)
C18M C 0.66872(11) 0.76921(14) 0.7060(3)
C19K C 0.33596(11) 0.74100(18) 0.6196(3)
C19F C 0.50900(18) 0.58596(11) 1.6304(3)
C19M C 0.66404(11) 0.75900(18) 0.6196(3)
C20K C 0.34722(13) 0.77359(19) 0.6000(4)
C20F C 0.47641(19) 0.59722(13) 1.6500(4)
C20M C 0.65278(13) 0.72641(19) 0.6000(4)
C21K C 0.35097(15) 0.7832(3) 0.5220(4)
C21F C 0.4668(3) 0.60097(15) 1.7280(4)
C21M C 0.64903(15) 0.7168(3) 0.5220(4)
C22K C 0.34400(16) 0.7608(3) 0.4622(4)
C22F C 0.4892(3) 0.59400(16) 1.7878(4)
C22M C 0.65600(16) 0.7392(3) 0.4622(4)
C23K C 0.33296(16) 0.7292(3) 0.4790(4)
C23F C 0.5208(3) 0.58296(16) 1.7710(4)
C23M C 0.66704(16) 0.7708(3) 0.4790(4)
C24K C 0.32862(13) 0.7203(3) 0.5581(3)
C24F C 0.5297(3) 0.57862(13) 1.6919(3)
C24M C 0.67138(13) 0.7797(3) 0.5581(3)
C25M C 0.64298(10) 0.65652(10) 1.0035(3)
C25F C 0.40652(10) 0.60702(10) 1.2465(3)
C25K C 0.35702(10) 0.84348(10) 1.0035(3)
C26M C 0.6570(3) 0.63809(17) 0.9329(5)
C26F C 0.38809(17) 0.5930(3) 1.3171(5)
C26K C 0.3430(3) 0.86191(17) 0.9329(5)
C27M C 0.57545(8) 0.72301(8) 1.07098(18)
C27F C 0.47301(8) 0.67455(8) 1.17902(18)
C27K C 0.42455(8) 0.77699(8) 1.07098(18)
C28K C 0.45387(9) 0.75642(9) 1.0395(3)
C28F C 0.49358(9) 0.70387(9) 1.2105(3)
C28M C 0.54613(9) 0.74358(9) 1.0395(3)
C29M C 0.62501(8) 0.78108(8) 1.20131(19)
C29F C 0.53108(8) 0.62499(8) 1.04869(19)
C29K C 0.37499(8) 0.71892(8) 1.20131(19)
C30M C 0.60871(10) 0.79479(10) 1.2757(2)
C30F C 0.54479(10) 0.64129(10) 0.9743(2)
C30K C 0.39129(10) 0.70521(10) 1.2757(2)
C31K C 0.42037(9) 0.68249(9) 0.9286(2)
C31F C 0.56751(9) 0.67037(9) 1.3214(2)
C31M C 0.57963(9) 0.81751(9) 0.9286(2)
C32M C 0.54400(10) 0.83061(10) 0.9189(3)
C32F C 0.58061(10) 0.70600(10) 1.3311(3)
C32K C 0.45600(10) 0.66939(10) 0.9189(3)
C33M C 0.72421(11) 0.79918(14) 0.8544(3)
C33F C 0.54918(14) 0.52579(11) 1.3956(3)
C33K C 0.27579(11) 0.70082(14) 0.8544(3)
C34M C 0.75733(13) 0.78121(17) 0.8692(5)
C34F C 0.53121(17) 0.49267(13) 1.3808(5)
C34K C 0.24267(13) 0.71879(17) 0.8692(5)
C35K C 0.40255(9) 0.90914(9) 1.2390(3)
C35F C 0.34086(9) 0.65255(9) 1.0110(3)
C35M C 0.59745(9) 0.59086(9) 1.2390(3)
C36K C 0.38072(14) 0.93851(14) 1.2653(4)
C36F C 0.31149(14) 0.63072(14) 0.9847(4)
C36M C 0.61928(14) 0.56149(14) 1.2653(4)
C37M C 0.71792(10) 0.69534(11) 0.8825(3)
C37F C 0.44534(11) 0.53208(10) 1.3675(3)
C37K C 0.28208(10) 0.80466(11) 0.8825(3)
C38M C 0.74129(14) 0.66934(15) 0.8474(4)
C38F C 0.41934(15) 0.50871(14) 1.4026(4)
C38K C 0.25871(14) 0.83066(15) 0.8474(4)
H1M H 0.6904 0.7872 1.1221
H1F H 0.5372 0.5596 1.1279
H1K H 0.3096 0.7128 1.1221
H2M H 0.7095 0.7860 1.0384
H2F H 0.5360 0.5405 1.2116
H2K H 0.2905 0.7140 1.0384
H3M H 0.7471 0.7655 1.1299
H3F H 0.5155 0.5029 1.1201
H3K H 0.2529 0.7345 1.1299
H4M H 0.7352 0.7336 1.0782
H4F H 0.4836 0.5148 1.1718
H4K H 0.2648 0.7664 1.0782
H5M H 0.7375 0.7246 1.2221
H5F H 0.4746 0.5125 1.0279
H5K H 0.2625 0.7754 1.2221
H6M H 0.7047 0.7484 1.2284
H6F H 0.4984 0.5453 1.0216
H6K H 0.2953 0.7516 1.2284
H7M H 0.6603 0.6445 1.2223
H7F H 0.3945 0.5897 1.0277
H7K H 0.3397 0.8555 1.2223
H8M H 0.6396 0.6613 1.2946
H8F H 0.4113 0.6104 0.9554
H8K H 0.3604 0.8387 1.2946
H9M H 0.6716 0.7110 1.2866
H9F H 0.4610 0.5784 0.9634
H9K H 0.3284 0.7890 1.2866
H10M H 0.6981 0.6801 1.2891
H10F H 0.4301 0.5519 0.9609
H10K H 0.3019 0.8199 1.2891
H11M H 0.6975 0.6543 1.1329
H11F H 0.4043 0.5525 1.1171
H11K H 0.3025 0.8457 1.1329
H12M H 0.7199 0.6814 1.0855
H12F H 0.4314 0.5301 1.1645
H12K H 0.2801 0.8186 1.0855
H13M H 0.7222 0.6274 1.2536
H13F H 0.3774 0.5278 0.9964
H13K H 0.2778 0.8726 1.2536
H14M H 0.7709 0.6092 1.3197
H14F H 0.3592 0.4791 0.9303
H14K H 0.2291 0.8908 1.3197
H15M H 0.8229 0.6353 1.2926
H15F H 0.3853 0.4271 0.9574
H15K H 0.1771 0.8647 1.2926
H16M H 0.8265 0.6741 1.1899
H16F H 0.4241 0.4235 1.0601
H16K H 0.1735 0.8259 1.1899
H17M H 0.7780 0.6921 1.1261
H17F H 0.4421 0.4720 1.1239
H17K H 0.2220 0.8079 1.1261
H18M H 0.5874 0.7485 0.8907
H18F H 0.4985 0.6626 1.3593
H18K H 0.4126 0.7515 0.8907
H19M H 0.6079 0.7143 0.9090
H19F H 0.4643 0.6421 1.3410
H19K H 0.3921 0.7857 0.9090
H20M H 0.5957 0.7130 0.7765
H20F H 0.4630 0.6543 1.4735
H20K H 0.4043 0.7870 0.7765
H21M H 0.6355 0.7203 0.7827
H21F H 0.4703 0.6145 1.4673
H21K H 0.3645 0.7797 0.7827
H22M H 0.6042 0.7547 0.6870
H22F H 0.5047 0.6458 1.5630
H22K H 0.3958 0.7453 0.6870
H23M H 0.5881 0.7741 0.7614
H23F H 0.5241 0.6619 1.4886
H23K H 0.4119 0.7259 0.7614
H24K H 0.3241 0.6593 0.6918
H24F H 0.5907 0.5741 1.5582
H24M H 0.6759 0.8407 0.6918
H25K H 0.3541 0.6325 0.7065
H25F H 0.6175 0.6041 1.5435
H25M H 0.6459 0.8675 0.7065
H26K H 0.3935 0.6746 0.7252
H26F H 0.5754 0.6435 1.5248
H26M H 0.6065 0.8254 0.7252
H27K H 0.3727 0.6856 0.6476
H27F H 0.5644 0.6227 1.6024
H27M H 0.6273 0.8144 0.6476
H28K H 0.3247 0.7512 0.7367
H28F H 0.4988 0.5747 1.5133
H28M H 0.6753 0.7488 0.7367
H29K H 0.3122 0.7145 0.7093
H29F H 0.5355 0.5622 1.5407
H29M H 0.6878 0.7855 0.7093
H30K H 0.3524 0.7893 0.6411
H30F H 0.4607 0.6024 1.6089
H30M H 0.6476 0.7107 0.6411
H31K H 0.3584 0.8056 0.5096
H31F H 0.4444 0.6084 1.7404
H31M H 0.6416 0.6944 0.5096
H32K H 0.3470 0.7675 0.4085
H32F H 0.4825 0.5970 1.8415
H32M H 0.6530 0.7325 0.4085
H33K H 0.3283 0.7134 0.4377
H33F H 0.5366 0.5783 1.8123
H33M H 0.6717 0.7866 0.4377
H34K H 0.3200 0.6983 0.5696
H34F H 0.5517 0.5700 1.6804
H34M H 0.6800 0.8017 0.5696
H35M H 0.6440 0.6171 0.9244
H35F H 0.3671 0.6060 1.3256
H35K H 0.3560 0.8829 0.9244
H36M H 0.6809 0.6325 0.9424
H36F H 0.3825 0.5691 1.3076
H36K H 0.3191 0.8675 0.9424
H37M H 0.6551 0.6526 0.8858
H37F H 0.4026 0.5949 1.3642
H37K H 0.3449 0.8474 0.8858
H38K H 0.4532 0.7336 1.0627
H38F H 0.5164 0.7032 1.1873
H38M H 0.5468 0.7664 1.0627
H39K H 0.4753 0.7675 1.0539
H39F H 0.4825 0.7253 1.1961
H39M H 0.5247 0.7325 1.0539
H40K H 0.4522 0.7548 0.9816
H40F H 0.4952 0.7022 1.2684
H40M H 0.5478 0.7452 0.9816
H41M H 0.6183 0.7832 1.3222
H41F H 0.5332 0.6317 0.9278
H41K H 0.3817 0.7168 1.3222
H42M H 0.5841 0.7908 1.2736
H42F H 0.5408 0.6659 0.9764
H42K H 0.4159 0.7092 1.2736
H43M H 0.6131 0.8192 1.2797
H43F H 0.5692 0.6369 0.9703
H43K H 0.3869 0.6808 1.2797
H44M H 0.5391 0.8472 0.9607
H44F H 0.5972 0.7109 1.2893
H44K H 0.4609 0.6528 0.9607
H45M H 0.5279 0.8116 0.9228
H45F H 0.5616 0.7221 1.3272
H45K H 0.4721 0.6884 0.9228
H46M H 0.5417 0.8415 0.8668
H46F H 0.5915 0.7083 1.3832
H46K H 0.4583 0.6585 0.8668
H47M H 0.7637 0.7837 0.9252
H47F H 0.5337 0.4863 1.3248
H47K H 0.2363 0.7163 0.9252
H48M H 0.7751 0.7912 0.8356
H48F H 0.5412 0.4749 1.4144
H48K H 0.2249 0.7088 0.8356
H49M H 0.7548 0.7570 0.8565
H49F H 0.5070 0.4952 1.3935
H49K H 0.2452 0.7430 0.8565
H50M H 0.7295 0.6475 0.8437
H50F H 0.3975 0.5205 1.4063
H50K H 0.2705 0.8525 0.8437
H51M H 0.7614 0.6669 0.8813
H51F H 0.4169 0.4886 1.3687
H51K H 0.2386 0.8331 0.8813
H52M H 0.7483 0.6766 0.7942
H52F H 0.4266 0.5017 1.4558
H52K H 0.2517 0.8234 0.7942
O19 O 0.8218(4) 0.3662(3) 1.0853(8)
C39 C 0.8233(6) 0.3693(6) 1.1641(15)
C40 C 0.8461(6) 0.3676(5) 1.2083(13)
C41 C 0.7932(5) 0.3710(5) 1.0275(12)
C42 C 0.8015(7) 0.3651(7) 0.9584(16)
loop_
_geom_bond_atom_site_label_1
_geom_bond_atom_site_label_2
_geom_bond_site_symmetry_1
_geom_bond_site_symmetry_2
Cu1 O1 1_555 1_555
Cu2 O2 1_555 1_555
Ni1 O1 1_555 1_555
Ni2 O1 1_555 1_555
Ni3 O3 1_555 1_555
O1 C1 1_555 1_555
O2 Ni1 1_555 1_555
O3 Cu1 1_555 1_555
O4 Ni3 1_555 1_555
O5 Cu1 1_555 1_555
O6 Cu2 1_555 1_555
O7 Ni1 1_555 1_555
O8 Cu2 1_555 1_555
O9 Ni1 1_555 1_555
O10 Ni2 1_555 1_555
O11 Ni2 1_555 1_555
O12 Ni3 1_555 1_555
O13 Cu1 1_555 1_555
O14 C33 1_555 1_555
O15 Cu2 1_555 1_555
O16 Ni2 1_555 1_555
O17 Cu1 1_555 1_555
O18 Cu1 1_555 1_555
O19 C39 1_555 1_555
N1 Ni1 1_555 1_555
N2 Ni3 1_555 1_555
C1 C2 1_555 1_555
C2 C3 1_555 1_555
C3 N1 1_555 1_555
C4 O2 1_555 1_555
C5 N1 1_555 1_555
C6 N1 1_555 1_555
C7 C6 1_555 1_555
C8 C7 1_555 1_555
C9 C8 1_555 1_555
C10 C9 1_555 1_555
C11 C10 1_555 1_555
C12 C7 1_555 1_555
C13 O3 1_555 1_555
C14 C13 1_555 1_555
C15 N2 1_555 1_555
C16 O4 1_555 1_555
C17 N2 1_555 1_555
C18 N2 1_555 1_555
C19 C18 1_555 1_555
C20 C19 1_555 1_555
C21 C20 1_555 1_555
C22 C21 1_555 1_555
C23 C22 1_555 1_555
C24 C19 1_555 1_555
C25 O5 1_555 1_555
C26 C25 1_555 1_555
C27 O7 1_555 1_555
C28 C27 1_555 1_555
C29 O9 1_555 1_555
C30 C29 1_555 1_555
C31 O11 1_555 1_555
C32 C31 1_555 1_555
C33 O13 1_555 1_555
C34 C33 1_555 1_555
C35 O15 1_555 1_555
C36 C35 1_555 1_555
C37 O17 1_555 1_555
C38 C37 1_555 1_555
C39 C40 1_555 1_555
C41 O19 1_555 1_555
C42 C41 1_555 1_555
H1 C1 1_555 1_555
H2 C1 1_555 1_555
H3 C2 1_555 1_555
H4 C2 1_555 1_555
H5 C3 1_555 1_555
H6 C3 1_555 1_555
H7 C4 1_555 1_555
H8 C4 1_555 1_555
H9 C5 1_555 1_555
H10 C5 1_555 1_555
H11 C6 1_555 1_555
H12 C6 1_555 1_555
H13 C8 1_555 1_555
H14 C9 1_555 1_555
H15 C10 1_555 1_555
H16 C11 1_555 1_555
H17 C12 1_555 1_555
H18 C13 1_555 1_555
H19 C13 1_555 1_555
H20 C14 1_555 1_555
H21 C14 1_555 1_555
H22 C15 1_555 1_555
H23 C15 1_555 1_555
H24 C16 1_555 1_555
H25 C16 1_555 1_555
H26 C17 1_555 1_555
H27 C17 1_555 1_555
H28 C18 1_555 1_555
H29 C18 1_555 1_555
H30 C20 1_555 1_555
H31 C21 1_555 1_555
H32 C22 1_555 1_555
H33 C23 1_555 1_555
H34 C24 1_555 1_555
H35 C26 1_555 1_555
H36 C26 1_555 1_555
H37 C26 1_555 1_555
H38 C28 1_555 1_555
H39 C28 1_555 1_555
H40 C28 1_555 1_555
H41 C30 1_555 1_555
H42 C30 1_555 1_555
H43 C30 1_555 1_555
H44 C32 1_555 1_555
H45 C32 1_555 1_555
H46 C32 1_555 1_555
H47 C34 1_555 1_555
H48 C34 1_555 1_555
H49 C34 1_555 1_555
H50 C38 1_555 1_555
H51 C38 1_555 1_555
H52 C38 1_555 1_555
Cu1K O1K 1_555 1_555
Cu1F O1F 1_555 1_555
Cu1M O1M 1_555 1_555
Cu2K O10 1_555 1_555
Cu2F O2F 1_555 1_555
Cu2M O2M 1_555 1_555
Ni1K O1K 1_555 1_555
Ni1F O1F 1_555 1_555
Ni1M O1M 1_555 1_555
Ni2K O1K 1_555 1_555
Ni2F O1F 1_555 1_555
Ni2M O1M 1_555 1_555
Ni3K O3K 1_555 1_555
Ni3F O3F 1_555 1_555
Ni3M O3M 1_555 1_555
O1K C1K 1_555 1_555
O1F C1F 1_555 1_555
O1M C1M 1_555 1_555
O2K Cu2K 1_555 1_555
O2F Ni1F 1_555 1_555
O2M Ni1M 1_555 1_555
O3K Cu1K 1_555 1_555
O3F Cu1F 1_555 1_555
O3M Cu1M 1_555 1_555
O4K Ni3K 1_555 1_555
O4F Ni3F 1_555 1_555
O4M Ni3M 1_555 1_555
O5K Cu1K 1_555 1_555
O5F Cu1F 1_555 1_555
O5M Cu1M 1_555 1_555
O6M Cu2M 1_555 1_555
O6F Cu2F 1_555 1_555
O6K Cu2K 1_555 1_555
O7M Ni1M 1_555 1_555
O7F Ni1F 1_555 1_555
O7K Ni1K 1_555 1_555
O8M Cu2M 1_555 1_555
O8F Cu2F 1_555 1_555
O8K Cu2K 1_555 1_555
O9M Ni1M 1_555 1_555
O9F Ni1F 1_555 1_555
O9K Ni1K 1_555 1_555
O10M Cu2 1_555 1_555
O10F Cu2M 1_555 1_555
O10K Cu2F 1_555 1_555
O11K Cu2F 1_555 1_555
O11F Cu2M 1_555 1_555
O11M Cu2 1_555 1_555
O12K Ni3K 1_555 1_555
O12F Ni3F 1_555 1_555
O12M Ni3M 1_555 1_555
O13K Cu1K 1_555 1_555
O13F Cu1F 1_555 1_555
O13M Cu1M 1_555 1_555
O14M C33M 1_555 1_555
O14F C33F 1_555 1_555
O14K C33K 1_555 1_555
O15K Cu2K 1_555 1_555
O15F Cu2F 1_555 1_555
O15M Cu2M 1_555 1_555
O16K Ni2K 1_555 1_555
O16F Ni2F 1_555 1_555
O16M C35 1_555 1_555
O17M Cu1M 1_555 1_555
O17F Cu1F 1_555 1_555
O17K Cu1K 1_555 1_555
O18M Cu1M 1_555 1_555
O18F Cu1F 1_555 1_555
O18K Cu1K 1_555 1_555
N1K Ni1K 1_555 1_555
N1F Ni1F 1_555 1_555
N1M Ni1M 1_555 1_555
N2K Ni3K 1_555 1_555
N2F Ni3F 1_555 1_555
N2M Ni3M 1_555 1_555
C1K C2K 1_555 1_555
C1F C2F 1_555 1_555
C1M C2M 1_555 1_555
C2K C3K 1_555 1_555
C2F C3F 1_555 1_555
C2M C3M 1_555 1_555
C3K N1K 1_555 1_555
C3F N1F 1_555 1_555
C3M N1M 1_555 1_555
C4M O2M 1_555 1_555
C4F O2F 1_555 1_555
C4K O2K 1_555 1_555
C5M N1M 1_555 1_555
C5F N1F 1_555 1_555
C5K N1K 1_555 1_555
C6M N1M 1_555 1_555
C6F N1F 1_555 1_555
C6K N1K 1_555 1_555
C7M C6M 1_555 1_555
C7F C6F 1_555 1_555
C7K C6K 1_555 1_555
C8M C7M 1_555 1_555
C8F C7F 1_555 1_555
C8K C7K 1_555 1_555
C9M C8M 1_555 1_555
C9F C8F 1_555 1_555
C9K C8K 1_555 1_555
C10M C9M 1_555 1_555
C10F C9F 1_555 1_555
C10K C9K 1_555 1_555
C11M C10M 1_555 1_555
C11F C10F 1_555 1_555
C11K C10K 1_555 1_555
C12M C7M 1_555 1_555
C12F C7F 1_555 1_555
C12K C7K 1_555 1_555
C13K O3K 1_555 1_555
C13F O3F 1_555 1_555
C13M O3M 1_555 1_555
C14K C13K 1_555 1_555
C14F C13F 1_555 1_555
C14M C13M 1_555 1_555
C15K N2K 1_555 1_555
C15F N2F 1_555 1_555
C15M N2M 1_555 1_555
C16K O4K 1_555 1_555
C16F O4F 1_555 1_555
C16M O4M 1_555 1_555
C17K N2K 1_555 1_555
C17F N2F 1_555 1_555
C17M N2M 1_555 1_555
C18K N2K 1_555 1_555
C18F N2F 1_555 1_555
C18M N2M 1_555 1_555
C19K C18K 1_555 1_555
C19F C18F 1_555 1_555
C19M C18M 1_555 1_555
C20K C19K 1_555 1_555
C20F C19F 1_555 1_555
C20M C19M 1_555 1_555
C21K C20K 1_555 1_555
C21F C20F 1_555 1_555
C21M C20M 1_555 1_555
C22K C21K 1_555 1_555
C22F C21F 1_555 1_555
C22M C21M 1_555 1_555
C23K C22K 1_555 1_555
C23F C22F 1_555 1_555
C23M C22M 1_555 1_555
C24K C19K 1_555 1_555
C24F C19F 1_555 1_555
C24M C19M 1_555 1_555
C25M O5M 1_555 1_555
C25F O5F 1_555 1_555
C25K O5K 1_555 1_555
C26M C25M 1_555 1_555
C26F C25F 1_555 1_555
C26K C25K 1_555 1_555
C27M O7M 1_555 1_555
C27F O7F 1_555 1_555
C27K O7K 1_555 1_555
C28K C27K 1_555 1_555
C28F C27F 1_555 1_555
C28M C27M 1_555 1_555
C29M O9M 1_555 1_555
C29F O9F 1_555 1_555
C29K O9K 1_555 1_555
C30M C29M 1_555 1_555
C30F C29F 1_555 1_555
C30K C29K 1_555 1_555
C31K O11K 1_555 1_555
C31F O11F 1_555 1_555
C31M O11M 1_555 1_555
C32M C31M 1_555 1_555
C32F C31F 1_555 1_555
C32K C31K 1_555 1_555
C33M O13M 1_555 1_555
C33F O13F 1_555 1_555
C33K O13K 1_555 1_555
C34M C33M 1_555 1_555
C34F C33F 1_555 1_555
C34K C33K 1_555 1_555
C35K O16 1_555 1_555
C35F O15F 1_555 1_555
C35M O15M 1_555 1_555
C36K C35K 1_555 1_555
C36F C35F 1_555 1_555
C36M C35M 1_555 1_555
C37M O17M 1_555 1_555
C37F O17F 1_555 1_555
C37K O17K 1_555 1_555
C38M C37M 1_555 1_555
C38F C37F 1_555 1_555
C38K C37K 1_555 1_555
H1M C1M 1_555 1_555
H1F C1F 1_555 1_555
H1K C1K 1_555 1_555
H2M C1M 1_555 1_555
H2F C1F 1_555 1_555
H2K C1K 1_555 1_555
H3M C2M 1_555 1_555
H3F C2F 1_555 1_555
H3K C2K 1_555 1_555
H4M C2M 1_555 1_555
H4F C2F 1_555 1_555
H4K C2K 1_555 1_555
H5M C3M 1_555 1_555
H5F C3F 1_555 1_555
H5K C3K 1_555 1_555
H6M C3M 1_555 1_555
H6F C3F 1_555 1_555
H6K C3K 1_555 1_555
H7M C4M 1_555 1_555
H7F C4F 1_555 1_555
H7K C4K 1_555 1_555
H8M C4M 1_555 1_555
H8F C4F 1_555 1_555
H8K C4K 1_555 1_555
H9M C5M 1_555 1_555
H9F C5F 1_555 1_555
H9K C5K 1_555 1_555
H10M C5M 1_555 1_555
H10F C5F 1_555 1_555
H10K C5K 1_555 1_555
H11M C6M 1_555 1_555
H11F C6F 1_555 1_555
H11K C6K 1_555 1_555
H12M C6M 1_555 1_555
H12F C6F 1_555 1_555
H12K C6K 1_555 1_555
H13M C8M 1_555 1_555
H13F C8F 1_555 1_555
H13K C8K 1_555 1_555
H14M C9M 1_555 1_555
H14F C9F 1_555 1_555
H14K C9K 1_555 1_555
H15M C10M 1_555 1_555
H15F C10F 1_555 1_555
H15K C10K 1_555 1_555
H16M C11M 1_555 1_555
H16F C11F 1_555 1_555
H16K C11K 1_555 1_555
H17M C12M 1_555 1_555
H17F C12F 1_555 1_555
H17K C12K 1_555 1_555
H18M C13M 1_555 1_555
H18F C13F 1_555 1_555
H18K C13K 1_555 1_555
H19M C13M 1_555 1_555
H19F C13F 1_555 1_555
H19K C13K 1_555 1_555
H20M C14M 1_555 1_555
H20F C14F 1_555 1_555
H20K C14K 1_555 1_555
H21M C14M 1_555 1_555
H21F C14F 1_555 1_555
H21K C14K 1_555 1_555
H22M C15M 1_555 1_555
H22F C15F 1_555 1_555
H22K C15K 1_555 1_555
H23M C15M 1_555 1_555
H23F C15F 1_555 1_555
H23K C15K 1_555 1_555
H24K C16K 1_555 1_555
H24F C16F 1_555 1_555
H24M C16M 1_555 1_555
H25K C16K 1_555 1_555
H25F C16F 1_555 1_555
H25M C16M 1_555 1_555
H26K C17K 1_555 1_555
H26F C17F 1_555 1_555
H26M C17M 1_555 1_555
H27K C17K 1_555 1_555
H27F C17F 1_555 1_555
H27M C17M 1_555 1_555
H28K C18K 1_555 1_555
H28F C18F 1_555 1_555
H28M C18M 1_555 1_555
H29K C18K 1_555 1_555
H29F C18F 1_555 1_555
H29M C18M 1_555 1_555
H30K C20K 1_555 1_555
H30F C20F 1_555 1_555
H30M C20M 1_555 1_555
H31K C21K 1_555 1_555
H31F C21F 1_555 1_555
H31M C21M 1_555 1_555
H32K C22K 1_555 1_555
H32F C22F 1_555 1_555
H32M C22M 1_555 1_555
H33K C23K 1_555 1_555
H33F C23F 1_555 1_555
H33M C23M 1_555 1_555
H34K C24K 1_555 1_555
H34F C24F 1_555 1_555
H34M C24M 1_555 1_555
H35M C26M 1_555 1_555
H35F C26F 1_555 1_555
H35K C26K 1_555 1_555
H36M C26M 1_555 1_555
H36F C26F 1_555 1_555
H36K C26K 1_555 1_555
H37M C26M 1_555 1_555
H37F C26F 1_555 1_555
H37K C26K 1_555 1_555
H38K C28K 1_555 1_555
H38F C28F 1_555 1_555
H38M C28M 1_555 1_555
H39K C28K 1_555 1_555
H39F C28F 1_555 1_555
H39M C28M 1_555 1_555
H40K C28K 1_555 1_555
H40F C28F 1_555 1_555
H40M C28M 1_555 1_555
H41M C30M 1_555 1_555
H41F C30F 1_555 1_555
H41K C30K 1_555 1_555
H42M C30M 1_555 1_555
H42F C30F 1_555 1_555
H42K C30K 1_555 1_555
H43M C30M 1_555 1_555
H43F C30F 1_555 1_555
H43K C30K 1_555 1_555
H44M C32M 1_555 1_555
H44F C32F 1_555 1_555
H44K C32K 1_555 1_555
H45M C32M 1_555 1_555
H45F C32F 1_555 1_555
H45K C32K 1_555 1_555
H46M C32M 1_555 1_555
H46F C32F 1_555 1_555
H46K C32K 1_555 1_555
H47M C34M 1_555 1_555
H47F C34F 1_555 1_555
H47K C34K 1_555 1_555
H48M C34M 1_555 1_555
H48F C34F 1_555 1_555
H48K C34K 1_555 1_555
H49M C34M 1_555 1_555
H49F C34F 1_555 1_555
H49K C34K 1_555 1_555
H50M C38M 1_555 1_555
H50F C38F 1_555 1_555
H50K C38K 1_555 1_555
H51M C38M 1_555 1_555
H51F C38F 1_555 1_555
H51K C38K 1_555 1_555
H52M C38M 1_555 1_555
H52F C38F 1_555 1_555
H52K C38K 1_555 1_555
Ni1 O5 1_555 1_555
Ni2 O3 1_555 1_555
Ni2 O7 1_555 1_555
Ni3 O13 1_555 1_555
Ni3 O16 1_555 1_555
O6 C25 1_555 1_555
O8 C27 1_555 1_555
O10 C29 1_555 1_555
O11 Cu2K 1_555 1_555
O12 C31 1_555 1_555
O18 C37 1_555 1_555
C4 C5 1_555 1_555
C11 C12 1_555 1_555
C14 C15 1_555 1_555
C16 C17 1_555 1_555
C23 C24 1_555 1_555
Ni1K O2K 1_555 1_555
Ni1K O5K 1_555 1_555
Ni1F O5F 1_555 1_555
Ni1M O5M 1_555 1_555
Ni2K O3K 1_555 1_555
Ni2K O7K 1_555 1_555
Ni2K O10K 1_555 1_555
Ni2K O11K 1_555 1_555
Ni2F O3F 1_555 1_555
Ni2F O7F 1_555 1_555
Ni2F O10F 1_555 1_555
Ni2F O11F 1_555 1_555
Ni2M O3M 1_555 1_555
Ni2M O7M 1_555 1_555
Ni2M O10M 1_555 1_555
Ni2M O11M 1_555 1_555
Ni2M O16M 1_555 1_555
Ni3K O13K 1_555 1_555
Ni3K O16K 1_555 1_555
Ni3F O13F 1_555 1_555
Ni3F O16F 1_555 1_555
Ni3M O13M 1_555 1_555
Ni3M O16M 1_555 1_555
O6M C25M 1_555 1_555
O6F C25F 1_555 1_555
O6K C25K 1_555 1_555
O8M C27M 1_555 1_555
O8F C27F 1_555 1_555
O8K C27K 1_555 1_555
O10M C29M 1_555 1_555
O10F C29F 1_555 1_555
O10K C29K 1_555 1_555
O12K C31K 1_555 1_555
O12F C31F 1_555 1_555
O12M C31M 1_555 1_555
O15K C35K 1_555 1_555
O16K C35F 1_555 1_555
O16F C35M 1_555 1_555
O18M C37M 1_555 1_555
O18F C37F 1_555 1_555
O18K C37K 1_555 1_555
C4M C5M 1_555 1_555
C4F C5F 1_555 1_555
C4K C5K 1_555 1_555
C11M C12M 1_555 1_555
C11F C12F 1_555 1_555
C11K C12K 1_555 1_555
C14K C15K 1_555 1_555
C14F C15F 1_555 1_555
C14M C15M 1_555 1_555
C16K C17K 1_555 1_555
C16F C17F 1_555 1_555
C16M C17M 1_555 1_555
C23K C24K 1_555 1_555
C23F C24F 1_555 1_555
C23M C24M 1_555 1_555

#END
