
#######################################################################
#
#                 Cambridge Crystallographic Data Centre
#                                CCDC 
#
#######################################################################
#
# If this CIF has been generated from an entry in the Cambridge 
# Structural Database, then it will include bibliographic, chemical, 
# crystal, experimental, refinement or atomic coordinate data resulting 
# from the CCDC's data processing and validation procedures.
#
#######################################################################

data_GENXAA
_chemical_formula_moiety         
'C152 H224 Co12 N8 Ni8 O72,6(C2 H3 N1),5(C4 H10 O1)'
_chemical_name_systematic        
'tetrakis(\m~4~-3-(Benzyl(2-oxidoxyethyl)amino)propan-1-olato)-icosakis(\m~3~-acetato)-tetrakis(\m~3~-3-(benzyl(2-hydroxyethyl)amino)propan-1-olato)-tetrakis(\m~2~-acetato)-tetrakis(acetato)-dodeca-cobalt(ii)-octa-nickel(ii) acetonitrile diethyl ether solvate'
_symmetry_cell_setting           tetragonal
_symmetry_space_group_name_H-M   'P 42/n'
_symmetry_Int_Tables_number      86
_space_group_name_Hall           '-P 4bc'
loop_
_symmetry_equiv_pos_site_id
_symmetry_equiv_pos_as_xyz
1 x,y,z
2 -y,1/2+x,1/2+z
3 1/2-x,1/2-y,z
4 1/2+y,-x,1/2+z
5 -x,-y,-z
6 y,1/2-x,1/2-z
7 1/2+x,1/2+y,-z
8 1/2-y,x,1/2-z
_cell_length_a                   22.724(11)
_cell_length_b                   22.724(11)
_cell_length_c                   22.778(12)
_cell_angle_alpha                90
_cell_angle_beta                 90
_cell_angle_gamma                90
_cell_volume                     11762.1
_exptl_crystal_colour            'pale purple'
_exptl_crystal_description       block
_cell_formula_units_Z            2
loop_
_atom_site_label
_atom_site_type_symbol
_atom_site_fract_x
_atom_site_fract_y
_atom_site_fract_z
Ni1 Ni 0.762766(16) 0.517201(16) 0.317647(17)
Ni2 Ni 0.736259(16) 0.470857(17) 0.437251(17)
Co1 Co 0.876763(17) 0.515101(16) 0.250100(17)
Co2 Co 0.866505(17) 0.456758(17) 0.381508(19)
Co3 Co 0.953590(17) 0.640020(18) 0.240150(19)
O1 O 0.82904(9) 0.45730(8) 0.30016(9)
O2 O 0.92858(10) 0.56610(9) 0.20273(10)
O3 O 0.80258(9) 0.51710(8) 0.40073(9)
O4 O 0.67238(10) 0.41902(10) 0.47690(10)
O5 O 0.92268(9) 0.51912(9) 0.33255(10)
O6 O 0.98013(11) 0.59725(10) 0.31650(10)
O7 O 0.82197(9) 0.57970(9) 0.28900(9)
O8 O 0.87267(10) 0.66125(9) 0.27273(11)
O9 O 0.81113(10) 0.51197(10) 0.18414(10)
O10 O 0.72700(9) 0.52010(9) 0.23412(9)
O11 O 0.93313(11) 0.39286(11) 0.37998(12)
O12 O 0.91893(11) 0.44666(12) 0.45870(12)
O13 O 0.79762(9) 0.40310(9) 0.42500(10)
O14 O 0.73962(12) 0.33236(11) 0.45948(12)
O15 O 0.71213(9) 0.44973(9) 0.34995(9)
O16 O 1.03901(10) 0.63351(10) 0.20785(10)
O17 O 0.69409(9) 0.57069(9) 0.33959(10)
O18 O 0.68090(10) 0.54262(10) 0.43321(10)
N1 N 0.92672(11) 0.44673(11) 0.20672(12)
N2 N 0.75517(11) 0.49265(12) 0.52570(12)
C1 C 0.81179(13) 0.40289(13) 0.27387(15)
C2 C 0.86355(15) 0.36669(14) 0.25086(15)
C3 C 0.89295(14) 0.39225(13) 0.19627(14)
C4 C 0.96297(14) 0.53737(14) 0.16009(15)
C5 C 0.93924(14) 0.47618(13) 0.14969(14)
C6 C 0.98224(14) 0.43587(14) 0.24118(14)
C7 C 1.02712(14) 0.39571(15) 0.21273(15)
C8 C 1.06873(15) 0.41656(17) 0.17364(17)
C9 C 1.11080(17) 0.38026(19) 0.1493(2)
C10 C 1.11167(17) 0.3215(2) 0.1631(2)
C11 C 1.07037(18) 0.29918(18) 0.2017(2)
C12 C 1.02835(16) 0.33639(17) 0.22611(18)
C13 C 0.81848(14) 0.57173(13) 0.42720(14)
C14 C 0.83102(14) 0.56681(15) 0.49252(15)
C15 C 0.77618(15) 0.55425(14) 0.53028(15)
C16 C 0.66709(15) 0.43055(16) 0.53913(15)
C17 C 0.69570(14) 0.48810(16) 0.55410(15)
C18 C 0.79750(15) 0.44985(16) 0.55352(15)
C19 C 0.81034(16) 0.46045(17) 0.61789(17)
C20 C 0.8537(2) 0.4993(3) 0.6357(2)
C21 C 0.8655(3) 0.5095(3) 0.6952(3)
C22 C 0.8329(3) 0.4802(3) 0.7372(2)
C23 C 0.7901(2) 0.4411(2) 0.72074(19)
C24 C 0.77851(17) 0.43100(18) 0.66182(17)
C25 C 0.96444(14) 0.55436(14) 0.34611(14)
C26 C 0.9967(3) 0.5427(3) 0.4020(3)
C27 C 0.82800(13) 0.63539(13) 0.28949(13)
C28 C 0.77856(14) 0.67299(14) 0.31212(16)
C29 C 0.75807(13) 0.52429(13) 0.18681(14)
C30 C 0.72772(16) 0.54516(18) 0.13140(16)
C31 C 0.94644(16) 0.40651(17) 0.43181(19)
C32 C 0.9975(3) 0.3761(3) 0.4618(3)
C33 C 0.78588(15) 0.34879(14) 0.43484(15)
C34 C 0.8293(2) 0.30330(16) 0.4163(3)
C35 C 0.66221(14) 0.43306(14) 0.32869(14)
C36 C 0.63919(19) 0.37421(16) 0.34850(18)
C37 C 0.67260(12) 0.57722(13) 0.39117(14)
C38 C 0.63691(16) 0.63196(15) 0.40149(16)
H1 H 0.7846 0.4112 0.2409
H2 H 0.7901 0.3792 0.3032
H3 H 0.8934 0.3633 0.2824
H4 H 0.8495 0.3265 0.2417
H5 H 0.9198 0.3623 0.1796
H6 H 0.8622 0.4004 0.1666
H7 H 1.0043 0.5350 0.1736
H8 H 0.9621 0.5600 0.1230
H9 H 0.9027 0.4785 0.1262
H10 H 0.9684 0.4528 0.1273
H11 H 0.9712 0.4188 0.2796
H12 H 1.0013 0.4743 0.2489
H13 H 1.0683 0.4571 0.1633
H14 H 1.1392 0.3960 0.1230
H15 H 1.1404 0.2963 0.1462
H16 H 1.0707 0.2586 0.2116
H17 H 1.0000 0.3207 0.2525
H18 H 0.7862 0.6003 0.4212
H19 H 0.8539 0.5874 0.4072
H20 H 0.8492 0.6040 0.5061
H21 H 0.8600 0.5349 0.4988
H22 H 0.7855 0.5629 0.5718
H23 H 0.7441 0.5810 0.5180
H24 H 0.6861 0.3985 0.5616
H25 H 0.6250 0.4318 0.5502
H26 H 0.7000 0.4914 0.5972
H27 H 0.6705 0.5209 0.5405
H28 H 0.8351 0.4513 0.5316
H29 H 0.7813 0.4096 0.5491
H30 H 0.8761 0.5196 0.6068
H31 H 0.8956 0.5363 0.7065
H32 H 0.8402 0.4871 0.7777
H33 H 0.7682 0.4209 0.7499
H34 H 0.7487 0.4038 0.6511
H35 H 1.0239 0.5752 0.4100
H36 H 1.0189 0.5059 0.3985
H37 H 0.9684 0.5393 0.4344
H38 H 0.7821 0.7128 0.2959
H39 H 0.7805 0.6749 0.3551
H40 H 0.7408 0.6559 0.3002
H41 H 0.7521 0.5354 0.0973
H42 H 0.7221 0.5879 0.1333
H43 H 0.6894 0.5257 0.1278
H44 H 1.0169 0.3496 0.4340
H45 H 0.9829 0.3535 0.4954
H46 H 1.0257 0.4057 0.4755
H47 H 0.8101 0.2647 0.4154
H48 H 0.8621 0.3024 0.4443
H49 H 0.8442 0.3129 0.3771
H50 H 0.6282 0.3507 0.3141
H51 H 0.6046 0.3800 0.3735
H52 H 0.6698 0.3536 0.3708
H53 H 0.6627 0.6665 0.3999
H54 H 0.6182 0.6298 0.4402
H55 H 0.6065 0.6353 0.3711
Ni1E Ni 0.517201(16) 0.737234(16) 0.182353(17)
Ni1B Ni 0.737234(16) 0.982799(16) 0.317647(17)
Ni1G Ni 0.982799(16) 0.762766(16) 0.182353(17)
Ni2E Ni 0.470857(17) 0.763741(16) 0.062749(17)
Ni2B Ni 0.763741(16) 1.029143(17) 0.437251(17)
Ni2G Ni 1.029143(17) 0.736259(16) 0.062749(17)
Co1E Co 0.515101(16) 0.623237(17) 0.249900(17)
Co1B Co 0.623237(17) 0.984899(16) 0.250100(17)
Co1G Co 0.984899(16) 0.876763(17) 0.249900(17)
Co2E Co 0.456758(17) 0.633495(17) 0.118492(19)
Co2B Co 0.633495(17) 1.043242(17) 0.381508(19)
Co2G Co 1.043242(17) 0.866505(17) 0.118492(19)
Co3E Co 0.640020(18) 0.546410(17) 0.259850(19)
Co3B Co 0.546410(17) 0.859980(18) 0.240150(19)
Co3G Co 0.859980(18) 0.953590(17) 0.259850(19)
O1E O 0.45730(8) 0.67096(9) 0.19984(9)
O1B O 0.67096(9) 1.04270(8) 0.30016(9)
O1G O 1.04270(8) 0.82904(9) 0.19984(9)
O2E O 0.56610(9) 0.57142(10) 0.29727(10)
O2B O 0.57142(10) 0.93390(9) 0.20273(10)
O2G O 0.93390(9) 0.92858(10) 0.29727(10)
O3E O 0.51710(8) 0.69742(9) 0.09927(9)
O3B O 0.69742(9) 0.98290(8) 0.40073(9)
O3G O 0.98290(8) 0.80258(9) 0.09927(9)
O4E O 0.41902(10) 0.82762(10) 0.02310(10)
O4B O 0.82762(10) 1.08098(10) 0.47690(10)
O4G O 1.08098(10) 0.67238(10) 0.02310(10)
O5E O 0.51912(9) 0.57732(9) 0.16745(10)
O5B O 0.57732(9) 0.98088(9) 0.33255(10)
O5G O 0.98088(9) 0.92268(9) 0.16745(10)
O6E O 0.59725(10) 0.51987(11) 0.18350(10)
O6B O 0.51987(11) 0.90275(10) 0.31650(10)
O6G O 0.90275(10) 0.98013(11) 0.18350(10)
O7E O 0.57970(9) 0.67803(9) 0.21100(9)
O7B O 0.67803(9) 0.92030(9) 0.28900(9)
O7G O 0.92030(9) 0.82197(9) 0.21100(9)
O8E O 0.66125(9) 0.62733(10) 0.22727(11)
O8B O 0.62733(10) 0.83875(9) 0.27273(11)
O8G O 0.83875(9) 0.87267(10) 0.22727(11)
O9G O 0.98803(10) 0.81113(10) 0.31586(10)
O9B O 0.68887(10) 0.98803(10) 0.18414(10)
O9E O 0.51197(10) 0.68887(10) 0.31586(10)
O10E O 0.52010(9) 0.77300(9) 0.26588(9)
O10B O 0.77300(9) 0.97990(9) 0.23412(9)
O10G O 0.97990(9) 0.72700(9) 0.26588(9)
O11E O 0.39286(11) 0.56687(11) 0.12002(12)
O11B O 0.56687(11) 1.10714(11) 0.37998(12)
O11G O 1.10714(11) 0.93313(11) 0.12002(12)
O12E O 0.44666(12) 0.58107(11) 0.04130(12)
O12B O 0.58107(11) 1.05334(12) 0.45870(12)
O12G O 1.05334(12) 0.91893(11) 0.04130(12)
O13E O 0.40310(9) 0.70238(9) 0.07500(10)
O13B O 0.70238(9) 1.09690(9) 0.42500(10)
O13G O 1.09690(9) 0.79762(9) 0.07500(10)
O14G O 1.16764(11) 0.73962(12) 0.04052(12)
O14B O 0.76038(12) 1.16764(11) 0.45948(12)
O14E O 0.33236(11) 0.76038(12) 0.04052(12)
O15G O 1.05027(9) 0.71213(9) 0.15005(9)
O15B O 0.78787(9) 1.05027(9) 0.34995(9)
O15E O 0.44973(9) 0.78787(9) 0.15005(9)
O16G O 0.86649(10) 1.03901(10) 0.29215(10)
O16B O 0.46099(10) 0.86649(10) 0.20785(10)
O16E O 0.63351(10) 0.46099(10) 0.29215(10)
O17G O 0.92931(9) 0.69409(9) 0.16041(10)
O17B O 0.80591(9) 0.92931(9) 0.33959(10)
O17E O 0.57069(9) 0.80591(9) 0.16041(10)
O18G O 0.95738(10) 0.68090(10) 0.06679(10)
O18B O 0.81910(10) 0.95738(10) 0.43321(10)
O18E O 0.54262(10) 0.81910(10) 0.06679(10)
N1E N 0.44673(11) 0.57328(11) 0.29328(12)
N1B N 0.57328(11) 1.05327(11) 0.20672(12)
N1G N 1.05327(11) 0.92672(11) 0.29328(12)
N2E N 0.49265(12) 0.74483(11) -0.02570(12)
N2B N 0.74483(11) 1.00735(12) 0.52570(12)
N2G N 1.00735(12) 0.75517(11) -0.02570(12)
C1E C 0.40289(13) 0.68821(13) 0.22613(15)
C1B C 0.68821(13) 1.09711(13) 0.27387(15)
C1G C 1.09711(13) 0.81179(13) 0.22613(15)
C2E C 0.36669(14) 0.63645(15) 0.24914(15)
C2B C 0.63645(15) 1.13331(14) 0.25086(15)
C2G C 1.13331(14) 0.86355(15) 0.24914(15)
C3E C 0.39225(13) 0.60705(14) 0.30373(14)
C3B C 0.60705(14) 1.10775(13) 0.19627(14)
C3G C 1.10775(13) 0.89295(14) 0.30373(14)
C4G C 0.96263(14) 0.96297(14) 0.33991(15)
C4B C 0.53703(14) 0.96263(14) 0.16009(15)
C4E C 0.53737(14) 0.53703(14) 0.33991(15)
C5G C 1.02382(13) 0.93924(14) 0.35031(14)
C5B C 0.56076(14) 1.02382(13) 0.14969(14)
C5E C 0.47618(13) 0.56076(14) 0.35031(14)
C6G C 1.06413(14) 0.98224(14) 0.25882(14)
C6B C 0.51776(14) 1.06413(14) 0.24118(14)
C6E C 0.43587(14) 0.51776(14) 0.25882(14)
C7G C 1.10429(15) 1.02712(14) 0.28727(15)
C7B C 0.47288(14) 1.10429(15) 0.21273(15)
C7E C 0.39571(15) 0.47288(14) 0.28727(15)
C8G C 1.08344(17) 1.06873(15) 0.32636(17)
C8B C 0.43127(15) 1.08344(17) 0.17364(17)
C8E C 0.41656(17) 0.43127(15) 0.32636(17)
C9G C 1.11974(19) 1.11080(17) 0.3507(2)
C9B C 0.38920(17) 1.11974(19) 0.1493(2)
C9E C 0.38026(19) 0.38920(17) 0.3507(2)
C10G C 1.1785(2) 1.11167(17) 0.3369(2)
C10B C 0.38833(17) 1.1785(2) 0.1631(2)
C10E C 0.3215(2) 0.38833(17) 0.3369(2)
C11G C 1.20082(18) 1.07037(18) 0.2983(2)
C11B C 0.42963(18) 1.20082(18) 0.2017(2)
C11E C 0.29918(18) 0.42963(18) 0.2983(2)
C12G C 1.16361(17) 1.02835(16) 0.27389(18)
C12B C 0.47165(16) 1.16361(17) 0.22611(18)
C12E C 0.33639(17) 0.47165(16) 0.27389(18)
C13E C 0.57173(13) 0.68152(14) 0.07280(14)
C13B C 0.68152(14) 0.92827(13) 0.42720(14)
C13G C 0.92827(13) 0.81848(14) 0.07280(14)
C14E C 0.56681(15) 0.66898(14) 0.00748(15)
C14B C 0.66898(14) 0.93319(15) 0.49252(15)
C14G C 0.93319(15) 0.83102(14) 0.00748(15)
C15E C 0.55425(14) 0.72382(15) -0.03028(15)
C15B C 0.72382(15) 0.94575(14) 0.53028(15)
C15G C 0.94575(14) 0.77618(15) -0.03028(15)
C16E C 0.43055(16) 0.83291(15) -0.03913(15)
C16B C 0.83291(15) 1.06945(16) 0.53913(15)
C16G C 1.06945(16) 0.66709(15) -0.03913(15)
C17E C 0.48810(16) 0.80430(14) -0.05410(15)
C17B C 0.80430(14) 1.01190(16) 0.55410(15)
C17G C 1.01190(16) 0.69570(14) -0.05410(15)
C18E C 0.44985(16) 0.70250(15) -0.05352(15)
C18B C 0.70250(15) 1.05015(16) 0.55352(15)
C18G C 1.05015(16) 0.79750(15) -0.05352(15)
C19E C 0.46045(17) 0.68966(16) -0.11789(17)
C19B C 0.68966(16) 1.03955(17) 0.61789(17)
C19G C 1.03955(17) 0.81034(16) -0.11789(17)
C20E C 0.4993(3) 0.6463(2) -0.1357(2)
C20B C 0.6463(2) 1.0007(3) 0.6357(2)
C20G C 1.0007(3) 0.8537(2) -0.1357(2)
C21E C 0.5095(3) 0.6345(3) -0.1952(3)
C21B C 0.6345(3) 0.9905(3) 0.6952(3)
C21G C 0.9905(3) 0.8655(3) -0.1952(3)
C22E C 0.4802(3) 0.6671(3) -0.2372(2)
C22B C 0.6671(3) 1.0198(3) 0.7372(2)
C22G C 1.0198(3) 0.8329(3) -0.2372(2)
C23E C 0.4411(2) 0.7099(2) -0.22074(19)
C23B C 0.7099(2) 1.0589(2) 0.72074(19)
C23G C 1.0589(2) 0.7901(2) -0.22074(19)
C24E C 0.43100(18) 0.72149(17) -0.16182(17)
C24B C 0.72149(17) 1.06900(18) 0.66182(17)
C24G C 1.06900(18) 0.77851(17) -0.16182(17)
C25E C 0.55436(14) 0.53556(14) 0.15389(14)
C25B C 0.53556(14) 0.94564(14) 0.34611(14)
C25G C 0.94564(14) 0.96444(14) 0.15389(14)
C26G C 0.9573(3) 0.9967(3) 0.0980(3)
C26B C 0.5033(3) 0.9573(3) 0.4020(3)
C26E C 0.5427(3) 0.5033(3) 0.0980(3)
C27E C 0.63539(13) 0.67200(13) 0.21051(13)
C27B C 0.67200(13) 0.86461(13) 0.28949(13)
C27G C 0.86461(13) 0.82800(13) 0.21051(13)
C28G C 0.82701(14) 0.77856(14) 0.18788(16)
C28B C 0.72144(14) 0.82701(14) 0.31212(16)
C28E C 0.67299(14) 0.72144(14) 0.18788(16)
C29G C 0.97571(13) 0.75807(13) 0.31319(14)
C29B C 0.74193(13) 0.97571(13) 0.18681(14)
C29E C 0.52429(13) 0.74193(13) 0.31319(14)
C30G C 0.95484(18) 0.72772(16) 0.36860(16)
C30B C 0.77228(16) 0.95484(18) 0.13140(16)
C30E C 0.54516(18) 0.77228(16) 0.36860(16)
C31E C 0.40651(17) 0.55356(16) 0.06819(19)
C31B C 0.55356(16) 1.09349(17) 0.43181(19)
C31G C 1.09349(17) 0.94644(16) 0.06819(19)
C32E C 0.3761(3) 0.5025(3) 0.0382(3)
C32B C 0.5025(3) 1.1239(3) 0.4618(3)
C32G C 1.1239(3) 0.9975(3) 0.0382(3)
C33G C 1.15121(14) 0.78588(15) 0.06516(15)
C33B C 0.71412(15) 1.15121(14) 0.43484(15)
C33E C 0.34879(14) 0.71412(15) 0.06516(15)
C34G C 1.19670(16) 0.8293(2) 0.0837(3)
C34B C 0.6707(2) 1.19670(16) 0.4163(3)
C34E C 0.30330(16) 0.6707(2) 0.0837(3)
C35G C 1.06694(14) 0.66221(14) 0.17131(14)
C35B C 0.83779(14) 1.06694(14) 0.32869(14)
C35E C 0.43306(14) 0.83779(14) 0.17131(14)
C36G C 1.12579(16) 0.63919(19) 0.15150(18)
C36B C 0.86081(19) 1.12579(16) 0.34850(18)
C36E C 0.37421(16) 0.86081(19) 0.15150(18)
C37G C 0.92278(13) 0.67260(12) 0.10883(14)
C37B C 0.82740(12) 0.92278(13) 0.39117(14)
C37E C 0.57722(13) 0.82740(12) 0.10883(14)
C38G C 0.86804(15) 0.63691(16) 0.09851(16)
C38B C 0.86309(16) 0.86804(15) 0.40149(16)
C38E C 0.63196(15) 0.86309(16) 0.09851(16)
H1G H 1.0888 0.7846 0.2591
H1B H 0.7154 1.0888 0.2409
H1E H 0.4112 0.7154 0.2591
H2G H 1.1208 0.7901 0.1968
H2B H 0.7099 1.1208 0.3032
H2E H 0.3792 0.7099 0.1968
H3G H 1.1367 0.8934 0.2176
H3B H 0.6066 1.1367 0.2824
H3E H 0.3633 0.6066 0.2176
H4G H 1.1735 0.8495 0.2583
H4B H 0.6505 1.1735 0.2417
H4E H 0.3265 0.6505 0.2583
H5G H 1.1377 0.9198 0.3204
H5B H 0.5802 1.1377 0.1796
H5E H 0.3623 0.5802 0.3204
H6G H 1.0996 0.8622 0.3334
H6B H 0.6378 1.0996 0.1666
H6E H 0.4004 0.6378 0.3334
H7G H 0.9650 1.0043 0.3264
H7B H 0.4957 0.9650 0.1736
H7E H 0.5350 0.4957 0.3264
H8G H 0.9400 0.9621 0.3770
H8B H 0.5379 0.9400 0.1230
H8E H 0.5600 0.5379 0.3770
H9G H 1.0215 0.9027 0.3738
H9B H 0.5973 1.0215 0.1262
H9E H 0.4785 0.5973 0.3738
H10G H 1.0472 0.9684 0.3727
H10B H 0.5316 1.0472 0.1273
H10E H 0.4528 0.5316 0.3727
H11G H 1.0812 0.9712 0.2204
H11B H 0.5288 1.0812 0.2796
H11E H 0.4188 0.5288 0.2204
H12G H 1.0257 1.0013 0.2511
H12B H 0.4987 1.0257 0.2489
H12E H 0.4743 0.4987 0.2511
H13G H 1.0429 1.0683 0.3367
H13B H 0.4317 1.0429 0.1633
H13E H 0.4571 0.4317 0.3367
H14G H 1.1040 1.1392 0.3770
H14B H 0.3608 1.1040 0.1230
H14E H 0.3960 0.3608 0.3770
H15G H 1.2037 1.1404 0.3538
H15B H 0.3596 1.2037 0.1462
H15E H 0.2963 0.3596 0.3538
H16G H 1.2414 1.0707 0.2884
H16B H 0.4293 1.2414 0.2116
H16E H 0.2586 0.4293 0.2884
H17G H 1.1793 1.0000 0.2475
H17B H 0.5000 1.1793 0.2525
H17E H 0.3207 0.5000 0.2475
H18E H 0.6003 0.7138 0.0788
H18B H 0.7138 0.8997 0.4212
H18G H 0.8997 0.7862 0.0788
H19E H 0.5874 0.6461 0.0928
H19B H 0.6461 0.9126 0.4072
H19G H 0.9126 0.8539 0.0928
H20E H 0.6040 0.6508 -0.0061
H20B H 0.6508 0.8960 0.5061
H20G H 0.8960 0.8492 -0.0061
H21E H 0.5349 0.6400 0.0012
H21B H 0.6400 0.9651 0.4988
H21G H 0.9651 0.8600 0.0012
H22E H 0.5629 0.7145 -0.0718
H22B H 0.7145 0.9371 0.5718
H22G H 0.9371 0.7855 -0.0718
H23E H 0.5810 0.7559 -0.0180
H23B H 0.7559 0.9190 0.5180
H23G H 0.9190 0.7441 -0.0180
H24G H 1.1015 0.6861 -0.0616
H24B H 0.8139 1.1015 0.5616
H24E H 0.3985 0.8139 -0.0616
H25G H 1.0682 0.6250 -0.0502
H25B H 0.8750 1.0682 0.5502
H25E H 0.4318 0.8750 -0.0502
H26G H 1.0086 0.7000 -0.0972
H26B H 0.8000 1.0086 0.5972
H26E H 0.4914 0.8000 -0.0972
H27G H 0.9791 0.6705 -0.0405
H27B H 0.8295 0.9791 0.5405
H27E H 0.5209 0.8295 -0.0405
H28E H 0.4513 0.6649 -0.0316
H28B H 0.6649 1.0487 0.5316
H28G H 1.0487 0.8351 -0.0316
H29E H 0.4096 0.7187 -0.0491
H29B H 0.7187 1.0904 0.5491
H29G H 1.0904 0.7813 -0.0491
H30E H 0.5196 0.6239 -0.1068
H30B H 0.6239 0.9804 0.6068
H30G H 0.9804 0.8761 -0.1068
H31E H 0.5363 0.6044 -0.2065
H31B H 0.6044 0.9637 0.7065
H31G H 0.9637 0.8956 -0.2065
H32E H 0.4871 0.6598 -0.2777
H32B H 0.6598 1.0129 0.7777
H32G H 1.0129 0.8402 -0.2777
H33E H 0.4209 0.7318 -0.2499
H33B H 0.7318 1.0791 0.7499
H33G H 1.0791 0.7682 -0.2499
H34E H 0.4038 0.7513 -0.1511
H34B H 0.7513 1.0962 0.6511
H34G H 1.0962 0.7487 -0.1511
H35G H 0.9248 1.0239 0.0900
H35B H 0.4761 0.9248 0.4100
H35E H 0.5752 0.4761 0.0900
H36G H 0.9941 1.0189 0.1015
H36B H 0.4811 0.9941 0.3985
H36E H 0.5059 0.4811 0.1015
H37G H 0.9607 0.9684 0.0656
H37B H 0.5316 0.9607 0.4344
H37E H 0.5393 0.5316 0.0656
H38G H 0.7872 0.7821 0.2041
H38B H 0.7179 0.7872 0.2959
H38E H 0.7128 0.7179 0.2041
H39G H 0.8251 0.7805 0.1449
H39B H 0.7195 0.8251 0.3551
H39E H 0.6749 0.7195 0.1449
H40G H 0.8441 0.7408 0.1998
H40B H 0.7592 0.8441 0.3002
H40E H 0.6559 0.7592 0.1998
H41G H 0.9646 0.7521 0.4027
H41B H 0.7479 0.9646 0.0973
H41E H 0.5354 0.7479 0.4027
H42G H 0.9121 0.7221 0.3667
H42B H 0.7779 0.9121 0.1333
H42E H 0.5879 0.7779 0.3667
H43G H 0.9743 0.6894 0.3722
H43B H 0.8106 0.9743 0.1278
H43E H 0.5257 0.8106 0.3722
H44E H 0.3496 0.4831 0.0660
H44B H 0.4831 1.1504 0.4340
H44G H 1.1504 1.0169 0.0660
H45E H 0.3535 0.5171 0.0046
H45B H 0.5171 1.1465 0.4954
H45G H 1.1465 0.9829 0.0046
H46E H 0.4057 0.4743 0.0245
H46B H 0.4743 1.0943 0.4755
H46G H 1.0943 1.0257 0.0245
H47G H 1.2353 0.8101 0.0846
H47B H 0.6899 1.2353 0.4154
H47E H 0.2647 0.6899 0.0846
H48G H 1.1976 0.8621 0.0557
H48B H 0.6379 1.1976 0.4443
H48E H 0.3024 0.6379 0.0557
H49G H 1.1871 0.8442 0.1229
H49B H 0.6558 1.1871 0.3771
H49E H 0.3129 0.6558 0.1229
H50G H 1.1493 0.6282 0.1859
H50B H 0.8718 1.1493 0.3141
H50E H 0.3507 0.8718 0.1859
H51G H 1.1200 0.6046 0.1265
H51B H 0.8954 1.1200 0.3735
H51E H 0.3800 0.8954 0.1265
H52G H 1.1464 0.6698 0.1292
H52B H 0.8302 1.1464 0.3708
H52E H 0.3536 0.8302 0.1292
H53G H 0.8335 0.6627 0.1001
H53B H 0.8373 0.8335 0.3999
H53E H 0.6665 0.8373 0.1001
H54G H 0.8702 0.6182 0.0598
H54B H 0.8818 0.8702 0.4402
H54E H 0.6298 0.8818 0.0598
H55G H 0.8647 0.6065 0.1289
H55B H 0.8935 0.8647 0.3711
H55E H 0.6353 0.8935 0.1289
O19 O 1.1652(4) 0.5023(4) 0.0683(4)
C39 C 1.1361(5) 0.5138(6) 0.0132(5)
C40 C 1.0654(5) 0.4976(5) 0.0193(6)
C41 C 1.2207(6) 0.5164(6) 0.0654(5)
C42 C 1.2473(6) 0.5109(6) 0.1296(6)
O20 O 0.2500 0.2500 0.1684(10)
C43 C 0.2810(12) 0.3023(12) 0.1993(12)
C44 C 0.3186(8) 0.3467(8) 0.1523(8)
C43B C 0.2190(12) 0.1977(12) 0.1993(12)
C44B C 0.1814(8) 0.1533(8) 0.1523(8)
N3 N 0.7500 0.2500 0.6911(10)
C45 C 0.7500 0.2500 0.6329(6)
C46 C 0.7500 0.2500 0.5715(5)
N4 N 0.6860(4) 0.3909(4) 0.0632(4)
C47 C 0.6778(3) 0.3917(3) 0.1136(3)
C48 C 0.6671(3) 0.3932(3) 0.1723(2)
loop_
_geom_bond_atom_site_label_1
_geom_bond_atom_site_label_2
_geom_bond_site_symmetry_1
_geom_bond_site_symmetry_2
Ni1 O1 1_555 1_555
Ni2 O3 1_555 1_555
Co1 O1 1_555 1_555
Co2 O1 1_555 1_555
Co3 O2 1_555 1_555
O1 C1 1_555 1_555
O2 Co1 1_555 1_555
O3 Ni1 1_555 1_555
O4 Ni2 1_555 1_555
O5 Co1 1_555 1_555
O6 Co3 1_555 1_555
O7 Ni1 1_555 1_555
O8 Co3 1_555 1_555
O9 Co1 1_555 1_555
O10 Ni1 1_555 1_555
O11 Co2 1_555 1_555
O12 Co2 1_555 1_555
O13 Ni2 1_555 1_555
O14 C33 1_555 1_555
O15 Ni1 1_555 1_555
O16 Co3 1_555 1_555
O17 Ni1 1_555 1_555
O18 Ni2 1_555 1_555
N1 Co1 1_555 1_555
N2 Ni2 1_555 1_555
C1 C2 1_555 1_555
C2 C3 1_555 1_555
C3 N1 1_555 1_555
C4 O2 1_555 1_555
C5 N1 1_555 1_555
C6 N1 1_555 1_555
C7 C6 1_555 1_555
C8 C7 1_555 1_555
C9 C8 1_555 1_555
C10 C9 1_555 1_555
C11 C10 1_555 1_555
C12 C7 1_555 1_555
C13 O3 1_555 1_555
C14 C13 1_555 1_555
C15 N2 1_555 1_555
C16 O4 1_555 1_555
C17 N2 1_555 1_555
C18 N2 1_555 1_555
C19 C18 1_555 1_555
C20 C19 1_555 1_555
C21 C20 1_555 1_555
C22 C21 1_555 1_555
C23 C22 1_555 1_555
C24 C19 1_555 1_555
C25 O5 1_555 1_555
C26 C25 1_555 1_555
C27 O7 1_555 1_555
C28 C27 1_555 1_555
C29 O9 1_555 1_555
C30 C29 1_555 1_555
C31 O11 1_555 1_555
C32 C31 1_555 1_555
C33 O13 1_555 1_555
C34 C33 1_555 1_555
C35 O15 1_555 1_555
C36 C35 1_555 1_555
C37 O17 1_555 1_555
C38 C37 1_555 1_555
H1 C1 1_555 1_555
H2 C1 1_555 1_555
H3 C2 1_555 1_555
H4 C2 1_555 1_555
H5 C3 1_555 1_555
H6 C3 1_555 1_555
H7 C4 1_555 1_555
H8 C4 1_555 1_555
H9 C5 1_555 1_555
H10 C5 1_555 1_555
H11 C6 1_555 1_555
H12 C6 1_555 1_555
H13 C8 1_555 1_555
H14 C9 1_555 1_555
H15 C10 1_555 1_555
H16 C11 1_555 1_555
H17 C12 1_555 1_555
H18 C13 1_555 1_555
H19 C13 1_555 1_555
H20 C14 1_555 1_555
H21 C14 1_555 1_555
H22 C15 1_555 1_555
H23 C15 1_555 1_555
H24 C16 1_555 1_555
H25 C16 1_555 1_555
H26 C17 1_555 1_555
H27 C17 1_555 1_555
H28 C18 1_555 1_555
H29 C18 1_555 1_555
H30 C20 1_555 1_555
H31 C21 1_555 1_555
H32 C22 1_555 1_555
H33 C23 1_555 1_555
H34 C24 1_555 1_555
H35 C26 1_555 1_555
H36 C26 1_555 1_555
H37 C26 1_555 1_555
H38 C28 1_555 1_555
H39 C28 1_555 1_555
H40 C28 1_555 1_555
H41 C30 1_555 1_555
H42 C30 1_555 1_555
H43 C30 1_555 1_555
H44 C32 1_555 1_555
H45 C32 1_555 1_555
H46 C32 1_555 1_555
H47 C34 1_555 1_555
H48 C34 1_555 1_555
H49 C34 1_555 1_555
H50 C36 1_555 1_555
H51 C36 1_555 1_555
H52 C36 1_555 1_555
H53 C38 1_555 1_555
H54 C38 1_555 1_555
H55 C38 1_555 1_555
O19 C39 1_555 1_555
C39 C40 1_555 1_555
C41 O19 1_555 1_555
C42 C41 1_555 1_555
O20 C43 1_555 1_555
C43 C44 1_555 1_555
N3 C45 1_555 1_555
C45 C46 1_555 1_555
N4 C47 1_555 1_555
C47 C48 1_555 1_555
Ni1E O1E 1_555 1_555
Ni1B O1B 1_555 1_555
Ni1G O1G 1_555 1_555
Ni2E O3E 1_555 1_555
Ni2B O3B 1_555 1_555
Ni2G O3G 1_555 1_555
Co1E O1E 1_555 1_555
Co1B O1B 1_555 1_555
Co1G O1G 1_555 1_555
Co2E O1E 1_555 1_555
Co2B O1B 1_555 1_555
Co2G O1G 1_555 1_555
Co3E O10 1_555 1_555
Co3B O2B 1_555 1_555
Co3G O2G 1_555 1_555
O1E C1E 1_555 1_555
O1B C1B 1_555 1_555
O1G C1G 1_555 1_555
O2E Co1E 1_555 1_555
O2B Co1B 1_555 1_555
O2G Co1G 1_555 1_555
O3E Ni1E 1_555 1_555
O3B Ni1B 1_555 1_555
O3G Ni1G 1_555 1_555
O4E Ni2E 1_555 1_555
O4B Ni2B 1_555 1_555
O4G Ni2G 1_555 1_555
O5E Co1E 1_555 1_555
O5B Co1B 1_555 1_555
O5G Co1G 1_555 1_555
O6E Co3E 1_555 1_555
O6B Co3B 1_555 1_555
O6G Co3G 1_555 1_555
O7E Ni1E 1_555 1_555
O7B Ni1B 1_555 1_555
O7G Ni1G 1_555 1_555
O8E Co3E 1_555 1_555
O8B Co3B 1_555 1_555
O8G Co3G 1_555 1_555
O9G Co1G 1_555 1_555
O9B Co1B 1_555 1_555
O9E Co1E 1_555 1_555
O10E Ni1E 1_555 1_555
O10B Ni1B 1_555 1_555
O10G Co3 1_555 1_555
O11E Co2E 1_555 1_555
O11B Co2B 1_555 1_555
O11G Co2G 1_555 1_555
O12E Co2E 1_555 1_555
O12B Co2B 1_555 1_555
O12G Co2G 1_555 1_555
O13E Ni2E 1_555 1_555
O13B Ni2B 1_555 1_555
O13G Ni2G 1_555 1_555
O14G C33G 1_555 1_555
O14B C33B 1_555 1_555
O14E C33E 1_555 1_555
O15G Ni1G 1_555 1_555
O15B Ni1B 1_555 1_555
O15E Ni1E 1_555 1_555
O16G Co3G 1_555 1_555
O16B Co3B 1_555 1_555
O16E C35 1_555 1_555
O17G Co3 1_555 1_555
O17B Ni1B 1_555 1_555
O17E Ni1E 1_555 1_555
O18G Ni2G 1_555 1_555
O18B Ni2B 1_555 1_555
O18E Ni2E 1_555 1_555
N1E Co1E 1_555 1_555
N1B Co1B 1_555 1_555
N1G Co1G 1_555 1_555
N2E Ni2E 1_555 1_555
N2B Ni2B 1_555 1_555
N2G Ni2G 1_555 1_555
C1E C2E 1_555 1_555
C1B C2B 1_555 1_555
C1G C2G 1_555 1_555
C2E C3E 1_555 1_555
C2B C3B 1_555 1_555
C2G C3G 1_555 1_555
C3E N1E 1_555 1_555
C3B N1B 1_555 1_555
C3G N1G 1_555 1_555
C4G O2G 1_555 1_555
C4B O2B 1_555 1_555
C4E O2E 1_555 1_555
C5G N1G 1_555 1_555
C5B N1B 1_555 1_555
C5E N1E 1_555 1_555
C6G N1G 1_555 1_555
C6B N1B 1_555 1_555
C6E N1E 1_555 1_555
C7G C6G 1_555 1_555
C7B C6B 1_555 1_555
C7E C6E 1_555 1_555
C8G C7G 1_555 1_555
C8B C7B 1_555 1_555
C8E C7E 1_555 1_555
C9G C8G 1_555 1_555
C9B C8B 1_555 1_555
C9E C8E 1_555 1_555
C10G C9G 1_555 1_555
C10B C9B 1_555 1_555
C10E C9E 1_555 1_555
C11G C10G 1_555 1_555
C11B C10B 1_555 1_555
C11E C10E 1_555 1_555
C12G C7G 1_555 1_555
C12B C7B 1_555 1_555
C12E C7E 1_555 1_555
C13E O3E 1_555 1_555
C13B O3B 1_555 1_555
C13G O3G 1_555 1_555
C14E C13E 1_555 1_555
C14B C13B 1_555 1_555
C14G C13G 1_555 1_555
C15E N2E 1_555 1_555
C15B N2B 1_555 1_555
C15G N2G 1_555 1_555
C16E O4E 1_555 1_555
C16B O4B 1_555 1_555
C16G O4G 1_555 1_555
C17E N2E 1_555 1_555
C17B N2B 1_555 1_555
C17G N2G 1_555 1_555
C18E N2E 1_555 1_555
C18B N2B 1_555 1_555
C18G N2G 1_555 1_555
C19E C18E 1_555 1_555
C19B C18B 1_555 1_555
C19G C18G 1_555 1_555
C20E C19E 1_555 1_555
C20B C19B 1_555 1_555
C20G C19G 1_555 1_555
C21E C20E 1_555 1_555
C21B C20B 1_555 1_555
C21G C20G 1_555 1_555
C22E C21E 1_555 1_555
C22B C21B 1_555 1_555
C22G C21G 1_555 1_555
C23E C22E 1_555 1_555
C23B C22B 1_555 1_555
C23G C22G 1_555 1_555
C24E C19E 1_555 1_555
C24B C19B 1_555 1_555
C24G C19G 1_555 1_555
C25E O5E 1_555 1_555
C25B O5B 1_555 1_555
C25G O5G 1_555 1_555
C26G C25G 1_555 1_555
C26B C25B 1_555 1_555
C26E C25E 1_555 1_555
C27E O7E 1_555 1_555
C27B O7B 1_555 1_555
C27G O7G 1_555 1_555
C28G C27G 1_555 1_555
C28B C27B 1_555 1_555
C28E C27E 1_555 1_555
C29G O9G 1_555 1_555
C29B O9B 1_555 1_555
C29E O9E 1_555 1_555
C30G C29G 1_555 1_555
C30B C29B 1_555 1_555
C30E C29E 1_555 1_555
C31E O11E 1_555 1_555
C31B O11B 1_555 1_555
C31G O11G 1_555 1_555
C32E C31E 1_555 1_555
C32B C31B 1_555 1_555
C32G C31G 1_555 1_555
C33G O13G 1_555 1_555
C33B O13B 1_555 1_555
C33E O13E 1_555 1_555
C34G C33G 1_555 1_555
C34B C33B 1_555 1_555
C34E C33E 1_555 1_555
C35G O16 1_555 1_555
C35B O15B 1_555 1_555
C35E O15E 1_555 1_555
C36G C35G 1_555 1_555
C36B C35B 1_555 1_555
C36E C35E 1_555 1_555
C37G O17G 1_555 1_555
C37B O17B 1_555 1_555
C37E O17E 1_555 1_555
C38G C37G 1_555 1_555
C38B C37B 1_555 1_555
C38E C37E 1_555 1_555
H1G C1G 1_555 1_555
H1B C1B 1_555 1_555
H1E C1E 1_555 1_555
H2G C1G 1_555 1_555
H2B C1B 1_555 1_555
H2E C1E 1_555 1_555
H3G C2G 1_555 1_555
H3B C2B 1_555 1_555
H3E C2E 1_555 1_555
H4G C2G 1_555 1_555
H4B C2B 1_555 1_555
H4E C2E 1_555 1_555
H5G C3G 1_555 1_555
H5B C3B 1_555 1_555
H5E C3E 1_555 1_555
H6G C3G 1_555 1_555
H6B C3B 1_555 1_555
H6E C3E 1_555 1_555
H7G C4G 1_555 1_555
H7B C4B 1_555 1_555
H7E C4E 1_555 1_555
H8G C4G 1_555 1_555
H8B C4B 1_555 1_555
H8E C4E 1_555 1_555
H9G C5G 1_555 1_555
H9B C5B 1_555 1_555
H9E C5E 1_555 1_555
H10G C5G 1_555 1_555
H10B C5B 1_555 1_555
H10E C5E 1_555 1_555
H11G C6G 1_555 1_555
H11B C6B 1_555 1_555
H11E C6E 1_555 1_555
H12G C6G 1_555 1_555
H12B C6B 1_555 1_555
H12E C6E 1_555 1_555
H13G C8G 1_555 1_555
H13B C8B 1_555 1_555
H13E C8E 1_555 1_555
H14G C9G 1_555 1_555
H14B C9B 1_555 1_555
H14E C9E 1_555 1_555
H15G C10G 1_555 1_555
H15B C10B 1_555 1_555
H15E C10E 1_555 1_555
H16G C11G 1_555 1_555
H16B C11B 1_555 1_555
H16E C11E 1_555 1_555
H17G C12G 1_555 1_555
H17B C12B 1_555 1_555
H17E C12E 1_555 1_555
H18E C13E 1_555 1_555
H18B C13B 1_555 1_555
H18G C13G 1_555 1_555
H19E C13E 1_555 1_555
H19B C13B 1_555 1_555
H19G C13G 1_555 1_555
H20E C14E 1_555 1_555
H20B C14B 1_555 1_555
H20G C14G 1_555 1_555
H21E C14E 1_555 1_555
H21B C14B 1_555 1_555
H21G C14G 1_555 1_555
H22E C15E 1_555 1_555
H22B C15B 1_555 1_555
H22G C15G 1_555 1_555
H23E C15E 1_555 1_555
H23B C15B 1_555 1_555
H23G C15G 1_555 1_555
H24G C16G 1_555 1_555
H24B C16B 1_555 1_555
H24E C16E 1_555 1_555
H25G C16G 1_555 1_555
H25B C16B 1_555 1_555
H25E C16E 1_555 1_555
H26G C17G 1_555 1_555
H26B C17B 1_555 1_555
H26E C17E 1_555 1_555
H27G C17G 1_555 1_555
H27B C17B 1_555 1_555
H27E C17E 1_555 1_555
H28E C18E 1_555 1_555
H28B C18B 1_555 1_555
H28G C18G 1_555 1_555
H29E C18E 1_555 1_555
H29B C18B 1_555 1_555
H29G C18G 1_555 1_555
H30E C20E 1_555 1_555
H30B C20B 1_555 1_555
H30G C20G 1_555 1_555
H31E C21E 1_555 1_555
H31B C21B 1_555 1_555
H31G C21G 1_555 1_555
H32E C22E 1_555 1_555
H32B C22B 1_555 1_555
H32G C22G 1_555 1_555
H33E C23E 1_555 1_555
H33B C23B 1_555 1_555
H33G C23G 1_555 1_555
H34E C24E 1_555 1_555
H34B C24B 1_555 1_555
H34G C24G 1_555 1_555
H35G C26G 1_555 1_555
H35B C26B 1_555 1_555
H35E C26E 1_555 1_555
H36G C26G 1_555 1_555
H36B C26B 1_555 1_555
H36E C26E 1_555 1_555
H37G C26G 1_555 1_555
H37B C26B 1_555 1_555
H37E C26E 1_555 1_555
H38G C28G 1_555 1_555
H38B C28B 1_555 1_555
H38E C28E 1_555 1_555
H39G C28G 1_555 1_555
H39B C28B 1_555 1_555
H39E C28E 1_555 1_555
H40G C28G 1_555 1_555
H40B C28B 1_555 1_555
H40E C28E 1_555 1_555
H41G C30G 1_555 1_555
H41B C30B 1_555 1_555
H41E C30E 1_555 1_555
H42G C30G 1_555 1_555
H42B C30B 1_555 1_555
H42E C30E 1_555 1_555
H43G C30G 1_555 1_555
H43B C30B 1_555 1_555
H43E C30E 1_555 1_555
H44E C32E 1_555 1_555
H44B C32B 1_555 1_555
H44G C32G 1_555 1_555
H45E C32E 1_555 1_555
H45B C32B 1_555 1_555
H45G C32G 1_555 1_555
H46E C32E 1_555 1_555
H46B C32B 1_555 1_555
H46G C32G 1_555 1_555
H47G C34G 1_555 1_555
H47B C34B 1_555 1_555
H47E C34E 1_555 1_555
H48G C34G 1_555 1_555
H48B C34B 1_555 1_555
H48E C34E 1_555 1_555
H49G C34G 1_555 1_555
H49B C34B 1_555 1_555
H49E C34E 1_555 1_555
H50G C36G 1_555 1_555
H50B C36B 1_555 1_555
H50E C36E 1_555 1_555
H51G C36G 1_555 1_555
H51B C36B 1_555 1_555
H51E C36E 1_555 1_555
H52G C36G 1_555 1_555
H52B C36B 1_555 1_555
H52E C36E 1_555 1_555
H53G C38G 1_555 1_555
H53B C38B 1_555 1_555
H53E C38E 1_555 1_555
H54G C38G 1_555 1_555
H54B C38B 1_555 1_555
H54E C38E 1_555 1_555
H55G C38G 1_555 1_555
H55B C38B 1_555 1_555
H55E C38E 1_555 1_555
C43B O20 1_555 1_555
C44B C43B 1_555 1_555
Ni2 O15 1_555 1_555
Co1 O7 1_555 1_555
Co2 O3 1_555 1_555
Co2 O5 1_555 1_555
Co2 O13 1_555 1_555
O6 C25 1_555 1_555
O8 C27 1_555 1_555
O10 C29 1_555 1_555
O12 C31 1_555 1_555
O17 Co3E 1_555 1_555
O18 C37 1_555 1_555
C4 C5 1_555 1_555
C11 C12 1_555 1_555
C14 C15 1_555 1_555
C16 C17 1_555 1_555
C23 C24 1_555 1_555
Ni1G O10G 1_555 1_555
Ni1G O17G 1_555 1_555
Ni2E O15E 1_555 1_555
Ni2B O15B 1_555 1_555
Ni2G O15G 1_555 1_555
Co1E O7E 1_555 1_555
Co1B O7B 1_555 1_555
Co1G O7G 1_555 1_555
Co2E O3E 1_555 1_555
Co2E O5E 1_555 1_555
Co2E O13E 1_555 1_555
Co2B O3B 1_555 1_555
Co2B O5B 1_555 1_555
Co2B O13B 1_555 1_555
Co2G O3G 1_555 1_555
Co2G O5G 1_555 1_555
Co2G O13G 1_555 1_555
Co3E O2E 1_555 1_555
Co3E O16E 1_555 1_555
Co3B O10E 1_555 1_555
Co3B O17E 1_555 1_555
Co3G O10B 1_555 1_555
Co3G O17B 1_555 1_555
O6E C25E 1_555 1_555
O6B C25B 1_555 1_555
O6G C25G 1_555 1_555
O8E C27E 1_555 1_555
O8B C27B 1_555 1_555
O8G C27G 1_555 1_555
O10E C29E 1_555 1_555
O10B C29B 1_555 1_555
O10G C29G 1_555 1_555
O12E C31E 1_555 1_555
O12B C31B 1_555 1_555
O12G C31G 1_555 1_555
O15G C35G 1_555 1_555
O16G C35B 1_555 1_555
O16B C35E 1_555 1_555
O18G C37G 1_555 1_555
O18B C37B 1_555 1_555
O18E C37E 1_555 1_555
C4G C5G 1_555 1_555
C4B C5B 1_555 1_555
C4E C5E 1_555 1_555
C11G C12G 1_555 1_555
C11B C12B 1_555 1_555
C11E C12E 1_555 1_555
C14E C15E 1_555 1_555
C14B C15B 1_555 1_555
C14G C15G 1_555 1_555
C16E C17E 1_555 1_555
C16B C17B 1_555 1_555
C16G C17G 1_555 1_555
C23E C24E 1_555 1_555
C23B C24B 1_555 1_555
C23G C24G 1_555 1_555

#END
