
#######################################################################
#
#                 Cambridge Crystallographic Data Centre
#                                CCDC 
#
#######################################################################
#
# If this CIF has been generated from an entry in the Cambridge 
# Structural Database, then it will include bibliographic, chemical, 
# crystal, experimental, refinement or atomic coordinate data resulting 
# from the CCDC's data processing and validation procedures.
#
#######################################################################

data_GEQSEC
_chemical_formula_moiety         'C42 H36 N12 O2 Pd2 4+,4(Cl1 O4 1-)'
_chemical_name_systematic        
"bis((\m~2~-1,3-dipyridin-3-ylurea)-(2,2'-bipyridine))-di-palladium(ii) tetraperchlorate"
_symmetry_cell_setting           triclinic
_symmetry_space_group_name_H-M   'P -1'
_symmetry_Int_Tables_number      2
_space_group_name_Hall           '-P 1'
loop_
_symmetry_equiv_pos_site_id
_symmetry_equiv_pos_as_xyz
1 x,y,z
2 -x,-y,-z
_cell_length_a                   13.7721(11)
_cell_length_b                   14.3283(11)
_cell_length_c                   15.2061(11)
_cell_angle_alpha                72.723(3)
_cell_angle_beta                 78.255(3)
_cell_angle_gamma                76.979(3)
_cell_volume                     2761.3
_exptl_crystal_description       block
_cell_formula_units_Z            2
loop_
_atom_site_label
_atom_site_type_symbol
_atom_site_fract_x
_atom_site_fract_y
_atom_site_fract_z
C1 C 0.0877(6) 0.2027(8) 0.8971(6)
H1 H 0.0706 0.1496 0.8840
C2 C 0.0138(7) 0.2754(9) 0.9189(8)
H2 H -0.0529 0.2720 0.9194
C3 C 0.0348(8) 0.3523(9) 0.9399(10)
H3 H -0.0164 0.4029 0.9535
C4 C 0.1332(9) 0.3548(8) 0.9407(8)
H4 H 0.1495 0.4059 0.9579
C5 C 0.2100(7) 0.2800(7) 0.9157(6)
C6 C 0.3172(6) 0.2792(6) 0.9108(6)
C7 C 0.3587(8) 0.3501(7) 0.9291(8)
H5 H 0.3163 0.4039 0.9470
C8 C 0.4591(9) 0.3423(7) 0.9216(8)
H6 H 0.4863 0.3907 0.9329
C9 C 0.5215(7) 0.2606(7) 0.8964(7)
H7 H 0.5910 0.2530 0.8919
C10 C 0.4801(6) 0.1924(6) 0.8786(6)
H8 H 0.5222 0.1382 0.8614
C11 C 0.4818(6) -0.0589(6) 0.8756(5)
H9 H 0.4554 -0.0751 0.9385
C12 C 0.5697(7) -0.1131(7) 0.8447(6)
H10 H 0.6037 -0.1651 0.8868
C13 C 0.6085(6) -0.0912(6) 0.7514(5)
H11 H 0.6684 -0.1287 0.7303
C14 C 0.5580(5) -0.0134(4) 0.6894(4)
C15 C 0.4691(5) 0.0395(5) 0.7256(5)
H12 H 0.4334 0.0919 0.6853
C16 C 0.5572(5) 0.0883(5) 0.5296(5)
C17 C 0.5684(5) 0.1644(5) 0.3616(5)
C18 C 0.6292(5) 0.1697(5) 0.2765(5)
H13 H 0.6878 0.1232 0.2714
C19 C 0.6031(6) 0.2434(6) 0.1995(6)
H14 H 0.6427 0.2464 0.1418
C20 C 0.5163(6) 0.3137(5) 0.2092(5)
H15 H 0.4986 0.3642 0.1573
C21 C 0.4815(5) 0.2374(5) 0.3659(5)
H16 H 0.4393 0.2346 0.4225
C22 C 0.5123(6) 0.4884(7) 0.3394(8)
H17 H 0.5509 0.4295 0.3289
C23 C 0.5575(7) 0.5505(8) 0.3627(9)
H18 H 0.6257 0.5347 0.3679
C24 C 0.5007(8) 0.6370(9) 0.3783(10)
H19 H 0.5292 0.6804 0.3959
C25 C 0.4002(7) 0.6586(7) 0.3674(8)
H20 H 0.3608 0.7182 0.3755
C26 C 0.3592(6) 0.5926(5) 0.3451(6)
C27 C 0.2509(6) 0.6061(6) 0.3362(6)
C28 C 0.1822(8) 0.6926(8) 0.3384(10)
H21 H 0.2023 0.7485 0.3431
C29 C 0.0830(8) 0.6935(10) 0.3335(13)
H22 H 0.0348 0.7498 0.3373
C30 C 0.0561(7) 0.6147(9) 0.3234(10)
H23 H -0.0109 0.6157 0.3201
C31 C 0.1264(6) 0.5320(7) 0.3179(8)
H24 H 0.1069 0.4777 0.3093
C32 C 0.2180(6) 0.3246(6) 0.2225(6)
H25 H 0.2450 0.3643 0.1665
C33 C 0.1489(6) 0.2696(6) 0.2219(6)
H26 H 0.1276 0.2735 0.1665
C34 C 0.1115(6) 0.2085(6) 0.3042(6)
H27 H 0.0653 0.1701 0.3044
C35 C 0.1421(5) 0.2038(5) 0.3868(5)
C36 C 0.2110(5) 0.2631(5) 0.3822(5)
H28 H 0.2326 0.2614 0.4369
C37 C 0.1547(5) 0.0964(5) 0.5443(5)
C38 C 0.1283(5) 0.0194(5) 0.7109(5)
C39 C 0.0896(7) -0.0598(7) 0.7744(6)
H29 H 0.0429 -0.0884 0.7597
C40 C 0.1226(8) -0.0955(8) 0.8609(6)
H30 H 0.0991 -0.1500 0.9038
C41 C 0.1885(6) -0.0522(6) 0.8836(5)
H31 H 0.2102 -0.0781 0.9415
C42 C 0.1941(5) 0.0604(5) 0.7394(5)
H32 H 0.2200 0.1140 0.6974
N1 N 0.1858(5) 0.2050(5) 0.8938(4)
N2 N 0.3798(5) 0.2004(5) 0.8850(4)
N3 N 0.4331(4) 0.0173(4) 0.8168(4)
N4 N 0.5951(4) 0.0071(4) 0.5932(4)
H33 H 0.6445 -0.0344 0.5742
N5 N 0.5947(4) 0.0880(4) 0.4397(4)
H34 H 0.6378 0.0370 0.4301
N6 N 0.4577(4) 0.3102(4) 0.2920(4)
N7 N 0.4143(4) 0.5083(4) 0.3309(4)
N8 N 0.2219(4) 0.5272(4) 0.3244(5)
N9 N 0.2475(4) 0.3227(4) 0.3018(4)
N10 N 0.1027(4) 0.1454(4) 0.4711(4)
H35 H 0.0406 0.1393 0.4779
N11 N 0.0943(4) 0.0606(4) 0.6255(4)
H36 H 0.0317 0.0639 0.6234
N12 N 0.2231(4) 0.0272(5) 0.8244(4)
O1 O 0.4959(6) 0.1551(4) 0.5505(4)
O2 O 0.2462(3) 0.0869(3) 0.5369(3)
Pd1 Pd 0.30617(4) 0.10734(4) 0.85765(4)
Pd2 Pd 0.33645(4) 0.41522(3) 0.30888(4)
Cl1 Cl 0.23769(15) 0.33451(16) 0.60924(18)
O3 O 0.2009(7) 0.4174(9) 0.6414(11)
O4 O 0.3003(6) 0.2617(7) 0.6740(6)
O5 O 0.3012(6) 0.3585(7) 0.5241(5)
O6 O 0.1594(5) 0.2896(5) 0.5982(6)
Cl2 Cl 0.28600(17) 0.58136(16) 0.03903(16)
O7 O 0.3535(10) 0.5220(12) 0.0981(12)
O8 O 0.3501(14) 0.5677(9) -0.0346(10)
O9 O 0.2643(10) 0.6812(8) 0.0287(11)
O10 O 0.2061(6) 0.5332(7) 0.0557(9)
Cl3 Cl 0.7687(2) 0.0259(3) 0.8720(2)
O11 O 0.6918(6) 0.0317(8) 0.9457(6)
O12 O 0.8047(14) -0.0689(12) 0.8712(12)
O13 O 0.8491(10) 0.0613(16) 0.8860(11)
O14 O 0.7318(10) 0.0717(10) 0.7872(6)
Cl4 Cl 0.8057(2) 0.2095(3) 0.4383(3)
O15 O 0.7565(9) 0.1480(12) 0.5189(10)
O16 O 0.8837(7) 0.2441(10) 0.4558(9)
O17 O 0.8137(12) 0.1818(14) 0.3616(12)
O18 O 0.7274(10) 0.2980(13) 0.4233(16)
loop_
_geom_bond_atom_site_label_1
_geom_bond_atom_site_label_2
_geom_bond_site_symmetry_1
_geom_bond_site_symmetry_2
C1 H1 1_555 1_555
C2 C1 1_555 1_555
H2 C2 1_555 1_555
C3 C2 1_555 1_555
H3 C3 1_555 1_555
C4 C3 1_555 1_555
H4 C4 1_555 1_555
C5 C4 1_555 1_555
C6 C5 1_555 1_555
C7 C6 1_555 1_555
H5 C7 1_555 1_555
C8 C7 1_555 1_555
H6 C8 1_555 1_555
C9 C8 1_555 1_555
H7 C9 1_555 1_555
C10 C9 1_555 1_555
H8 C10 1_555 1_555
C11 H9 1_555 1_555
C12 C11 1_555 1_555
H10 C12 1_555 1_555
C13 C12 1_555 1_555
H11 C13 1_555 1_555
C14 C13 1_555 1_555
C15 C14 1_555 1_555
H12 C15 1_555 1_555
C16 N4 1_555 1_555
C17 C18 1_555 1_555
C18 H13 1_555 1_555
C19 C18 1_555 1_555
H14 C19 1_555 1_555
C20 C19 1_555 1_555
H15 C20 1_555 1_555
C21 C17 1_555 1_555
H16 C21 1_555 1_555
C22 H17 1_555 1_555
C23 C22 1_555 1_555
H18 C23 1_555 1_555
C24 C23 1_555 1_555
H19 C24 1_555 1_555
C25 C24 1_555 1_555
H20 C25 1_555 1_555
C26 C25 1_555 1_555
C27 C26 1_555 1_555
C28 C27 1_555 1_555
H21 C28 1_555 1_555
C29 C28 1_555 1_555
H22 C29 1_555 1_555
C30 C29 1_555 1_555
H23 C30 1_555 1_555
C31 C30 1_555 1_555
H24 C31 1_555 1_555
C32 H25 1_555 1_555
C33 C32 1_555 1_555
H26 C33 1_555 1_555
C34 C33 1_555 1_555
H27 C34 1_555 1_555
C35 C34 1_555 1_555
C36 C35 1_555 1_555
H28 C36 1_555 1_555
C37 N10 1_555 1_555
C38 C39 1_555 1_555
C39 H29 1_555 1_555
C40 C39 1_555 1_555
H30 C40 1_555 1_555
C41 C40 1_555 1_555
H31 C41 1_555 1_555
C42 C38 1_555 1_555
H32 C42 1_555 1_555
N1 C1 1_555 1_555
N2 C6 1_555 1_555
N3 C11 1_555 1_555
N4 C14 1_555 1_555
H33 N4 1_555 1_555
N5 C16 1_555 1_555
H34 N5 1_555 1_555
N6 C20 1_555 1_555
N7 C22 1_555 1_555
N8 C27 1_555 1_555
N9 C32 1_555 1_555
N10 C35 1_555 1_555
H35 N10 1_555 1_555
N11 C37 1_555 1_555
H36 N11 1_555 1_555
N12 C41 1_555 1_555
O1 C16 1_555 1_555
O2 C37 1_555 1_555
Pd1 N1 1_555 1_555
Pd2 N6 1_555 1_555
Cl1 O3 1_555 1_555
O4 Cl1 1_555 1_555
O5 Cl1 1_555 1_555
O6 Cl1 1_555 1_555
Cl2 O7 1_555 1_555
O8 Cl2 1_555 1_555
O9 Cl2 1_555 1_555
O10 Cl2 1_555 1_555
Cl3 O11 1_555 1_555
O12 Cl3 1_555 1_555
O13 Cl3 1_555 1_555
O14 Cl3 1_555 1_555
Cl4 O15 1_555 1_555
O16 Cl4 1_555 1_555
O17 Cl4 1_555 1_555
O18 Cl4 1_555 1_555
C5 N1 1_555 1_555
C10 N2 1_555 1_555
C15 N3 1_555 1_555
C17 N5 1_555 1_555
C21 N6 1_555 1_555
C26 N7 1_555 1_555
C31 N8 1_555 1_555
C36 N9 1_555 1_555
C38 N11 1_555 1_555
C42 N12 1_555 1_555
N2 Pd1 1_555 1_555
N3 Pd1 1_555 1_555
N7 Pd2 1_555 1_555
N8 Pd2 1_555 1_555
N9 Pd2 1_555 1_555
N12 Pd1 1_555 1_555

#END
