
#######################################################################
#
#                 Cambridge Crystallographic Data Centre
#                                CCDC 
#
#######################################################################
#
# If this CIF has been generated from an entry in the Cambridge 
# Structural Database, then it will include bibliographic, chemical, 
# crystal, experimental, refinement or atomic coordinate data resulting 
# from the CCDC's data processing and validation procedures.
#
#######################################################################

data_GEQSUS
_chemical_formula_moiety         
'C46 H36 N12 O2 Pd2 2+,2(N1 O3 1-),C2 H3 N1,1.5(H2 O1)'
_chemical_name_systematic        
'bis((\m~2~-1,3-dipyridin-3-ylurea)-(1,10-phenanthroline))-di-palladium dinitrate acetonitrile solvate sesquihydrate'
_symmetry_cell_setting           triclinic
_symmetry_space_group_name_H-M   'P -1'
_symmetry_Int_Tables_number      2
_space_group_name_Hall           '-P 1'
loop_
_symmetry_equiv_pos_site_id
_symmetry_equiv_pos_as_xyz
1 x,y,z
2 -x,-y,-z
_cell_length_a                   12.1745(14)
_cell_length_b                   15.9854(19)
_cell_length_c                   16.9763(18)
_cell_angle_alpha                66.886(3)
_cell_angle_beta                 74.165(4)
_cell_angle_gamma                69.919(3)
_cell_volume                     2817.2
_exptl_crystal_colour            colorless
_exptl_crystal_description       block
_cell_formula_units_Z            2
loop_
_atom_site_label
_atom_site_type_symbol
_atom_site_fract_x
_atom_site_fract_y
_atom_site_fract_z
C1 C 0.286(2) -0.0426(18) 0.0304(18)
H1 H 0.2084 -0.0157 0.0558
C2 C 0.301(3) -0.048(2) -0.053(2)
H2 H 0.2347 -0.0266 -0.0820
C3 C 0.411(3) -0.085(2) -0.0917(18)
H3 H 0.4217 -0.0873 -0.1485
C4 C 0.508(2) -0.1195(16) -0.0473(18)
C5 C 0.623(3) -0.160(2) -0.080(2)
H4 H 0.6390 -0.1650 -0.1359
C6 C 0.711(3) -0.192(2) -0.0341(19)
H5 H 0.7882 -0.2212 -0.0574
C7 C 0.690(3) -0.182(2) 0.050(2)
C8 C 0.782(3) -0.213(2) 0.103(2)
H6 H 0.8615 -0.2425 0.0834
C9 C 0.751(3) -0.199(2) 0.179(2)
H7 H 0.8106 -0.2170 0.2137
C10 C 0.634(3) -0.159(2) 0.209(2)
H8 H 0.6154 -0.1492 0.2638
C11 C 0.577(2) -0.1457(17) 0.0852(16)
C12 C 0.483(2) -0.1108(17) 0.0360(15)
C13 C 0.388(3) -0.175(2) 0.375(2)
H9 H 0.3868 -0.2252 0.3594
C14 C 0.394(3) -0.190(2) 0.462(2)
H10 H 0.3997 -0.2511 0.5047
C15 C 0.390(3) -0.116(2) 0.4835(19)
H11 H 0.3927 -0.1244 0.5416
C16 C 0.381(2) -0.0280(18) 0.4208(18)
C17 C 0.380(2) -0.0185(18) 0.3365(16)
H12 H 0.3759 0.0414 0.2926
C18 C 0.364(2) 0.1407(18) 0.391(2)
C19 C 0.334(3) 0.2939(19) 0.4099(19)
C20 C 0.336(3) 0.333(2) 0.471(2)
H13 H 0.3406 0.2969 0.5301
C21 C 0.331(4) 0.429(3) 0.436(3)
H14 H 0.3354 0.4587 0.4739
C22 C 0.322(4) 0.482(2) 0.353(2)
H15 H 0.3209 0.5470 0.3321
C23 C 0.321(3) 0.3500(18) 0.3254(19)
H16 H 0.3190 0.3225 0.2855
C24 C 0.543(3) 0.5044(18) 0.162(2)
H17 H 0.5368 0.4660 0.2212
C25 C 0.655(3) 0.522(2) 0.119(3)
H18 H 0.7200 0.4971 0.1493
C26 C 0.666(3) 0.574(2) 0.036(3)
H19 H 0.7395 0.5876 0.0058
C27 C 0.562(3) 0.612(2) -0.008(2)
C28 C 0.565(3) 0.670(2) -0.098(3)
H20 H 0.6366 0.6850 -0.1310
C29 C 0.469(4) 0.704(2) -0.134(2)
H21 H 0.4726 0.7424 -0.1931
C30 C 0.354(3) 0.685(2) -0.084(2)
C31 C 0.249(4) 0.721(2) -0.116(3)
H22 H 0.2435 0.7634 -0.1735
C32 C 0.153(4) 0.693(3) -0.063(3)
H23 H 0.0802 0.7139 -0.0841
C33 C 0.160(4) 0.635(2) 0.023(3)
H24 H 0.0902 0.6189 0.0590
C34 C 0.357(3) 0.6267(19) 0.005(2)
C35 C 0.461(3) 0.5914(18) 0.040(2)
C36 C 0.034(3) 0.572(2) 0.250(3)
H25 H 0.0505 0.6263 0.2487
C37 C -0.082(4) 0.559(3) 0.286(3)
H26 H -0.1442 0.6045 0.3060
C38 C -0.101(3) 0.481(2) 0.289(2)
H27 H -0.1775 0.4711 0.3124
C39 C -0.012(2) 0.412(2) 0.259(2)
C40 C 0.096(2) 0.4304(17) 0.2218(19)
H28 H 0.1566 0.3875 0.1969
C41 C 0.039(2) 0.2541(17) 0.2440(18)
C42 C 0.031(3) 0.0999(19) 0.2477(17)
C43 C -0.045(3) 0.0473(19) 0.2574(19)
H29 H -0.1279 0.0729 0.2678
C44 C 0.001(3) -0.040(2) 0.252(2)
H30 H -0.0504 -0.0779 0.2623
C45 C 0.124(3) -0.075(2) 0.231(2)
H31 H 0.1557 -0.1357 0.2245
C46 C 0.151(2) 0.0609(17) 0.2290(16)
H32 H 0.2037 0.0962 0.2216
N1 N 0.373(2) -0.0729(14) 0.0744(13)
N2 N 0.547(2) -0.1335(13) 0.1633(15)
N3 N 0.386(2) -0.0921(16) 0.3159(14)
N4 N 0.1949(19) -0.0240(14) 0.2209(14)
N5 N 0.373(2) 0.0467(15) 0.4461(14)
H33 H 0.3727 0.0344 0.5013
N6 N 0.343(2) 0.1955(15) 0.4442(14)
H34 H 0.3347 0.1678 0.5008
N7 N 0.313(2) 0.4412(16) 0.2987(17)
N8 N 0.451(2) 0.5365(15) 0.1258(18)
N9 N 0.258(2) 0.6017(16) 0.0547(17)
N10 N 0.118(2) 0.5078(16) 0.2201(17)
N11 N -0.040(2) 0.3309(16) 0.2659(17)
H35 H -0.1141 0.3288 0.2858
N12 N -0.020(2) 0.1875(15) 0.2604(15)
H36 H -0.0963 0.2012 0.2807
O1 O 0.376(2) 0.1667(13) 0.3151(12)
O2 O 0.1418(16) 0.2464(13) 0.2147(14)
Pd1 Pd 0.37277(19) -0.07840(14) 0.19463(14)
Pd2 Pd 0.2852(2) 0.52143(14) 0.17617(16)
N13 N 0.681(2) 0.2924(18) 0.3221(14)
O3 O 0.745(2) 0.212(2) 0.3320(17)
O4 O 0.716(2) 0.358(2) 0.311(3)
O5 O 0.569(2) 0.3032(18) 0.3286(19)
N14 N 0.694(2) 0.955(2) 0.3332(18)
O6 O 0.679(3) 0.8734(18) 0.3749(14)
O7 O 0.686(3) 1.005(2) 0.3734(16)
O8 O 0.718(2) 0.9808(18) 0.2527(14)
O9 O 1.0000 0.5000 0.0000
H38 H 0.97(2) 0.53(2) 0.051(15)
H38A H 1.03(2) 0.47(2) -0.051(15)
O10 O 0.004(5) 0.092(4) 0.003(4)
C47 C 0.462(4) 0.690(3) 0.203(3)
C48 C 0.362(6) 0.710(4) 0.214(4)
N15 N 0.303(4) 0.737(3) 0.140(3)
loop_
_geom_bond_atom_site_label_1
_geom_bond_atom_site_label_2
_geom_bond_site_symmetry_1
_geom_bond_site_symmetry_2
C1 H1 1_555 1_555
C2 C1 1_555 1_555
H2 C2 1_555 1_555
C3 C2 1_555 1_555
H3 C3 1_555 1_555
C4 C3 1_555 1_555
C5 C4 1_555 1_555
H4 C5 1_555 1_555
C6 C5 1_555 1_555
H5 C6 1_555 1_555
C7 C6 1_555 1_555
C8 C7 1_555 1_555
H6 C8 1_555 1_555
C9 C8 1_555 1_555
H7 C9 1_555 1_555
C10 C9 1_555 1_555
H8 C10 1_555 1_555
C11 C7 1_555 1_555
C12 C4 1_555 1_555
C13 H9 1_555 1_555
C14 C13 1_555 1_555
H10 C14 1_555 1_555
C15 C14 1_555 1_555
H11 C15 1_555 1_555
C16 C15 1_555 1_555
C17 C16 1_555 1_555
H12 C17 1_555 1_555
C18 N5 1_555 1_555
C19 C20 1_555 1_555
C20 H13 1_555 1_555
C21 C20 1_555 1_555
H14 C21 1_555 1_555
C22 C21 1_555 1_555
H15 C22 1_555 1_555
C23 C19 1_555 1_555
H16 C23 1_555 1_555
C24 H17 1_555 1_555
C25 C24 1_555 1_555
H18 C25 1_555 1_555
C26 C25 1_555 1_555
H19 C26 1_555 1_555
C27 C26 1_555 1_555
C28 C27 1_555 1_555
H20 C28 1_555 1_555
C29 C28 1_555 1_555
H21 C29 1_555 1_555
C30 C29 1_555 1_555
C31 C30 1_555 1_555
H22 C31 1_555 1_555
C32 C31 1_555 1_555
H23 C32 1_555 1_555
C33 C32 1_555 1_555
H24 C33 1_555 1_555
C34 C30 1_555 1_555
C35 C27 1_555 1_555
C36 H25 1_555 1_555
C37 C36 1_555 1_555
H26 C37 1_555 1_555
C38 C37 1_555 1_555
H27 C38 1_555 1_555
C39 C38 1_555 1_555
C40 C39 1_555 1_555
H28 C40 1_555 1_555
C41 N11 1_555 1_555
C42 C43 1_555 1_555
C43 H29 1_555 1_555
C44 C43 1_555 1_555
H30 C44 1_555 1_555
C45 C44 1_555 1_555
H31 C45 1_555 1_555
C46 C42 1_555 1_555
H32 C46 1_555 1_555
N1 C1 1_555 1_555
N2 C10 1_555 1_555
N3 C13 1_555 1_555
N4 C45 1_555 1_555
N5 C16 1_555 1_555
H33 N5 1_555 1_555
N6 C18 1_555 1_555
H34 N6 1_555 1_555
N7 C22 1_555 1_555
N8 C24 1_555 1_555
N9 C33 1_555 1_555
N10 C36 1_555 1_555
N11 C39 1_555 1_555
H35 N11 1_555 1_555
N12 C41 1_555 1_555
H36 N12 1_555 1_555
N13 O3 1_555 1_555
N14 O6 1_555 1_555
O1 C18 1_555 1_555
O2 C41 1_555 1_555
O4 N13 1_555 1_555
O5 N13 1_555 1_555
O7 N14 1_555 1_555
O8 N14 1_555 1_555
Pd1 N1 1_555 1_555
Pd2 N7 1_555 1_555
O9 H38 1_555 1_555
C47 C48 1_555 1_555
C48 N15 1_555 1_555
H38A O9 1_555 1_555
C11 C12 1_555 1_555
C11 N2 1_555 1_555
C12 N1 1_555 1_555
C17 N3 1_555 1_555
C19 N6 1_555 1_555
C23 N7 1_555 1_555
C34 C35 1_555 1_555
C34 N9 1_555 1_555
C35 N8 1_555 1_555
C40 N10 1_555 1_555
C42 N12 1_555 1_555
C46 N4 1_555 1_555
N2 Pd1 1_555 1_555
N3 Pd1 1_555 1_555
N4 Pd1 1_555 1_555
N8 Pd2 1_555 1_555
N9 Pd2 1_555 1_555
N10 Pd2 1_555 1_555

#END
