# generated using pymatgen
data_FeH27C36N7
_symmetry_space_group_name_H-M   'P 1'
_cell_length_a   19.63030000
_cell_length_b   30.42100000
_cell_length_c   32.40200000
_cell_angle_alpha   90.00000000
_cell_angle_beta   90.00000000
_cell_angle_gamma   95.49400000
_symmetry_Int_Tables_number   1
_chemical_formula_structural   FeH27C36N7
_chemical_formula_sum   'Fe16 H432 C576 N112'
_cell_volume   19260.72342505
_cell_formula_units_Z   16
loop_
 _symmetry_equiv_pos_site_id
 _symmetry_equiv_pos_as_xyz
  1  'x, y, z'
loop_
 _atom_site_type_symbol
 _atom_site_label
 _atom_site_symmetry_multiplicity
 _atom_site_fract_x
 _atom_site_fract_y
 _atom_site_fract_z
 _atom_site_occupancy
  Fe  Fe1  1  0.620700  0.616770  0.920520  1
  Fe  Fe2  1  0.879300  0.883230  0.420520  1
  Fe  Fe3  1  0.379300  0.383230  0.079480  1
  Fe  Fe4  1  0.120700  0.116770  0.579480  1
  Fe  Fe5  1  0.011200  0.874390  0.754080  1
  Fe  Fe6  1  0.488800  0.625610  0.254080  1
  Fe  Fe7  1  0.988800  0.125610  0.245920  1
  Fe  Fe8  1  0.511200  0.374390  0.745920  1
  Fe  Fe9  1  0.556110  0.675800  0.565730  1
  Fe  Fe10  1  0.943890  0.824200  0.065730  1
  Fe  Fe11  1  0.443890  0.324200  0.434270  1
  Fe  Fe12  1  0.056110  0.175800  0.934270  1
  Fe  Fe13  1  0.045750  0.499950  0.691650  1
  Fe  Fe14  1  0.454250  0.000050  0.191650  1
  Fe  Fe15  1  0.954250  0.500050  0.308350  1
  Fe  Fe16  1  0.545750  0.999950  0.808350  1
  H  H17  1  0.494100  0.639700  0.971400  1
  H  H18  1  0.005900  0.860300  0.471400  1
  H  H19  1  0.505900  0.360300  0.028600  1
  H  H20  1  0.994100  0.139700  0.528600  1
  H  H21  1  0.467900  0.698700  0.010700  1
  H  H22  1  0.032100  0.801300  0.510700  1
  H  H23  1  0.532100  0.301300  0.989300  1
  H  H24  1  0.967900  0.198700  0.489300  1
  H  H25  1  0.549300  0.761300  0.021300  1
  H  H26  1  0.950700  0.738700  0.521300  1
  H  H27  1  0.450700  0.238700  0.978700  1
  H  H28  1  0.049300  0.261300  0.478700  1
  H  H29  1  0.656200  0.758000  0.989900  1
  H  H30  1  0.843800  0.742000  0.489900  1
  H  H31  1  0.343800  0.242000  0.010100  1
  H  H32  1  0.156200  0.258000  0.510100  1
  H  H33  1  0.735600  0.720400  0.945300  1
  H  H34  1  0.764400  0.779600  0.445300  1
  H  H35  1  0.264400  0.279600  0.054700  1
  H  H36  1  0.235600  0.220400  0.554700  1
  H  H37  1  0.804500  0.610200  0.935000  1
  H  H38  1  0.695500  0.889800  0.435000  1
  H  H39  1  0.195500  0.389800  0.065000  1
  H  H40  1  0.304500  0.110200  0.565000  1
  H  H41  1  0.907400  0.607400  0.898500  1
  H  H42  1  0.592600  0.892600  0.398500  1
  H  H43  1  0.092600  0.392600  0.101500  1
  H  H44  1  0.407400  0.107400  0.601500  1
  H  H45  1  0.853600  0.701300  0.820800  1
  H  H46  1  0.646400  0.798700  0.320800  1
  H  H47  1  0.146400  0.298700  0.179200  1
  H  H48  1  0.353600  0.201300  0.679200  1
  H  H49  1  0.749400  0.704500  0.858700  1
  H  H50  1  0.750600  0.795500  0.358700  1
  H  H51  1  0.250600  0.295500  0.141300  1
  H  H52  1  0.249400  0.204500  0.641300  1
  H  H53  1  0.879200  0.582900  0.820200  1
  H  H54  1  0.620800  0.917100  0.320200  1
  H  H55  1  0.120800  0.417100  0.179800  1
  H  H56  1  0.379200  0.082900  0.679800  1
  H  H57  1  0.904500  0.518600  0.788900  1
  H  H58  1  0.595500  0.981400  0.288900  1
  H  H59  1  0.095500  0.481400  0.211100  1
  H  H60  1  0.404500  0.018600  0.711100  1
  H  H61  1  0.097700  0.577500  0.766900  1
  H  H62  1  0.402300  0.922500  0.266900  1
  H  H63  1  0.902300  0.422500  0.233100  1
  H  H64  1  0.597700  0.077500  0.733100  1
  H  H65  1  0.067600  0.636500  0.808900  1
  H  H66  1  0.432400  0.863500  0.308900  1
  H  H67  1  0.932400  0.363500  0.191100  1
  H  H68  1  0.567600  0.136500  0.691100  1
  H  H69  1  0.986100  0.463700  0.796900  1
  H  H70  1  0.513900  0.036300  0.296900  1
  H  H71  1  0.013900  0.536300  0.203100  1
  H  H72  1  0.486100  0.963700  0.703100  1
  H  H73  1  0.051900  0.413600  0.648700  1
  H  H74  1  0.448100  0.086400  0.148700  1
  H  H75  1  0.948100  0.586400  0.351300  1
  H  H76  1  0.551900  0.913600  0.851300  1
  H  H77  1  0.056800  0.334500  0.674900  1
  H  H78  1  0.443200  0.165500  0.174900  1
  H  H79  1  0.943200  0.665500  0.325100  1
  H  H80  1  0.556800  0.834500  0.825100  1
  H  H81  1  0.041100  0.322700  0.748400  1
  H  H82  1  0.458900  0.177300  0.248400  1
  H  H83  1  0.958900  0.677300  0.251600  1
  H  H84  1  0.541100  0.822700  0.751600  1
  H  H85  1  0.015300  0.377900  0.789900  1
  H  H86  1  0.484700  0.122100  0.289900  1
  H  H87  1  0.984700  0.622100  0.210100  1
  H  H88  1  0.515300  0.877900  0.710100  1
  H  H89  1  0.001300  0.731800  0.869200  1
  H  H90  1  0.498700  0.768200  0.369200  1
  H  H91  1  0.998700  0.268200  0.130800  1
  H  H92  1  0.501300  0.231800  0.630800  1
  H  H93  1  0.045200  0.796000  0.837400  1
  H  H94  1  0.454800  0.704000  0.337400  1
  H  H95  1  0.954800  0.204000  0.162600  1
  H  H96  1  0.545200  0.296000  0.662600  1
  H  H97  1  0.007900  0.741200  0.725400  1
  H  H98  1  0.492100  0.758800  0.225400  1
  H  H99  1  0.992100  0.258800  0.274600  1
  H  H100  1  0.507900  0.241200  0.774600  1
  H  H101  1  0.960800  0.677300  0.756700  1
  H  H102  1  0.539200  0.822700  0.256700  1
  H  H103  1  0.039200  0.322700  0.243300  1
  H  H104  1  0.460800  0.177300  0.743300  1
  H  H105  1  0.131900  0.791900  0.743500  1
  H  H106  1  0.368100  0.708100  0.243500  1
  H  H107  1  0.868100  0.208100  0.256500  1
  H  H108  1  0.631900  0.291900  0.756500  1
  H  H109  1  0.089200  0.949700  0.700900  1
  H  H110  1  0.410800  0.550300  0.200900  1
  H  H111  1  0.910800  0.050300  0.299100  1
  H  H112  1  0.589200  0.449700  0.799100  1
  H  H113  1  0.195800  0.962500  0.672400  1
  H  H114  1  0.304200  0.537500  0.172400  1
  H  H115  1  0.804200  0.037500  0.327600  1
  H  H116  1  0.695800  0.462500  0.827600  1
  H  H117  1  0.267400  0.904200  0.667000  1
  H  H118  1  0.232600  0.595800  0.167000  1
  H  H119  1  0.732600  0.095800  0.333000  1
  H  H120  1  0.767400  0.404200  0.833000  1
  H  H121  1  0.222300  0.833900  0.695200  1
  H  H122  1  0.277700  0.666100  0.195200  1
  H  H123  1  0.777700  0.166100  0.304800  1
  H  H124  1  0.722300  0.333900  0.804800  1
  H  H125  1  0.531800  0.542600  0.970600  1
  H  H126  1  0.968200  0.957400  0.470600  1
  H  H127  1  0.468200  0.457400  0.029400  1
  H  H128  1  0.031800  0.042600  0.529400  1
  H  H129  1  0.424500  0.509000  0.963000  1
  H  H130  1  0.075500  0.991000  0.463000  1
  H  H131  1  0.575500  0.491000  0.037000  1
  H  H132  1  0.924500  0.009000  0.537000  1
  H  H133  1  0.355000  0.523400  0.910000  1
  H  H134  1  0.145000  0.976600  0.410000  1
  H  H135  1  0.645000  0.476600  0.090000  1
  H  H136  1  0.855000  0.023400  0.590000  1
  H  H137  1  0.394900  0.579000  0.862800  1
  H  H138  1  0.105100  0.921000  0.362800  1
  H  H139  1  0.605100  0.421000  0.137200  1
  H  H140  1  0.894900  0.079000  0.637200  1
  H  H141  1  0.492500  0.636300  0.841100  1
  H  H142  1  0.007500  0.863700  0.341100  1
  H  H143  1  0.507500  0.363700  0.158900  1
  H  H144  1  0.992500  0.136300  0.658900  1
  H  H145  1  0.612200  0.729400  0.881900  1
  H  H146  1  0.887800  0.770600  0.381900  1
  H  H147  1  0.387800  0.270600  0.118100  1
  H  H148  1  0.112200  0.229400  0.618100  1
  H  H149  1  0.639800  0.783500  0.831100  1
  H  H150  1  0.860200  0.716500  0.331100  1
  H  H151  1  0.360200  0.216500  0.168900  1
  H  H152  1  0.139800  0.283500  0.668900  1
  H  H153  1  0.650600  0.687100  0.745900  1
  H  H154  1  0.849400  0.812900  0.245900  1
  H  H155  1  0.349400  0.312900  0.254100  1
  H  H156  1  0.150600  0.187100  0.754100  1
  H  H157  1  0.611600  0.633400  0.798000  1
  H  H158  1  0.888400  0.866600  0.298000  1
  H  H159  1  0.388400  0.366600  0.202000  1
  H  H160  1  0.111600  0.133400  0.702000  1
  H  H161  1  0.775800  0.742900  0.792300  1
  H  H162  1  0.724200  0.757100  0.292300  1
  H  H163  1  0.224200  0.257100  0.207700  1
  H  H164  1  0.275800  0.242900  0.707700  1
  H  H165  1  0.883900  0.780900  0.809100  1
  H  H166  1  0.616100  0.719100  0.309100  1
  H  H167  1  0.116100  0.219100  0.190900  1
  H  H168  1  0.383900  0.280900  0.690900  1
  H  H169  1  0.832400  0.889700  0.752700  1
  H  H170  1  0.667600  0.610300  0.252700  1
  H  H171  1  0.167600  0.110300  0.247300  1
  H  H172  1  0.332400  0.389700  0.747300  1
  H  H173  1  0.722200  0.854900  0.738900  1
  H  H174  1  0.777800  0.645100  0.238900  1
  H  H175  1  0.277800  0.145100  0.261100  1
  H  H176  1  0.222200  0.354900  0.761100  1
  H  H177  1  0.908900  0.863400  0.849900  1
  H  H178  1  0.591100  0.636600  0.349900  1
  H  H179  1  0.091100  0.136600  0.150100  1
  H  H180  1  0.408900  0.363400  0.650100  1
  H  H181  1  0.151500  0.913500  0.791000  1
  H  H182  1  0.348500  0.586500  0.291000  1
  H  H183  1  0.848500  0.086500  0.209000  1
  H  H184  1  0.651500  0.413500  0.709000  1
  H  H185  1  0.190500  0.939500  0.854000  1
  H  H186  1  0.309500  0.560500  0.354000  1
  H  H187  1  0.809500  0.060500  0.146000  1
  H  H188  1  0.690500  0.439500  0.646000  1
  H  H189  1  0.119700  0.924500  0.912100  1
  H  H190  1  0.380300  0.575500  0.412100  1
  H  H191  1  0.880300  0.075500  0.087900  1
  H  H192  1  0.619700  0.424500  0.587900  1
  H  H193  1  0.003400  0.897900  0.901300  1
  H  H194  1  0.496600  0.602100  0.401300  1
  H  H195  1  0.996600  0.102100  0.098700  1
  H  H196  1  0.503400  0.397900  0.598700  1
  H  H197  1  0.554200  0.743900  0.725600  1
  H  H198  1  0.945800  0.756100  0.225600  1
  H  H199  1  0.445800  0.256100  0.274400  1
  H  H200  1  0.054200  0.243900  0.774400  1
  H  H201  1  0.520400  0.727500  0.658900  1
  H  H202  1  0.979600  0.772500  0.158900  1
  H  H203  1  0.479600  0.272500  0.341100  1
  H  H204  1  0.020400  0.227500  0.841100  1
  H  H205  1  0.710000  0.770800  0.619500  1
  H  H206  1  0.790000  0.729200  0.119500  1
  H  H207  1  0.290000  0.229200  0.380500  1
  H  H208  1  0.210000  0.270800  0.880500  1
  H  H209  1  0.742700  0.788900  0.686500  1
  H  H210  1  0.757300  0.711100  0.186500  1
  H  H211  1  0.257300  0.211100  0.313500  1
  H  H212  1  0.242700  0.288900  0.813500  1
  H  H213  1  0.621000  0.794600  0.569100  1
  H  H214  1  0.879000  0.705400  0.069100  1
  H  H215  1  0.379000  0.205400  0.430900  1
  H  H216  1  0.121000  0.294600  0.930900  1
  H  H217  1  0.534200  0.667300  0.469200  1
  H  H218  1  0.965800  0.832700  0.969200  1
  H  H219  1  0.465800  0.332700  0.530800  1
  H  H220  1  0.034200  0.167300  0.030800  1
  H  H221  1  0.555100  0.713600  0.414600  1
  H  H222  1  0.944900  0.786400  0.914600  1
  H  H223  1  0.444900  0.286400  0.585400  1
  H  H224  1  0.055100  0.213600  0.085400  1
  H  H225  1  0.596300  0.787000  0.426000  1
  H  H226  1  0.903700  0.713000  0.926000  1
  H  H227  1  0.403700  0.213000  0.574000  1
  H  H228  1  0.096300  0.287000  0.074000  1
  H  H229  1  0.620600  0.814800  0.493100  1
  H  H230  1  0.879400  0.685200  0.993100  1
  H  H231  1  0.379400  0.185200  0.506900  1
  H  H232  1  0.120600  0.314800  0.006900  1
  H  H233  1  0.627800  0.614600  0.018100  1
  H  H234  1  0.872200  0.885400  0.518100  1
  H  H235  1  0.372200  0.385400  0.981900  1
  H  H236  1  0.127800  0.114600  0.481900  1
  H  H237  1  0.679800  0.574900  0.066900  1
  H  H238  1  0.820200  0.925100  0.566900  1
  H  H239  1  0.320200  0.425100  0.933100  1
  H  H240  1  0.179800  0.074900  0.433100  1
  H  H241  1  0.739700  0.516300  0.047600  1
  H  H242  1  0.760300  0.983700  0.547600  1
  H  H243  1  0.260300  0.483700  0.952400  1
  H  H244  1  0.239700  0.016300  0.452400  1
  H  H245  1  0.744200  0.499300  0.977000  1
  H  H246  1  0.755800  0.000700  0.477000  1
  H  H247  1  0.255800  0.500700  0.023000  1
  H  H248  1  0.244200  0.999300  0.523000  1
  H  H249  1  0.717600  0.519000  0.900000  1
  H  H250  1  0.782400  0.981000  0.400000  1
  H  H251  1  0.282400  0.481000  0.100000  1
  H  H252  1  0.217600  0.019000  0.600000  1
  H  H253  1  0.771200  0.576700  0.845500  1
  H  H254  1  0.728800  0.923300  0.345500  1
  H  H255  1  0.228800  0.423300  0.154500  1
  H  H256  1  0.271200  0.076700  0.654500  1
  H  H257  1  0.782200  0.566900  0.774100  1
  H  H258  1  0.717800  0.933100  0.274100  1
  H  H259  1  0.217800  0.433100  0.225900  1
  H  H260  1  0.282200  0.066900  0.725900  1
  H  H261  1  0.585000  0.533100  0.763100  1
  H  H262  1  0.915000  0.966900  0.263100  1
  H  H263  1  0.415000  0.466900  0.236900  1
  H  H264  1  0.085000  0.033100  0.736900  1
  H  H265  1  0.569700  0.547900  0.832000  1
  H  H266  1  0.930300  0.952100  0.332000  1
  H  H267  1  0.430300  0.452100  0.168000  1
  H  H268  1  0.069700  0.047900  0.668000  1
  H  H269  1  0.701400  0.625300  0.711500  1
  H  H270  1  0.798600  0.874700  0.211500  1
  H  H271  1  0.298600  0.374700  0.288500  1
  H  H272  1  0.201400  0.125300  0.788500  1
  H  H273  1  0.634400  0.667900  0.670900  1
  H  H274  1  0.865600  0.832100  0.170900  1
  H  H275  1  0.365600  0.332100  0.329100  1
  H  H276  1  0.134400  0.167900  0.829100  1
  H  H277  1  0.542800  0.557300  0.619700  1
  H  H278  1  0.957200  0.942700  0.119700  1
  H  H279  1  0.457200  0.442700  0.380300  1
  H  H280  1  0.042800  0.057300  0.880300  1
  H  H281  1  0.618800  0.516500  0.655800  1
  H  H282  1  0.881200  0.983500  0.155800  1
  H  H283  1  0.381200  0.483500  0.344200  1
  H  H284  1  0.118800  0.016500  0.844200  1
  H  H285  1  0.468000  0.624200  0.652800  1
  H  H286  1  0.032000  0.875800  0.152800  1
  H  H287  1  0.532000  0.375800  0.347200  1
  H  H288  1  0.968000  0.124200  0.847200  1
  H  H289  1  0.448800  0.734600  0.531900  1
  H  H290  1  0.051200  0.765400  0.031900  1
  H  H291  1  0.551200  0.265400  0.468100  1
  H  H292  1  0.948800  0.234600  0.968100  1
  H  H293  1  0.335600  0.744400  0.549200  1
  H  H294  1  0.164400  0.755600  0.049200  1
  H  H295  1  0.664400  0.255600  0.450800  1
  H  H296  1  0.835600  0.244400  0.950800  1
  H  H297  1  0.283300  0.706300  0.605400  1
  H  H298  1  0.216700  0.793700  0.105400  1
  H  H299  1  0.716700  0.293700  0.394600  1
  H  H300  1  0.783300  0.206300  0.894600  1
  H  H301  1  0.344400  0.658400  0.644200  1
  H  H302  1  0.155600  0.841600  0.144200  1
  H  H303  1  0.655600  0.341600  0.355800  1
  H  H304  1  0.844400  0.158400  0.855800  1
  H  H305  1  0.775500  0.480800  0.746500  1
  H  H306  1  0.724500  0.019200  0.246500  1
  H  H307  1  0.224500  0.519200  0.253500  1
  H  H308  1  0.275500  0.980800  0.753500  1
  H  H309  1  0.878100  0.462800  0.727300  1
  H  H310  1  0.621900  0.037200  0.227300  1
  H  H311  1  0.121900  0.537200  0.272700  1
  H  H312  1  0.378100  0.962800  0.772700  1
  H  H313  1  0.875600  0.553400  0.634800  1
  H  H314  1  0.624400  0.946600  0.134800  1
  H  H315  1  0.124400  0.446600  0.365200  1
  H  H316  1  0.375600  0.053400  0.865200  1
  H  H317  1  0.766900  0.565300  0.653300  1
  H  H318  1  0.733100  0.934700  0.153300  1
  H  H319  1  0.233100  0.434700  0.346700  1
  H  H320  1  0.266900  0.065300  0.846700  1
  H  H321  1  0.917100  0.487900  0.608600  1
  H  H322  1  0.582900  0.012100  0.108600  1
  H  H323  1  0.082900  0.512100  0.391400  1
  H  H324  1  0.417100  0.987900  0.891400  1
  H  H325  1  0.173400  0.484300  0.639400  1
  H  H326  1  0.326600  0.015700  0.139400  1
  H  H327  1  0.826600  0.515700  0.360600  1
  H  H328  1  0.673400  0.984300  0.860600  1
  H  H329  1  0.194000  0.480600  0.570200  1
  H  H330  1  0.306000  0.019400  0.070200  1
  H  H331  1  0.806000  0.519400  0.429800  1
  H  H332  1  0.694000  0.980600  0.929800  1
  H  H333  1  0.108700  0.470700  0.522700  1
  H  H334  1  0.391300  0.029300  0.022700  1
  H  H335  1  0.891300  0.529300  0.477300  1
  H  H336  1  0.608700  0.970700  0.977300  1
  H  H337  1  0.992600  0.478000  0.545400  1
  H  H338  1  0.507400  0.022000  0.045400  1
  H  H339  1  0.007400  0.522000  0.454600  1
  H  H340  1  0.492600  0.978000  0.954600  1
  H  H341  1  0.908000  0.974800  0.662200  1
  H  H342  1  0.592000  0.525200  0.162200  1
  H  H343  1  0.092000  0.025200  0.337800  1
  H  H344  1  0.408000  0.474800  0.837800  1
  H  H345  1  0.904000  0.034700  0.706800  1
  H  H346  1  0.596000  0.465300  0.206800  1
  H  H347  1  0.096000  0.965300  0.293200  1
  H  H348  1  0.404000  0.534700  0.793200  1
  H  H349  1  0.960000  0.033400  0.771000  1
  H  H350  1  0.540000  0.466600  0.271000  1
  H  H351  1  0.040000  0.966600  0.229000  1
  H  H352  1  0.460000  0.533400  0.729000  1
  H  H353  1  0.999400  0.965500  0.793200  1
  H  H354  1  0.500600  0.534500  0.293200  1
  H  H355  1  0.000600  0.034500  0.206800  1
  H  H356  1  0.499400  0.465500  0.706800  1
  H  H357  1  0.922200  0.888400  0.656500  1
  H  H358  1  0.577800  0.611600  0.156500  1
  H  H359  1  0.077800  0.111600  0.343500  1
  H  H360  1  0.422200  0.388400  0.843500  1
  H  H361  1  0.857300  0.802900  0.703800  1
  H  H362  1  0.642700  0.697100  0.203800  1
  H  H363  1  0.142700  0.197100  0.296200  1
  H  H364  1  0.357300  0.302900  0.796200  1
  H  H365  1  0.830400  0.736800  0.669000  1
  H  H366  1  0.669600  0.763200  0.169000  1
  H  H367  1  0.169600  0.263200  0.331000  1
  H  H368  1  0.330400  0.236800  0.831000  1
  H  H369  1  0.018700  0.751200  0.618900  1
  H  H370  1  0.481300  0.748800  0.118900  1
  H  H371  1  0.981300  0.248800  0.381100  1
  H  H372  1  0.518700  0.251200  0.881100  1
  H  H373  1  0.043500  0.817100  0.654800  1
  H  H374  1  0.456500  0.682900  0.154800  1
  H  H375  1  0.956500  0.182900  0.345200  1
  H  H376  1  0.543500  0.317100  0.845200  1
  H  H377  1  0.830200  0.746900  0.578700  1
  H  H378  1  0.669800  0.753100  0.078700  1
  H  H379  1  0.169800  0.253100  0.421300  1
  H  H380  1  0.330200  0.246900  0.921300  1
  H  H381  1  0.721300  0.728700  0.550600  1
  H  H382  1  0.778700  0.771300  0.050600  1
  H  H383  1  0.278700  0.271300  0.449400  1
  H  H384  1  0.221300  0.228700  0.949400  1
  H  H385  1  0.725200  0.602700  0.590600  1
  H  H386  1  0.774800  0.897300  0.090600  1
  H  H387  1  0.274800  0.397300  0.409400  1
  H  H388  1  0.225200  0.102700  0.909400  1
  H  H389  1  0.834100  0.620900  0.618700  1
  H  H390  1  0.665900  0.879100  0.118700  1
  H  H391  1  0.165900  0.379100  0.381300  1
  H  H392  1  0.334100  0.120900  0.881300  1
  H  H393  1  0.677300  0.600300  0.523100  1
  H  H394  1  0.822700  0.899700  0.023100  1
  H  H395  1  0.322700  0.399700  0.476900  1
  H  H396  1  0.177300  0.100300  0.976900  1
  H  H397  1  0.416500  0.623800  0.536600  1
  H  H398  1  0.083500  0.876200  0.036600  1
  H  H399  1  0.583500  0.376200  0.463400  1
  H  H400  1  0.916500  0.123800  0.963400  1
  H  H401  1  0.390500  0.564200  0.491800  1
  H  H402  1  0.109500  0.935800  0.991800  1
  H  H403  1  0.609500  0.435800  0.508200  1
  H  H404  1  0.890500  0.064200  0.008200  1
  H  H405  1  0.478500  0.527400  0.463200  1
  H  H406  1  0.021500  0.972600  0.963200  1
  H  H407  1  0.521500  0.472600  0.536800  1
  H  H408  1  0.978500  0.027400  0.036800  1
  H  H409  1  0.592700  0.550100  0.479400  1
  H  H410  1  0.907300  0.949900  0.979400  1
  H  H411  1  0.407300  0.449900  0.520600  1
  H  H412  1  0.092700  0.050100  0.020600  1
  H  H413  1  0.988700  0.649300  0.579300  1
  H  H414  1  0.511300  0.850700  0.079300  1
  H  H415  1  0.011300  0.350700  0.420700  1
  H  H416  1  0.488700  0.149300  0.920700  1
  H  H417  1  0.060200  0.596100  0.606400  1
  H  H418  1  0.439800  0.903900  0.106400  1
  H  H419  1  0.939800  0.403900  0.393600  1
  H  H420  1  0.560200  0.096100  0.893600  1
  H  H421  1  0.961900  0.599600  0.714700  1
  H  H422  1  0.538100  0.900400  0.214700  1
  H  H423  1  0.038100  0.400400  0.285300  1
  H  H424  1  0.461900  0.099600  0.785300  1
  H  H425  1  0.905000  0.656900  0.692800  1
  H  H426  1  0.595000  0.843100  0.192800  1
  H  H427  1  0.095000  0.343100  0.307200  1
  H  H428  1  0.405000  0.156900  0.807200  1
  H  H429  1  0.139200  0.610700  0.678800  1
  H  H430  1  0.360800  0.889300  0.178800  1
  H  H431  1  0.860800  0.389300  0.321200  1
  H  H432  1  0.639200  0.110700  0.821200  1
  H  H433  1  0.163600  0.449100  0.729800  1
  H  H434  1  0.336400  0.050900  0.229800  1
  H  H435  1  0.836400  0.550900  0.270200  1
  H  H436  1  0.663600  0.949100  0.770200  1
  H  H437  1  0.282000  0.478900  0.754300  1
  H  H438  1  0.218000  0.021100  0.254300  1
  H  H439  1  0.718000  0.521100  0.245700  1
  H  H440  1  0.782000  0.978900  0.745700  1
  H  H441  1  0.328500  0.545400  0.733300  1
  H  H442  1  0.171500  0.954600  0.233300  1
  H  H443  1  0.671500  0.454600  0.266700  1
  H  H444  1  0.828500  0.045400  0.766700  1
  H  H445  1  0.261500  0.594100  0.701300  1
  H  H446  1  0.238500  0.905900  0.201300  1
  H  H447  1  0.738500  0.405900  0.298700  1
  H  H448  1  0.761500  0.094100  0.798700  1
  C  C449  1  0.638000  0.697500  0.962200  1
  C  C450  1  0.862000  0.802500  0.462200  1
  C  C451  1  0.362000  0.302500  0.037800  1
  C  C452  1  0.138000  0.197500  0.537800  1
  C  C453  1  0.527400  0.664200  0.974500  1
  C  C454  1  0.972600  0.835800  0.474500  1
  C  C455  1  0.472600  0.335800  0.025500  1
  C  C456  1  0.027400  0.164200  0.525500  1
  C  C457  1  0.512000  0.699500  0.998400  1
  C  C458  1  0.988000  0.800500  0.498400  1
  C  C459  1  0.488000  0.300500  0.001600  1
  C  C460  1  0.012000  0.199500  0.501600  1
  C  C461  1  0.559500  0.736700  0.005200  1
  C  C462  1  0.940500  0.763300  0.505200  1
  C  C463  1  0.440500  0.263300  0.994800  1
  C  C464  1  0.059500  0.236700  0.494800  1
  C  C465  1  0.621900  0.734000  0.986400  1
  C  C466  1  0.878100  0.766000  0.486400  1
  C  C467  1  0.378100  0.266000  0.013600  1
  C  C468  1  0.121900  0.234000  0.513600  1
  C  C469  1  0.700000  0.697000  0.943300  1
  C  C470  1  0.800000  0.803000  0.443300  1
  C  C471  1  0.300000  0.303000  0.056700  1
  C  C472  1  0.200000  0.197000  0.556700  1
  C  C473  1  0.768600  0.656600  0.898800  1
  C  C474  1  0.731400  0.843400  0.398800  1
  C  C475  1  0.231400  0.343400  0.101200  1
  C  C476  1  0.268600  0.156600  0.601200  1
  C  C477  1  0.814400  0.628800  0.911800  1
  C  C478  1  0.685600  0.871200  0.411800  1
  C  C479  1  0.185600  0.371200  0.088200  1
  C  C480  1  0.314400  0.128800  0.588200  1
  C  C481  1  0.875800  0.627800  0.890800  1
  C  C482  1  0.624200  0.872200  0.390800  1
  C  C483  1  0.124200  0.372200  0.109200  1
  C  C484  1  0.375800  0.127800  0.609200  1
  C  C485  1  0.890600  0.657700  0.857800  1
  C  C486  1  0.609400  0.842300  0.357800  1
  C  C487  1  0.109400  0.342300  0.142200  1
  C  C488  1  0.390600  0.157700  0.642200  1
  C  C489  1  0.844700  0.683500  0.844700  1
  C  C490  1  0.655300  0.816500  0.344700  1
  C  C491  1  0.155300  0.316500  0.155300  1
  C  C492  1  0.344700  0.183500  0.655300  1
  C  C493  1  0.781600  0.684600  0.866600  1
  C  C494  1  0.718400  0.815400  0.366600  1
  C  C495  1  0.218400  0.315400  0.133400  1
  C  C496  1  0.281600  0.184600  0.633400  1
  C  C497  1  0.972600  0.615500  0.815800  1
  C  C498  1  0.527400  0.884500  0.315800  1
  C  C499  1  0.027400  0.384500  0.184200  1
  C  C500  1  0.472600  0.115500  0.684200  1
  C  C501  1  0.924100  0.580700  0.810000  1
  C  C502  1  0.575900  0.919300  0.310000  1
  C  C503  1  0.075900  0.419300  0.190000  1
  C  C504  1  0.424100  0.080700  0.690000  1
  C  C505  1  0.937700  0.543500  0.790400  1
  C  C506  1  0.562300  0.956500  0.290400  1
  C  C507  1  0.062300  0.456500  0.209600  1
  C  C508  1  0.437700  0.043500  0.709600  1
  C  C509  1  0.001000  0.542600  0.772600  1
  C  C510  1  0.499000  0.957400  0.272600  1
  C  C511  1  0.999000  0.457400  0.227400  1
  C  C512  1  0.501000  0.042600  0.727400  1
  C  C513  1  0.053200  0.577800  0.778300  1
  C  C514  1  0.446800  0.922200  0.278300  1
  C  C515  1  0.946800  0.422200  0.221700  1
  C  C516  1  0.553200  0.077800  0.721700  1
  C  C517  1  0.033700  0.613200  0.802300  1
  C  C518  1  0.466300  0.886800  0.302300  1
  C  C519  1  0.966300  0.386800  0.197700  1
  C  C520  1  0.533700  0.113200  0.697700  1
  C  C521  1  0.003400  0.466000  0.769500  1
  C  C522  1  0.496600  0.034000  0.269500  1
  C  C523  1  0.996600  0.534000  0.230500  1
  C  C524  1  0.503400  0.966000  0.730500  1
  C  C525  1  0.020100  0.429000  0.746500  1
  C  C526  1  0.479900  0.071000  0.246500  1
  C  C527  1  0.979900  0.571000  0.253500  1
  C  C528  1  0.520100  0.929000  0.753500  1
  C  C529  1  0.047300  0.406000  0.677000  1
  C  C530  1  0.452700  0.094000  0.177000  1
  C  C531  1  0.952700  0.594000  0.323000  1
  C  C532  1  0.547300  0.906000  0.823000  1
  C  C533  1  0.049000  0.358100  0.692900  1
  C  C534  1  0.451000  0.141900  0.192900  1
  C  C535  1  0.951000  0.641900  0.307100  1
  C  C536  1  0.549000  0.858100  0.807100  1
  C  C537  1  0.037900  0.351200  0.737000  1
  C  C538  1  0.462100  0.148800  0.237000  1
  C  C539  1  0.962100  0.648800  0.263000  1
  C  C540  1  0.537900  0.851200  0.763000  1
  C  C541  1  0.023600  0.383900  0.761500  1
  C  C542  1  0.476400  0.116100  0.261500  1
  C  C543  1  0.976400  0.616100  0.238500  1
  C  C544  1  0.523600  0.883900  0.738500  1
  C  C545  1  0.981100  0.696700  0.816400  1
  C  C546  1  0.518900  0.803300  0.316400  1
  C  C547  1  0.018900  0.303300  0.183600  1
  C  C548  1  0.481100  0.196700  0.683600  1
  C  C549  1  0.002700  0.733500  0.839900  1
  C  C550  1  0.497300  0.766500  0.339900  1
  C  C551  1  0.997300  0.266500  0.160100  1
  C  C552  1  0.502700  0.233500  0.660100  1
  C  C553  1  0.026100  0.772100  0.820900  1
  C  C554  1  0.473900  0.727900  0.320900  1
  C  C555  1  0.973900  0.227900  0.179100  1
  C  C556  1  0.526100  0.272100  0.679100  1
  C  C557  1  0.023100  0.778000  0.778400  1
  C  C558  1  0.476900  0.722000  0.278400  1
  C  C559  1  0.976900  0.222000  0.221600  1
  C  C560  1  0.523100  0.278000  0.721600  1
  C  C561  1  0.003800  0.739900  0.754600  1
  C  C562  1  0.496200  0.760100  0.254600  1
  C  C563  1  0.996200  0.260100  0.245400  1
  C  C564  1  0.503800  0.239900  0.745400  1
  C  C565  1  0.979300  0.701400  0.773200  1
  C  C566  1  0.520700  0.798600  0.273200  1
  C  C567  1  0.020700  0.298600  0.226800  1
  C  C568  1  0.479300  0.201400  0.726800  1
  C  C569  1  0.106700  0.817000  0.741500  1
  C  C570  1  0.393300  0.683000  0.241500  1
  C  C571  1  0.893300  0.183000  0.258500  1
  C  C572  1  0.606700  0.317000  0.758500  1
  C  C573  1  0.135100  0.857500  0.717700  1
  C  C574  1  0.364900  0.642500  0.217700  1
  C  C575  1  0.864900  0.142500  0.282300  1
  C  C576  1  0.635100  0.357500  0.782300  1
  C  C577  1  0.118600  0.926600  0.701900  1
  C  C578  1  0.381400  0.573400  0.201900  1
  C  C579  1  0.881400  0.073400  0.298100  1
  C  C580  1  0.618600  0.426600  0.798100  1
  C  C581  1  0.181300  0.934100  0.683200  1
  C  C582  1  0.318700  0.565900  0.183200  1
  C  C583  1  0.818700  0.065900  0.316800  1
  C  C584  1  0.681300  0.434100  0.816800  1
  C  C585  1  0.223800  0.900200  0.680000  1
  C  C586  1  0.276200  0.599800  0.180000  1
  C  C587  1  0.776200  0.099800  0.320000  1
  C  C588  1  0.723800  0.400200  0.820000  1
  C  C589  1  0.197800  0.859300  0.697300  1
  C  C590  1  0.302200  0.640700  0.197300  1
  C  C591  1  0.802200  0.140700  0.302700  1
  C  C592  1  0.697800  0.359300  0.802700  1
  C  C593  1  0.486400  0.593400  0.890300  1
  C  C594  1  0.013600  0.906600  0.390300  1
  C  C595  1  0.513600  0.406600  0.109700  1
  C  C596  1  0.986400  0.093400  0.609700  1
  C  C597  1  0.504700  0.550300  0.947900  1
  C  C598  1  0.995300  0.949700  0.447900  1
  C  C599  1  0.495300  0.449700  0.052100  1
  C  C600  1  0.004700  0.050300  0.552100  1
  C  C601  1  0.440700  0.530500  0.943100  1
  C  C602  1  0.059300  0.969500  0.443100  1
  C  C603  1  0.559300  0.469500  0.056900  1
  C  C604  1  0.940700  0.030500  0.556900  1
  C  C605  1  0.399000  0.539000  0.912800  1
  C  C606  1  0.101000  0.961000  0.412800  1
  C  C607  1  0.601000  0.461000  0.087200  1
  C  C608  1  0.899000  0.039000  0.587200  1
  C  C609  1  0.422800  0.571700  0.885200  1
  C  C610  1  0.077200  0.928300  0.385200  1
  C  C611  1  0.577200  0.428300  0.114800  1
  C  C612  1  0.922800  0.071700  0.614800  1
  C  C613  1  0.517000  0.626800  0.864200  1
  C  C614  1  0.983000  0.873200  0.364200  1
  C  C615  1  0.483000  0.373200  0.135800  1
  C  C616  1  0.017000  0.126800  0.635800  1
  C  C617  1  0.606100  0.677000  0.842800  1
  C  C618  1  0.893900  0.823000  0.342800  1
  C  C619  1  0.393900  0.323000  0.157200  1
  C  C620  1  0.106100  0.177000  0.657200  1
  C  C621  1  0.617400  0.720900  0.853900  1
  C  C622  1  0.882600  0.779100  0.353900  1
  C  C623  1  0.382600  0.279100  0.146100  1
  C  C624  1  0.117400  0.220900  0.646100  1
  C  C625  1  0.636300  0.753000  0.824100  1
  C  C626  1  0.863700  0.747000  0.324100  1
  C  C627  1  0.363700  0.247000  0.175900  1
  C  C628  1  0.136300  0.253000  0.675900  1
  C  C629  1  0.650000  0.739700  0.783900  1
  C  C630  1  0.850000  0.760300  0.283900  1
  C  C631  1  0.350000  0.260300  0.216100  1
  C  C632  1  0.150000  0.239700  0.716100  1
  C  C633  1  0.641500  0.696200  0.773300  1
  C  C634  1  0.858500  0.803800  0.273300  1
  C  C635  1  0.358500  0.303800  0.226700  1
  C  C636  1  0.141500  0.196200  0.726700  1
  C  C637  1  0.618100  0.663800  0.804800  1
  C  C638  1  0.881900  0.836200  0.304800  1
  C  C639  1  0.381900  0.336200  0.195200  1
  C  C640  1  0.118100  0.163800  0.695200  1
  C  C641  1  0.739900  0.796400  0.763400  1
  C  C642  1  0.760100  0.703600  0.263400  1
  C  C643  1  0.260100  0.203600  0.236600  1
  C  C644  1  0.239900  0.296400  0.736600  1
  C  C645  1  0.786700  0.772900  0.784600  1
  C  C646  1  0.713300  0.727100  0.284600  1
  C  C647  1  0.213300  0.227100  0.215400  1
  C  C648  1  0.286700  0.272900  0.715400  1
  C  C649  1  0.851200  0.795800  0.794300  1
  C  C650  1  0.648800  0.704200  0.294300  1
  C  C651  1  0.148800  0.204200  0.205700  1
  C  C652  1  0.351200  0.295800  0.705700  1
  C  C653  1  0.866800  0.837100  0.783400  1
  C  C654  1  0.633200  0.662900  0.283400  1
  C  C655  1  0.133200  0.162900  0.216600  1
  C  C656  1  0.366800  0.337100  0.716600  1
  C  C657  1  0.820200  0.860200  0.761400  1
  C  C658  1  0.679800  0.639800  0.261400  1
  C  C659  1  0.179800  0.139800  0.238600  1
  C  C660  1  0.320200  0.360200  0.738600  1
  C  C661  1  0.755300  0.839200  0.752500  1
  C  C662  1  0.744700  0.660800  0.252500  1
  C  C663  1  0.244700  0.160800  0.247500  1
  C  C664  1  0.255300  0.339200  0.747500  1
  C  C665  1  0.943900  0.868200  0.829800  1
  C  C666  1  0.556100  0.631800  0.329800  1
  C  C667  1  0.056100  0.131800  0.170200  1
  C  C668  1  0.443900  0.368200  0.670200  1
  C  C669  1  0.016900  0.888100  0.840300  1
  C  C670  1  0.483100  0.611900  0.340300  1
  C  C671  1  0.983100  0.111900  0.159700  1
  C  C672  1  0.516900  0.388100  0.659700  1
  C  C673  1  0.120800  0.911200  0.813700  1
  C  C674  1  0.379200  0.588800  0.313700  1
  C  C675  1  0.879200  0.088800  0.186300  1
  C  C676  1  0.620800  0.411200  0.686300  1
  C  C677  1  0.145500  0.925200  0.851100  1
  C  C678  1  0.354500  0.574800  0.351100  1
  C  C679  1  0.854500  0.074800  0.148900  1
  C  C680  1  0.645500  0.425200  0.648900  1
  C  C681  1  0.103000  0.917900  0.885000  1
  C  C682  1  0.397000  0.582100  0.385000  1
  C  C683  1  0.897000  0.082100  0.115000  1
  C  C684  1  0.603000  0.417900  0.615000  1
  C  C685  1  0.035200  0.900700  0.879100  1
  C  C686  1  0.464800  0.599300  0.379100  1
  C  C687  1  0.964800  0.099300  0.120900  1
  C  C688  1  0.535200  0.400700  0.620900  1
  C  C689  1  0.653800  0.767000  0.712700  1
  C  C690  1  0.846200  0.733000  0.212700  1
  C  C691  1  0.346200  0.233000  0.287300  1
  C  C692  1  0.153800  0.267000  0.787300  1
  C  C693  1  0.586200  0.749100  0.703700  1
  C  C694  1  0.913800  0.750900  0.203700  1
  C  C695  1  0.413800  0.250900  0.296300  1
  C  C696  1  0.086200  0.249100  0.796300  1
  C  C697  1  0.566100  0.739400  0.664200  1
  C  C698  1  0.933900  0.760600  0.164200  1
  C  C699  1  0.433900  0.260600  0.335800  1
  C  C700  1  0.066100  0.239400  0.835800  1
  C  C701  1  0.610800  0.746400  0.632200  1
  C  C702  1  0.889200  0.753600  0.132200  1
  C  C703  1  0.389200  0.253600  0.367800  1
  C  C704  1  0.110800  0.246400  0.867800  1
  C  C705  1  0.678000  0.765200  0.641300  1
  C  C706  1  0.822000  0.734800  0.141300  1
  C  C707  1  0.322000  0.234800  0.358700  1
  C  C708  1  0.178000  0.265200  0.858700  1
  C  C709  1  0.697800  0.775600  0.681200  1
  C  C710  1  0.802200  0.724400  0.181200  1
  C  C711  1  0.302200  0.224400  0.318800  1
  C  C712  1  0.197800  0.275600  0.818800  1
  C  C713  1  0.604800  0.765100  0.561800  1
  C  C714  1  0.895200  0.734900  0.061800  1
  C  C715  1  0.395200  0.234900  0.438200  1
  C  C716  1  0.104800  0.265100  0.938200  1
  C  C717  1  0.591500  0.753100  0.519900  1
  C  C718  1  0.908500  0.746900  0.019900  1
  C  C719  1  0.408500  0.246900  0.480100  1
  C  C720  1  0.091500  0.253100  0.980100  1
  C  C721  1  0.552700  0.696900  0.473900  1
  C  C722  1  0.947300  0.803100  0.973900  1
  C  C723  1  0.447300  0.303100  0.526100  1
  C  C724  1  0.052700  0.196900  0.026100  1
  C  C725  1  0.564000  0.724000  0.441900  1
  C  C726  1  0.936000  0.776000  0.941900  1
  C  C727  1  0.436000  0.276000  0.558100  1
  C  C728  1  0.064000  0.224000  0.058100  1
  C  C729  1  0.589000  0.767900  0.449000  1
  C  C730  1  0.911000  0.732100  0.949000  1
  C  C731  1  0.411000  0.232100  0.551000  1
  C  C732  1  0.089000  0.267900  0.051000  1
  C  C733  1  0.603900  0.784900  0.488200  1
  C  C734  1  0.896100  0.715100  0.988200  1
  C  C735  1  0.396100  0.215100  0.511800  1
  C  C736  1  0.103900  0.284900  0.011800  1
  C  C737  1  0.691600  0.549200  0.956700  1
  C  C738  1  0.808400  0.950800  0.456700  1
  C  C739  1  0.308400  0.450800  0.043300  1
  C  C740  1  0.191600  0.049200  0.543300  1
  C  C741  1  0.652900  0.591400  0.008600  1
  C  C742  1  0.847100  0.908600  0.508600  1
  C  C743  1  0.347100  0.408600  0.991400  1
  C  C744  1  0.152900  0.091400  0.491400  1
  C  C745  1  0.683500  0.567300  0.038600  1
  C  C746  1  0.816500  0.932700  0.538600  1
  C  C747  1  0.316500  0.432700  0.961400  1
  C  C748  1  0.183500  0.067300  0.461400  1
  C  C749  1  0.718200  0.533200  0.027700  1
  C  C750  1  0.781800  0.966800  0.527700  1
  C  C751  1  0.281800  0.466800  0.972300  1
  C  C752  1  0.218200  0.033200  0.472300  1
  C  C753  1  0.721200  0.523800  0.985800  1
  C  C754  1  0.778800  0.976200  0.485800  1
  C  C755  1  0.278800  0.476200  0.014200  1
  C  C756  1  0.221200  0.023800  0.514200  1
  C  C757  1  0.694800  0.542000  0.912000  1
  C  C758  1  0.805200  0.958000  0.412000  1
  C  C759  1  0.305200  0.458000  0.088000  1
  C  C760  1  0.194800  0.042000  0.588000  1
  C  C761  1  0.667000  0.563600  0.845300  1
  C  C762  1  0.833000  0.936400  0.345300  1
  C  C763  1  0.333000  0.436400  0.154700  1
  C  C764  1  0.167000  0.063600  0.654700  1
  C  C765  1  0.732200  0.568700  0.828800  1
  C  C766  1  0.767800  0.931300  0.328800  1
  C  C767  1  0.267800  0.431300  0.171200  1
  C  C768  1  0.232200  0.068700  0.671200  1
  C  C769  1  0.738100  0.561300  0.786100  1
  C  C770  1  0.761900  0.938700  0.286100  1
  C  C771  1  0.261900  0.438700  0.213900  1
  C  C772  1  0.238100  0.061300  0.713900  1
  C  C773  1  0.688300  0.547600  0.762100  1
  C  C774  1  0.811700  0.952400  0.262100  1
  C  C775  1  0.311700  0.452400  0.237900  1
  C  C776  1  0.188300  0.047600  0.737900  1
  C  C777  1  0.623500  0.542600  0.779700  1
  C  C778  1  0.876500  0.957400  0.279700  1
  C  C779  1  0.376500  0.457400  0.220300  1
  C  C780  1  0.123500  0.042600  0.720300  1
  C  C781  1  0.614700  0.551100  0.820800  1
  C  C782  1  0.885300  0.948900  0.320800  1
  C  C783  1  0.385300  0.448900  0.179200  1
  C  C784  1  0.114700  0.051100  0.679200  1
  C  C785  1  0.658100  0.567400  0.691300  1
  C  C786  1  0.841900  0.932600  0.191300  1
  C  C787  1  0.341900  0.432600  0.308700  1
  C  C788  1  0.158100  0.067400  0.808700  1
  C  C789  1  0.667900  0.611400  0.693400  1
  C  C790  1  0.832100  0.888600  0.193400  1
  C  C791  1  0.332100  0.388600  0.306600  1
  C  C792  1  0.167900  0.111400  0.806600  1
  C  C793  1  0.629200  0.636600  0.669000  1
  C  C794  1  0.870800  0.863400  0.169000  1
  C  C795  1  0.370800  0.363400  0.331000  1
  C  C796  1  0.129200  0.136600  0.831000  1
  C  C797  1  0.584000  0.616200  0.642500  1
  C  C798  1  0.916000  0.883800  0.142500  1
  C  C799  1  0.416000  0.383800  0.357500  1
  C  C800  1  0.084000  0.116200  0.857500  1
  C  C801  1  0.576000  0.571200  0.638000  1
  C  C802  1  0.924000  0.928800  0.138000  1
  C  C803  1  0.424000  0.428800  0.362000  1
  C  C804  1  0.076000  0.071200  0.862000  1
  C  C805  1  0.617700  0.547200  0.660900  1
  C  C806  1  0.882300  0.952800  0.160900  1
  C  C807  1  0.382300  0.452800  0.339100  1
  C  C808  1  0.117700  0.047200  0.839100  1
  C  C809  1  0.481500  0.642800  0.630100  1
  C  C810  1  0.018500  0.857200  0.130100  1
  C  C811  1  0.518500  0.357200  0.369900  1
  C  C812  1  0.981500  0.142800  0.869900  1
  C  C813  1  0.432900  0.668100  0.611100  1
  C  C814  1  0.067100  0.831900  0.111100  1
  C  C815  1  0.567100  0.331900  0.388900  1
  C  C816  1  0.932900  0.168100  0.888900  1
  C  C817  1  0.427600  0.719100  0.554700  1
  C  C818  1  0.072400  0.780900  0.054700  1
  C  C819  1  0.572400  0.280900  0.445300  1
  C  C820  1  0.927600  0.219100  0.945300  1
  C  C821  1  0.360300  0.725000  0.565000  1
  C  C822  1  0.139700  0.775000  0.065000  1
  C  C823  1  0.639700  0.275000  0.435000  1
  C  C824  1  0.860300  0.225000  0.935000  1
  C  C825  1  0.329300  0.702300  0.598300  1
  C  C826  1  0.170700  0.797700  0.098300  1
  C  C827  1  0.670700  0.297700  0.401700  1
  C  C828  1  0.829300  0.202300  0.901700  1
  C  C829  1  0.365600  0.673900  0.621400  1
  C  C830  1  0.134400  0.826100  0.121400  1
  C  C831  1  0.634400  0.326100  0.378600  1
  C  C832  1  0.865600  0.173900  0.878600  1
  C  C833  1  0.759600  0.525900  0.705300  1
  C  C834  1  0.740400  0.974100  0.205300  1
  C  C835  1  0.240400  0.474100  0.294700  1
  C  C836  1  0.259600  0.025900  0.794700  1
  C  C837  1  0.795900  0.495700  0.723200  1
  C  C838  1  0.704100  0.004300  0.223200  1
  C  C839  1  0.204100  0.504300  0.276800  1
  C  C840  1  0.295900  0.995700  0.776800  1
  C  C841  1  0.856200  0.484300  0.712300  1
  C  C842  1  0.643800  0.015700  0.212300  1
  C  C843  1  0.143800  0.515700  0.287700  1
  C  C844  1  0.356200  0.984300  0.787700  1
  C  C845  1  0.885100  0.504100  0.679300  1
  C  C846  1  0.614900  0.995900  0.179300  1
  C  C847  1  0.114900  0.495900  0.320700  1
  C  C848  1  0.385100  0.004100  0.820700  1
  C  C849  1  0.853200  0.537700  0.657100  1
  C  C850  1  0.646800  0.962300  0.157100  1
  C  C851  1  0.146800  0.462300  0.342900  1
  C  C852  1  0.353200  0.037700  0.842900  1
  C  C853  1  0.791300  0.545700  0.669200  1
  C  C854  1  0.708700  0.954300  0.169200  1
  C  C855  1  0.208700  0.454300  0.330800  1
  C  C856  1  0.291300  0.045700  0.830800  1
  C  C857  1  0.957200  0.489700  0.625200  1
  C  C858  1  0.542800  0.010300  0.125200  1
  C  C859  1  0.042800  0.510300  0.374800  1
  C  C860  1  0.457200  0.989700  0.874800  1
  C  C861  1  0.023000  0.485300  0.608100  1
  C  C862  1  0.477000  0.014700  0.108100  1
  C  C863  1  0.977000  0.514700  0.391900  1
  C  C864  1  0.523000  0.985300  0.891900  1
  C  C865  1  0.136600  0.483800  0.620300  1
  C  C866  1  0.363400  0.016200  0.120300  1
  C  C867  1  0.863400  0.516200  0.379700  1
  C  C868  1  0.636600  0.983800  0.879700  1
  C  C869  1  0.147900  0.480100  0.579300  1
  C  C870  1  0.352100  0.019900  0.079300  1
  C  C871  1  0.852100  0.519900  0.420700  1
  C  C872  1  0.647900  0.980100  0.920700  1
  C  C873  1  0.098400  0.475900  0.550900  1
  C  C874  1  0.401600  0.024100  0.050900  1
  C  C875  1  0.901600  0.524100  0.449100  1
  C  C876  1  0.598400  0.975900  0.949100  1
  C  C877  1  0.030300  0.479400  0.563900  1
  C  C878  1  0.469700  0.020600  0.063900  1
  C  C879  1  0.969700  0.520600  0.436100  1
  C  C880  1  0.530300  0.979400  0.936100  1
  C  C881  1  0.941500  0.934000  0.704500  1
  C  C882  1  0.558500  0.566000  0.204500  1
  C  C883  1  0.058500  0.066000  0.295500  1
  C  C884  1  0.441500  0.434000  0.795500  1
  C  C885  1  0.922500  0.972700  0.690000  1
  C  C886  1  0.577500  0.527300  0.190000  1
  C  C887  1  0.077500  0.027300  0.310000  1
  C  C888  1  0.422500  0.472700  0.810000  1
  C  C889  1  0.924100  0.009100  0.715400  1
  C  C890  1  0.575900  0.490900  0.215400  1
  C  C891  1  0.075900  0.990900  0.284600  1
  C  C892  1  0.424100  0.509100  0.784600  1
  C  C893  1  0.955200  0.008000  0.753800  1
  C  C894  1  0.544800  0.492000  0.253800  1
  C  C895  1  0.044800  0.992000  0.246200  1
  C  C896  1  0.455200  0.508000  0.746200  1
  C  C897  1  0.979900  0.967400  0.766500  1
  C  C898  1  0.520100  0.532600  0.266500  1
  C  C899  1  0.020100  0.032600  0.233500  1
  C  C900  1  0.479900  0.467400  0.733500  1
  C  C901  1  0.939800  0.891700  0.683700  1
  C  C902  1  0.560200  0.608300  0.183700  1
  C  C903  1  0.060200  0.108300  0.316300  1
  C  C904  1  0.439800  0.391700  0.816300  1
  C  C905  1  0.951600  0.817000  0.681200  1
  C  C906  1  0.548400  0.683000  0.181200  1
  C  C907  1  0.048400  0.183000  0.318800  1
  C  C908  1  0.451600  0.317000  0.818800  1
  C  C909  1  0.890200  0.792400  0.685700  1
  C  C910  1  0.609800  0.707600  0.185700  1
  C  C911  1  0.109800  0.207600  0.314300  1
  C  C912  1  0.390200  0.292400  0.814300  1
  C  C913  1  0.873600  0.753300  0.665500  1
  C  C914  1  0.626400  0.746700  0.165500  1
  C  C915  1  0.126400  0.246700  0.334500  1
  C  C916  1  0.373600  0.253300  0.834500  1
  C  C917  1  0.923700  0.738900  0.639200  1
  C  C918  1  0.576300  0.761100  0.139200  1
  C  C919  1  0.076300  0.261100  0.360800  1
  C  C920  1  0.423700  0.238900  0.860800  1
  C  C921  1  0.984700  0.761900  0.636000  1
  C  C922  1  0.515300  0.738100  0.136000  1
  C  C923  1  0.015300  0.238100  0.364000  1
  C  C924  1  0.484700  0.261900  0.864000  1
  C  C925  1  0.999500  0.801300  0.657200  1
  C  C926  1  0.500500  0.698700  0.157200  1
  C  C927  1  0.000500  0.198700  0.342800  1
  C  C928  1  0.499500  0.301300  0.842800  1
  C  C929  1  0.842400  0.685600  0.601300  1
  C  C930  1  0.657600  0.814400  0.101300  1
  C  C931  1  0.157600  0.314400  0.398700  1
  C  C932  1  0.342400  0.185600  0.898700  1
  C  C933  1  0.808900  0.717620  0.581100  1
  C  C934  1  0.691100  0.782380  0.081100  1
  C  C935  1  0.191100  0.282380  0.418900  1
  C  C936  1  0.308900  0.217620  0.918900  1
  C  C937  1  0.744200  0.706810  0.564400  1
  C  C938  1  0.755800  0.793190  0.064400  1
  C  C939  1  0.255800  0.293190  0.435600  1
  C  C940  1  0.244200  0.206810  0.935600  1
  C  C941  1  0.713100  0.664000  0.568000  1
  C  C942  1  0.786900  0.836000  0.068000  1
  C  C943  1  0.286900  0.336000  0.432000  1
  C  C944  1  0.213100  0.164000  0.932000  1
  C  C945  1  0.746500  0.631980  0.588200  1
  C  C946  1  0.753500  0.868020  0.088200  1
  C  C947  1  0.253500  0.368020  0.411800  1
  C  C948  1  0.246500  0.131980  0.911800  1
  C  C949  1  0.811200  0.642800  0.604900  1
  C  C950  1  0.688800  0.857200  0.104900  1
  C  C951  1  0.188800  0.357200  0.395100  1
  C  C952  1  0.311200  0.142800  0.895100  1
  C  C953  1  0.639100  0.615400  0.530800  1
  C  C954  1  0.860900  0.884600  0.030800  1
  C  C955  1  0.360900  0.384600  0.469200  1
  C  C956  1  0.139100  0.115400  0.969200  1
  C  C957  1  0.572400  0.600400  0.517700  1
  C  C958  1  0.927600  0.899600  0.017700  1
  C  C959  1  0.427600  0.399600  0.482300  1
  C  C960  1  0.072400  0.100400  0.982300  1
  C  C961  1  0.452300  0.608800  0.525000  1
  C  C962  1  0.047700  0.891200  0.025000  1
  C  C963  1  0.547700  0.391200  0.475000  1
  C  C964  1  0.952300  0.108800  0.975000  1
  C  C965  1  0.436800  0.573400  0.498400  1
  C  C966  1  0.063200  0.926600  0.998400  1
  C  C967  1  0.563200  0.426600  0.501600  1
  C  C968  1  0.936800  0.073400  0.001600  1
  C  C969  1  0.489100  0.551550  0.481410  1
  C  C970  1  0.010900  0.948450  0.981410  1
  C  C971  1  0.510900  0.448450  0.518590  1
  C  C972  1  0.989100  0.051550  0.018590  1
  C  C973  1  0.556900  0.565000  0.491100  1
  C  C974  1  0.943100  0.935000  0.991100  1
  C  C975  1  0.443100  0.435000  0.508900  1
  C  C976  1  0.056900  0.065000  0.008900  1
  C  C977  1  0.949100  0.661600  0.633900  1
  C  C978  1  0.550900  0.838400  0.133900  1
  C  C979  1  0.050900  0.338400  0.366100  1
  C  C980  1  0.449100  0.161600  0.866100  1
  C  C981  1  0.987700  0.641900  0.607800  1
  C  C982  1  0.512300  0.858100  0.107800  1
  C  C983  1  0.012300  0.358100  0.392200  1
  C  C984  1  0.487700  0.141900  0.892200  1
  C  C985  1  0.028200  0.608600  0.623800  1
  C  C986  1  0.471800  0.891400  0.123800  1
  C  C987  1  0.971800  0.391400  0.376200  1
  C  C988  1  0.528200  0.108600  0.876200  1
  C  C989  1  0.021100  0.595200  0.662900  1
  C  C990  1  0.478900  0.904800  0.162900  1
  C  C991  1  0.978900  0.404800  0.337100  1
  C  C992  1  0.521100  0.095200  0.837100  1
  C  C993  1  0.971100  0.611900  0.688100  1
  C  C994  1  0.528900  0.888100  0.188100  1
  C  C995  1  0.028900  0.388100  0.311900  1
  C  C996  1  0.471100  0.111900  0.811900  1
  C  C997  1  0.937100  0.644700  0.675200  1
  C  C998  1  0.562900  0.855300  0.175200  1
  C  C999  1  0.062900  0.355300  0.324800  1
  C  C1000  1  0.437100  0.144700  0.824800  1
  C  C1001  1  0.125600  0.580600  0.684700  1
  C  C1002  1  0.374400  0.919400  0.184700  1
  C  C1003  1  0.874400  0.419400  0.315300  1
  C  C1004  1  0.625600  0.080600  0.815300  1
  C  C1005  1  0.173900  0.551400  0.700000  1
  C  C1006  1  0.326100  0.948600  0.200000  1
  C  C1007  1  0.826100  0.448600  0.300000  1
  C  C1008  1  0.673900  0.051400  0.800000  1
  C  C1009  1  0.181100  0.479000  0.726100  1
  C  C1010  1  0.318900  0.021000  0.226100  1
  C  C1011  1  0.818900  0.521000  0.273900  1
  C  C1012  1  0.681100  0.979000  0.773900  1
  C  C1013  1  0.255200  0.497100  0.738500  1
  C  C1014  1  0.244800  0.002900  0.238500  1
  C  C1015  1  0.744800  0.502900  0.261500  1
  C  C1016  1  0.755200  0.997100  0.761500  1
  C  C1017  1  0.281700  0.536700  0.727700  1
  C  C1018  1  0.218300  0.963300  0.227700  1
  C  C1019  1  0.718300  0.463300  0.272300  1
  C  C1020  1  0.781700  0.036700  0.772300  1
  C  C1021  1  0.242500  0.565300  0.708600  1
  C  C1022  1  0.257500  0.934700  0.208600  1
  C  C1023  1  0.757500  0.434700  0.291400  1
  C  C1024  1  0.742500  0.065300  0.791400  1
  N  N1025  1  0.463900  0.690700  0.577800  1
  N  N1026  1  0.036100  0.809300  0.077800  1
  N  N1027  1  0.536100  0.309300  0.422200  1
  N  N1028  1  0.963900  0.190700  0.922200  1
  N  N1029  1  0.520000  0.622300  0.534670  1
  N  N1030  1  0.980000  0.877700  0.034670  1
  N  N1031  1  0.480000  0.377700  0.465330  1
  N  N1032  1  0.020000  0.122300  0.965330  1
  N  N1033  1  0.585700  0.663500  0.956200  1
  N  N1034  1  0.914300  0.836500  0.456200  1
  N  N1035  1  0.414300  0.336500  0.043800  1
  N  N1036  1  0.085700  0.163500  0.543800  1
  N  N1037  1  0.705300  0.658900  0.920800  1
  N  N1038  1  0.794700  0.841100  0.420800  1
  N  N1039  1  0.294700  0.341100  0.079200  1
  N  N1040  1  0.205300  0.158900  0.579200  1
  N  N1041  1  0.014000  0.504100  0.749600  1
  N  N1042  1  0.486000  0.995900  0.249600  1
  N  N1043  1  0.986000  0.495900  0.250400  1
  N  N1044  1  0.514000  0.004100  0.750400  1
  N  N1045  1  0.038800  0.436000  0.706900  1
  N  N1046  1  0.461200  0.064000  0.206900  1
  N  N1047  1  0.961200  0.564000  0.293100  1
  N  N1048  1  0.538800  0.936000  0.793100  1
  N  N1049  1  0.051200  0.816900  0.758100  1
  N  N1050  1  0.448800  0.683100  0.258100  1
  N  N1051  1  0.948800  0.183100  0.241900  1
  N  N1052  1  0.551200  0.316900  0.741900  1
  N  N1053  1  0.096000  0.890100  0.721300  1
  N  N1054  1  0.404000  0.609900  0.221300  1
  N  N1055  1  0.904000  0.109900  0.278700  1
  N  N1056  1  0.596000  0.390100  0.778700  1
  N  N1057  1  0.958600  0.656300  0.835900  1
  N  N1058  1  0.541400  0.843700  0.335900  1
  N  N1059  1  0.041400  0.343700  0.164100  1
  N  N1060  1  0.458600  0.156300  0.664100  1
  N  N1061  1  0.530200  0.580700  0.920800  1
  N  N1062  1  0.969800  0.919300  0.420800  1
  N  N1063  1  0.469800  0.419300  0.079200  1
  N  N1064  1  0.030200  0.080700  0.579200  1
  N  N1065  1  0.578700  0.644600  0.871700  1
  N  N1066  1  0.921300  0.855400  0.371700  1
  N  N1067  1  0.421300  0.355400  0.128300  1
  N  N1068  1  0.078700  0.144600  0.628300  1
  N  N1069  1  0.934600  0.859100  0.793200  1
  N  N1070  1  0.565400  0.640900  0.293200  1
  N  N1071  1  0.065400  0.140900  0.206800  1
  N  N1072  1  0.434600  0.359100  0.706800  1
  N  N1073  1  0.055500  0.894300  0.806400  1
  N  N1074  1  0.444500  0.605700  0.306400  1
  N  N1075  1  0.944500  0.105700  0.193600  1
  N  N1076  1  0.555500  0.394300  0.693600  1
  N  N1077  1  0.594300  0.735400  0.589200  1
  N  N1078  1  0.905700  0.764600  0.089200  1
  N  N1079  1  0.405700  0.264600  0.410800  1
  N  N1080  1  0.094300  0.235400  0.910800  1
  N  N1081  1  0.655300  0.585300  0.967600  1
  N  N1082  1  0.844700  0.914700  0.467600  1
  N  N1083  1  0.344700  0.414700  0.032400  1
  N  N1084  1  0.155300  0.085300  0.532400  1
  N  N1085  1  0.672600  0.773500  0.753800  1
  N  N1086  1  0.827400  0.726500  0.253800  1
  N  N1087  1  0.327400  0.226500  0.246200  1
  N  N1088  1  0.172600  0.273500  0.746200  1
  N  N1089  1  0.567200  0.710500  0.514000  1
  N  N1090  1  0.932800  0.789500  0.014000  1
  N  N1091  1  0.432800  0.289500  0.486000  1
  N  N1092  1  0.067200  0.210500  0.986000  1
  N  N1093  1  0.663200  0.570300  0.890000  1
  N  N1094  1  0.836800  0.929700  0.390000  1
  N  N1095  1  0.336800  0.429700  0.110000  1
  N  N1096  1  0.163200  0.070300  0.610000  1
  N  N1097  1  0.536600  0.644400  0.618300  1
  N  N1098  1  0.963400  0.855600  0.118300  1
  N  N1099  1  0.463400  0.355600  0.381700  1
  N  N1100  1  0.036600  0.144400  0.881700  1
  N  N1101  1  0.955200  0.496400  0.664600  1
  N  N1102  1  0.544800  0.003600  0.164600  1
  N  N1103  1  0.044800  0.503600  0.335400  1
  N  N1104  1  0.455200  0.996400  0.835400  1
  N  N1105  1  0.072600  0.486800  0.633500  1
  N  N1106  1  0.427400  0.013200  0.133500  1
  N  N1107  1  0.927400  0.513200  0.366500  1
  N  N1108  1  0.572600  0.986800  0.866500  1
  N  N1109  1  0.696500  0.540000  0.718400  1
  N  N1110  1  0.803500  0.960000  0.218400  1
  N  N1111  1  0.303500  0.460000  0.281600  1
  N  N1112  1  0.196500  0.040000  0.781600  1
  N  N1113  1  0.976200  0.932300  0.741900  1
  N  N1114  1  0.523800  0.567700  0.241900  1
  N  N1115  1  0.023800  0.067700  0.258100  1
  N  N1116  1  0.476200  0.432300  0.758100  1
  N  N1117  1  0.962100  0.858900  0.702500  1
  N  N1118  1  0.537900  0.641100  0.202500  1
  N  N1119  1  0.037900  0.141100  0.297500  1
  N  N1120  1  0.462100  0.358900  0.797500  1
  N  N1121  1  0.646300  0.649600  0.553200  1
  N  N1122  1  0.853700  0.850400  0.053200  1
  N  N1123  1  0.353700  0.350400  0.446800  1
  N  N1124  1  0.146300  0.149600  0.946800  1
  N  N1125  1  0.061300  0.563300  0.679300  1
  N  N1126  1  0.438700  0.936700  0.179300  1
  N  N1127  1  0.938700  0.436700  0.320700  1
  N  N1128  1  0.561300  0.063300  0.820700  1
  N  N1129  1  0.143600  0.510100  0.709400  1
  N  N1130  1  0.356400  0.989900  0.209400  1
  N  N1131  1  0.856400  0.489900  0.290600  1
  N  N1132  1  0.643600  0.010100  0.790600  1
  N  N1133  1  0.910800  0.696400  0.617900  1
  N  N1134  1  0.589200  0.803600  0.117900  1
  N  N1135  1  0.089200  0.303600  0.382100  1
  N  N1136  1  0.410800  0.196400  0.882100  1
