
#######################################################################
#
#                 Cambridge Crystallographic Data Centre
#                                CCDC 
#
#######################################################################
#
# If this CIF has been generated from an entry in the Cambridge 
# Structural Database, then it will include bibliographic, chemical, 
# crystal, experimental, refinement or atomic coordinate data resulting 
# from the CCDC's data processing and validation procedures.
#
#######################################################################

data_GERCOX
_chemical_formula_moiety         
'C90 H72 Fe2 N18 4+,4(C1 F3 O3 S1 1-),9(C2 H3 N1)'
_chemical_name_systematic        
"tris(\m~2~-(N-(4-aminophenyl)-N'-((pyridin-2-yl)methylene)-N-(4-(((pyridin-2-yl)methylene)amino)phenyl)benzene-1,4-diamine))-di-iron tetrakis(trifluoromethanesulfonate) acetonitrile solvate"
_symmetry_cell_setting           monoclinic
_symmetry_space_group_name_H-M   'P 21/n'
_symmetry_Int_Tables_number      14
_space_group_name_Hall           '-P 2yn'
loop_
_symmetry_equiv_pos_site_id
_symmetry_equiv_pos_as_xyz
1 x,y,z
2 1/2-x,1/2+y,1/2-z
3 -x,-y,-z
4 1/2+x,1/2-y,1/2+z
_cell_length_a                   23.5800(10)
_cell_length_b                   18.0061(7)
_cell_length_c                   24.9071(10)
_cell_angle_alpha                90
_cell_angle_beta                 102.965(2)
_cell_angle_gamma                90
_cell_volume                     10305.6
_exptl_crystal_colour            'dark red'
_exptl_crystal_description       blade
_cell_formula_units_Z            4
loop_
_atom_site_label
_atom_site_type_symbol
_atom_site_fract_x
_atom_site_fract_y
_atom_site_fract_z
C1 C 0.5641(4) 0.0753(5) 0.1311(3)
C2 C 0.6182(4) 0.1410(6) 0.0772(4)
H1 H 0.6302 0.1856 0.0627
C3 C 0.6356(5) 0.0747(8) 0.0613(4)
H2 H 0.6607 0.0753 0.0363
C4 C 0.6202(5) 0.0068(6) 0.0782(4)
H3 H 0.6319 -0.0388 0.0650
C5 C 0.5850(5) 0.0112(7) 0.1178(4)
H4 H 0.5762 -0.0330 0.1350
C6 C 0.5259(4) 0.0877(5) 0.1675(4)
H5 H 0.5112 0.0464 0.1839
C7 C 0.4725(4) 0.1573(4) 0.2141(3)
C8 C 0.4920(4) 0.1819(4) 0.2689(3)
H6 H 0.5320 0.1926 0.2830
C9 C 0.4541(4) 0.1900(5) 0.3009(3)
H7 H 0.4676 0.2100 0.3368
C10 C 0.4000(4) 0.1721(4) 0.2853(3)
C11 C 0.3758(4) 0.1450(5) 0.2305(4)
H8 H 0.3360 0.1316 0.2190
C12 C 0.4139(4) 0.1395(5) 0.1955(4)
H9 H 0.3999 0.1235 0.1586
C13 C 0.3719(4) 0.1600(5) 0.3746(4)
C14 C 0.4123(4) 0.1043(5) 0.3932(4)
H10 H 0.4330 0.0823 0.3687
C15 C 0.4223(4) 0.0808(7) 0.4472(4)
H11 H 0.4487 0.0415 0.4599
C16 C 0.3922(4) 0.1165(6) 0.4836(4)
C17 C 0.3542(4) 0.1798(7) 0.4640(5)
H12 H 0.3369 0.2073 0.4887
C18 C 0.3448(4) 0.1975(5) 0.4127(3)
H13 H 0.3187 0.2371 0.3996
C19 C 0.3021(4) 0.2110(5) 0.2964(3)
C20 C 0.2512(4) 0.1760(4) 0.3040(3)
H14 H 0.2541 0.1320 0.3256
C21 C 0.1982(4) 0.2044(5) 0.2811(3)
H15 H 0.1638 0.1824 0.2876
C22 C 0.1958(4) 0.2650(5) 0.2486(3)
C23 C 0.2446(4) 0.3030(5) 0.2412(4)
H16 H 0.2411 0.3475 0.2202
C24 C 0.2991(4) 0.2736(4) 0.2658(3)
H17 H 0.3337 0.2973 0.2610
C25 C 0.1257(4) 0.3623(5) 0.2396(4)
H18 H 0.1534 0.3910 0.2649
C26 C 0.0690(4) 0.3893(4) 0.2158(4)
C27 C -0.0205(4) 0.3610(6) 0.1645(4)
H19 H -0.0469 0.3250 0.1454
C28 C -0.0410(5) 0.4301(6) 0.1708(4)
H20 H -0.0783 0.4439 0.1499
C29 C -0.0098(4) 0.4796(5) 0.2058(3)
H21 H -0.0253 0.5255 0.2149
C30 C 0.0500(5) 0.4565(5) 0.2286(4)
H22 H 0.0758 0.4887 0.2527
C31 C 0.6030(4) 0.2920(5) 0.2431(4)
C32 C 0.6413(5) 0.3066(6) 0.2922(4)
H23 H 0.6345 0.3470 0.3145
C33 C 0.6886(6) 0.2634(6) 0.3087(5)
H24 H 0.7151 0.2712 0.3431
C34 C 0.6972(5) 0.2051(9) 0.2721(6)
H25 H 0.7301 0.1734 0.2824
C35 C 0.6584(4) 0.1940(6) 0.2218(4)
H26 H 0.6654 0.1570 0.1969
C36 C 0.5480(4) 0.3363(5) 0.2207(4)
H27 H 0.5389 0.3790 0.2396
C37 C 0.4645(4) 0.3587(5) 0.1622(3)
C38 C 0.4552(4) 0.4078(5) 0.1169(4)
H28 H 0.4856 0.4162 0.0982
C39 C 0.4039(4) 0.4431(5) 0.0999(3)
H29 H 0.3983 0.4760 0.0693
C40 C 0.3588(4) 0.4313(4) 0.1273(3)
C41 C 0.3668(5) 0.3813(5) 0.1695(4)
H30 H 0.3353 0.3709 0.1864
C42 C 0.4181(4) 0.3459(6) 0.1880(3)
H31 H 0.4228 0.3127 0.2183
C43 C 0.2997(4) 0.5356(6) 0.0848(4)
C44 C 0.2621(5) 0.5498(6) 0.0327(5)
H32 H 0.2375 0.5109 0.0154
C45 C 0.2598(5) 0.6145(5) 0.0072(4)
H33 H 0.2374 0.6195 -0.0294
C46 C 0.2905(6) 0.6758(6) 0.0341(4)
C47 C 0.3259(5) 0.6662(6) 0.0843(5)
H34 H 0.3469 0.7073 0.1028
C48 C 0.3321(5) 0.5950(6) 0.1097(4)
H35 H 0.3587 0.5883 0.1441
C49 C 0.2532(5) 0.4242(5) 0.1093(3)
C50 C 0.2051(4) 0.4544(6) 0.1228(4)
H36 H 0.2068 0.5048 0.1345
C51 C 0.1544(4) 0.4157(5) 0.1205(4)
H37 H 0.1213 0.4408 0.1272
C52 C 0.1511(4) 0.3427(5) 0.1087(3)
C53 C 0.1969(5) 0.3097(5) 0.0901(5)
H38 H 0.1948 0.2598 0.0776
C54 C 0.2444(4) 0.3524(5) 0.0909(4)
H39 H 0.2748 0.3302 0.0772
C55 C 0.0632(4) 0.2865(5) 0.0603(4)
H40 H 0.0694 0.3106 0.0282
C56 C 0.0169(4) 0.2404(5) 0.0559(4)
C57 C -0.0317(4) 0.1696(6) 0.1086(4)
H41 H -0.0355 0.1517 0.1435
C58 C -0.0705(5) 0.1449(7) 0.0640(5)
H42 H -0.1006 0.1115 0.0675
C59 C -0.0649(5) 0.1705(7) 0.0111(5)
H43 H -0.0909 0.1546 -0.0217
C60 C -0.0217(5) 0.2178(6) 0.0098(4)
H44 H -0.0177 0.2364 -0.0248
C61 C 0.5515(4) 0.3190(5) 0.0498(3)
C62 C 0.6346(4) 0.3393(7) 0.1173(5)
H45 H 0.6572 0.3296 0.1533
C63 C 0.6531(6) 0.3924(7) 0.0835(6)
H46 H 0.6886 0.4184 0.0966
C64 C 0.6207(4) 0.4069(6) 0.0321(5)
H47 H 0.6335 0.4420 0.0089
C65 C 0.5672(5) 0.3682(6) 0.0138(4)
H48 H 0.5433 0.3761 -0.0219
C66 C 0.4962(4) 0.2788(5) 0.0357(4)
H49 H 0.4701 0.2844 0.0009
C67 C 0.4292(4) 0.1980(5) 0.0581(3)
C68 C 0.4285(4) 0.1222(5) 0.0556(4)
H50 H 0.4636 0.0943 0.0629
C69 C 0.3709(4) 0.0851(5) 0.0409(3)
H51 H 0.3680 0.0328 0.0361
C70 C 0.3221(4) 0.1284(5) 0.0342(3)
C71 C 0.3287(4) 0.2058(5) 0.0408(4)
H52 H 0.2947 0.2353 0.0372
C72 C 0.3793(4) 0.2391(5) 0.0517(4)
H53 H 0.3814 0.2916 0.0552
C73 C 0.2482(4) 0.0537(6) -0.0259(4)
C74 C 0.2536(5) 0.0909(7) -0.0731(5)
H54 H 0.2685 0.1402 -0.0704
C75 C 0.2358(4) 0.0535(7) -0.1299(4)
H55 H 0.2381 0.0773 -0.1634
C76 C 0.2173(4) -0.0131(7) -0.1274(4)
C77 C 0.2100(5) -0.0513(7) -0.0819(5)
H56 H 0.1942 -0.1000 -0.0841
C78 C 0.2277(5) -0.0132(7) -0.0316(4)
H57 H 0.2244 -0.0388 0.0009
C79 C 0.2280(4) 0.1094(4) 0.0576(3)
C80 C 0.1697(4) 0.1058(5) 0.0370(4)
H58 H 0.1549 0.0947 -0.0008
C81 C 0.1313(4) 0.1182(5) 0.0715(4)
H59 H 0.0907 0.1133 0.0568
C82 C 0.1503(3) 0.1373(4) 0.1261(3)
C83 C 0.2126(5) 0.1390(6) 0.1470(4)
H60 H 0.2284 0.1493 0.1848
C84 C 0.2500(5) 0.1253(5) 0.1108(4)
H61 H 0.2910 0.1273 0.1244
C85 C 0.0997(4) 0.1049(6) 0.1897(4)
H62 H 0.1136 0.0557 0.1874
C86 C 0.0616(4) 0.1180(5) 0.2261(3)
C87 C 0.0143(4) 0.2126(6) 0.2617(3)
H63 H 0.0032 0.2633 0.2617
C88 C -0.0023(4) 0.1662(7) 0.2965(4)
H64 H -0.0236 0.1853 0.3216
C89 C 0.0098(5) 0.0940(7) 0.2976(4)
H65 H -0.0047 0.0623 0.3220
C90 C 0.0447(5) 0.0634(6) 0.2620(4)
H66 H 0.0554 0.0125 0.2623
N1 N 0.5818(3) 0.1439(6) 0.1159(3)
N2 N 0.5113(3) 0.1526(4) 0.1781(3)
N3 N 0.3593(3) 0.1789(4) 0.3199(3)
N4 N 0.4008(4) 0.0979(6) 0.5373(3)
H67 H 0.4256 0.0625 0.5509
H68 H 0.3815 0.1210 0.5587
N5 N 0.1374(3) 0.2951(4) 0.2245(3)
N6 N 0.0349(3) 0.3410(3) 0.1840(3)
N7 N 0.6095(3) 0.2382(4) 0.2092(3)
N8 N 0.5166(3) 0.3162(4) 0.1788(3)
N9 N 0.3027(3) 0.4668(4) 0.1094(3)
N10 N 0.2844(5) 0.7496(5) 0.0076(4)
H69 H 0.3039 0.7877 0.0246
H70 H 0.2612 0.7555 -0.0251
N11 N 0.0984(3) 0.2984(4) 0.1058(3)
N12 N 0.0113(3) 0.2169(4) 0.1079(3)
N13 N 0.5841(4) 0.3019(5) 0.0982(3)
N14 N 0.4850(3) 0.2353(4) 0.0732(3)
N15 N 0.2656(3) 0.0920(4) 0.0216(2)
N16 N 0.1881(3) -0.0533(4) -0.1795(2)
H71 H 0.1840 -0.0303 -0.2113
H72 H 0.1753 -0.0991 -0.1784
N17 N 0.1152(3) 0.1521(4) 0.1620(3)
N18 N 0.0474(3) 0.1896(4) 0.2252(3)
Fe1 Fe 0.54731(5) 0.23066(7) 0.14185(5)
Fe2 Fe 0.07570(5) 0.24940(7) 0.16893(5)
loop_
_geom_bond_atom_site_label_1
_geom_bond_atom_site_label_2
_geom_bond_site_symmetry_1
_geom_bond_site_symmetry_2
C1 C5 1_555 1_555
C2 H1 1_555 1_555
C3 C2 1_555 1_555
H2 C3 1_555 1_555
C4 C3 1_555 1_555
H3 C4 1_555 1_555
C5 C4 1_555 1_555
H4 C5 1_555 1_555
C6 C1 1_555 1_555
H5 C6 1_555 1_555
C7 C8 1_555 1_555
C8 H6 1_555 1_555
C9 C8 1_555 1_555
H7 C9 1_555 1_555
C10 C9 1_555 1_555
C11 C10 1_555 1_555
H8 C11 1_555 1_555
C12 C7 1_555 1_555
H9 C12 1_555 1_555
C13 C14 1_555 1_555
C14 H10 1_555 1_555
C15 C14 1_555 1_555
H11 C15 1_555 1_555
C16 C15 1_555 1_555
C17 C16 1_555 1_555
H12 C17 1_555 1_555
C18 C13 1_555 1_555
H13 C18 1_555 1_555
C19 C20 1_555 1_555
C20 H14 1_555 1_555
C21 C20 1_555 1_555
H15 C21 1_555 1_555
C22 C21 1_555 1_555
C23 C22 1_555 1_555
H16 C23 1_555 1_555
C24 C19 1_555 1_555
H17 C24 1_555 1_555
C25 H18 1_555 1_555
C26 C25 1_555 1_555
C27 H19 1_555 1_555
C28 C27 1_555 1_555
H20 C28 1_555 1_555
C29 C28 1_555 1_555
H21 C29 1_555 1_555
C30 C26 1_555 1_555
H22 C30 1_555 1_555
C31 C32 1_555 1_555
C32 H23 1_555 1_555
C33 C32 1_555 1_555
H24 C33 1_555 1_555
C34 C33 1_555 1_555
H25 C34 1_555 1_555
C35 C34 1_555 1_555
H26 C35 1_555 1_555
C36 C31 1_555 1_555
H27 C36 1_555 1_555
C37 C38 1_555 1_555
C38 H28 1_555 1_555
C39 C38 1_555 1_555
H29 C39 1_555 1_555
C40 C39 1_555 1_555
C41 C40 1_555 1_555
H30 C41 1_555 1_555
C42 C37 1_555 1_555
H31 C42 1_555 1_555
C43 C44 1_555 1_555
C44 H32 1_555 1_555
C45 C44 1_555 1_555
H33 C45 1_555 1_555
C46 C45 1_555 1_555
C47 C46 1_555 1_555
H34 C47 1_555 1_555
C48 C43 1_555 1_555
H35 C48 1_555 1_555
C49 C50 1_555 1_555
C50 H36 1_555 1_555
C51 C50 1_555 1_555
H37 C51 1_555 1_555
C52 C51 1_555 1_555
C53 C52 1_555 1_555
H38 C53 1_555 1_555
C54 C49 1_555 1_555
H39 C54 1_555 1_555
C55 H40 1_555 1_555
C56 C55 1_555 1_555
C57 H41 1_555 1_555
C58 C57 1_555 1_555
H42 C58 1_555 1_555
C59 C58 1_555 1_555
H43 C59 1_555 1_555
C60 C56 1_555 1_555
H44 C60 1_555 1_555
C61 C65 1_555 1_555
C62 H45 1_555 1_555
C63 C62 1_555 1_555
H46 C63 1_555 1_555
C64 C63 1_555 1_555
H47 C64 1_555 1_555
C65 C64 1_555 1_555
H48 C65 1_555 1_555
C66 C61 1_555 1_555
H49 C66 1_555 1_555
C67 C68 1_555 1_555
C68 H50 1_555 1_555
C69 C68 1_555 1_555
H51 C69 1_555 1_555
C70 C69 1_555 1_555
C71 C70 1_555 1_555
H52 C71 1_555 1_555
C72 C67 1_555 1_555
H53 C72 1_555 1_555
C73 C74 1_555 1_555
C74 H54 1_555 1_555
C75 C74 1_555 1_555
H55 C75 1_555 1_555
C76 C75 1_555 1_555
C77 C76 1_555 1_555
H56 C77 1_555 1_555
C78 C73 1_555 1_555
H57 C78 1_555 1_555
C79 C80 1_555 1_555
C80 H58 1_555 1_555
C81 C80 1_555 1_555
H59 C81 1_555 1_555
C82 C81 1_555 1_555
C83 C82 1_555 1_555
H60 C83 1_555 1_555
C84 C79 1_555 1_555
H61 C84 1_555 1_555
C85 H62 1_555 1_555
C86 C85 1_555 1_555
C87 H63 1_555 1_555
C88 C87 1_555 1_555
H64 C88 1_555 1_555
C89 C88 1_555 1_555
H65 C89 1_555 1_555
C90 C86 1_555 1_555
H66 C90 1_555 1_555
N1 C1 1_555 1_555
N2 C6 1_555 1_555
N3 C10 1_555 1_555
N4 C16 1_555 1_555
H67 N4 1_555 1_555
H68 N4 1_555 1_555
N5 C22 1_555 1_555
N6 C26 1_555 1_555
N7 C31 1_555 1_555
N8 C36 1_555 1_555
N9 C40 1_555 1_555
N10 C46 1_555 1_555
H69 N10 1_555 1_555
H70 N10 1_555 1_555
N11 C52 1_555 1_555
N12 C56 1_555 1_555
N13 C61 1_555 1_555
N14 C66 1_555 1_555
N15 C70 1_555 1_555
N16 C76 1_555 1_555
H71 N16 1_555 1_555
H72 N16 1_555 1_555
N17 C82 1_555 1_555
N18 C86 1_555 1_555
Fe1 N1 1_555 1_555
Fe2 N5 1_555 1_555
C2 N1 1_555 1_555
C7 N2 1_555 1_555
C11 C12 1_555 1_555
C13 N3 1_555 1_555
C17 C18 1_555 1_555
C19 N3 1_555 1_555
C23 C24 1_555 1_555
C25 N5 1_555 1_555
C27 N6 1_555 1_555
C29 C30 1_555 1_555
C35 N7 1_555 1_555
C37 N8 1_555 1_555
C41 C42 1_555 1_555
C43 N9 1_555 1_555
C47 C48 1_555 1_555
C49 N9 1_555 1_555
C53 C54 1_555 1_555
C55 N11 1_555 1_555
C57 N12 1_555 1_555
C59 C60 1_555 1_555
C62 N13 1_555 1_555
C67 N14 1_555 1_555
C71 C72 1_555 1_555
C73 N15 1_555 1_555
C77 C78 1_555 1_555
C79 N15 1_555 1_555
C83 C84 1_555 1_555
C85 N17 1_555 1_555
C87 N18 1_555 1_555
C89 C90 1_555 1_555
N2 Fe1 1_555 1_555
N6 Fe2 1_555 1_555
N7 Fe1 1_555 1_555
N8 Fe1 1_555 1_555
N11 Fe2 1_555 1_555
N12 Fe2 1_555 1_555
N13 Fe1 1_555 1_555
N14 Fe1 1_555 1_555
N17 Fe2 1_555 1_555
N18 Fe2 1_555 1_555

#END
