
#######################################################################
#
#                 Cambridge Crystallographic Data Centre
#                                CCDC 
#
#######################################################################
#
# If this CIF has been generated from an entry in the Cambridge 
# Structural Database, then it will include bibliographic, chemical, 
# crystal, experimental, refinement or atomic coordinate data resulting 
# from the CCDC's data processing and validation procedures.
#
#######################################################################

data_GERDAK
_chemical_formula_moiety         
'C148 H113 Fe4 N24 O4 8+,8(F6 P1 1-),5(C2 H3 N1),5(C4 H10 O1)'
_chemical_name_systematic        
'terakis(\m~3~-tris(4-((pyridin-2-ylmethylene)amino)-phenyl)methanolato)-tetra-iron octakis(hexalfluorphosphate) acetonitrile diethyl ether solvate'
_symmetry_cell_setting           monoclinic
_symmetry_space_group_name_H-M   'C c'
_symmetry_Int_Tables_number      9
_space_group_name_Hall           'C -2yc'
loop_
_symmetry_equiv_pos_site_id
_symmetry_equiv_pos_as_xyz
1 x,y,z
2 x,-y,1/2+z
3 1/2+x,1/2+y,z
4 1/2+x,1/2-y,1/2+z
_cell_length_a                   34.078(7)
_cell_length_b                   31.506(6)
_cell_length_c                   20.330(4)
_cell_angle_alpha                90
_cell_angle_beta                 104.03(3)
_cell_angle_gamma                90
_cell_volume                     21176.4
_exptl_crystal_colour            purple
_exptl_crystal_description       needle
_cell_formula_units_Z            4
loop_
_atom_site_label
_atom_site_type_symbol
_atom_site_fract_x
_atom_site_fract_y
_atom_site_fract_z
F1 F 0.9625(4) 0.8497(4) 1.1280(5)
F2 F 0.8924(4) 0.8468(4) 0.9966(5)
F3 F 0.9448(4) 0.8881(4) 1.0315(5)
F4 F 0.9002(4) 0.8806(4) 1.0928(5)
F5 F 0.9073(4) 0.8107(5) 1.0935(5)
F6 F 0.9526(4) 0.8133(4) 1.0331(5)
P1 P 0.92565(17) 0.8480(2) 1.0635(2)
F7 F 0.9591(5) 1.0249(6) 0.8778(9)
F8 F 1.0193(5) 1.1011(6) 0.8843(9)
F9 F 1.0219(5) 1.0316(6) 0.8693(8)
F10 F 0.9753(5) 1.0609(6) 0.8032(9)
F11 F 0.9532(5) 1.0959(6) 0.8881(9)
F12 F 0.9998(5) 1.0561(6) 0.9615(9)
P2 P 0.9888(2) 1.0617(3) 0.8809(3)
F13 F 0.8240(7) 0.6194(7) 1.2957(8)
F14 F 0.8037(7) 0.6861(7) 1.3976(8)
F15 F 0.7748(8) 0.6735(7) 1.2974(9)
F16 F 0.8552(8) 0.6374(8) 1.4062(9)
F17 F 0.8473(7) 0.6875(7) 1.3348(8)
F18 F 0.7940(7) 0.6205(8) 1.3742(8)
P3 P 0.8170(3) 0.6523(3) 1.3505(4)
F19 F 0.6637(6) 0.9009(8) 0.4783(10)
F20 F 0.6678(6) 0.9413(8) 0.6159(10)
F21 F 0.6224(6) 0.9094(8) 0.5354(10)
F22 F 0.7079(6) 0.9321(7) 0.5528(10)
F23 F 0.6868(6) 0.8751(8) 0.5842(10)
F24 F 0.6520(6) 0.9569(9) 0.5071(11)
P5 P 0.66374(18) 0.9191(3) 0.5482(3)
F25 F 0.6421(5) 0.7607(6) 0.1286(8)
F26 F 0.6625(5) 0.7649(6) 0.2819(8)
F27 F 0.6781(6) 0.7298(7) 0.2117(9)
F28 F 0.6133(6) 0.8038(7) 0.1941(9)
F29 F 0.6856(5) 0.7983(6) 0.1997(8)
F30 F 0.6127(5) 0.7375(6) 0.2051(8)
P4 P 0.6412(8) 0.7767(8) 0.1965(13)
C1 C 0.8663(6) 1.0344(6) 0.7487(7)
C2 C 0.8089(5) 1.0675(7) 0.7641(10)
H1 H 0.7856 1.0667 0.7818
C3 C 0.8151(6) 1.1028(6) 0.7324(9)
H2 H 0.7959 1.1252 0.7250
C4 C 0.8516(7) 1.1060(7) 0.7099(10)
H3 H 0.8600 1.1315 0.6924
C5 C 0.8732(5) 1.0697(5) 0.7157(8)
H4 H 0.8953 1.0689 0.6947
C6 C 0.8879(5) 0.9966(6) 0.7576(7)
H5 H 0.9110 0.9937 0.7396
C7 C 0.9000(4) 0.9283(5) 0.8006(7)
C8 C 0.9204(4) 0.9153(5) 0.8642(7)
H6 H 0.9185 0.9312 0.9029
C9 C 0.9441(4) 0.8785(5) 0.8719(7)
H7 H 0.9583 0.8700 0.9161
C10 C 0.9473(4) 0.8546(5) 0.8180(7)
C11 C 0.9262(4) 0.8693(5) 0.7523(7)
H8 H 0.9291 0.8543 0.7132
C12 C 0.9035(4) 0.9025(5) 0.7451(7)
H9 H 0.8885 0.9100 0.7009
C13 C 0.9769(5) 0.8162(6) 0.8267(8)
C14 C 0.9804(5) 0.7962(6) 0.7641(7)
C15 C 1.0128(4) 0.8156(5) 0.7378(7)
H10 H 1.0281 0.8384 0.7619
C16 C 1.0215(4) 0.8014(5) 0.6789(8)
H11 H 1.0408 0.8154 0.6597
C17 C 1.0010(6) 0.7658(7) 0.6490(9)
C18 C 0.9714(6) 0.7475(6) 0.6731(9)
H12 H 0.9566 0.7241 0.6500
C19 C 0.9633(6) 0.7623(7) 0.7289(9)
H13 H 0.9435 0.7475 0.7458
C20 C 1.0327(6) 0.7090(7) 0.5978(9)
H14 H 1.0380 0.6933 0.6388
C21 C 1.0451(4) 0.6953(4) 0.5422(4)
N1 N 1.0282(3) 0.7163(3) 0.4819(5)
C22 C 1.0335(3) 0.7003(4) 0.4209(4)
H15 H 1.0219 0.7146 0.3796
C23 C 1.0557(4) 0.6633(4) 0.4203(4)
H16 H 1.0593 0.6524 0.3786
C24 C 1.0726(4) 0.6424(3) 0.4807(5)
H17 H 1.0878 0.6172 0.4803
C25 C 1.0673(4) 0.6584(4) 0.5417(4)
H18 H 1.0789 0.6441 0.5829
C26 C 0.9537(6) 0.7803(6) 0.8629(8)
C27 C 0.9831(6) 0.7500(6) 0.9064(8)
H19 H 1.0112 0.7508 0.9082
C28 C 0.9670(6) 0.7209(6) 0.9436(8)
H20 H 0.9845 0.7010 0.9713
C29 C 0.9266(6) 0.7198(6) 0.9418(8)
C30 C 0.8994(6) 0.7476(6) 0.8984(8)
H21 H 0.8710 0.7457 0.8938
C31 C 0.9160(6) 0.7781(6) 0.8623(8)
H22 H 0.8982 0.7982 0.8359
C32 C 0.8984(6) 0.7072(9) 1.0355(9)
H23 H 0.9007 0.7371 1.0418
C33 C 0.8848(4) 0.6838(4) 1.0770(6)
N2 N 0.8846(4) 0.6406(5) 1.0631(5)
C34 C 0.8692(4) 0.6120(4) 1.1026(6)
H24 H 0.8691 0.5825 1.0931
C35 C 0.8541(4) 0.6267(5) 1.1561(6)
H25 H 0.8436 0.6072 1.1831
C36 C 0.8543(4) 0.6699(5) 1.1700(5)
H26 H 0.8439 0.6799 1.2065
C37 C 0.8696(4) 0.6984(4) 1.1304(6)
H27 H 0.8697 0.7280 1.1399
C38 C 0.7421(5) 0.9834(6) 0.7965(8)
C39 C 0.7712(5) 1.0170(6) 0.8995(8)
H28 H 0.7946 1.0261 0.9321
C40 C 0.7339(4) 1.0258(6) 0.9118(8)
H29 H 0.7316 1.0389 0.9528
C41 C 0.6987(5) 1.0142(6) 0.8603(8)
H30 H 0.6722 1.0214 0.8640
C42 C 0.7048(4) 0.9927(6) 0.8062(8)
H31 H 0.6818 0.9834 0.7728
C43 C 0.7516(4) 0.9634(5) 0.7432(8)
H32 H 0.7308 0.9536 0.7063
C44 C 0.7971(4) 0.9348(5) 0.6839(6)
C45 C 0.7876(4) 0.8900(5) 0.6814(6)
H33 H 0.7788 0.8761 0.7167
C46 C 0.7922(4) 0.8688(5) 0.6246(6)
H34 H 0.7872 0.8391 0.6212
C47 C 0.8042(4) 0.8896(5) 0.5714(6)
C48 C 0.8135(4) 0.9308(5) 0.5789(6)
H35 H 0.8223 0.9449 0.5437
C49 C 0.8109(4) 0.9540(5) 0.6364(6)
H36 H 0.8188 0.9830 0.6410
C50 C 0.8076(5) 0.8648(5) 0.5053(7)
C51 C 0.8525(4) 0.8506(5) 0.5110(6)
C52 C 0.8810(4) 0.8456(5) 0.5699(7)
H37 H 0.8734 0.8490 0.6115
C53 C 0.9183(4) 0.8365(5) 0.5714(7)
H38 H 0.9371 0.8332 0.6141
C54 C 0.9318(4) 0.8313(5) 0.5129(6)
C55 C 0.9041(4) 0.8362(5) 0.4505(6)
H39 H 0.9122 0.8336 0.4091
C56 C 0.8649(4) 0.8448(5) 0.4510(7)
H40 H 0.8454 0.8469 0.4090
C57 C 0.9965(5) 0.8534(7) 0.5277(8)
H41 H 0.9873 0.8812 0.5347
C58 C 1.0383(3) 0.8447(4) 0.5314(6)
N3 N 1.0468(3) 0.8037(4) 0.5138(6)
C59 C 1.0865(4) 0.7919(3) 0.5162(6)
H42 H 1.0923 0.7639 0.5042
C60 C 1.1176(3) 0.8212(4) 0.5362(6)
H43 H 1.1447 0.8132 0.5378
C61 C 1.1091(3) 0.8622(4) 0.5537(6)
H44 H 1.1304 0.8822 0.5673
C62 C 1.0695(4) 0.8740(3) 0.5513(6)
H45 H 1.0637 0.9020 0.5633
C63 C 0.7782(5) 0.8285(5) 0.4938(7)
C64 C 0.7372(5) 0.8362(5) 0.4674(7)
H46 H 0.7270 0.8643 0.4605
C65 C 0.7123(5) 0.8023(5) 0.4518(7)
H47 H 0.6843 0.8075 0.4345
C66 C 0.7252(5) 0.7599(5) 0.4594(7)
C67 C 0.7667(5) 0.7519(5) 0.4896(7)
H48 H 0.7767 0.7237 0.4986
C68 C 0.7919(5) 0.7866(5) 0.5054(7)
H49 H 0.8198 0.7819 0.5249
C69 C 0.7022(7) 0.7031(7) 0.3862(12)
H50 H 0.7217 0.7107 0.3619
C70 C 0.6772(5) 0.6687(5) 0.3648(7)
N4 N 0.6495(5) 0.6646(5) 0.4048(6)
C71 C 0.6175(5) 0.6362(5) 0.3863(7)
H51 H 0.5987 0.6334 0.4135
C72 C 0.6132(5) 0.6119(5) 0.3278(7)
H52 H 0.5913 0.5925 0.3152
C73 C 0.6408(5) 0.6160(5) 0.2879(6)
H53 H 0.6378 0.5994 0.2480
C74 C 0.6728(5) 0.6444(5) 0.3064(7)
H54 H 0.6917 0.6472 0.2791
C75 C 0.8680(4) 0.9738(5) 0.9645(9)
C76 C 0.8782(5) 1.0388(6) 0.9236(8)
H55 H 0.8726 1.0589 0.8878
C77 C 0.9035(5) 1.0513(7) 0.9851(11)
H56 H 0.9164 1.0783 0.9902
C78 C 0.9088(5) 1.0237(8) 1.0370(10)
H57 H 0.9250 1.0308 1.0806
C79 C 0.8894(5) 0.9838(7) 1.0247(9)
H58 H 0.8920 0.9640 1.0608
C80 C 0.8470(5) 0.9349(7) 0.9429(7)
H59 H 0.8477 0.9127 0.9749
C81 C 0.8063(5) 0.8884(5) 0.8633(7)
C82 C 0.8272(5) 0.8548(5) 0.8490(7)
H60 H 0.8549 0.8574 0.8480
C83 C 0.8079(5) 0.8173(5) 0.8362(7)
H61 H 0.8225 0.7938 0.8248
C84 C 0.7681(5) 0.8111(5) 0.8385(7)
C85 C 0.7465(5) 0.8499(5) 0.8488(7)
H62 H 0.7182 0.8490 0.8451
C86 C 0.7659(5) 0.8857(5) 0.8629(7)
H63 H 0.7521 0.9101 0.8729
C87 C 0.7474(5) 0.7697(6) 0.8299(8)
C88 C 0.7753(7) 0.7336(6) 0.8554(9)
C89 C 0.7795(6) 0.7197(6) 0.9181(9)
H64 H 0.7674 0.7353 0.9481
C90 C 0.7982(6) 0.6875(6) 0.9386(9)
H65 H 0.7972 0.6768 0.9818
C91 C 0.8215(6) 0.6654(6) 0.9010(9)
C92 C 0.8202(6) 0.6816(6) 0.8364(9)
H66 H 0.8371 0.6688 0.8111
C93 C 0.7981(6) 0.7119(6) 0.8096(9)
H67 H 0.7959 0.7205 0.7641
C94 C 0.8310(5) 0.5934(8) 0.9175(13)
H68 H 0.8025 0.5924 0.9002
C95 C 0.8504(7) 0.5549(6) 0.9329(10)
N5 N 0.8884(8) 0.5649(5) 0.9732(11)
C96 C 0.9137(6) 0.5328(7) 1.0060(10)
H69 H 0.9397 0.5396 1.0335
C97 C 0.9010(7) 0.4907(6) 0.9984(11)
H70 H 0.9183 0.4688 1.0208
C98 C 0.8630(8) 0.4808(5) 0.9581(11)
H71 H 0.8544 0.4521 0.9529
C99 C 0.8377(6) 0.5129(7) 0.9253(10)
H72 H 0.8118 0.5061 0.8978
C100 C 0.7216(6) 0.7621(6) 0.7484(8)
C101 C 0.7343(6) 0.7840(6) 0.6976(8)
H73 H 0.7557 0.8040 0.7097
C102 C 0.7170(6) 0.7773(6) 0.6334(8)
H74 H 0.7291 0.7882 0.5994
C103 C 0.6813(6) 0.7546(6) 0.6150(8)
C104 C 0.6696(6) 0.7330(6) 0.6671(8)
H75 H 0.6479 0.7133 0.6570
C105 C 0.6888(6) 0.7403(6) 0.7300(8)
H76 H 0.6777 0.7287 0.7646
C106 C 0.6365(7) 0.7836(8) 0.5219(9)
H77 H 0.6364 0.8084 0.5485
C107 C 0.6120(3) 0.7824(4) 0.4551(4)
N6 N 0.6148(3) 0.7448(4) 0.4209(5)
C108 C 0.5933(4) 0.7399(4) 0.3539(5)
H78 H 0.5952 0.7142 0.3305
C109 C 0.5689(3) 0.7727(4) 0.3211(4)
H79 H 0.5541 0.7694 0.2754
C110 C 0.5661(3) 0.8103(4) 0.3554(6)
H80 H 0.5494 0.8328 0.3330
C111 C 0.5876(4) 0.8152(4) 0.4223(6)
H81 H 0.5857 0.8410 0.4457
C112 C 0.9454(4) 0.7642(4) 0.3616(6)
N7 N 0.9824(4) 0.7814(4) 0.3950(4)
C113 C 1.0028(3) 0.8085(4) 0.3606(5)
H82 H 1.0281 0.8203 0.3834
C114 C 0.9862(4) 0.8182(4) 0.2929(5)
H83 H 1.0001 0.8367 0.2695
C115 C 0.9492(4) 0.8010(4) 0.2596(4)
H84 H 0.9378 0.8077 0.2133
C116 C 0.9288(4) 0.7740(4) 0.2939(6)
H85 H 0.9035 0.7622 0.2711
C117 C 0.9284(7) 0.7378(7) 0.4021(10)
H86 H 0.9042 0.7225 0.3838
C118 C 0.9271(7) 0.7123(5) 0.5100(8)
C119 C 0.9402(6) 0.6687(7) 0.5277(9)
H87 H 0.9637 0.6580 0.5161
C120 C 0.9196(6) 0.6440(6) 0.5598(9)
H88 H 0.9290 0.6160 0.5713
C121 C 0.8819(6) 0.6588(7) 0.5788(10)
C122 C 0.8724(6) 0.7001(8) 0.5606(11)
H89 H 0.8496 0.7117 0.5733
C123 C 0.8919(7) 0.7260(7) 0.5265(11)
H90 H 0.8817 0.7536 0.5137
C124 C 0.8588(9) 0.6292(6) 0.6131(13)
C125 C 0.8788(5) 0.6289(5) 0.6911(6)
C126 C 0.9073(5) 0.6585(4) 0.7232(7)
H91 H 0.9158 0.6804 0.6975
C127 C 0.9233(5) 0.6562(4) 0.7928(7)
H92 H 0.9428 0.6764 0.8147
C128 C 0.9109(5) 0.6243(5) 0.8303(6)
C129 C 0.8824(5) 0.5946(4) 0.7982(7)
H93 H 0.8738 0.5728 0.8238
C130 C 0.8663(4) 0.5970(4) 0.7286(7)
H94 H 0.8469 0.5768 0.7066
C131 C 0.9697(10) 0.6114(10) 0.9203(14)
H95 H 0.9837 0.6040 0.8868
N8 N 0.9641(4) 0.6232(6) 1.0326(8)
C132 C 0.9769(5) 0.6244(6) 1.1029(7)
H96 H 0.9582 0.6312 1.1293
C133 C 1.0170(5) 0.6157(6) 1.1346(6)
H97 H 1.0258 0.6165 1.1826
C134 C 1.0443(4) 0.6057(6) 1.0960(8)
H98 H 1.0717 0.5998 1.1176
C135 C 1.0315(5) 0.6046(6) 1.0257(8)
H99 H 1.0501 0.5978 0.9993
C136 C 0.9913(5) 0.6133(6) 0.9940(6)
C137 C 0.8148(7) 0.6391(7) 0.5989(10)
C138 C 0.7985(7) 0.6631(6) 0.6408(10)
H100 H 0.8152 0.6755 0.6804
C139 C 0.7608(7) 0.6688(6) 0.6265(10)
H101 H 0.7503 0.6808 0.6615
C140 C 0.7302(7) 0.6590(6) 0.5613(10)
C141 C 0.7513(7) 0.6364(6) 0.5162(10)
H102 H 0.7363 0.6262 0.4736
C142 C 0.7940(7) 0.6296(6) 0.5356(10)
H103 H 0.8077 0.6184 0.5039
C143 C 0.6700(5) 0.6413(5) 0.5804(8)
H104 H 0.6860 0.6228 0.6131
C144 C 0.6289(3) 0.6454(4) 0.5696(7)
N9 N 0.6151(4) 0.6768(4) 0.5215(6)
C145 C 0.5745(4) 0.6881(4) 0.5051(6)
H105 H 0.5650 0.7096 0.4722
C146 C 0.5477(3) 0.6681(4) 0.5368(7)
H106 H 0.5199 0.6759 0.5256
C147 C 0.5615(4) 0.6368(4) 0.5849(6)
H107 H 0.5432 0.6231 0.6065
C148 C 0.6021(4) 0.6254(4) 0.6013(6)
H108 H 0.6116 0.6039 0.6341
N10 N 0.8325(4) 1.0332(4) 0.7732(6)
N11 N 0.8775(3) 0.9669(5) 0.7888(6)
N12 N 1.0129(4) 0.7459(5) 0.5907(5)
N13 N 0.9095(5) 0.6882(7) 0.9818(7)
N14 N 0.7762(4) 0.9973(5) 0.8466(7)
N15 N 0.7886(4) 0.9578(3) 0.7429(5)
N16 N 0.9731(4) 0.8228(5) 0.5150(6)
N17 N 0.6994(5) 0.7254(6) 0.4397(7)
N18 N 0.8618(3) 1.0014(5) 0.9118(6)
N19 N 0.8266(3) 0.9290(5) 0.8787(6)
N20 N 0.8481(9) 0.6318(7) 0.9244(13)
N21 N 0.6572(5) 0.7548(7) 0.5456(8)
N22 N 0.9478(4) 0.7346(5) 0.4688(6)
N23 N 0.9301(8) 0.6204(5) 0.9033(12)
N24 N 0.6848(6) 0.6666(5) 0.5396(8)
O1 O 1.0130(4) 0.8264(4) 0.8712(5)
H109 H 1.0177 0.8524 0.8680
O2 O 0.7971(3) 0.8952(3) 0.4536(4)
H110 H 0.7718 0.8977 0.4418
O3 O 0.7123(3) 0.7705(4) 0.8599(5)
H111 H 0.7045 0.7456 0.8640
O4 O 0.8689(6) 0.5879(4) 0.5946(9)
H112 H 0.8487 0.5718 0.5905
Fe1 Fe 0.82693(6) 0.98002(7) 0.82268(9)
Fe2 Fe 0.99750(7) 0.76819(8) 0.49438(10)
Fe3 Fe 0.90550(13) 0.62973(12) 0.98044(18)
Fe4 Fe 0.65441(10) 0.70482(11) 0.48082(13)
P6? P 0.6552(6) 0.7583(7) 0.2058(12)
loop_
_geom_bond_atom_site_label_1
_geom_bond_atom_site_label_2
_geom_bond_site_symmetry_1
_geom_bond_site_symmetry_2
C1 C5 1_555 1_555
C2 H1 1_555 1_555
C3 C2 1_555 1_555
H2 C3 1_555 1_555
C4 C3 1_555 1_555
H3 C4 1_555 1_555
C5 C4 1_555 1_555
H4 C5 1_555 1_555
C6 C1 1_555 1_555
H5 C6 1_555 1_555
C7 C8 1_555 1_555
C8 H6 1_555 1_555
C9 C8 1_555 1_555
H7 C9 1_555 1_555
C10 C9 1_555 1_555
C11 C10 1_555 1_555
H8 C11 1_555 1_555
C12 C7 1_555 1_555
H9 C12 1_555 1_555
C13 C10 1_555 1_555
C14 C13 1_555 1_555
C15 C14 1_555 1_555
H10 C15 1_555 1_555
C16 C15 1_555 1_555
H11 C16 1_555 1_555
C17 C16 1_555 1_555
C18 C17 1_555 1_555
H12 C18 1_555 1_555
C19 C14 1_555 1_555
H13 C19 1_555 1_555
C20 H14 1_555 1_555
C21 C20 1_555 1_555
N1 C21 1_555 1_555
C22 N1 1_555 1_555
H15 C22 1_555 1_555
C23 C22 1_555 1_555
H16 C23 1_555 1_555
C24 C23 1_555 1_555
H17 C24 1_555 1_555
C25 C21 1_555 1_555
H18 C25 1_555 1_555
C26 C13 1_555 1_555
C27 C26 1_555 1_555
H19 C27 1_555 1_555
C28 C27 1_555 1_555
H20 C28 1_555 1_555
C29 C28 1_555 1_555
C30 C29 1_555 1_555
H21 C30 1_555 1_555
C31 C26 1_555 1_555
H22 C31 1_555 1_555
C32 H23 1_555 1_555
C33 C32 1_555 1_555
N2 C33 1_555 1_555
C34 N2 1_555 1_555
H24 C34 1_555 1_555
C35 C34 1_555 1_555
H25 C35 1_555 1_555
C36 C35 1_555 1_555
H26 C36 1_555 1_555
C37 C33 1_555 1_555
H27 C37 1_555 1_555
C38 C42 1_555 1_555
C39 H28 1_555 1_555
C40 C39 1_555 1_555
H29 C40 1_555 1_555
C41 C40 1_555 1_555
H30 C41 1_555 1_555
C42 C41 1_555 1_555
H31 C42 1_555 1_555
C43 C38 1_555 1_555
H32 C43 1_555 1_555
C44 C45 1_555 1_555
C45 H33 1_555 1_555
C46 C45 1_555 1_555
H34 C46 1_555 1_555
C47 C46 1_555 1_555
C48 C47 1_555 1_555
H35 C48 1_555 1_555
C49 C44 1_555 1_555
H36 C49 1_555 1_555
C50 C47 1_555 1_555
C51 C50 1_555 1_555
C52 C51 1_555 1_555
H37 C52 1_555 1_555
C53 C52 1_555 1_555
H38 C53 1_555 1_555
C54 C53 1_555 1_555
C55 C54 1_555 1_555
H39 C55 1_555 1_555
C56 C51 1_555 1_555
H40 C56 1_555 1_555
C57 H41 1_555 1_555
C58 C57 1_555 1_555
N3 C58 1_555 1_555
C59 N3 1_555 1_555
H42 C59 1_555 1_555
C60 C59 1_555 1_555
H43 C60 1_555 1_555
C61 C60 1_555 1_555
H44 C61 1_555 1_555
C62 C58 1_555 1_555
H45 C62 1_555 1_555
C63 C50 1_555 1_555
C64 C63 1_555 1_555
H46 C64 1_555 1_555
C65 C64 1_555 1_555
H47 C65 1_555 1_555
C66 C65 1_555 1_555
C67 C66 1_555 1_555
H48 C67 1_555 1_555
C68 C63 1_555 1_555
H49 C68 1_555 1_555
C69 H50 1_555 1_555
C70 C69 1_555 1_555
N4 C70 1_555 1_555
C71 N4 1_555 1_555
H51 C71 1_555 1_555
C72 C71 1_555 1_555
H52 C72 1_555 1_555
C73 C72 1_555 1_555
H53 C73 1_555 1_555
C74 C70 1_555 1_555
H54 C74 1_555 1_555
C75 C79 1_555 1_555
C76 H55 1_555 1_555
C77 C76 1_555 1_555
H56 C77 1_555 1_555
C78 C77 1_555 1_555
H57 C78 1_555 1_555
C79 C78 1_555 1_555
H58 C79 1_555 1_555
C80 C75 1_555 1_555
H59 C80 1_555 1_555
C81 C82 1_555 1_555
C82 H60 1_555 1_555
C83 C82 1_555 1_555
H61 C83 1_555 1_555
C84 C83 1_555 1_555
C85 C84 1_555 1_555
H62 C85 1_555 1_555
C86 C81 1_555 1_555
H63 C86 1_555 1_555
C87 C84 1_555 1_555
C88 C87 1_555 1_555
C89 C88 1_555 1_555
H64 C89 1_555 1_555
C90 C89 1_555 1_555
H65 C90 1_555 1_555
C91 C90 1_555 1_555
C92 C91 1_555 1_555
H66 C92 1_555 1_555
C93 C88 1_555 1_555
H67 C93 1_555 1_555
C94 H68 1_555 1_555
C95 C94 1_555 1_555
N5 C95 1_555 1_555
C96 N5 1_555 1_555
H69 C96 1_555 1_555
C97 C96 1_555 1_555
H70 C97 1_555 1_555
C98 C97 1_555 1_555
H71 C98 1_555 1_555
C99 C95 1_555 1_555
H72 C99 1_555 1_555
C100 C87 1_555 1_555
C101 C100 1_555 1_555
H73 C101 1_555 1_555
C102 C101 1_555 1_555
H74 C102 1_555 1_555
C103 C102 1_555 1_555
C104 C103 1_555 1_555
H75 C104 1_555 1_555
C105 C100 1_555 1_555
H76 C105 1_555 1_555
C106 H77 1_555 1_555
C107 C106 1_555 1_555
N6 C107 1_555 1_555
C108 N6 1_555 1_555
H78 C108 1_555 1_555
C109 C108 1_555 1_555
H79 C109 1_555 1_555
C110 C109 1_555 1_555
H80 C110 1_555 1_555
C111 C107 1_555 1_555
H81 C111 1_555 1_555
C112 N7 1_555 1_555
N7 C113 1_555 1_555
C113 H82 1_555 1_555
C114 C113 1_555 1_555
H83 C114 1_555 1_555
C115 C114 1_555 1_555
H84 C115 1_555 1_555
C116 C112 1_555 1_555
H85 C116 1_555 1_555
C117 C112 1_555 1_555
H86 C117 1_555 1_555
C118 C119 1_555 1_555
C119 H87 1_555 1_555
C120 C119 1_555 1_555
H88 C120 1_555 1_555
C121 C120 1_555 1_555
C122 C121 1_555 1_555
H89 C122 1_555 1_555
C123 C118 1_555 1_555
H90 C123 1_555 1_555
C124 C121 1_555 1_555
C125 C124 1_555 1_555
C126 C125 1_555 1_555
H91 C126 1_555 1_555
C127 C126 1_555 1_555
H92 C127 1_555 1_555
C128 C127 1_555 1_555
C129 C128 1_555 1_555
H93 C129 1_555 1_555
C130 C125 1_555 1_555
H94 C130 1_555 1_555
C131 H95 1_555 1_555
N8 C132 1_555 1_555
C132 H96 1_555 1_555
C133 C132 1_555 1_555
H97 C133 1_555 1_555
C134 C133 1_555 1_555
H98 C134 1_555 1_555
C135 C134 1_555 1_555
H99 C135 1_555 1_555
C136 C131 1_555 1_555
C137 C124 1_555 1_555
C138 C137 1_555 1_555
H100 C138 1_555 1_555
C139 C138 1_555 1_555
H101 C139 1_555 1_555
C140 C139 1_555 1_555
C141 C140 1_555 1_555
H102 C141 1_555 1_555
C142 C137 1_555 1_555
H103 C142 1_555 1_555
C143 H104 1_555 1_555
C144 C143 1_555 1_555
N9 C144 1_555 1_555
C145 N9 1_555 1_555
H105 C145 1_555 1_555
C146 C145 1_555 1_555
H106 C146 1_555 1_555
C147 C146 1_555 1_555
H107 C147 1_555 1_555
C148 C144 1_555 1_555
H108 C148 1_555 1_555
N10 C1 1_555 1_555
N11 C6 1_555 1_555
N12 C17 1_555 1_555
N13 C29 1_555 1_555
N14 C38 1_555 1_555
N15 C43 1_555 1_555
N16 C54 1_555 1_555
N17 C66 1_555 1_555
N18 C75 1_555 1_555
N19 C80 1_555 1_555
N20 C91 1_555 1_555
N21 C103 1_555 1_555
N22 C117 1_555 1_555
N23 C128 1_555 1_555
N24 C140 1_555 1_555
O1 C13 1_555 1_555
H109 O1 1_555 1_555
O2 C50 1_555 1_555
H110 O2 1_555 1_555
O3 C87 1_555 1_555
H111 O3 1_555 1_555
O4 C124 1_555 1_555
H112 O4 1_555 1_555
F1 P1 1_555 1_555
F2 P1 1_555 1_555
F3 P1 1_555 1_555
F4 P1 1_555 1_555
F5 P1 1_555 1_555
F6 P1 1_555 1_555
F7 P2 1_555 1_555
F8 P2 1_555 1_555
F9 P2 1_555 1_555
F10 P2 1_555 1_555
F11 P2 1_555 1_555
F12 P2 1_555 1_555
F13 P3 1_555 1_555
F14 P3 1_555 1_555
F15 P3 1_555 1_555
F16 P3 1_555 1_555
F17 P3 1_555 1_555
F18 P3 1_555 1_555
F19 P5 1_555 1_555
F20 P5 1_555 1_555
F21 P5 1_555 1_555
F22 P5 1_555 1_555
F23 P5 1_555 1_555
F24 P5 1_555 1_555
F25 P4 1_555 1_555
F26 P4 1_555 1_555
F27 P4 1_555 1_555
F28 P4 1_555 1_555
F29 P4 1_555 1_555
F30 P4 1_555 1_555
Fe1 N10 1_555 1_555
Fe2 N1 1_555 1_555
Fe3 N2 1_555 1_555
Fe4 N4 1_555 1_555
C2 N10 1_555 1_555
C7 N11 1_555 1_555
C11 C12 1_555 1_555
C18 C19 1_555 1_555
C20 N12 1_555 1_555
C24 C25 1_555 1_555
C30 C31 1_555 1_555
C32 N13 1_555 1_555
C36 C37 1_555 1_555
C39 N14 1_555 1_555
C44 N15 1_555 1_555
C48 C49 1_555 1_555
C55 C56 1_555 1_555
C57 N16 1_555 1_555
N3 Fe2 1_555 1_555
C61 C62 1_555 1_555
C67 C68 1_555 1_555
C69 N17 1_555 1_555
C73 C74 1_555 1_555
C76 N18 1_555 1_555
C81 N19 1_555 1_555
C85 C86 1_555 1_555
C92 C93 1_555 1_555
C94 N20 1_555 1_555
N5 Fe3 1_555 1_555
C98 C99 1_555 1_555
C104 C105 1_555 1_555
C106 N21 1_555 1_555
N6 Fe4 1_555 1_555
C110 C111 1_555 1_555
N7 Fe2 1_555 1_555
C115 C116 1_555 1_555
C118 N22 1_555 1_555
C122 C123 1_555 1_555
C129 C130 1_555 1_555
C131 N23 1_555 1_555
N8 C136 1_555 1_555
N8 Fe3 1_555 1_555
C135 C136 1_555 1_555
C141 C142 1_555 1_555
C143 N24 1_555 1_555
N9 Fe4 1_555 1_555
C147 C148 1_555 1_555
N11 Fe1 1_555 1_555
N12 Fe2 1_555 1_555
N13 Fe3 1_555 1_555
N14 Fe1 1_555 1_555
N15 Fe1 1_555 1_555
N16 Fe2 1_555 1_555
N17 Fe4 1_555 1_555
N18 Fe1 1_555 1_555
N19 Fe1 1_555 1_555
N20 Fe3 1_555 1_555
N21 Fe4 1_555 1_555
N22 Fe2 1_555 1_555
N23 Fe3 1_555 1_555
N24 Fe4 1_555 1_555

#END
