
#######################################################################
#
#                 Cambridge Crystallographic Data Centre
#                                CCDC 
#
#######################################################################
#
# If this CIF has been generated from an entry in the Cambridge 
# Structural Database, then it will include bibliographic, chemical, 
# crystal, experimental, refinement or atomic coordinate data resulting 
# from the CCDC's data processing and validation procedures.
#
#######################################################################

data_GEWMUT
_chemical_formula_moiety         'C192 H136 Cu24 O140'
_chemical_name_systematic        
'tetracosakis(\m-5-hydroxyisophthalato)-icosa-aqua-tetracosa-copper unknown solvate'
_symmetry_cell_setting           tetragonal
_symmetry_space_group_name_H-M   'P 4/m'
_symmetry_Int_Tables_number      83
_space_group_name_Hall           '-P 4'
loop_
_symmetry_equiv_pos_site_id
_symmetry_equiv_pos_as_xyz
1 x,y,z
2 -x,-y,z
3 -y,x,z
4 y,-x,z
5 -x,-y,-z
6 x,y,-z
7 y,-x,-z
8 -y,x,-z
_cell_length_a                   29.119(2)
_cell_length_b                   29.119(2)
_cell_length_c                   40.949(4)
_cell_angle_alpha                90
_cell_angle_beta                 90
_cell_angle_gamma                90
_cell_volume                     34721.3
_exptl_crystal_colour            green
_exptl_crystal_description       plate
_cell_formula_units_Z            2
loop_
_atom_site_label
_atom_site_type_symbol
_atom_site_fract_x
_atom_site_fract_y
_atom_site_fract_z
Cu1 Cu 0.44390(11) 0.23178(9) 0.500000
Cu2 Cu 0.42487(14) 0.14297(10) 0.500000
Cu3 Cu 0.60522(7) 0.33712(7) 0.36138(4)
Cu4 Cu 0.64106(9) 0.28348(8) 0.31604(5)
O1 O 0.4886(3) 0.2156(3) 0.4663(2)
O2 O 0.4706(4) 0.1380(3) 0.4675(3)
O3 O 0.5868(3) 0.2803(3) 0.38134(18)
O4 O 0.6184(4) 0.2341(3) 0.3428(2)
O5 O 0.5689(6) 0.0739(4) 0.3782(3)
C1 C 0.4904(5) 0.1717(6) 0.4548(3)
C2 C 0.5256(4) 0.1681(4) 0.4275(2)
C3 C 0.5370(4) 0.1240(3) 0.4171(3)
H1 H 0.524450 0.098063 0.428004
C4 C 0.5666(4) 0.1180(3) 0.3909(3)
C5 C 0.5849(4) 0.1560(4) 0.3750(2)
H2 H 0.605228 0.151894 0.357071
C6 C 0.5735(4) 0.2000(3) 0.3853(2)
C7 C 0.5438(4) 0.2061(3) 0.4116(3)
H3 H 0.536056 0.236137 0.418620
C8 C 0.5932(6) 0.2412(5) 0.3680(3)
O6 O 0.3960(3) 0.2364(3) 0.5342(2)
O7 O 0.3808(4) 0.1593(4) 0.5331(3)
O8 O 0.3326(4) 0.3348(4) 0.6182(2)
O9 O 0.2854(4) 0.3061(4) 0.6566(3)
O10 O 0.2562(6) 0.1426(6) 0.6168(4)
C9 C 0.3759(5) 0.1997(6) 0.5438(3)
C10 C 0.3408(4) 0.2099(4) 0.5701(2)
C11 C 0.3131(5) 0.1739(3) 0.5805(3)
H4 H 0.314429 0.145047 0.569687
C12 C 0.2834(4) 0.1801(4) 0.6067(3)
C13 C 0.2815(4) 0.2223(5) 0.6225(3)
H5 H 0.261195 0.226494 0.640461
C14 C 0.3092(4) 0.2583(3) 0.6121(3)
C15 C 0.3388(4) 0.2521(4) 0.5859(3)
H6 H 0.357732 0.276713 0.578747
C16 C 0.3097(6) 0.3024(5) 0.6310(4)
O11 O 0.5520(3) 0.3370(3) 0.3342(2)
O12 O 0.5815(4) 0.2905(4) 0.2958(2)
O13 O 0.3878(3) 0.3706(4) 0.3350(2)
O14 O 0.3392(4) 0.3375(4) 0.2970(2)
O15 O 0.4467(6) 0.2598(5) 0.2197(3)
C17 C 0.5483(4) 0.3128(6) 0.3084(4)
C18 C 0.5022(3) 0.3122(4) 0.2914(3)
C19 C 0.4978(4) 0.2875(4) 0.2625(3)
H7 H 0.524172 0.274190 0.252660
C20 C 0.4550(5) 0.2824(4) 0.2481(2)
C21 C 0.4164(4) 0.3019(5) 0.2625(3)
H8 H 0.387103 0.298378 0.252607
C22 C 0.4207(3) 0.3265(4) 0.2914(2)
C23 C 0.4636(4) 0.3317(4) 0.30588(19)
H9 H 0.466562 0.348511 0.325634
C24 C 0.3796(5) 0.3441(6) 0.3097(4)
O16 O 0.4591(6) 0.3020(5) 0.500000
O17 O 0.4086(8) 0.0706(5) 0.500000
O18 O 0.5745(5) 0.3810(4) 0.39799(19)
O19 O 0.6705(4) 0.2369(4) 0.2791(2)
Cu1B Cu 0.76822(9) 0.44390(11) 0.500000
Cu2B Cu 0.85703(10) 0.42487(14) 0.500000
Cu3B Cu 0.66288(7) 0.60522(7) 0.36138(4)
Cu4B Cu 0.71652(8) 0.64106(9) 0.31604(5)
O1B O 0.7844(3) 0.4886(3) 0.4663(2)
O2B O 0.8620(3) 0.4706(4) 0.4675(3)
O3B O 0.7197(3) 0.5868(3) 0.38134(18)
O4B O 0.7659(3) 0.6184(4) 0.3428(2)
O5B O 0.9261(4) 0.5689(6) 0.3782(3)
C1B C 0.8283(6) 0.4904(5) 0.4548(3)
C2B C 0.8319(4) 0.5256(4) 0.4275(2)
C3B C 0.8760(3) 0.5370(4) 0.4171(3)
H1B H 0.901937 0.524450 0.428004
C4B C 0.8820(3) 0.5666(4) 0.3909(3)
C5B C 0.8440(4) 0.5849(4) 0.3750(2)
H2B H 0.848106 0.605228 0.357071
C6B C 0.8000(3) 0.5735(4) 0.3853(2)
C7B C 0.7939(3) 0.5438(4) 0.4116(3)
H3B H 0.763863 0.536056 0.418620
C8B C 0.7588(5) 0.5932(6) 0.3680(3)
O6B O 0.7636(3) 0.3960(3) 0.5342(2)
O7B O 0.8407(4) 0.3808(4) 0.5331(3)
O8B O 0.6652(4) 0.3326(4) 0.6182(2)
O9B O 0.6939(4) 0.2854(4) 0.6566(3)
O10B O 0.8574(6) 0.2562(6) 0.6168(4)
C9B C 0.8003(6) 0.3759(5) 0.5438(3)
C10B C 0.7901(4) 0.3408(4) 0.5701(2)
C11B C 0.8261(3) 0.3131(5) 0.5805(3)
H4B H 0.854953 0.314429 0.569687
C12B C 0.8199(4) 0.2834(4) 0.6067(3)
C13B C 0.7777(5) 0.2815(4) 0.6225(3)
H5B H 0.773506 0.261195 0.640461
C14B C 0.7417(3) 0.3092(4) 0.6121(3)
C15B C 0.7479(4) 0.3388(4) 0.5859(3)
H6B H 0.723287 0.357732 0.578747
C16B C 0.6976(5) 0.3097(6) 0.6310(4)
O11B O 0.6630(3) 0.5520(3) 0.3342(2)
O12B O 0.7095(4) 0.5815(4) 0.2958(2)
O13B O 0.6294(4) 0.3878(3) 0.3350(2)
O14B O 0.6625(4) 0.3392(4) 0.2970(2)
O15B O 0.7402(5) 0.4467(6) 0.2197(3)
C17B C 0.6872(6) 0.5483(4) 0.3084(4)
C18B C 0.6878(4) 0.5022(3) 0.2914(3)
C19B C 0.7125(4) 0.4978(4) 0.2625(3)
H7B H 0.725810 0.524172 0.252660
C20B C 0.7176(4) 0.4550(5) 0.2481(2)
C21B C 0.6981(5) 0.4164(4) 0.2625(3)
H8B H 0.701622 0.387103 0.252607
C22B C 0.6735(4) 0.4207(3) 0.2914(2)
C23B C 0.6683(4) 0.4636(4) 0.30588(19)
H9B H 0.651489 0.466562 0.325634
C24B C 0.6559(6) 0.3796(5) 0.3097(4)
O16B O 0.6980(5) 0.4591(6) 0.500000
O17B O 0.9294(5) 0.4086(8) 0.500000
O18B O 0.6190(4) 0.5745(5) 0.39799(19)
O19B O 0.7631(4) 0.6705(4) 0.2791(2)
Cu1C Cu 0.23178(9) 0.55610(11) 0.500000
Cu2C Cu 0.14297(10) 0.57513(14) 0.500000
Cu3C Cu 0.33712(7) 0.39478(7) 0.36138(4)
Cu4C Cu 0.28348(8) 0.35894(9) 0.31604(5)
O1C O 0.2156(3) 0.5114(3) 0.4663(2)
O2C O 0.1380(3) 0.5294(4) 0.4675(3)
O3C O 0.2803(3) 0.4132(3) 0.38134(18)
O4C O 0.2341(3) 0.3816(4) 0.3428(2)
O5C O 0.0739(4) 0.4311(6) 0.3782(3)
C1C C 0.1717(6) 0.5096(5) 0.4548(3)
C2C C 0.1681(4) 0.4744(4) 0.4275(2)
C3C C 0.1240(3) 0.4630(4) 0.4171(3)
H1C H 0.098063 0.475550 0.428004
C4C C 0.1180(3) 0.4334(4) 0.3909(3)
C5C C 0.1560(4) 0.4151(4) 0.3750(2)
H2C H 0.151894 0.394772 0.357071
C6C C 0.2000(3) 0.4265(4) 0.3853(2)
C7C C 0.2061(3) 0.4562(4) 0.4116(3)
H3C H 0.236137 0.463944 0.418620
C8C C 0.2412(5) 0.4068(6) 0.3680(3)
O6C O 0.2364(3) 0.6040(3) 0.5342(2)
O7C O 0.1593(4) 0.6192(4) 0.5331(3)
O8C O 0.3348(4) 0.6674(4) 0.6182(2)
O9C O 0.3061(4) 0.7146(4) 0.6566(3)
O10C O 0.1426(6) 0.7438(6) 0.6168(4)
C9C C 0.1997(6) 0.6241(5) 0.5438(3)
C10C C 0.2099(4) 0.6592(4) 0.5701(2)
C11C C 0.1739(3) 0.6869(5) 0.5805(3)
H4C H 0.145047 0.685571 0.569687
C12C C 0.1801(4) 0.7166(4) 0.6067(3)
C13C C 0.2223(5) 0.7185(4) 0.6225(3)
H5C H 0.226494 0.738805 0.640461
C14C C 0.2583(3) 0.6908(4) 0.6121(3)
C15C C 0.2521(4) 0.6612(4) 0.5859(3)
H6C H 0.276713 0.642268 0.578747
C16C C 0.3024(5) 0.6903(6) 0.6310(4)
O11C O 0.3370(3) 0.4480(3) 0.3342(2)
O12C O 0.2905(4) 0.4185(4) 0.2958(2)
O13C O 0.3706(4) 0.6122(3) 0.3350(2)
O14C O 0.3375(4) 0.6608(4) 0.2970(2)
O15C O 0.2598(5) 0.5533(6) 0.2197(3)
C17C C 0.3128(6) 0.4517(4) 0.3084(4)
C18C C 0.3122(4) 0.4978(3) 0.2914(3)
C19C C 0.2875(4) 0.5022(4) 0.2625(3)
H7C H 0.274190 0.475828 0.252660
C20C C 0.2824(4) 0.5450(5) 0.2481(2)
C21C C 0.3019(5) 0.5836(4) 0.2625(3)
H8C H 0.298378 0.612897 0.252607
C22C C 0.3265(4) 0.5793(3) 0.2914(2)
C23C C 0.3317(4) 0.5364(4) 0.30588(19)
H9C H 0.348511 0.533438 0.325634
C24C C 0.3441(6) 0.6204(5) 0.3097(4)
O16C O 0.3020(5) 0.5409(6) 0.500000
O17C O 0.0706(5) 0.5914(8) 0.500000
O18C O 0.3810(4) 0.4255(5) 0.39799(19)
O19C O 0.2369(4) 0.3295(4) 0.2791(2)
Cu3E Cu 0.60522(7) 0.33712(7) 0.63862(4)
Cu4E Cu 0.64106(9) 0.28348(8) 0.68396(5)
O1E O 0.4886(3) 0.2156(3) 0.5337(2)
O2E O 0.4706(4) 0.1380(3) 0.5325(3)
O3E O 0.5868(3) 0.2803(3) 0.61866(18)
O4E O 0.6184(4) 0.2341(3) 0.6572(2)
O5E O 0.5689(6) 0.0739(4) 0.6218(3)
C1E C 0.4904(5) 0.1717(6) 0.5452(3)
C2E C 0.5256(4) 0.1681(4) 0.5725(2)
C3E C 0.5370(4) 0.1240(3) 0.5829(3)
H1E H 0.524450 0.098063 0.571996
C4E C 0.5666(4) 0.1180(3) 0.6091(3)
C5E C 0.5849(4) 0.1560(4) 0.6250(2)
H2E H 0.605228 0.151894 0.642929
C6E C 0.5735(4) 0.2000(3) 0.6147(2)
C7E C 0.5438(4) 0.2061(3) 0.5884(3)
H3E H 0.536056 0.236137 0.581380
C8E C 0.5932(6) 0.2412(5) 0.6320(3)
O6E O 0.3960(3) 0.2364(3) 0.4658(2)
O7E O 0.3808(4) 0.1593(4) 0.4669(3)
O8E O 0.3326(4) 0.3348(4) 0.3818(2)
O9E O 0.2854(4) 0.3061(4) 0.3434(3)
O10E O 0.2562(6) 0.1426(6) 0.3832(4)
C9E C 0.3759(5) 0.1997(6) 0.4562(3)
C10E C 0.3408(4) 0.2099(4) 0.4299(2)
C11E C 0.3131(5) 0.1739(3) 0.4195(3)
H4E H 0.314429 0.145047 0.430313
C12E C 0.2834(4) 0.1801(4) 0.3933(3)
C13E C 0.2815(4) 0.2223(5) 0.3775(3)
H5E H 0.261195 0.226494 0.359539
C14E C 0.3092(4) 0.2583(3) 0.3879(3)
C15E C 0.3388(4) 0.2521(4) 0.4141(3)
H6E H 0.357732 0.276713 0.421253
C16E C 0.3097(6) 0.3024(5) 0.3690(4)
O11E O 0.5520(3) 0.3370(3) 0.6658(2)
O12E O 0.5815(4) 0.2905(4) 0.7042(2)
O13E O 0.3878(3) 0.3706(4) 0.6650(2)
O14E O 0.3392(4) 0.3375(4) 0.7030(2)
O15E O 0.4467(6) 0.2598(5) 0.7803(3)
C17E C 0.5483(4) 0.3128(6) 0.6916(4)
C18E C 0.5022(3) 0.3122(4) 0.7086(3)
C19E C 0.4978(4) 0.2875(4) 0.7375(3)
H7E H 0.524172 0.274190 0.747340
C20E C 0.4550(5) 0.2824(4) 0.7519(2)
C21E C 0.4164(4) 0.3019(5) 0.7375(3)
H8E H 0.387103 0.298378 0.747393
C22E C 0.4207(3) 0.3265(4) 0.7086(2)
C23E C 0.4636(4) 0.3317(4) 0.69412(19)
H9E H 0.466562 0.348511 0.674366
C24E C 0.3796(5) 0.3441(6) 0.6903(4)
O18E O 0.5745(5) 0.3810(4) 0.60201(19)
O19E O 0.6705(4) 0.2369(4) 0.7209(2)
Cu3F Cu 0.33712(7) 0.39478(7) 0.63862(4)
Cu4F Cu 0.28348(8) 0.35894(9) 0.68396(5)
O1F O 0.2156(3) 0.5114(3) 0.5337(2)
O2F O 0.1380(3) 0.5294(4) 0.5325(3)
O3F O 0.2803(3) 0.4132(3) 0.61866(18)
O4F O 0.2341(3) 0.3816(4) 0.6572(2)
O5F O 0.0739(4) 0.4311(6) 0.6218(3)
C1F C 0.1717(6) 0.5096(5) 0.5452(3)
C2F C 0.1681(4) 0.4744(4) 0.5725(2)
C3F C 0.1240(3) 0.4630(4) 0.5829(3)
H1F H 0.098063 0.475550 0.571996
C4F C 0.1180(3) 0.4334(4) 0.6091(3)
C5F C 0.1560(4) 0.4151(4) 0.6250(2)
H2F H 0.151894 0.394772 0.642929
C6F C 0.2000(3) 0.4265(4) 0.6147(2)
C7F C 0.2061(3) 0.4562(4) 0.5884(3)
H3F H 0.236137 0.463944 0.581380
C8F C 0.2412(5) 0.4068(6) 0.6320(3)
O6F O 0.2364(3) 0.6040(3) 0.4658(2)
O7F O 0.1593(4) 0.6192(4) 0.4669(3)
O8F O 0.3348(4) 0.6674(4) 0.3818(2)
O9F O 0.3061(4) 0.7146(4) 0.3434(3)
O10F O 0.1426(6) 0.7438(6) 0.3832(4)
C9F C 0.1997(6) 0.6241(5) 0.4562(3)
C10F C 0.2099(4) 0.6592(4) 0.4299(2)
C11F C 0.1739(3) 0.6869(5) 0.4195(3)
H4F H 0.145047 0.685571 0.430313
C12F C 0.1801(4) 0.7166(4) 0.3933(3)
C13F C 0.2223(5) 0.7185(4) 0.3775(3)
H5F H 0.226494 0.738805 0.359539
C14F C 0.2583(3) 0.6908(4) 0.3879(3)
C15F C 0.2521(4) 0.6612(4) 0.4141(3)
H6F H 0.276713 0.642268 0.421253
C16F C 0.3024(5) 0.6903(6) 0.3690(4)
O11F O 0.3370(3) 0.4480(3) 0.6658(2)
O12F O 0.2905(4) 0.4185(4) 0.7042(2)
O13F O 0.3706(4) 0.6122(3) 0.6650(2)
O14F O 0.3375(4) 0.6608(4) 0.7030(2)
O15F O 0.2598(5) 0.5533(6) 0.7803(3)
C17F C 0.3128(6) 0.4517(4) 0.6916(4)
C18F C 0.3122(4) 0.4978(3) 0.7086(3)
C19F C 0.2875(4) 0.5022(4) 0.7375(3)
H7F H 0.274190 0.475828 0.747340
C20F C 0.2824(4) 0.5450(5) 0.7519(2)
C21F C 0.3019(5) 0.5836(4) 0.7375(3)
H8F H 0.298378 0.612897 0.747393
C22F C 0.3265(4) 0.5793(3) 0.7086(2)
C23F C 0.3317(4) 0.5364(4) 0.69412(19)
H9F H 0.348511 0.533438 0.674366
C24F C 0.3441(6) 0.6204(5) 0.6903(4)
O18F O 0.3810(4) 0.4255(5) 0.60201(19)
O19F O 0.2369(4) 0.3295(4) 0.7209(2)
Cu3G Cu 0.66288(7) 0.60522(7) 0.63862(4)
Cu4G Cu 0.71652(8) 0.64106(9) 0.68396(5)
O1G O 0.7844(3) 0.4886(3) 0.5337(2)
O2G O 0.8620(3) 0.4706(4) 0.5325(3)
O3G O 0.7197(3) 0.5868(3) 0.61866(18)
O4G O 0.7659(3) 0.6184(4) 0.6572(2)
O5G O 0.9261(4) 0.5689(6) 0.6218(3)
C1G C 0.8283(6) 0.4904(5) 0.5452(3)
C2G C 0.8319(4) 0.5256(4) 0.5725(2)
C3G C 0.8760(3) 0.5370(4) 0.5829(3)
H1G H 0.901937 0.524450 0.571996
C4G C 0.8820(3) 0.5666(4) 0.6091(3)
C5G C 0.8440(4) 0.5849(4) 0.6250(2)
H2G H 0.848106 0.605228 0.642929
C6G C 0.8000(3) 0.5735(4) 0.6147(2)
C7G C 0.7939(3) 0.5438(4) 0.5884(3)
H3G H 0.763863 0.536056 0.581380
C8G C 0.7588(5) 0.5932(6) 0.6320(3)
O6G O 0.7636(3) 0.3960(3) 0.4658(2)
O7G O 0.8407(4) 0.3808(4) 0.4669(3)
O8G O 0.6652(4) 0.3326(4) 0.3818(2)
O9G O 0.6939(4) 0.2854(4) 0.3434(3)
O10G O 0.8574(6) 0.2562(6) 0.3832(4)
C9G C 0.8003(6) 0.3759(5) 0.4562(3)
C10G C 0.7901(4) 0.3408(4) 0.4299(2)
C11G C 0.8261(3) 0.3131(5) 0.4195(3)
H4G H 0.854953 0.314429 0.430313
C12G C 0.8199(4) 0.2834(4) 0.3933(3)
C13G C 0.7777(5) 0.2815(4) 0.3775(3)
H5G H 0.773506 0.261195 0.359539
C14G C 0.7417(3) 0.3092(4) 0.3879(3)
C15G C 0.7479(4) 0.3388(4) 0.4141(3)
H6G H 0.723287 0.357732 0.421253
C16G C 0.6976(5) 0.3097(6) 0.3690(4)
O11G O 0.6630(3) 0.5520(3) 0.6658(2)
O12G O 0.7095(4) 0.5815(4) 0.7042(2)
O13G O 0.6294(4) 0.3878(3) 0.6650(2)
O14G O 0.6625(4) 0.3392(4) 0.7030(2)
O15G O 0.7402(5) 0.4467(6) 0.7803(3)
C17G C 0.6872(6) 0.5483(4) 0.6916(4)
C18G C 0.6878(4) 0.5022(3) 0.7086(3)
C19G C 0.7125(4) 0.4978(4) 0.7375(3)
H7G H 0.725810 0.524172 0.747340
C20G C 0.7176(4) 0.4550(5) 0.7519(2)
C21G C 0.6981(5) 0.4164(4) 0.7375(3)
H8G H 0.701622 0.387103 0.747393
C22G C 0.6735(4) 0.4207(3) 0.7086(2)
C23G C 0.6683(4) 0.4636(4) 0.69412(19)
H9G H 0.651489 0.466562 0.674366
C24G C 0.6559(6) 0.3796(5) 0.6903(4)
O18G O 0.6190(4) 0.5745(5) 0.60201(19)
O19G O 0.7631(4) 0.6705(4) 0.7209(2)
Cu1A Cu 0.55610(11) 0.76822(9) 0.500000
Cu2A Cu 0.57513(14) 0.85703(10) 0.500000
Cu3A Cu 0.39478(7) 0.66288(7) 0.36138(4)
Cu4A Cu 0.35894(9) 0.71652(8) 0.31604(5)
O1A O 0.5114(3) 0.7844(3) 0.4663(2)
O2A O 0.5294(4) 0.8620(3) 0.4675(3)
O3A O 0.4132(3) 0.7197(3) 0.38134(18)
O4A O 0.3816(4) 0.7659(3) 0.3428(2)
O5A O 0.4311(6) 0.9261(4) 0.3782(3)
C1A C 0.5096(5) 0.8283(6) 0.4548(3)
C2A C 0.4744(4) 0.8319(4) 0.4275(2)
C3A C 0.4630(4) 0.8760(3) 0.4171(3)
H1A H 0.475550 0.901937 0.428004
C4A C 0.4334(4) 0.8820(3) 0.3909(3)
C5A C 0.4151(4) 0.8440(4) 0.3750(2)
H2A H 0.394772 0.848106 0.357071
C6A C 0.4265(4) 0.8000(3) 0.3853(2)
C7A C 0.4562(4) 0.7939(3) 0.4116(3)
H3A H 0.463944 0.763863 0.418620
C8A C 0.4068(6) 0.7588(5) 0.3680(3)
O6A O 0.6040(3) 0.7636(3) 0.5342(2)
O7A O 0.6192(4) 0.8407(4) 0.5331(3)
O8A O 0.6674(4) 0.6652(4) 0.6182(2)
O9A O 0.7146(4) 0.6939(4) 0.6566(3)
O10A O 0.7438(6) 0.8574(6) 0.6168(4)
C9A C 0.6241(5) 0.8003(6) 0.5438(3)
C10A C 0.6592(4) 0.7901(4) 0.5701(2)
C11A C 0.6869(5) 0.8261(3) 0.5805(3)
H4A H 0.685571 0.854953 0.569687
C12A C 0.7166(4) 0.8199(4) 0.6067(3)
C13A C 0.7185(4) 0.7777(5) 0.6225(3)
H5A H 0.738805 0.773506 0.640461
C14A C 0.6908(4) 0.7417(3) 0.6121(3)
C15A C 0.6612(4) 0.7479(4) 0.5859(3)
H6A H 0.642268 0.723287 0.578747
C16A C 0.6903(6) 0.6976(5) 0.6310(4)
O11A O 0.4480(3) 0.6630(3) 0.3342(2)
O12A O 0.4185(4) 0.7095(4) 0.2958(2)
O13A O 0.6122(3) 0.6294(4) 0.3350(2)
O14A O 0.6608(4) 0.6625(4) 0.2970(2)
O15A O 0.5533(6) 0.7402(5) 0.2197(3)
C17A C 0.4517(4) 0.6872(6) 0.3084(4)
C18A C 0.4978(3) 0.6878(4) 0.2914(3)
C19A C 0.5022(4) 0.7125(4) 0.2625(3)
H7A H 0.475828 0.725810 0.252660
C20A C 0.5450(5) 0.7176(4) 0.2481(2)
C21A C 0.5836(4) 0.6981(5) 0.2625(3)
H8A H 0.612897 0.701622 0.252607
C22A C 0.5793(3) 0.6735(4) 0.2914(2)
C23A C 0.5364(4) 0.6683(4) 0.30588(19)
H9A H 0.533438 0.651489 0.325634
C24A C 0.6204(5) 0.6559(6) 0.3097(4)
O16A O 0.5409(6) 0.6980(5) 0.500000
O17A O 0.5914(8) 0.9294(5) 0.500000
O18A O 0.4255(5) 0.6190(4) 0.39799(19)
O19A O 0.3295(4) 0.7631(4) 0.2791(2)
Cu3D Cu 0.39478(7) 0.66288(7) 0.63862(4)
Cu4D Cu 0.35894(9) 0.71652(8) 0.68396(5)
O1D O 0.5114(3) 0.7844(3) 0.5337(2)
O2D O 0.5294(4) 0.8620(3) 0.5325(3)
O3D O 0.4132(3) 0.7197(3) 0.61866(18)
O4D O 0.3816(4) 0.7659(3) 0.6572(2)
O5D O 0.4311(6) 0.9261(4) 0.6218(3)
C1D C 0.5096(5) 0.8283(6) 0.5452(3)
C2D C 0.4744(4) 0.8319(4) 0.5725(2)
C3D C 0.4630(4) 0.8760(3) 0.5829(3)
H1D H 0.475550 0.901937 0.571996
C4D C 0.4334(4) 0.8820(3) 0.6091(3)
C5D C 0.4151(4) 0.8440(4) 0.6250(2)
H2D H 0.394772 0.848106 0.642929
C6D C 0.4265(4) 0.8000(3) 0.6147(2)
C7D C 0.4562(4) 0.7939(3) 0.5884(3)
H3D H 0.463944 0.763863 0.581380
C8D C 0.4068(6) 0.7588(5) 0.6320(3)
O6D O 0.6040(3) 0.7636(3) 0.4658(2)
O7D O 0.6192(4) 0.8407(4) 0.4669(3)
O8D O 0.6674(4) 0.6652(4) 0.3818(2)
O9D O 0.7146(4) 0.6939(4) 0.3434(3)
O10D O 0.7438(6) 0.8574(6) 0.3832(4)
C9D C 0.6241(5) 0.8003(6) 0.4562(3)
C10D C 0.6592(4) 0.7901(4) 0.4299(2)
C11D C 0.6869(5) 0.8261(3) 0.4195(3)
H4D H 0.685571 0.854953 0.430313
C12D C 0.7166(4) 0.8199(4) 0.3933(3)
C13D C 0.7185(4) 0.7777(5) 0.3775(3)
H5D H 0.738805 0.773506 0.359539
C14D C 0.6908(4) 0.7417(3) 0.3879(3)
C15D C 0.6612(4) 0.7479(4) 0.4141(3)
H6D H 0.642268 0.723287 0.421253
C16D C 0.6903(6) 0.6976(5) 0.3690(4)
O11D O 0.4480(3) 0.6630(3) 0.6658(2)
O12D O 0.4185(4) 0.7095(4) 0.7042(2)
O13D O 0.6122(3) 0.6294(4) 0.6650(2)
O14D O 0.6608(4) 0.6625(4) 0.7030(2)
O15D O 0.5533(6) 0.7402(5) 0.7803(3)
C17D C 0.4517(4) 0.6872(6) 0.6916(4)
C18D C 0.4978(3) 0.6878(4) 0.7086(3)
C19D C 0.5022(4) 0.7125(4) 0.7375(3)
H7D H 0.475828 0.725810 0.747340
C20D C 0.5450(5) 0.7176(4) 0.7519(2)
C21D C 0.5836(4) 0.6981(5) 0.7375(3)
H8D H 0.612897 0.701622 0.747393
C22D C 0.5793(3) 0.6735(4) 0.7086(2)
C23D C 0.5364(4) 0.6683(4) 0.69412(19)
H9D H 0.533438 0.651489 0.674366
C24D C 0.6204(5) 0.6559(6) 0.6903(4)
O18D O 0.4255(5) 0.6190(4) 0.60201(19)
O19D O 0.3295(4) 0.7631(4) 0.7209(2)
Cu5 Cu 0.15258(6) 0.12441(6) 0.13392(4)
Cu6 Cu 0.20094(6) 0.16357(6) 0.18068(4)
Cu7 Cu 0.27761(7) -0.03082(8) 0.000000
Cu8 Cu 0.36791(8) -0.03878(9) 0.000000
O20 O 0.2112(3) 0.1116(3) 0.11369(16)
O21 O 0.2526(3) 0.1448(3) 0.1537(2)
O22 O 0.2878(2) 0.0155(3) 0.03363(16)
O23 O 0.3675(3) 0.0090(3) 0.03402(19)
O24 O 0.4164(3) 0.1229(4) 0.1196(3)
C25 C 0.2488(4) 0.1211(4) 0.1273(3)
C26 C 0.2928(3) 0.1056(3) 0.1109(2)
C27 C 0.3350(3) 0.1208(3) 0.12262(19)
H10 H 0.336150 0.141884 0.140310
C28 C 0.3754(3) 0.1052(3) 0.1084(2)
C29 C 0.3737(3) 0.0744(3) 0.0825(2)
H11 H 0.401369 0.063715 0.072814
C30 C 0.3316(3) 0.0592(3) 0.07084(17)
C31 C 0.2911(2) 0.0748(3) 0.08505(19)
H12 H 0.262311 0.064352 0.077065
C32 C 0.3297(5) 0.0239(4) 0.0436(2)
O25 O 0.0996(3) 0.1421(3) 0.16116(17)
O26 O 0.1427(3) 0.1755(3) 0.20133(19)
O27 O -0.0682(3) 0.1587(3) 0.16031(18)
O28 O -0.1026(3) 0.2004(3) 0.20010(17)
O29 O 0.0225(4) 0.2351(5) 0.2777(3)
C33 C 0.1052(4) 0.1667(5) 0.1876(3)
C34 C 0.0602(3) 0.1783(3) 0.2041(2)
C35 C 0.0618(3) 0.2006(4) 0.2341(2)
H13 H 0.090449 0.204739 0.244863
C36 C 0.0217(4) 0.2169(4) 0.24833(19)
C37 C -0.0202(3) 0.2109(4) 0.2326(2)
H14 H -0.047613 0.222029 0.242303
C38 C -0.0219(3) 0.1886(4) 0.2026(2)
C39 C 0.0183(3) 0.1723(3) 0.18834(16)
H15 H 0.017147 0.157100 0.167845
C40 C -0.0685(4) 0.1830(5) 0.1864(3)
O30 O 0.1547(3) 0.1865(3) 0.11532(18)
O31 O 0.1959(3) 0.2199(3) 0.1552(2)
O32 O 0.0772(3) 0.2788(3) 0.03355(18)
O33 O 0.0855(3) 0.3560(3) 0.0342(2)
O34 O 0.2053(5) 0.3850(4) 0.1192(3)
C41 C 0.1725(4) 0.2209(4) 0.1298(3)
C42 C 0.1672(3) 0.2662(3) 0.1120(2)
C43 C 0.1912(3) 0.3047(4) 0.1226(2)
H16 H 0.212427 0.302123 0.140149
C44 C 0.1843(4) 0.3469(3) 0.1075(3)
C45 C 0.1533(4) 0.3506(3) 0.0818(3)
H17 H 0.148537 0.379468 0.071540
C46 C 0.1293(3) 0.3122(3) 0.0712(2)
C47 C 0.1362(3) 0.2700(3) 0.0863(2)
H18 H 0.119788 0.243695 0.079071
C48 C 0.0929(4) 0.3165(5) 0.0446(3)
O35 O 0.1078(3) 0.0980(4) 0.09578(18)
O36 O 0.2430(3) 0.1921(3) 0.2207(2)
O37 O 0.4431(3) -0.0530(5) 0.000000
Cu5B Cu -0.12441(6) 0.15258(6) 0.13392(4)
Cu6B Cu -0.16357(6) 0.20094(6) 0.18068(4)
Cu7B Cu 0.03082(8) 0.27761(7) 0.000000
Cu8B Cu 0.03878(9) 0.36791(8) 0.000000
O20B O -0.1116(3) 0.2112(3) 0.11369(16)
O21B O -0.1448(3) 0.2526(3) 0.1537(2)
O22B O -0.0155(3) 0.2878(2) 0.03363(16)
O23B O -0.0090(3) 0.3675(3) 0.03402(19)
O24B O -0.1229(4) 0.4164(3) 0.1196(3)
C25B C -0.1211(4) 0.2488(4) 0.1273(3)
C26B C -0.1056(3) 0.2928(3) 0.1109(2)
C27B C -0.1208(3) 0.3350(3) 0.12262(19)
H10B H -0.141884 0.336150 0.140310
C28B C -0.1052(3) 0.3754(3) 0.1084(2)
C29B C -0.0744(3) 0.3737(3) 0.0825(2)
H11B H -0.063715 0.401369 0.072814
C30B C -0.0592(3) 0.3316(3) 0.07084(17)
C31B C -0.0748(3) 0.2911(2) 0.08505(19)
H12B H -0.064352 0.262311 0.077065
C32B C -0.0239(4) 0.3297(5) 0.0436(2)
O25B O -0.1421(3) 0.0996(3) 0.16116(17)
O26B O -0.1755(3) 0.1427(3) 0.20133(19)
O27B O -0.1587(3) -0.0682(3) 0.16031(18)
O28B O -0.2004(3) -0.1026(3) 0.20010(17)
O29B O -0.2351(5) 0.0225(4) 0.2777(3)
C33B C -0.1667(5) 0.1052(4) 0.1876(3)
C34B C -0.1783(3) 0.0602(3) 0.2041(2)
C35B C -0.2006(4) 0.0618(3) 0.2341(2)
H13B H -0.204739 0.090449 0.244863
C36B C -0.2169(4) 0.0217(4) 0.24833(19)
C37B C -0.2109(4) -0.0202(3) 0.2326(2)
H14B H -0.222029 -0.047613 0.242303
C38B C -0.1886(4) -0.0219(3) 0.2026(2)
C39B C -0.1723(3) 0.0183(3) 0.18834(16)
H15B H -0.157100 0.017147 0.167845
C40B C -0.1830(5) -0.0685(4) 0.1864(3)
O30B O -0.1865(3) 0.1547(3) 0.11532(18)
O31B O -0.2199(3) 0.1959(3) 0.1552(2)
O32B O -0.2788(3) 0.0772(3) 0.03355(18)
O33B O -0.3560(3) 0.0855(3) 0.0342(2)
O34B O -0.3850(4) 0.2053(5) 0.1192(3)
C41B C -0.2209(4) 0.1725(4) 0.1298(3)
C42B C -0.2662(3) 0.1672(3) 0.1120(2)
C43B C -0.3047(4) 0.1912(3) 0.1226(2)
H16B H -0.302123 0.212427 0.140149
C44B C -0.3469(3) 0.1843(4) 0.1075(3)
C45B C -0.3506(3) 0.1533(4) 0.0818(3)
H17B H -0.379468 0.148537 0.071540
C46B C -0.3122(3) 0.1293(3) 0.0712(2)
C47B C -0.2700(3) 0.1362(3) 0.0863(2)
H18B H -0.243695 0.119788 0.079071
C48B C -0.3165(5) 0.0929(4) 0.0446(3)
O35B O -0.0980(4) 0.1078(3) 0.09578(18)
O36B O -0.1921(3) 0.2430(3) 0.2207(2)
O37B O 0.0530(5) 0.4431(3) 0.000000
Cu5C Cu 0.12441(6) -0.15258(6) 0.13392(4)
Cu6C Cu 0.16357(6) -0.20094(6) 0.18068(4)
Cu7C Cu -0.03082(8) -0.27761(7) 0.000000
Cu8C Cu -0.03878(9) -0.36791(8) 0.000000
O20C O 0.1116(3) -0.2112(3) 0.11369(16)
O21C O 0.1448(3) -0.2526(3) 0.1537(2)
O22C O 0.0155(3) -0.2878(2) 0.03363(16)
O23C O 0.0090(3) -0.3675(3) 0.03402(19)
O24C O 0.1229(4) -0.4164(3) 0.1196(3)
C25C C 0.1211(4) -0.2488(4) 0.1273(3)
C26C C 0.1056(3) -0.2928(3) 0.1109(2)
C27C C 0.1208(3) -0.3350(3) 0.12262(19)
H10C H 0.141884 -0.336150 0.140310
C28C C 0.1052(3) -0.3754(3) 0.1084(2)
C29C C 0.0744(3) -0.3737(3) 0.0825(2)
H11C H 0.063715 -0.401369 0.072814
C30C C 0.0592(3) -0.3316(3) 0.07084(17)
C31C C 0.0748(3) -0.2911(2) 0.08505(19)
H12C H 0.064352 -0.262311 0.077065
C32C C 0.0239(4) -0.3297(5) 0.0436(2)
O25C O 0.1421(3) -0.0996(3) 0.16116(17)
O26C O 0.1755(3) -0.1427(3) 0.20133(19)
O27C O 0.1587(3) 0.0682(3) 0.16031(18)
O28C O 0.2004(3) 0.1026(3) 0.20010(17)
O29C O 0.2351(5) -0.0225(4) 0.2777(3)
C33C C 0.1667(5) -0.1052(4) 0.1876(3)
C34C C 0.1783(3) -0.0602(3) 0.2041(2)
C35C C 0.2006(4) -0.0618(3) 0.2341(2)
H13C H 0.204739 -0.090449 0.244863
C36C C 0.2169(4) -0.0217(4) 0.24833(19)
C37C C 0.2109(4) 0.0202(3) 0.2326(2)
H14C H 0.222029 0.047613 0.242303
C38C C 0.1886(4) 0.0219(3) 0.2026(2)
C39C C 0.1723(3) -0.0183(3) 0.18834(16)
H15C H 0.157100 -0.017147 0.167845
C40C C 0.1830(5) 0.0685(4) 0.1864(3)
O30C O 0.1865(3) -0.1547(3) 0.11532(18)
O31C O 0.2199(3) -0.1959(3) 0.1552(2)
O32C O 0.2788(3) -0.0772(3) 0.03355(18)
O33C O 0.3560(3) -0.0855(3) 0.0342(2)
O34C O 0.3850(4) -0.2053(5) 0.1192(3)
C41C C 0.2209(4) -0.1725(4) 0.1298(3)
C42C C 0.2662(3) -0.1672(3) 0.1120(2)
C43C C 0.3047(4) -0.1912(3) 0.1226(2)
H16C H 0.302123 -0.212427 0.140149
C44C C 0.3469(3) -0.1843(4) 0.1075(3)
C45C C 0.3506(3) -0.1533(4) 0.0818(3)
H17C H 0.379468 -0.148537 0.071540
C46C C 0.3122(3) -0.1293(3) 0.0712(2)
C47C C 0.2700(3) -0.1362(3) 0.0863(2)
H18C H 0.243695 -0.119788 0.079071
C48C C 0.3165(5) -0.0929(4) 0.0446(3)
O35C O 0.0980(4) -0.1078(3) 0.09578(18)
O36C O 0.1921(3) -0.2430(3) 0.2207(2)
O37C O -0.0530(5) -0.4431(3) 0.000000
Cu5E Cu 0.15258(6) 0.12441(6) -0.13392(4)
Cu6E Cu 0.20094(6) 0.16357(6) -0.18068(4)
O20E O 0.2112(3) 0.1116(3) -0.11369(16)
O21E O 0.2526(3) 0.1448(3) -0.1537(2)
O22E O 0.2878(2) 0.0155(3) -0.03363(16)
O23E O 0.3675(3) 0.0090(3) -0.03402(19)
O24E O 0.4164(3) 0.1229(4) -0.1196(3)
C25E C 0.2488(4) 0.1211(4) -0.1273(3)
C26E C 0.2928(3) 0.1056(3) -0.1109(2)
C27E C 0.3350(3) 0.1208(3) -0.12262(19)
H10E H 0.336150 0.141884 -0.140310
C28E C 0.3754(3) 0.1052(3) -0.1084(2)
C29E C 0.3737(3) 0.0744(3) -0.0825(2)
H11E H 0.401369 0.063715 -0.072814
C30E C 0.3316(3) 0.0592(3) -0.07084(17)
C31E C 0.2911(2) 0.0748(3) -0.08505(19)
H12E H 0.262311 0.064352 -0.077065
C32E C 0.3297(5) 0.0239(4) -0.0436(2)
O25E O 0.0996(3) 0.1421(3) -0.16116(17)
O26E O 0.1427(3) 0.1755(3) -0.20133(19)
O27E O -0.0682(3) 0.1587(3) -0.16031(18)
O28E O -0.1026(3) 0.2004(3) -0.20010(17)
O29E O 0.0225(4) 0.2351(5) -0.2777(3)
C33E C 0.1052(4) 0.1667(5) -0.1876(3)
C34E C 0.0602(3) 0.1783(3) -0.2041(2)
C35E C 0.0618(3) 0.2006(4) -0.2341(2)
H13E H 0.090449 0.204739 -0.244863
C36E C 0.0217(4) 0.2169(4) -0.24833(19)
C37E C -0.0202(3) 0.2109(4) -0.2326(2)
H14E H -0.047613 0.222029 -0.242303
C38E C -0.0219(3) 0.1886(4) -0.2026(2)
C39E C 0.0183(3) 0.1723(3) -0.18834(16)
H15E H 0.017147 0.157100 -0.167845
C40E C -0.0685(4) 0.1830(5) -0.1864(3)
O30E O 0.1547(3) 0.1865(3) -0.11532(18)
O31E O 0.1959(3) 0.2199(3) -0.1552(2)
O32E O 0.0772(3) 0.2788(3) -0.03355(18)
O33E O 0.0855(3) 0.3560(3) -0.0342(2)
O34E O 0.2053(5) 0.3850(4) -0.1192(3)
C41E C 0.1725(4) 0.2209(4) -0.1298(3)
C42E C 0.1672(3) 0.2662(3) -0.1120(2)
C43E C 0.1912(3) 0.3047(4) -0.1226(2)
H16E H 0.212427 0.302123 -0.140149
C44E C 0.1843(4) 0.3469(3) -0.1075(3)
C45E C 0.1533(4) 0.3506(3) -0.0818(3)
H17E H 0.148537 0.379468 -0.071540
C46E C 0.1293(3) 0.3122(3) -0.0712(2)
C47E C 0.1362(3) 0.2700(3) -0.0863(2)
H18E H 0.119788 0.243695 -0.079071
C48E C 0.0929(4) 0.3165(5) -0.0446(3)
O35E O 0.1078(3) 0.0980(4) -0.09578(18)
O36E O 0.2430(3) 0.1921(3) -0.2207(2)
Cu5F Cu 0.12441(6) -0.15258(6) -0.13392(4)
Cu6F Cu 0.16357(6) -0.20094(6) -0.18068(4)
O20F O 0.1116(3) -0.2112(3) -0.11369(16)
O21F O 0.1448(3) -0.2526(3) -0.1537(2)
O22F O 0.0155(3) -0.2878(2) -0.03363(16)
O23F O 0.0090(3) -0.3675(3) -0.03402(19)
O24F O 0.1229(4) -0.4164(3) -0.1196(3)
C25F C 0.1211(4) -0.2488(4) -0.1273(3)
C26F C 0.1056(3) -0.2928(3) -0.1109(2)
C27F C 0.1208(3) -0.3350(3) -0.12262(19)
H10F H 0.141884 -0.336150 -0.140310
C28F C 0.1052(3) -0.3754(3) -0.1084(2)
C29F C 0.0744(3) -0.3737(3) -0.0825(2)
H11F H 0.063715 -0.401369 -0.072814
C30F C 0.0592(3) -0.3316(3) -0.07084(17)
C31F C 0.0748(3) -0.2911(2) -0.08505(19)
H12F H 0.064352 -0.262311 -0.077065
C32F C 0.0239(4) -0.3297(5) -0.0436(2)
O25F O 0.1421(3) -0.0996(3) -0.16116(17)
O26F O 0.1755(3) -0.1427(3) -0.20133(19)
O27F O 0.1587(3) 0.0682(3) -0.16031(18)
O28F O 0.2004(3) 0.1026(3) -0.20010(17)
O29F O 0.2351(5) -0.0225(4) -0.2777(3)
C33F C 0.1667(5) -0.1052(4) -0.1876(3)
C34F C 0.1783(3) -0.0602(3) -0.2041(2)
C35F C 0.2006(4) -0.0618(3) -0.2341(2)
H13F H 0.204739 -0.090449 -0.244863
C36F C 0.2169(4) -0.0217(4) -0.24833(19)
C37F C 0.2109(4) 0.0202(3) -0.2326(2)
H14F H 0.222029 0.047613 -0.242303
C38F C 0.1886(4) 0.0219(3) -0.2026(2)
C39F C 0.1723(3) -0.0183(3) -0.18834(16)
H15F H 0.157100 -0.017147 -0.167845
C40F C 0.1830(5) 0.0685(4) -0.1864(3)
O30F O 0.1865(3) -0.1547(3) -0.11532(18)
O31F O 0.2199(3) -0.1959(3) -0.1552(2)
O32F O 0.2788(3) -0.0772(3) -0.03355(18)
O33F O 0.3560(3) -0.0855(3) -0.0342(2)
O34F O 0.3850(4) -0.2053(5) -0.1192(3)
C41F C 0.2209(4) -0.1725(4) -0.1298(3)
C42F C 0.2662(3) -0.1672(3) -0.1120(2)
C43F C 0.3047(4) -0.1912(3) -0.1226(2)
H16F H 0.302123 -0.212427 -0.140149
C44F C 0.3469(3) -0.1843(4) -0.1075(3)
C45F C 0.3506(3) -0.1533(4) -0.0818(3)
H17F H 0.379468 -0.148537 -0.071540
C46F C 0.3122(3) -0.1293(3) -0.0712(2)
C47F C 0.2700(3) -0.1362(3) -0.0863(2)
H18F H 0.243695 -0.119788 -0.079071
C48F C 0.3165(5) -0.0929(4) -0.0446(3)
O35F O 0.0980(4) -0.1078(3) -0.09578(18)
O36F O 0.1921(3) -0.2430(3) -0.2207(2)
Cu5G Cu -0.12441(6) 0.15258(6) -0.13392(4)
Cu6G Cu -0.16357(6) 0.20094(6) -0.18068(4)
O20G O -0.1116(3) 0.2112(3) -0.11369(16)
O21G O -0.1448(3) 0.2526(3) -0.1537(2)
O22G O -0.0155(3) 0.2878(2) -0.03363(16)
O23G O -0.0090(3) 0.3675(3) -0.03402(19)
O24G O -0.1229(4) 0.4164(3) -0.1196(3)
C25G C -0.1211(4) 0.2488(4) -0.1273(3)
C26G C -0.1056(3) 0.2928(3) -0.1109(2)
C27G C -0.1208(3) 0.3350(3) -0.12262(19)
H10G H -0.141884 0.336150 -0.140310
C28G C -0.1052(3) 0.3754(3) -0.1084(2)
C29G C -0.0744(3) 0.3737(3) -0.0825(2)
H11G H -0.063715 0.401369 -0.072814
C30G C -0.0592(3) 0.3316(3) -0.07084(17)
C31G C -0.0748(3) 0.2911(2) -0.08505(19)
H12G H -0.064352 0.262311 -0.077065
C32G C -0.0239(4) 0.3297(5) -0.0436(2)
O25G O -0.1421(3) 0.0996(3) -0.16116(17)
O26G O -0.1755(3) 0.1427(3) -0.20133(19)
O27G O -0.1587(3) -0.0682(3) -0.16031(18)
O28G O -0.2004(3) -0.1026(3) -0.20010(17)
O29G O -0.2351(5) 0.0225(4) -0.2777(3)
C33G C -0.1667(5) 0.1052(4) -0.1876(3)
C34G C -0.1783(3) 0.0602(3) -0.2041(2)
C35G C -0.2006(4) 0.0618(3) -0.2341(2)
H13G H -0.204739 0.090449 -0.244863
C36G C -0.2169(4) 0.0217(4) -0.24833(19)
C37G C -0.2109(4) -0.0202(3) -0.2326(2)
H14G H -0.222029 -0.047613 -0.242303
C38G C -0.1886(4) -0.0219(3) -0.2026(2)
C39G C -0.1723(3) 0.0183(3) -0.18834(16)
H15G H -0.157100 0.017147 -0.167845
C40G C -0.1830(5) -0.0685(4) -0.1864(3)
O30G O -0.1865(3) 0.1547(3) -0.11532(18)
O31G O -0.2199(3) 0.1959(3) -0.1552(2)
O32G O -0.2788(3) 0.0772(3) -0.03355(18)
O33G O -0.3560(3) 0.0855(3) -0.0342(2)
O34G O -0.3850(4) 0.2053(5) -0.1192(3)
C41G C -0.2209(4) 0.1725(4) -0.1298(3)
C42G C -0.2662(3) 0.1672(3) -0.1120(2)
C43G C -0.3047(4) 0.1912(3) -0.1226(2)
H16G H -0.302123 0.212427 -0.140149
C44G C -0.3469(3) 0.1843(4) -0.1075(3)
C45G C -0.3506(3) 0.1533(4) -0.0818(3)
H17G H -0.379468 0.148537 -0.071540
C46G C -0.3122(3) 0.1293(3) -0.0712(2)
C47G C -0.2700(3) 0.1362(3) -0.0863(2)
H18G H -0.243695 0.119788 -0.079071
C48G C -0.3165(5) 0.0929(4) -0.0446(3)
O35G O -0.0980(4) 0.1078(3) -0.09578(18)
O36G O -0.1921(3) 0.2430(3) -0.2207(2)
Cu5A Cu -0.15258(6) -0.12441(6) 0.13392(4)
Cu6A Cu -0.20094(6) -0.16357(6) 0.18068(4)
Cu7A Cu -0.27761(7) 0.03082(8) 0.000000
Cu8A Cu -0.36791(8) 0.03878(9) 0.000000
O20A O -0.2112(3) -0.1116(3) 0.11369(16)
O21A O -0.2526(3) -0.1448(3) 0.1537(2)
O22A O -0.2878(2) -0.0155(3) 0.03363(16)
O23A O -0.3675(3) -0.0090(3) 0.03402(19)
O24A O -0.4164(3) -0.1229(4) 0.1196(3)
C25A C -0.2488(4) -0.1211(4) 0.1273(3)
C26A C -0.2928(3) -0.1056(3) 0.1109(2)
C27A C -0.3350(3) -0.1208(3) 0.12262(19)
H10A H -0.336150 -0.141884 0.140310
C28A C -0.3754(3) -0.1052(3) 0.1084(2)
C29A C -0.3737(3) -0.0744(3) 0.0825(2)
H11A H -0.401369 -0.063715 0.072814
C30A C -0.3316(3) -0.0592(3) 0.07084(17)
C31A C -0.2911(2) -0.0748(3) 0.08505(19)
H12A H -0.262311 -0.064352 0.077065
C32A C -0.3297(5) -0.0239(4) 0.0436(2)
O25A O -0.0996(3) -0.1421(3) 0.16116(17)
O26A O -0.1427(3) -0.1755(3) 0.20133(19)
O27A O 0.0682(3) -0.1587(3) 0.16031(18)
O28A O 0.1026(3) -0.2004(3) 0.20010(17)
O29A O -0.0225(4) -0.2351(5) 0.2777(3)
C33A C -0.1052(4) -0.1667(5) 0.1876(3)
C34A C -0.0602(3) -0.1783(3) 0.2041(2)
C35A C -0.0618(3) -0.2006(4) 0.2341(2)
H13A H -0.090449 -0.204739 0.244863
C36A C -0.0217(4) -0.2169(4) 0.24833(19)
C37A C 0.0202(3) -0.2109(4) 0.2326(2)
H14A H 0.047613 -0.222029 0.242303
C38A C 0.0219(3) -0.1886(4) 0.2026(2)
C39A C -0.0183(3) -0.1723(3) 0.18834(16)
H15A H -0.017147 -0.157100 0.167845
C40A C 0.0685(4) -0.1830(5) 0.1864(3)
O30A O -0.1547(3) -0.1865(3) 0.11532(18)
O31A O -0.1959(3) -0.2199(3) 0.1552(2)
O32A O -0.0772(3) -0.2788(3) 0.03355(18)
O33A O -0.0855(3) -0.3560(3) 0.0342(2)
O34A O -0.2053(5) -0.3850(4) 0.1192(3)
C41A C -0.1725(4) -0.2209(4) 0.1298(3)
C42A C -0.1672(3) -0.2662(3) 0.1120(2)
C43A C -0.1912(3) -0.3047(4) 0.1226(2)
H16A H -0.212427 -0.302123 0.140149
C44A C -0.1843(4) -0.3469(3) 0.1075(3)
C45A C -0.1533(4) -0.3506(3) 0.0818(3)
H17A H -0.148537 -0.379468 0.071540
C46A C -0.1293(3) -0.3122(3) 0.0712(2)
C47A C -0.1362(3) -0.2700(3) 0.0863(2)
H18A H -0.119788 -0.243695 0.079071
C48A C -0.0929(4) -0.3165(5) 0.0446(3)
O35A O -0.1078(3) -0.0980(4) 0.09578(18)
O36A O -0.2430(3) -0.1921(3) 0.2207(2)
O37A O -0.4431(3) 0.0530(5) 0.000000
Cu5D Cu -0.15258(6) -0.12441(6) -0.13392(4)
Cu6D Cu -0.20094(6) -0.16357(6) -0.18068(4)
O20D O -0.2112(3) -0.1116(3) -0.11369(16)
O21D O -0.2526(3) -0.1448(3) -0.1537(2)
O22D O -0.2878(2) -0.0155(3) -0.03363(16)
O23D O -0.3675(3) -0.0090(3) -0.03402(19)
O24D O -0.4164(3) -0.1229(4) -0.1196(3)
C25D C -0.2488(4) -0.1211(4) -0.1273(3)
C26D C -0.2928(3) -0.1056(3) -0.1109(2)
C27D C -0.3350(3) -0.1208(3) -0.12262(19)
H10D H -0.336150 -0.141884 -0.140310
C28D C -0.3754(3) -0.1052(3) -0.1084(2)
C29D C -0.3737(3) -0.0744(3) -0.0825(2)
H11D H -0.401369 -0.063715 -0.072814
C30D C -0.3316(3) -0.0592(3) -0.07084(17)
C31D C -0.2911(2) -0.0748(3) -0.08505(19)
H12D H -0.262311 -0.064352 -0.077065
C32D C -0.3297(5) -0.0239(4) -0.0436(2)
O25D O -0.0996(3) -0.1421(3) -0.16116(17)
O26D O -0.1427(3) -0.1755(3) -0.20133(19)
O27D O 0.0682(3) -0.1587(3) -0.16031(18)
O28D O 0.1026(3) -0.2004(3) -0.20010(17)
O29D O -0.0225(4) -0.2351(5) -0.2777(3)
C33D C -0.1052(4) -0.1667(5) -0.1876(3)
C34D C -0.0602(3) -0.1783(3) -0.2041(2)
C35D C -0.0618(3) -0.2006(4) -0.2341(2)
H13D H -0.090449 -0.204739 -0.244863
C36D C -0.0217(4) -0.2169(4) -0.24833(19)
C37D C 0.0202(3) -0.2109(4) -0.2326(2)
H14D H 0.047613 -0.222029 -0.242303
C38D C 0.0219(3) -0.1886(4) -0.2026(2)
C39D C -0.0183(3) -0.1723(3) -0.18834(16)
H15D H -0.017147 -0.157100 -0.167845
C40D C 0.0685(4) -0.1830(5) -0.1864(3)
O30D O -0.1547(3) -0.1865(3) -0.11532(18)
O31D O -0.1959(3) -0.2199(3) -0.1552(2)
O32D O -0.0772(3) -0.2788(3) -0.03355(18)
O33D O -0.0855(3) -0.3560(3) -0.0342(2)
O34D O -0.2053(5) -0.3850(4) -0.1192(3)
C41D C -0.1725(4) -0.2209(4) -0.1298(3)
C42D C -0.1672(3) -0.2662(3) -0.1120(2)
C43D C -0.1912(3) -0.3047(4) -0.1226(2)
H16D H -0.212427 -0.302123 -0.140149
C44D C -0.1843(4) -0.3469(3) -0.1075(3)
C45D C -0.1533(4) -0.3506(3) -0.0818(3)
H17D H -0.148537 -0.379468 -0.071540
C46D C -0.1293(3) -0.3122(3) -0.0712(2)
C47D C -0.1362(3) -0.2700(3) -0.0863(2)
H18D H -0.119788 -0.243695 -0.079071
C48D C -0.0929(4) -0.3165(5) -0.0446(3)
O35D O -0.1078(3) -0.0980(4) -0.09578(18)
O36D O -0.2430(3) -0.1921(3) -0.2207(2)
loop_
_geom_bond_atom_site_label_1
_geom_bond_atom_site_label_2
_geom_bond_site_symmetry_1
_geom_bond_site_symmetry_2
Cu1 O1 1_555 1_555
Cu2 O2 1_555 1_555
Cu3 O3 1_555 1_555
Cu4 O4 1_555 1_555
O1 C1 1_555 1_555
O2 C1 1_555 1_555
O3 C8 1_555 1_555
O4 C8 1_555 1_555
O5 C4 1_555 1_555
C1 C2 1_555 1_555
C2 C3 1_555 1_555
C3 H1 1_555 1_555
C4 C3 1_555 1_555
C5 C4 1_555 1_555
H2 C5 1_555 1_555
C6 C5 1_555 1_555
C7 C2 1_555 1_555
H3 C7 1_555 1_555
C8 C6 1_555 1_555
O6 Cu1 1_555 1_555
O7 Cu2 1_555 1_555
O8 C16 1_555 1_555
O9 C16 1_555 1_555
O10 C12 1_555 1_555
C9 O6 1_555 1_555
C10 C9 1_555 1_555
C11 C10 1_555 1_555
H4 C11 1_555 1_555
C12 C11 1_555 1_555
C13 C12 1_555 1_555
H5 C13 1_555 1_555
C14 C13 1_555 1_555
C15 C10 1_555 1_555
H6 C15 1_555 1_555
C16 C14 1_555 1_555
O11 Cu3 1_555 1_555
O12 Cu4 1_555 1_555
O13 C24 1_555 1_555
O14 C24 1_555 1_555
O15 C20 1_555 1_555
C17 O11 1_555 1_555
C18 C17 1_555 1_555
C19 C18 1_555 1_555
H7 C19 1_555 1_555
C20 C19 1_555 1_555
C21 C20 1_555 1_555
H8 C21 1_555 1_555
C22 C21 1_555 1_555
C23 C18 1_555 1_555
H9 C23 1_555 1_555
C24 C22 1_555 1_555
O16 Cu1 1_555 1_555
O17 Cu2 1_555 1_555
O18 Cu3 1_555 1_555
O19 Cu4 1_555 1_555
Cu5 O20 1_555 1_555
Cu6 O21 1_555 1_555
Cu7 O22 1_555 1_555
Cu8 O23 1_555 1_555
O20 C25 1_555 1_555
O21 C25 1_555 1_555
O22 C32 1_555 1_555
O23 C32 1_555 1_555
O24 C28 1_555 1_555
C25 C26 1_555 1_555
C26 C27 1_555 1_555
C27 H10 1_555 1_555
C28 C27 1_555 1_555
C29 C28 1_555 1_555
H11 C29 1_555 1_555
C30 C29 1_555 1_555
C31 C26 1_555 1_555
H12 C31 1_555 1_555
C32 C30 1_555 1_555
O25 Cu5 1_555 1_555
O26 Cu6 1_555 1_555
O27 C40 1_555 1_555
O28 C40 1_555 1_555
O29 C36 1_555 1_555
C33 O25 1_555 1_555
C34 C33 1_555 1_555
C35 C34 1_555 1_555
H13 C35 1_555 1_555
C36 C35 1_555 1_555
C37 C36 1_555 1_555
H14 C37 1_555 1_555
C38 C37 1_555 1_555
C39 C34 1_555 1_555
H15 C39 1_555 1_555
C40 C38 1_555 1_555
O30 Cu5 1_555 1_555
O31 Cu6 1_555 1_555
O32 C48 1_555 1_555
O33 C48 1_555 1_555
O34 C44 1_555 1_555
C41 O30 1_555 1_555
C42 C41 1_555 1_555
C43 C42 1_555 1_555
H16 C43 1_555 1_555
C44 C43 1_555 1_555
C45 C44 1_555 1_555
H17 C45 1_555 1_555
C46 C45 1_555 1_555
C47 C42 1_555 1_555
H18 C47 1_555 1_555
C48 C46 1_555 1_555
O35 Cu5 1_555 1_555
O36 Cu6 1_555 1_555
O37 Cu8 1_555 1_555
Cu1B O1B 1_555 1_555
Cu2B O2B 1_555 1_555
Cu3B O3B 1_555 1_555
Cu4B O4B 1_555 1_555
O1B C1B 1_555 1_555
O2B C1B 1_555 1_555
O3B C8B 1_555 1_555
O4B C8B 1_555 1_555
O5B C4B 1_555 1_555
C1B C2B 1_555 1_555
C2B C3B 1_555 1_555
C3B H1B 1_555 1_555
C4B C3B 1_555 1_555
C5B C4B 1_555 1_555
H2B C5B 1_555 1_555
C6B C5B 1_555 1_555
C7B C2B 1_555 1_555
H3B C7B 1_555 1_555
C8B C6B 1_555 1_555
O6B Cu1B 1_555 1_555
O7B Cu2B 1_555 1_555
O8B C16B 1_555 1_555
O9B C16B 1_555 1_555
O10B C12B 1_555 1_555
C9B O6B 1_555 1_555
C10B C9B 1_555 1_555
C11B C10B 1_555 1_555
H4B C11B 1_555 1_555
C12B C11B 1_555 1_555
C13B C12B 1_555 1_555
H5B C13B 1_555 1_555
C14B C13B 1_555 1_555
C15B C10B 1_555 1_555
H6B C15B 1_555 1_555
C16B C14B 1_555 1_555
O11B Cu3B 1_555 1_555
O12B Cu4B 1_555 1_555
O13B Cu3 1_555 1_555
O14B Cu4 1_555 1_555
O15B C20B 1_555 1_555
C17B O11B 1_555 1_555
C18B C17B 1_555 1_555
C19B C18B 1_555 1_555
H7B C19B 1_555 1_555
C20B C19B 1_555 1_555
C21B C20B 1_555 1_555
H8B C21B 1_555 1_555
C22B C21B 1_555 1_555
C23B C18B 1_555 1_555
H9B C23B 1_555 1_555
C24B O13B 1_555 1_555
O16B Cu1B 1_555 1_555
O17B Cu2B 1_555 1_555
O18B Cu3B 1_555 1_555
O19B Cu4B 1_555 1_555
Cu1C O1C 1_555 1_555
Cu2C O2C 1_555 1_555
Cu3C O13 1_555 1_555
Cu4C O14 1_555 1_555
O1C C1C 1_555 1_555
O2C C1C 1_555 1_555
O3C Cu3C 1_555 1_555
O4C Cu4C 1_555 1_555
O5C C4C 1_555 1_555
C1C C2C 1_555 1_555
C2C C3C 1_555 1_555
C3C H1C 1_555 1_555
C4C C3C 1_555 1_555
C5C C4C 1_555 1_555
H2C C5C 1_555 1_555
C6C C5C 1_555 1_555
C7C C2C 1_555 1_555
H3C C7C 1_555 1_555
C8C O3C 1_555 1_555
O6C Cu1C 1_555 1_555
O7C Cu2C 1_555 1_555
O8C C16C 1_555 1_555
O9C C16C 1_555 1_555
O10C C12C 1_555 1_555
C9C O6C 1_555 1_555
C10C C9C 1_555 1_555
C11C C10C 1_555 1_555
H4C C11C 1_555 1_555
C12C C11C 1_555 1_555
C13C C12C 1_555 1_555
H5C C13C 1_555 1_555
C14C C13C 1_555 1_555
C15C C10C 1_555 1_555
H6C C15C 1_555 1_555
C16C C14C 1_555 1_555
O11C Cu3C 1_555 1_555
O12C Cu4C 1_555 1_555
O13C C24C 1_555 1_555
O14C C24C 1_555 1_555
O15C C20C 1_555 1_555
C17C O11C 1_555 1_555
C18C C17C 1_555 1_555
C19C C18C 1_555 1_555
H7C C19C 1_555 1_555
C20C C19C 1_555 1_555
C21C C20C 1_555 1_555
H8C C21C 1_555 1_555
C22C C21C 1_555 1_555
C23C C18C 1_555 1_555
H9C C23C 1_555 1_555
C24C C22C 1_555 1_555
O16C Cu1C 1_555 1_555
O17C Cu2C 1_555 1_555
O18C Cu3C 1_555 1_555
O19C Cu4C 1_555 1_555
Cu3E O8B 1_555 1_555
Cu4E O9B 1_555 1_555
O1E Cu1 1_555 1_555
O2E Cu2 1_555 1_555
O3E Cu3E 1_555 1_555
O4E Cu4E 1_555 1_555
O5E C4E 1_555 1_555
C1E O1E 1_555 1_555
C2E C1E 1_555 1_555
C3E C2E 1_555 1_555
H1E C3E 1_555 1_555
C4E C3E 1_555 1_555
C5E C4E 1_555 1_555
H2E C5E 1_555 1_555
C6E C5E 1_555 1_555
C7E C2E 1_555 1_555
H3E C7E 1_555 1_555
C8E O3E 1_555 1_555
O6E Cu1 1_555 1_555
O7E Cu2 1_555 1_555
O8E Cu3C 1_555 1_555
O9E Cu4C 1_555 1_555
O10E C12E 1_555 1_555
C9E O6E 1_555 1_555
C10E C9E 1_555 1_555
C11E C10E 1_555 1_555
H4E C11E 1_555 1_555
C12E C11E 1_555 1_555
C13E C12E 1_555 1_555
H5E C13E 1_555 1_555
C14E C13E 1_555 1_555
C15E C10E 1_555 1_555
H6E C15E 1_555 1_555
C16E O8E 1_555 1_555
O11E Cu3E 1_555 1_555
O12E Cu4E 1_555 1_555
O13E C24E 1_555 1_555
O14E C24E 1_555 1_555
O15E C20E 1_555 1_555
C17E O11E 1_555 1_555
C18E C17E 1_555 1_555
C19E C18E 1_555 1_555
H7E C19E 1_555 1_555
C20E C19E 1_555 1_555
C21E C20E 1_555 1_555
H8E C21E 1_555 1_555
C22E C21E 1_555 1_555
C23E C18E 1_555 1_555
H9E C23E 1_555 1_555
C24E C22E 1_555 1_555
O18E Cu3E 1_555 1_555
O19E Cu4E 1_555 1_555
Cu3F O8 1_555 1_555
Cu4F O9 1_555 1_555
O1F Cu1C 1_555 1_555
O2F Cu2C 1_555 1_555
O3F Cu3F 1_555 1_555
O4F Cu4F 1_555 1_555
O5F C4F 1_555 1_555
C1F O1F 1_555 1_555
C2F C1F 1_555 1_555
C3F C2F 1_555 1_555
H1F C3F 1_555 1_555
C4F C3F 1_555 1_555
C5F C4F 1_555 1_555
H2F C5F 1_555 1_555
C6F C5F 1_555 1_555
C7F C2F 1_555 1_555
H3F C7F 1_555 1_555
C8F O3F 1_555 1_555
O6F Cu1C 1_555 1_555
O7F Cu2C 1_555 1_555
O8F C16F 1_555 1_555
O9F C16F 1_555 1_555
O10F C12F 1_555 1_555
C9F O6F 1_555 1_555
C10F C9F 1_555 1_555
C11F C10F 1_555 1_555
H4F C11F 1_555 1_555
C12F C11F 1_555 1_555
C13F C12F 1_555 1_555
H5F C13F 1_555 1_555
C14F C13F 1_555 1_555
C15F C10F 1_555 1_555
H6F C15F 1_555 1_555
C16F C14F 1_555 1_555
O11F Cu3F 1_555 1_555
O12F Cu4F 1_555 1_555
O13F C24F 1_555 1_555
O14F C24F 1_555 1_555
O15F C20F 1_555 1_555
C17F O11F 1_555 1_555
C18F C17F 1_555 1_555
C19F C18F 1_555 1_555
H7F C19F 1_555 1_555
C20F C19F 1_555 1_555
C21F C20F 1_555 1_555
H8F C21F 1_555 1_555
C22F C21F 1_555 1_555
C23F C18F 1_555 1_555
H9F C23F 1_555 1_555
C24F C22F 1_555 1_555
O18F Cu3F 1_555 1_555
O19F Cu4F 1_555 1_555
Cu3G O3G 1_555 1_555
Cu4G O4G 1_555 1_555
O1G Cu1B 1_555 1_555
O2G Cu2B 1_555 1_555
O3G C8G 1_555 1_555
O4G C8G 1_555 1_555
O5G C4G 1_555 1_555
C1G O1G 1_555 1_555
C2G C1G 1_555 1_555
C3G C2G 1_555 1_555
H1G C3G 1_555 1_555
C4G C3G 1_555 1_555
C5G C4G 1_555 1_555
H2G C5G 1_555 1_555
C6G C5G 1_555 1_555
C7G C2G 1_555 1_555
H3G C7G 1_555 1_555
C8G C6G 1_555 1_555
O6G Cu1B 1_555 1_555
O7G Cu2B 1_555 1_555
O8G Cu3 1_555 1_555
O9G Cu4 1_555 1_555
O10G C12G 1_555 1_555
C9G O6G 1_555 1_555
C10G C9G 1_555 1_555
C11G C10G 1_555 1_555
H4G C11G 1_555 1_555
C12G C11G 1_555 1_555
C13G C12G 1_555 1_555
H5G C13G 1_555 1_555
C14G C13G 1_555 1_555
C15G C10G 1_555 1_555
H6G C15G 1_555 1_555
C16G O8G 1_555 1_555
O11G Cu3G 1_555 1_555
O12G Cu4G 1_555 1_555
O13G Cu3E 1_555 1_555
O14G Cu4E 1_555 1_555
O15G C20G 1_555 1_555
C17G O11G 1_555 1_555
C18G C17G 1_555 1_555
C19G C18G 1_555 1_555
H7G C19G 1_555 1_555
C20G C19G 1_555 1_555
C21G C20G 1_555 1_555
H8G C21G 1_555 1_555
C22G C21G 1_555 1_555
C23G C18G 1_555 1_555
H9G C23G 1_555 1_555
C24G O13G 1_555 1_555
O18G Cu3G 1_555 1_555
O19G Cu4G 1_555 1_555
Cu1A O1A 1_555 1_555
Cu2A O2A 1_555 1_555
Cu3A O13C 1_555 1_555
Cu4A O14C 1_555 1_555
O1A C1A 1_555 1_555
O2A C1A 1_555 1_555
O3A Cu3A 1_555 1_555
O4A Cu4A 1_555 1_555
O5A C4A 1_555 1_555
C1A C2A 1_555 1_555
C2A C3A 1_555 1_555
C3A H1A 1_555 1_555
C4A C3A 1_555 1_555
C5A C4A 1_555 1_555
H2A C5A 1_555 1_555
C6A C5A 1_555 1_555
C7A C2A 1_555 1_555
H3A C7A 1_555 1_555
C8A O3A 1_555 1_555
O6A Cu1A 1_555 1_555
O7A Cu2A 1_555 1_555
O8A Cu3G 1_555 1_555
O9A Cu4G 1_555 1_555
O10A C12A 1_555 1_555
C9A O6A 1_555 1_555
C10A C9A 1_555 1_555
C11A C10A 1_555 1_555
H4A C11A 1_555 1_555
C12A C11A 1_555 1_555
C13A C12A 1_555 1_555
H5A C13A 1_555 1_555
C14A C13A 1_555 1_555
C15A C10A 1_555 1_555
H6A C15A 1_555 1_555
C16A O8A 1_555 1_555
O11A Cu3A 1_555 1_555
O12A Cu4A 1_555 1_555
O13A Cu3B 1_555 1_555
O14A Cu4B 1_555 1_555
O15A C20A 1_555 1_555
C17A O11A 1_555 1_555
C18A C17A 1_555 1_555
C19A C18A 1_555 1_555
H7A C19A 1_555 1_555
C20A C19A 1_555 1_555
C21A C20A 1_555 1_555
H8A C21A 1_555 1_555
C22A C21A 1_555 1_555
C23A C18A 1_555 1_555
H9A C23A 1_555 1_555
C24A O13A 1_555 1_555
O16A Cu1A 1_555 1_555
O17A Cu2A 1_555 1_555
O18A Cu3A 1_555 1_555
O19A Cu4A 1_555 1_555
Cu3D O8C 1_555 1_555
Cu4D O9C 1_555 1_555
O1D Cu1A 1_555 1_555
O2D Cu2A 1_555 1_555
O3D Cu3D 1_555 1_555
O4D Cu4D 1_555 1_555
O5D C4D 1_555 1_555
C1D O1D 1_555 1_555
C2D C1D 1_555 1_555
C3D C2D 1_555 1_555
H1D C3D 1_555 1_555
C4D C3D 1_555 1_555
C5D C4D 1_555 1_555
H2D C5D 1_555 1_555
C6D C5D 1_555 1_555
C7D C2D 1_555 1_555
H3D C7D 1_555 1_555
C8D O3D 1_555 1_555
O6D Cu1A 1_555 1_555
O7D Cu2A 1_555 1_555
O8D Cu3B 1_555 1_555
O9D Cu4B 1_555 1_555
O10D C12D 1_555 1_555
C9D O6D 1_555 1_555
C10D C9D 1_555 1_555
C11D C10D 1_555 1_555
H4D C11D 1_555 1_555
C12D C11D 1_555 1_555
C13D C12D 1_555 1_555
H5D C13D 1_555 1_555
C14D C13D 1_555 1_555
C15D C10D 1_555 1_555
H6D C15D 1_555 1_555
C16D O8D 1_555 1_555
O11D Cu3D 1_555 1_555
O12D Cu4D 1_555 1_555
O13D Cu3G 1_555 1_555
O14D Cu4G 1_555 1_555
O15D C20D 1_555 1_555
C17D O11D 1_555 1_555
C18D C17D 1_555 1_555
C19D C18D 1_555 1_555
H7D C19D 1_555 1_555
C20D C19D 1_555 1_555
C21D C20D 1_555 1_555
H8D C21D 1_555 1_555
C22D C21D 1_555 1_555
C23D C18D 1_555 1_555
H9D C23D 1_555 1_555
C24D O13D 1_555 1_555
O18D Cu3D 1_555 1_555
O19D Cu4D 1_555 1_555
Cu5B O27 1_555 1_555
Cu6B O28 1_555 1_555
Cu7B O32 1_555 1_555
Cu8B O33 1_555 1_555
O20B Cu5B 1_555 1_555
O21B Cu6B 1_555 1_555
O22B Cu7B 1_555 1_555
O23B Cu8B 1_555 1_555
O24B C28B 1_555 1_555
C25B O20B 1_555 1_555
C26B C25B 1_555 1_555
C27B C26B 1_555 1_555
H10B C27B 1_555 1_555
C28B C27B 1_555 1_555
C29B C28B 1_555 1_555
H11B C29B 1_555 1_555
C30B C29B 1_555 1_555
C31B C26B 1_555 1_555
H12B C31B 1_555 1_555
C32B O22B 1_555 1_555
O25B Cu5B 1_555 1_555
O26B Cu6B 1_555 1_555
O27B C40B 1_555 1_555
O28B C40B 1_555 1_555
O29B C36B 1_555 1_555
C33B O25B 1_555 1_555
C34B C33B 1_555 1_555
C35B C34B 1_555 1_555
H13B C35B 1_555 1_555
C36B C35B 1_555 1_555
C37B C36B 1_555 1_555
H14B C37B 1_555 1_555
C38B C37B 1_555 1_555
C39B C34B 1_555 1_555
H15B C39B 1_555 1_555
C40B C38B 1_555 1_555
O30B Cu5B 1_555 1_555
O31B Cu6B 1_555 1_555
O32B C48B 1_555 1_555
O33B C48B 1_555 1_555
O34B C44B 1_555 1_555
C41B O30B 1_555 1_555
C42B C41B 1_555 1_555
C43B C42B 1_555 1_555
H16B C43B 1_555 1_555
C44B C43B 1_555 1_555
C45B C44B 1_555 1_555
H17B C45B 1_555 1_555
C46B C45B 1_555 1_555
C47B C42B 1_555 1_555
H18B C47B 1_555 1_555
C48B C46B 1_555 1_555
O35B Cu5B 1_555 1_555
O36B Cu6B 1_555 1_555
O37B Cu8B 1_555 1_555
Cu5C O20C 1_555 1_555
Cu6C O21C 1_555 1_555
Cu7C O22C 1_555 1_555
Cu8C O23C 1_555 1_555
O20C C25C 1_555 1_555
O21C C25C 1_555 1_555
O22C C32C 1_555 1_555
O23C C32C 1_555 1_555
O24C C28C 1_555 1_555
C25C C26C 1_555 1_555
C26C C27C 1_555 1_555
C27C H10C 1_555 1_555
C28C C27C 1_555 1_555
C29C C28C 1_555 1_555
H11C C29C 1_555 1_555
C30C C29C 1_555 1_555
C31C C26C 1_555 1_555
H12C C31C 1_555 1_555
C32C C30C 1_555 1_555
O25C Cu5C 1_555 1_555
O26C Cu6C 1_555 1_555
O27C Cu5 1_555 1_555
O28C Cu6 1_555 1_555
O29C C36C 1_555 1_555
C33C O25C 1_555 1_555
C34C C33C 1_555 1_555
C35C C34C 1_555 1_555
H13C C35C 1_555 1_555
C36C C35C 1_555 1_555
C37C C36C 1_555 1_555
H14C C37C 1_555 1_555
C38C C37C 1_555 1_555
C39C C34C 1_555 1_555
H15C C39C 1_555 1_555
C40C O27C 1_555 1_555
O30C Cu5C 1_555 1_555
O31C Cu6C 1_555 1_555
O32C Cu7 1_555 1_555
O33C Cu8 1_555 1_555
O34C C44C 1_555 1_555
C41C O30C 1_555 1_555
C42C C41C 1_555 1_555
C43C C42C 1_555 1_555
H16C C43C 1_555 1_555
C44C C43C 1_555 1_555
C45C C44C 1_555 1_555
H17C C45C 1_555 1_555
C46C C45C 1_555 1_555
C47C C42C 1_555 1_555
H18C C47C 1_555 1_555
C48C O32C 1_555 1_555
O35C Cu5C 1_555 1_555
O36C Cu6C 1_555 1_555
O37C Cu8C 1_555 1_555
Cu5E O20E 1_555 1_555
Cu6E O21E 1_555 1_555
O20E C25E 1_555 1_555
O21E C25E 1_555 1_555
O22E Cu7 1_555 1_555
O23E Cu8 1_555 1_555
O24E C28E 1_555 1_555
C25E C26E 1_555 1_555
C26E C27E 1_555 1_555
C27E H10E 1_555 1_555
C28E C27E 1_555 1_555
C29E C28E 1_555 1_555
H11E C29E 1_555 1_555
C30E C29E 1_555 1_555
C31E C26E 1_555 1_555
H12E C31E 1_555 1_555
C32E O22E 1_555 1_555
O25E Cu5E 1_555 1_555
O26E Cu6E 1_555 1_555
O27E C40E 1_555 1_555
O28E C40E 1_555 1_555
O29E C36E 1_555 1_555
C33E O25E 1_555 1_555
C34E C33E 1_555 1_555
C35E C34E 1_555 1_555
H13E C35E 1_555 1_555
C36E C35E 1_555 1_555
C37E C36E 1_555 1_555
H14E C37E 1_555 1_555
C38E C37E 1_555 1_555
C39E C34E 1_555 1_555
H15E C39E 1_555 1_555
C40E C38E 1_555 1_555
O30E Cu5E 1_555 1_555
O31E Cu6E 1_555 1_555
O32E Cu7B 1_555 1_555
O33E Cu8B 1_555 1_555
O34E C44E 1_555 1_555
C41E O30E 1_555 1_555
C42E C41E 1_555 1_555
C43E C42E 1_555 1_555
H16E C43E 1_555 1_555
C44E C43E 1_555 1_555
C45E C44E 1_555 1_555
H17E C45E 1_555 1_555
C46E C45E 1_555 1_555
C47E C42E 1_555 1_555
H18E C47E 1_555 1_555
C48E O32E 1_555 1_555
O35E Cu5E 1_555 1_555
O36E Cu6E 1_555 1_555
Cu5F O20F 1_555 1_555
Cu6F O21F 1_555 1_555
O20F C25F 1_555 1_555
O21F C25F 1_555 1_555
O22F Cu7C 1_555 1_555
O23F Cu8C 1_555 1_555
O24F C28F 1_555 1_555
C25F C26F 1_555 1_555
C26F C27F 1_555 1_555
C27F H10F 1_555 1_555
C28F C27F 1_555 1_555
C29F C28F 1_555 1_555
H11F C29F 1_555 1_555
C30F C29F 1_555 1_555
C31F C26F 1_555 1_555
H12F C31F 1_555 1_555
C32F O22F 1_555 1_555
O25F Cu5F 1_555 1_555
O26F Cu6F 1_555 1_555
O27F Cu5E 1_555 1_555
O28F Cu6E 1_555 1_555
O29F C36F 1_555 1_555
C33F O25F 1_555 1_555
C34F C33F 1_555 1_555
C35F C34F 1_555 1_555
H13F C35F 1_555 1_555
C36F C35F 1_555 1_555
C37F C36F 1_555 1_555
H14F C37F 1_555 1_555
C38F C37F 1_555 1_555
C39F C34F 1_555 1_555
H15F C39F 1_555 1_555
C40F O27F 1_555 1_555
O30F Cu5F 1_555 1_555
O31F Cu6F 1_555 1_555
O32F Cu7 1_555 1_555
O33F Cu8 1_555 1_555
O34F C44F 1_555 1_555
C41F O30F 1_555 1_555
C42F C41F 1_555 1_555
C43F C42F 1_555 1_555
H16F C43F 1_555 1_555
C44F C43F 1_555 1_555
C45F C44F 1_555 1_555
H17F C45F 1_555 1_555
C46F C45F 1_555 1_555
C47F C42F 1_555 1_555
H18F C47F 1_555 1_555
C48F O32F 1_555 1_555
O35F Cu5F 1_555 1_555
O36F Cu6F 1_555 1_555
Cu5G O27E 1_555 1_555
Cu6G O28E 1_555 1_555
O20G Cu5G 1_555 1_555
O21G Cu6G 1_555 1_555
O22G Cu7B 1_555 1_555
O23G Cu8B 1_555 1_555
O24G C28G 1_555 1_555
C25G O20G 1_555 1_555
C26G C25G 1_555 1_555
C27G C26G 1_555 1_555
H10G C27G 1_555 1_555
C28G C27G 1_555 1_555
C29G C28G 1_555 1_555
H11G C29G 1_555 1_555
C30G C29G 1_555 1_555
C31G C26G 1_555 1_555
H12G C31G 1_555 1_555
C32G O22G 1_555 1_555
O25G Cu5G 1_555 1_555
O26G Cu6G 1_555 1_555
O27G C40G 1_555 1_555
O28G C40G 1_555 1_555
O29G C36G 1_555 1_555
C33G O25G 1_555 1_555
C34G C33G 1_555 1_555
C35G C34G 1_555 1_555
H13G C35G 1_555 1_555
C36G C35G 1_555 1_555
C37G C36G 1_555 1_555
H14G C37G 1_555 1_555
C38G C37G 1_555 1_555
C39G C34G 1_555 1_555
H15G C39G 1_555 1_555
C40G C38G 1_555 1_555
O30G Cu5G 1_555 1_555
O31G Cu6G 1_555 1_555
O32G C48G 1_555 1_555
O33G C48G 1_555 1_555
O34G C44G 1_555 1_555
C41G O30G 1_555 1_555
C42G C41G 1_555 1_555
C43G C42G 1_555 1_555
H16G C43G 1_555 1_555
C44G C43G 1_555 1_555
C45G C44G 1_555 1_555
H17G C45G 1_555 1_555
C46G C45G 1_555 1_555
C47G C42G 1_555 1_555
H18G C47G 1_555 1_555
C48G C46G 1_555 1_555
O35G Cu5G 1_555 1_555
O36G Cu6G 1_555 1_555
Cu5A O27B 1_555 1_555
Cu6A O28B 1_555 1_555
Cu7A O32B 1_555 1_555
Cu8A O33B 1_555 1_555
O20A Cu5A 1_555 1_555
O21A Cu6A 1_555 1_555
O22A Cu7A 1_555 1_555
O23A Cu8A 1_555 1_555
O24A C28A 1_555 1_555
C25A O20A 1_555 1_555
C26A C25A 1_555 1_555
C27A C26A 1_555 1_555
H10A C27A 1_555 1_555
C28A C27A 1_555 1_555
C29A C28A 1_555 1_555
H11A C29A 1_555 1_555
C30A C29A 1_555 1_555
C31A C26A 1_555 1_555
H12A C31A 1_555 1_555
C32A O22A 1_555 1_555
O25A Cu5A 1_555 1_555
O26A Cu6A 1_555 1_555
O27A Cu5C 1_555 1_555
O28A Cu6C 1_555 1_555
O29A C36A 1_555 1_555
C33A O25A 1_555 1_555
C34A C33A 1_555 1_555
C35A C34A 1_555 1_555
H13A C35A 1_555 1_555
C36A C35A 1_555 1_555
C37A C36A 1_555 1_555
H14A C37A 1_555 1_555
C38A C37A 1_555 1_555
C39A C34A 1_555 1_555
H15A C39A 1_555 1_555
C40A O27A 1_555 1_555
O30A Cu5A 1_555 1_555
O31A Cu6A 1_555 1_555
O32A Cu7C 1_555 1_555
O33A Cu8C 1_555 1_555
O34A C44A 1_555 1_555
C41A O30A 1_555 1_555
C42A C41A 1_555 1_555
C43A C42A 1_555 1_555
H16A C43A 1_555 1_555
C44A C43A 1_555 1_555
C45A C44A 1_555 1_555
H17A C45A 1_555 1_555
C46A C45A 1_555 1_555
C47A C42A 1_555 1_555
H18A C47A 1_555 1_555
C48A O32A 1_555 1_555
O35A Cu5A 1_555 1_555
O36A Cu6A 1_555 1_555
O37A Cu8A 1_555 1_555
Cu5D O27G 1_555 1_555
Cu6D O28G 1_555 1_555
O20D Cu5D 1_555 1_555
O21D Cu6D 1_555 1_555
O22D Cu7A 1_555 1_555
O23D Cu8A 1_555 1_555
O24D C28D 1_555 1_555
C25D O20D 1_555 1_555
C26D C25D 1_555 1_555
C27D C26D 1_555 1_555
H10D C27D 1_555 1_555
C28D C27D 1_555 1_555
C29D C28D 1_555 1_555
H11D C29D 1_555 1_555
C30D C29D 1_555 1_555
C31D C26D 1_555 1_555
H12D C31D 1_555 1_555
C32D O22D 1_555 1_555
O25D Cu5D 1_555 1_555
O26D Cu6D 1_555 1_555
O27D Cu5F 1_555 1_555
O28D Cu6F 1_555 1_555
O29D C36D 1_555 1_555
C33D O25D 1_555 1_555
C34D C33D 1_555 1_555
C35D C34D 1_555 1_555
H13D C35D 1_555 1_555
C36D C35D 1_555 1_555
C37D C36D 1_555 1_555
H14D C37D 1_555 1_555
C38D C37D 1_555 1_555
C39D C34D 1_555 1_555
H15D C39D 1_555 1_555
C40D O27D 1_555 1_555
O30D Cu5D 1_555 1_555
O31D Cu6D 1_555 1_555
O32D Cu7C 1_555 1_555
O33D Cu8C 1_555 1_555
O34D C44D 1_555 1_555
C41D O30D 1_555 1_555
C42D C41D 1_555 1_555
C43D C42D 1_555 1_555
H16D C43D 1_555 1_555
C44D C43D 1_555 1_555
C45D C44D 1_555 1_555
H17D C45D 1_555 1_555
C46D C45D 1_555 1_555
C47D C42D 1_555 1_555
H18D C47D 1_555 1_555
C48D O32D 1_555 1_555
O35D Cu5D 1_555 1_555
O36D Cu6D 1_555 1_555
C6 C7 1_555 1_555
O7 C9 1_555 1_555
C14 C15 1_555 1_555
O12 C17 1_555 1_555
C22 C23 1_555 1_555
C30 C31 1_555 1_555
O26 C33 1_555 1_555
C38 C39 1_555 1_555
O31 C41 1_555 1_555
C46 C47 1_555 1_555
C6B C7B 1_555 1_555
O7B C9B 1_555 1_555
C14B C15B 1_555 1_555
O12B C17B 1_555 1_555
O14B C24B 1_555 1_555
C22B C23B 1_555 1_555
C22B C24B 1_555 1_555
O4C C8C 1_555 1_555
C6C C7C 1_555 1_555
C6C C8C 1_555 1_555
O7C C9C 1_555 1_555
C14C C15C 1_555 1_555
O12C C17C 1_555 1_555
C22C C23C 1_555 1_555
O2E C1E 1_555 1_555
O4E C8E 1_555 1_555
C6E C7E 1_555 1_555
C6E C8E 1_555 1_555
O7E C9E 1_555 1_555
O9E C16E 1_555 1_555
C14E C15E 1_555 1_555
C14E C16E 1_555 1_555
O12E C17E 1_555 1_555
O13E Cu3F 1_555 1_555
O14E Cu4F 1_555 1_555
C22E C23E 1_555 1_555
O2F C1F 1_555 1_555
O4F C8F 1_555 1_555
C6F C7F 1_555 1_555
C6F C8F 1_555 1_555
O7F C9F 1_555 1_555
O8F Cu3A 1_555 1_555
O9F Cu4A 1_555 1_555
C14F C15F 1_555 1_555
O12F C17F 1_555 1_555
O13F Cu3D 1_555 1_555
O14F Cu4D 1_555 1_555
C22F C23F 1_555 1_555
O2G C1G 1_555 1_555
C6G C7G 1_555 1_555
O7G C9G 1_555 1_555
O9G C16G 1_555 1_555
C14G C15G 1_555 1_555
C14G C16G 1_555 1_555
O12G C17G 1_555 1_555
O14G C24G 1_555 1_555
C22G C23G 1_555 1_555
C22G C24G 1_555 1_555
O4A C8A 1_555 1_555
C6A C7A 1_555 1_555
C6A C8A 1_555 1_555
O7A C9A 1_555 1_555
O9A C16A 1_555 1_555
C14A C15A 1_555 1_555
C14A C16A 1_555 1_555
O12A C17A 1_555 1_555
O14A C24A 1_555 1_555
C22A C23A 1_555 1_555
C22A C24A 1_555 1_555
O2D C1D 1_555 1_555
O4D C8D 1_555 1_555
C6D C7D 1_555 1_555
C6D C8D 1_555 1_555
O7D C9D 1_555 1_555
O9D C16D 1_555 1_555
C14D C15D 1_555 1_555
C14D C16D 1_555 1_555
O12D C17D 1_555 1_555
O14D C24D 1_555 1_555
C22D C23D 1_555 1_555
C22D C24D 1_555 1_555
O21B C25B 1_555 1_555
O23B C32B 1_555 1_555
C30B C31B 1_555 1_555
C30B C32B 1_555 1_555
O26B C33B 1_555 1_555
C38B C39B 1_555 1_555
O31B C41B 1_555 1_555
C46B C47B 1_555 1_555
C30C C31C 1_555 1_555
O26C C33C 1_555 1_555
O28C C40C 1_555 1_555
C38C C39C 1_555 1_555
C38C C40C 1_555 1_555
O31C C41C 1_555 1_555
O33C C48C 1_555 1_555
C46C C47C 1_555 1_555
C46C C48C 1_555 1_555
O23E C32E 1_555 1_555
C30E C31E 1_555 1_555
C30E C32E 1_555 1_555
O26E C33E 1_555 1_555
C38E C39E 1_555 1_555
O31E C41E 1_555 1_555
O33E C48E 1_555 1_555
C46E C47E 1_555 1_555
C46E C48E 1_555 1_555
O23F C32F 1_555 1_555
C30F C31F 1_555 1_555
C30F C32F 1_555 1_555
O26F C33F 1_555 1_555
O28F C40F 1_555 1_555
C38F C39F 1_555 1_555
C38F C40F 1_555 1_555
O31F C41F 1_555 1_555
O33F C48F 1_555 1_555
C46F C47F 1_555 1_555
C46F C48F 1_555 1_555
O21G C25G 1_555 1_555
O23G C32G 1_555 1_555
C30G C31G 1_555 1_555
C30G C32G 1_555 1_555
O26G C33G 1_555 1_555
C38G C39G 1_555 1_555
O31G C41G 1_555 1_555
O32G Cu7A 1_555 1_555
O33G Cu8A 1_555 1_555
C46G C47G 1_555 1_555
O21A C25A 1_555 1_555
O23A C32A 1_555 1_555
C30A C31A 1_555 1_555
C30A C32A 1_555 1_555
O26A C33A 1_555 1_555
O28A C40A 1_555 1_555
C38A C39A 1_555 1_555
C38A C40A 1_555 1_555
O31A C41A 1_555 1_555
O33A C48A 1_555 1_555
C46A C47A 1_555 1_555
C46A C48A 1_555 1_555
O21D C25D 1_555 1_555
O23D C32D 1_555 1_555
C30D C31D 1_555 1_555
C30D C32D 1_555 1_555
O26D C33D 1_555 1_555
O28D C40D 1_555 1_555
C38D C39D 1_555 1_555
C38D C40D 1_555 1_555
O31D C41D 1_555 1_555
O33D C48D 1_555 1_555
C46D C47D 1_555 1_555
C46D C48D 1_555 1_555

#END
