# generated using pymatgen
data_Cu12H36C96O71
_symmetry_space_group_name_H-M   'P 1'
_cell_length_a   29.11900000
_cell_length_b   29.11900000
_cell_length_c   40.94900000
_cell_angle_alpha   90.00000000
_cell_angle_beta   90.00000000
_cell_angle_gamma   90.00000000
_symmetry_Int_Tables_number   1
_chemical_formula_structural   Cu12H36C96O71
_chemical_formula_sum   'Cu48 H144 C384 O284'
_cell_volume   34721.31887679
_cell_formula_units_Z   4
loop_
 _symmetry_equiv_pos_site_id
 _symmetry_equiv_pos_as_xyz
  1  'x, y, z'
loop_
 _atom_site_type_symbol
 _atom_site_label
 _atom_site_symmetry_multiplicity
 _atom_site_fract_x
 _atom_site_fract_y
 _atom_site_fract_z
 _atom_site_occupancy
  Cu  Cu1  1  0.443900  0.231780  0.500000  1.0
  Cu  Cu2  1  0.556100  0.768220  0.500000  1.0
  Cu  Cu3  1  0.768220  0.443900  0.500000  1.0
  Cu  Cu4  1  0.231780  0.556100  0.500000  1.0
  Cu  Cu5  1  0.424870  0.142970  0.500000  1.0
  Cu  Cu6  1  0.575130  0.857030  0.500000  1.0
  Cu  Cu7  1  0.857030  0.424870  0.500000  1.0
  Cu  Cu8  1  0.142970  0.575130  0.500000  1.0
  Cu  Cu9  1  0.277610  0.969180  0.000000  1.0
  Cu  Cu10  1  0.722390  0.030820  0.000000  1.0
  Cu  Cu11  1  0.030820  0.277610  0.000000  1.0
  Cu  Cu12  1  0.969180  0.722390  0.000000  1.0
  Cu  Cu13  1  0.367910  0.961220  0.000000  1.0
  Cu  Cu14  1  0.632090  0.038780  0.000000  1.0
  Cu  Cu15  1  0.038780  0.367910  0.000000  1.0
  Cu  Cu16  1  0.961220  0.632090  0.000000  1.0
  Cu  Cu17  1  0.605220  0.337120  0.361380  1.0
  Cu  Cu18  1  0.394780  0.662880  0.361380  1.0
  Cu  Cu19  1  0.662880  0.605220  0.361380  1.0
  Cu  Cu20  1  0.337120  0.394780  0.361380  1.0
  Cu  Cu21  1  0.394780  0.662880  0.638620  1.0
  Cu  Cu22  1  0.605220  0.337120  0.638620  1.0
  Cu  Cu23  1  0.337120  0.394780  0.638620  1.0
  Cu  Cu24  1  0.662880  0.605220  0.638620  1.0
  Cu  Cu25  1  0.641060  0.283480  0.316040  1.0
  Cu  Cu26  1  0.358940  0.716520  0.316040  1.0
  Cu  Cu27  1  0.716520  0.641060  0.316040  1.0
  Cu  Cu28  1  0.283480  0.358940  0.316040  1.0
  Cu  Cu29  1  0.358940  0.716520  0.683960  1.0
  Cu  Cu30  1  0.641060  0.283480  0.683960  1.0
  Cu  Cu31  1  0.283480  0.358940  0.683960  1.0
  Cu  Cu32  1  0.716520  0.641060  0.683960  1.0
  Cu  Cu33  1  0.152580  0.124410  0.133920  1.0
  Cu  Cu34  1  0.847420  0.875590  0.133920  1.0
  Cu  Cu35  1  0.875590  0.152580  0.133920  1.0
  Cu  Cu36  1  0.124410  0.847420  0.133920  1.0
  Cu  Cu37  1  0.847420  0.875590  0.866080  1.0
  Cu  Cu38  1  0.152580  0.124410  0.866080  1.0
  Cu  Cu39  1  0.124410  0.847420  0.866080  1.0
  Cu  Cu40  1  0.875590  0.152580  0.866080  1.0
  Cu  Cu41  1  0.200940  0.163570  0.180680  1.0
  Cu  Cu42  1  0.799060  0.836430  0.180680  1.0
  Cu  Cu43  1  0.836430  0.200940  0.180680  1.0
  Cu  Cu44  1  0.163570  0.799060  0.180680  1.0
  Cu  Cu45  1  0.799060  0.836430  0.819320  1.0
  Cu  Cu46  1  0.200940  0.163570  0.819320  1.0
  Cu  Cu47  1  0.163570  0.799060  0.819320  1.0
  Cu  Cu48  1  0.836430  0.200940  0.819320  1.0
  H  H49  1  0.524450  0.098063  0.428004  1.0
  H  H50  1  0.475550  0.901937  0.428004  1.0
  H  H51  1  0.901937  0.524450  0.428004  1.0
  H  H52  1  0.098063  0.475550  0.428004  1.0
  H  H53  1  0.475550  0.901937  0.571996  1.0
  H  H54  1  0.524450  0.098063  0.571996  1.0
  H  H55  1  0.098063  0.475550  0.571996  1.0
  H  H56  1  0.901937  0.524450  0.571996  1.0
  H  H57  1  0.605228  0.151894  0.357071  1.0
  H  H58  1  0.394772  0.848106  0.357071  1.0
  H  H59  1  0.848106  0.605228  0.357071  1.0
  H  H60  1  0.151894  0.394772  0.357071  1.0
  H  H61  1  0.394772  0.848106  0.642929  1.0
  H  H62  1  0.605228  0.151894  0.642929  1.0
  H  H63  1  0.151894  0.394772  0.642929  1.0
  H  H64  1  0.848106  0.605228  0.642929  1.0
  H  H65  1  0.536056  0.236137  0.418620  1.0
  H  H66  1  0.463944  0.763863  0.418620  1.0
  H  H67  1  0.763863  0.536056  0.418620  1.0
  H  H68  1  0.236137  0.463944  0.418620  1.0
  H  H69  1  0.463944  0.763863  0.581380  1.0
  H  H70  1  0.536056  0.236137  0.581380  1.0
  H  H71  1  0.236137  0.463944  0.581380  1.0
  H  H72  1  0.763863  0.536056  0.581380  1.0
  H  H73  1  0.314429  0.145047  0.569687  1.0
  H  H74  1  0.685571  0.854953  0.569687  1.0
  H  H75  1  0.854953  0.314429  0.569687  1.0
  H  H76  1  0.145047  0.685571  0.569687  1.0
  H  H77  1  0.685571  0.854953  0.430313  1.0
  H  H78  1  0.314429  0.145047  0.430313  1.0
  H  H79  1  0.145047  0.685571  0.430313  1.0
  H  H80  1  0.854953  0.314429  0.430313  1.0
  H  H81  1  0.261195  0.226494  0.640461  1.0
  H  H82  1  0.738805  0.773506  0.640461  1.0
  H  H83  1  0.773506  0.261195  0.640461  1.0
  H  H84  1  0.226494  0.738805  0.640461  1.0
  H  H85  1  0.738805  0.773506  0.359539  1.0
  H  H86  1  0.261195  0.226494  0.359539  1.0
  H  H87  1  0.226494  0.738805  0.359539  1.0
  H  H88  1  0.773506  0.261195  0.359539  1.0
  H  H89  1  0.357732  0.276713  0.578747  1.0
  H  H90  1  0.642268  0.723287  0.578747  1.0
  H  H91  1  0.723287  0.357732  0.578747  1.0
  H  H92  1  0.276713  0.642268  0.578747  1.0
  H  H93  1  0.642268  0.723287  0.421253  1.0
  H  H94  1  0.357732  0.276713  0.421253  1.0
  H  H95  1  0.276713  0.642268  0.421253  1.0
  H  H96  1  0.723287  0.357732  0.421253  1.0
  H  H97  1  0.524172  0.274190  0.252660  1.0
  H  H98  1  0.475828  0.725810  0.252660  1.0
  H  H99  1  0.725810  0.524172  0.252660  1.0
  H  H100  1  0.274190  0.475828  0.252660  1.0
  H  H101  1  0.475828  0.725810  0.747340  1.0
  H  H102  1  0.524172  0.274190  0.747340  1.0
  H  H103  1  0.274190  0.475828  0.747340  1.0
  H  H104  1  0.725810  0.524172  0.747340  1.0
  H  H105  1  0.387103  0.298378  0.252607  1.0
  H  H106  1  0.612897  0.701622  0.252607  1.0
  H  H107  1  0.701622  0.387103  0.252607  1.0
  H  H108  1  0.298378  0.612897  0.252607  1.0
  H  H109  1  0.612897  0.701622  0.747393  1.0
  H  H110  1  0.387103  0.298378  0.747393  1.0
  H  H111  1  0.298378  0.612897  0.747393  1.0
  H  H112  1  0.701622  0.387103  0.747393  1.0
  H  H113  1  0.466562  0.348511  0.325634  1.0
  H  H114  1  0.533438  0.651489  0.325634  1.0
  H  H115  1  0.651489  0.466562  0.325634  1.0
  H  H116  1  0.348511  0.533438  0.325634  1.0
  H  H117  1  0.533438  0.651489  0.674366  1.0
  H  H118  1  0.466562  0.348511  0.674366  1.0
  H  H119  1  0.348511  0.533438  0.674366  1.0
  H  H120  1  0.651489  0.466562  0.674366  1.0
  H  H121  1  0.336150  0.141884  0.140310  1.0
  H  H122  1  0.663850  0.858116  0.140310  1.0
  H  H123  1  0.858116  0.336150  0.140310  1.0
  H  H124  1  0.141884  0.663850  0.140310  1.0
  H  H125  1  0.663850  0.858116  0.859690  1.0
  H  H126  1  0.336150  0.141884  0.859690  1.0
  H  H127  1  0.141884  0.663850  0.859690  1.0
  H  H128  1  0.858116  0.336150  0.859690  1.0
  H  H129  1  0.401369  0.063715  0.072814  1.0
  H  H130  1  0.598631  0.936285  0.072814  1.0
  H  H131  1  0.936285  0.401369  0.072814  1.0
  H  H132  1  0.063715  0.598631  0.072814  1.0
  H  H133  1  0.598631  0.936285  0.927186  1.0
  H  H134  1  0.401369  0.063715  0.927186  1.0
  H  H135  1  0.063715  0.598631  0.927186  1.0
  H  H136  1  0.936285  0.401369  0.927186  1.0
  H  H137  1  0.262311  0.064352  0.077065  1.0
  H  H138  1  0.737689  0.935648  0.077065  1.0
  H  H139  1  0.935648  0.262311  0.077065  1.0
  H  H140  1  0.064352  0.737689  0.077065  1.0
  H  H141  1  0.737689  0.935648  0.922935  1.0
  H  H142  1  0.262311  0.064352  0.922935  1.0
  H  H143  1  0.064352  0.737689  0.922935  1.0
  H  H144  1  0.935648  0.262311  0.922935  1.0
  H  H145  1  0.090449  0.204739  0.244863  1.0
  H  H146  1  0.909551  0.795261  0.244863  1.0
  H  H147  1  0.795261  0.090449  0.244863  1.0
  H  H148  1  0.204739  0.909551  0.244863  1.0
  H  H149  1  0.909551  0.795261  0.755137  1.0
  H  H150  1  0.090449  0.204739  0.755137  1.0
  H  H151  1  0.204739  0.909551  0.755137  1.0
  H  H152  1  0.795261  0.090449  0.755137  1.0
  H  H153  1  0.952387  0.222029  0.242303  1.0
  H  H154  1  0.047613  0.777971  0.242303  1.0
  H  H155  1  0.777971  0.952387  0.242303  1.0
  H  H156  1  0.222029  0.047613  0.242303  1.0
  H  H157  1  0.047613  0.777971  0.757697  1.0
  H  H158  1  0.952387  0.222029  0.757697  1.0
  H  H159  1  0.222029  0.047613  0.757697  1.0
  H  H160  1  0.777971  0.952387  0.757697  1.0
  H  H161  1  0.017147  0.157100  0.167845  1.0
  H  H162  1  0.982853  0.842900  0.167845  1.0
  H  H163  1  0.842900  0.017147  0.167845  1.0
  H  H164  1  0.157100  0.982853  0.167845  1.0
  H  H165  1  0.982853  0.842900  0.832155  1.0
  H  H166  1  0.017147  0.157100  0.832155  1.0
  H  H167  1  0.157100  0.982853  0.832155  1.0
  H  H168  1  0.842900  0.017147  0.832155  1.0
  H  H169  1  0.212427  0.302123  0.140149  1.0
  H  H170  1  0.787573  0.697877  0.140149  1.0
  H  H171  1  0.697877  0.212427  0.140149  1.0
  H  H172  1  0.302123  0.787573  0.140149  1.0
  H  H173  1  0.787573  0.697877  0.859851  1.0
  H  H174  1  0.212427  0.302123  0.859851  1.0
  H  H175  1  0.302123  0.787573  0.859851  1.0
  H  H176  1  0.697877  0.212427  0.859851  1.0
  H  H177  1  0.148537  0.379468  0.071540  1.0
  H  H178  1  0.851463  0.620532  0.071540  1.0
  H  H179  1  0.620532  0.148537  0.071540  1.0
  H  H180  1  0.379468  0.851463  0.071540  1.0
  H  H181  1  0.851463  0.620532  0.928460  1.0
  H  H182  1  0.148537  0.379468  0.928460  1.0
  H  H183  1  0.379468  0.851463  0.928460  1.0
  H  H184  1  0.620532  0.148537  0.928460  1.0
  H  H185  1  0.119788  0.243695  0.079071  1.0
  H  H186  1  0.880212  0.756305  0.079071  1.0
  H  H187  1  0.756305  0.119788  0.079071  1.0
  H  H188  1  0.243695  0.880212  0.079071  1.0
  H  H189  1  0.880212  0.756305  0.920929  1.0
  H  H190  1  0.119788  0.243695  0.920929  1.0
  H  H191  1  0.243695  0.880212  0.920929  1.0
  H  H192  1  0.756305  0.119788  0.920929  1.0
  C  C193  1  0.490400  0.171700  0.454800  1.0
  C  C194  1  0.509600  0.828300  0.454800  1.0
  C  C195  1  0.828300  0.490400  0.454800  1.0
  C  C196  1  0.171700  0.509600  0.454800  1.0
  C  C197  1  0.509600  0.828300  0.545200  1.0
  C  C198  1  0.490400  0.171700  0.545200  1.0
  C  C199  1  0.171700  0.509600  0.545200  1.0
  C  C200  1  0.828300  0.490400  0.545200  1.0
  C  C201  1  0.525600  0.168100  0.427500  1.0
  C  C202  1  0.474400  0.831900  0.427500  1.0
  C  C203  1  0.831900  0.525600  0.427500  1.0
  C  C204  1  0.168100  0.474400  0.427500  1.0
  C  C205  1  0.474400  0.831900  0.572500  1.0
  C  C206  1  0.525600  0.168100  0.572500  1.0
  C  C207  1  0.168100  0.474400  0.572500  1.0
  C  C208  1  0.831900  0.525600  0.572500  1.0
  C  C209  1  0.537000  0.124000  0.417100  1.0
  C  C210  1  0.463000  0.876000  0.417100  1.0
  C  C211  1  0.876000  0.537000  0.417100  1.0
  C  C212  1  0.124000  0.463000  0.417100  1.0
  C  C213  1  0.463000  0.876000  0.582900  1.0
  C  C214  1  0.537000  0.124000  0.582900  1.0
  C  C215  1  0.124000  0.463000  0.582900  1.0
  C  C216  1  0.876000  0.537000  0.582900  1.0
  C  C217  1  0.566600  0.118000  0.390900  1.0
  C  C218  1  0.433400  0.882000  0.390900  1.0
  C  C219  1  0.882000  0.566600  0.390900  1.0
  C  C220  1  0.118000  0.433400  0.390900  1.0
  C  C221  1  0.433400  0.882000  0.609100  1.0
  C  C222  1  0.566600  0.118000  0.609100  1.0
  C  C223  1  0.118000  0.433400  0.609100  1.0
  C  C224  1  0.882000  0.566600  0.609100  1.0
  C  C225  1  0.584900  0.156000  0.375000  1.0
  C  C226  1  0.415100  0.844000  0.375000  1.0
  C  C227  1  0.844000  0.584900  0.375000  1.0
  C  C228  1  0.156000  0.415100  0.375000  1.0
  C  C229  1  0.415100  0.844000  0.625000  1.0
  C  C230  1  0.584900  0.156000  0.625000  1.0
  C  C231  1  0.156000  0.415100  0.625000  1.0
  C  C232  1  0.844000  0.584900  0.625000  1.0
  C  C233  1  0.573500  0.200000  0.385300  1.0
  C  C234  1  0.426500  0.800000  0.385300  1.0
  C  C235  1  0.800000  0.573500  0.385300  1.0
  C  C236  1  0.200000  0.426500  0.385300  1.0
  C  C237  1  0.426500  0.800000  0.614700  1.0
  C  C238  1  0.573500  0.200000  0.614700  1.0
  C  C239  1  0.200000  0.426500  0.614700  1.0
  C  C240  1  0.800000  0.573500  0.614700  1.0
  C  C241  1  0.543800  0.206100  0.411600  1.0
  C  C242  1  0.456200  0.793900  0.411600  1.0
  C  C243  1  0.793900  0.543800  0.411600  1.0
  C  C244  1  0.206100  0.456200  0.411600  1.0
  C  C245  1  0.456200  0.793900  0.588400  1.0
  C  C246  1  0.543800  0.206100  0.588400  1.0
  C  C247  1  0.206100  0.456200  0.588400  1.0
  C  C248  1  0.793900  0.543800  0.588400  1.0
  C  C249  1  0.593200  0.241200  0.368000  1.0
  C  C250  1  0.406800  0.758800  0.368000  1.0
  C  C251  1  0.758800  0.593200  0.368000  1.0
  C  C252  1  0.241200  0.406800  0.368000  1.0
  C  C253  1  0.406800  0.758800  0.632000  1.0
  C  C254  1  0.593200  0.241200  0.632000  1.0
  C  C255  1  0.241200  0.406800  0.632000  1.0
  C  C256  1  0.758800  0.593200  0.632000  1.0
  C  C257  1  0.375900  0.199700  0.543800  1.0
  C  C258  1  0.624100  0.800300  0.543800  1.0
  C  C259  1  0.800300  0.375900  0.543800  1.0
  C  C260  1  0.199700  0.624100  0.543800  1.0
  C  C261  1  0.624100  0.800300  0.456200  1.0
  C  C262  1  0.375900  0.199700  0.456200  1.0
  C  C263  1  0.199700  0.624100  0.456200  1.0
  C  C264  1  0.800300  0.375900  0.456200  1.0
  C  C265  1  0.340800  0.209900  0.570100  1.0
  C  C266  1  0.659200  0.790100  0.570100  1.0
  C  C267  1  0.790100  0.340800  0.570100  1.0
  C  C268  1  0.209900  0.659200  0.570100  1.0
  C  C269  1  0.659200  0.790100  0.429900  1.0
  C  C270  1  0.340800  0.209900  0.429900  1.0
  C  C271  1  0.209900  0.659200  0.429900  1.0
  C  C272  1  0.790100  0.340800  0.429900  1.0
  C  C273  1  0.313100  0.173900  0.580500  1.0
  C  C274  1  0.686900  0.826100  0.580500  1.0
  C  C275  1  0.826100  0.313100  0.580500  1.0
  C  C276  1  0.173900  0.686900  0.580500  1.0
  C  C277  1  0.686900  0.826100  0.419500  1.0
  C  C278  1  0.313100  0.173900  0.419500  1.0
  C  C279  1  0.173900  0.686900  0.419500  1.0
  C  C280  1  0.826100  0.313100  0.419500  1.0
  C  C281  1  0.283400  0.180100  0.606700  1.0
  C  C282  1  0.716600  0.819900  0.606700  1.0
  C  C283  1  0.819900  0.283400  0.606700  1.0
  C  C284  1  0.180100  0.716600  0.606700  1.0
  C  C285  1  0.716600  0.819900  0.393300  1.0
  C  C286  1  0.283400  0.180100  0.393300  1.0
  C  C287  1  0.180100  0.716600  0.393300  1.0
  C  C288  1  0.819900  0.283400  0.393300  1.0
  C  C289  1  0.281500  0.222300  0.622500  1.0
  C  C290  1  0.718500  0.777700  0.622500  1.0
  C  C291  1  0.777700  0.281500  0.622500  1.0
  C  C292  1  0.222300  0.718500  0.622500  1.0
  C  C293  1  0.718500  0.777700  0.377500  1.0
  C  C294  1  0.281500  0.222300  0.377500  1.0
  C  C295  1  0.222300  0.718500  0.377500  1.0
  C  C296  1  0.777700  0.281500  0.377500  1.0
  C  C297  1  0.309200  0.258300  0.612100  1.0
  C  C298  1  0.690800  0.741700  0.612100  1.0
  C  C299  1  0.741700  0.309200  0.612100  1.0
  C  C300  1  0.258300  0.690800  0.612100  1.0
  C  C301  1  0.690800  0.741700  0.387900  1.0
  C  C302  1  0.309200  0.258300  0.387900  1.0
  C  C303  1  0.258300  0.690800  0.387900  1.0
  C  C304  1  0.741700  0.309200  0.387900  1.0
  C  C305  1  0.338800  0.252100  0.585900  1.0
  C  C306  1  0.661200  0.747900  0.585900  1.0
  C  C307  1  0.747900  0.338800  0.585900  1.0
  C  C308  1  0.252100  0.661200  0.585900  1.0
  C  C309  1  0.661200  0.747900  0.414100  1.0
  C  C310  1  0.338800  0.252100  0.414100  1.0
  C  C311  1  0.252100  0.661200  0.414100  1.0
  C  C312  1  0.747900  0.338800  0.414100  1.0
  C  C313  1  0.309700  0.302400  0.631000  1.0
  C  C314  1  0.690300  0.697600  0.631000  1.0
  C  C315  1  0.697600  0.309700  0.631000  1.0
  C  C316  1  0.302400  0.690300  0.631000  1.0
  C  C317  1  0.690300  0.697600  0.369000  1.0
  C  C318  1  0.309700  0.302400  0.369000  1.0
  C  C319  1  0.302400  0.690300  0.369000  1.0
  C  C320  1  0.697600  0.309700  0.369000  1.0
  C  C321  1  0.548300  0.312800  0.308400  1.0
  C  C322  1  0.451700  0.687200  0.308400  1.0
  C  C323  1  0.687200  0.548300  0.308400  1.0
  C  C324  1  0.312800  0.451700  0.308400  1.0
  C  C325  1  0.451700  0.687200  0.691600  1.0
  C  C326  1  0.548300  0.312800  0.691600  1.0
  C  C327  1  0.312800  0.451700  0.691600  1.0
  C  C328  1  0.687200  0.548300  0.691600  1.0
  C  C329  1  0.502200  0.312200  0.291400  1.0
  C  C330  1  0.497800  0.687800  0.291400  1.0
  C  C331  1  0.687800  0.502200  0.291400  1.0
  C  C332  1  0.312200  0.497800  0.291400  1.0
  C  C333  1  0.497800  0.687800  0.708600  1.0
  C  C334  1  0.502200  0.312200  0.708600  1.0
  C  C335  1  0.312200  0.497800  0.708600  1.0
  C  C336  1  0.687800  0.502200  0.708600  1.0
  C  C337  1  0.497800  0.287500  0.262500  1.0
  C  C338  1  0.502200  0.712500  0.262500  1.0
  C  C339  1  0.712500  0.497800  0.262500  1.0
  C  C340  1  0.287500  0.502200  0.262500  1.0
  C  C341  1  0.502200  0.712500  0.737500  1.0
  C  C342  1  0.497800  0.287500  0.737500  1.0
  C  C343  1  0.287500  0.502200  0.737500  1.0
  C  C344  1  0.712500  0.497800  0.737500  1.0
  C  C345  1  0.455000  0.282400  0.248100  1.0
  C  C346  1  0.545000  0.717600  0.248100  1.0
  C  C347  1  0.717600  0.455000  0.248100  1.0
  C  C348  1  0.282400  0.545000  0.248100  1.0
  C  C349  1  0.545000  0.717600  0.751900  1.0
  C  C350  1  0.455000  0.282400  0.751900  1.0
  C  C351  1  0.282400  0.545000  0.751900  1.0
  C  C352  1  0.717600  0.455000  0.751900  1.0
  C  C353  1  0.416400  0.301900  0.262500  1.0
  C  C354  1  0.583600  0.698100  0.262500  1.0
  C  C355  1  0.698100  0.416400  0.262500  1.0
  C  C356  1  0.301900  0.583600  0.262500  1.0
  C  C357  1  0.583600  0.698100  0.737500  1.0
  C  C358  1  0.416400  0.301900  0.737500  1.0
  C  C359  1  0.301900  0.583600  0.737500  1.0
  C  C360  1  0.698100  0.416400  0.737500  1.0
  C  C361  1  0.420700  0.326500  0.291400  1.0
  C  C362  1  0.579300  0.673500  0.291400  1.0
  C  C363  1  0.673500  0.420700  0.291400  1.0
  C  C364  1  0.326500  0.579300  0.291400  1.0
  C  C365  1  0.579300  0.673500  0.708600  1.0
  C  C366  1  0.420700  0.326500  0.708600  1.0
  C  C367  1  0.326500  0.579300  0.708600  1.0
  C  C368  1  0.673500  0.420700  0.708600  1.0
  C  C369  1  0.463600  0.331700  0.305880  1.0
  C  C370  1  0.536400  0.668300  0.305880  1.0
  C  C371  1  0.668300  0.463600  0.305880  1.0
  C  C372  1  0.331700  0.536400  0.305880  1.0
  C  C373  1  0.536400  0.668300  0.694120  1.0
  C  C374  1  0.463600  0.331700  0.694120  1.0
  C  C375  1  0.331700  0.536400  0.694120  1.0
  C  C376  1  0.668300  0.463600  0.694120  1.0
  C  C377  1  0.379600  0.344100  0.309700  1.0
  C  C378  1  0.620400  0.655900  0.309700  1.0
  C  C379  1  0.655900  0.379600  0.309700  1.0
  C  C380  1  0.344100  0.620400  0.309700  1.0
  C  C381  1  0.620400  0.655900  0.690300  1.0
  C  C382  1  0.379600  0.344100  0.690300  1.0
  C  C383  1  0.344100  0.620400  0.690300  1.0
  C  C384  1  0.655900  0.379600  0.690300  1.0
  C  C385  1  0.248800  0.121100  0.127300  1.0
  C  C386  1  0.751200  0.878900  0.127300  1.0
  C  C387  1  0.878900  0.248800  0.127300  1.0
  C  C388  1  0.121100  0.751200  0.127300  1.0
  C  C389  1  0.751200  0.878900  0.872700  1.0
  C  C390  1  0.248800  0.121100  0.872700  1.0
  C  C391  1  0.121100  0.751200  0.872700  1.0
  C  C392  1  0.878900  0.248800  0.872700  1.0
  C  C393  1  0.292800  0.105600  0.110900  1.0
  C  C394  1  0.707200  0.894400  0.110900  1.0
  C  C395  1  0.894400  0.292800  0.110900  1.0
  C  C396  1  0.105600  0.707200  0.110900  1.0
  C  C397  1  0.707200  0.894400  0.889100  1.0
  C  C398  1  0.292800  0.105600  0.889100  1.0
  C  C399  1  0.105600  0.707200  0.889100  1.0
  C  C400  1  0.894400  0.292800  0.889100  1.0
  C  C401  1  0.335000  0.120800  0.122620  1.0
  C  C402  1  0.665000  0.879200  0.122620  1.0
  C  C403  1  0.879200  0.335000  0.122620  1.0
  C  C404  1  0.120800  0.665000  0.122620  1.0
  C  C405  1  0.665000  0.879200  0.877380  1.0
  C  C406  1  0.335000  0.120800  0.877380  1.0
  C  C407  1  0.120800  0.665000  0.877380  1.0
  C  C408  1  0.879200  0.335000  0.877380  1.0
  C  C409  1  0.375400  0.105200  0.108400  1.0
  C  C410  1  0.624600  0.894800  0.108400  1.0
  C  C411  1  0.894800  0.375400  0.108400  1.0
  C  C412  1  0.105200  0.624600  0.108400  1.0
  C  C413  1  0.624600  0.894800  0.891600  1.0
  C  C414  1  0.375400  0.105200  0.891600  1.0
  C  C415  1  0.105200  0.624600  0.891600  1.0
  C  C416  1  0.894800  0.375400  0.891600  1.0
  C  C417  1  0.373700  0.074400  0.082500  1.0
  C  C418  1  0.626300  0.925600  0.082500  1.0
  C  C419  1  0.925600  0.373700  0.082500  1.0
  C  C420  1  0.074400  0.626300  0.082500  1.0
  C  C421  1  0.626300  0.925600  0.917500  1.0
  C  C422  1  0.373700  0.074400  0.917500  1.0
  C  C423  1  0.074400  0.626300  0.917500  1.0
  C  C424  1  0.925600  0.373700  0.917500  1.0
  C  C425  1  0.331600  0.059200  0.070840  1.0
  C  C426  1  0.668400  0.940800  0.070840  1.0
  C  C427  1  0.940800  0.331600  0.070840  1.0
  C  C428  1  0.059200  0.668400  0.070840  1.0
  C  C429  1  0.668400  0.940800  0.929160  1.0
  C  C430  1  0.331600  0.059200  0.929160  1.0
  C  C431  1  0.059200  0.668400  0.929160  1.0
  C  C432  1  0.940800  0.331600  0.929160  1.0
  C  C433  1  0.291100  0.074800  0.085050  1.0
  C  C434  1  0.708900  0.925200  0.085050  1.0
  C  C435  1  0.925200  0.291100  0.085050  1.0
  C  C436  1  0.074800  0.708900  0.085050  1.0
  C  C437  1  0.708900  0.925200  0.914950  1.0
  C  C438  1  0.291100  0.074800  0.914950  1.0
  C  C439  1  0.074800  0.708900  0.914950  1.0
  C  C440  1  0.925200  0.291100  0.914950  1.0
  C  C441  1  0.329700  0.023900  0.043600  1.0
  C  C442  1  0.670300  0.976100  0.043600  1.0
  C  C443  1  0.976100  0.329700  0.043600  1.0
  C  C444  1  0.023900  0.670300  0.043600  1.0
  C  C445  1  0.670300  0.976100  0.956400  1.0
  C  C446  1  0.329700  0.023900  0.956400  1.0
  C  C447  1  0.023900  0.670300  0.956400  1.0
  C  C448  1  0.976100  0.329700  0.956400  1.0
  C  C449  1  0.105200  0.166700  0.187600  1.0
  C  C450  1  0.894800  0.833300  0.187600  1.0
  C  C451  1  0.833300  0.105200  0.187600  1.0
  C  C452  1  0.166700  0.894800  0.187600  1.0
  C  C453  1  0.894800  0.833300  0.812400  1.0
  C  C454  1  0.105200  0.166700  0.812400  1.0
  C  C455  1  0.166700  0.894800  0.812400  1.0
  C  C456  1  0.833300  0.105200  0.812400  1.0
  C  C457  1  0.060200  0.178300  0.204100  1.0
  C  C458  1  0.939800  0.821700  0.204100  1.0
  C  C459  1  0.821700  0.060200  0.204100  1.0
  C  C460  1  0.178300  0.939800  0.204100  1.0
  C  C461  1  0.939800  0.821700  0.795900  1.0
  C  C462  1  0.060200  0.178300  0.795900  1.0
  C  C463  1  0.178300  0.939800  0.795900  1.0
  C  C464  1  0.821700  0.060200  0.795900  1.0
  C  C465  1  0.061800  0.200600  0.234100  1.0
  C  C466  1  0.938200  0.799400  0.234100  1.0
  C  C467  1  0.799400  0.061800  0.234100  1.0
  C  C468  1  0.200600  0.938200  0.234100  1.0
  C  C469  1  0.938200  0.799400  0.765900  1.0
  C  C470  1  0.061800  0.200600  0.765900  1.0
  C  C471  1  0.200600  0.938200  0.765900  1.0
  C  C472  1  0.799400  0.061800  0.765900  1.0
  C  C473  1  0.021700  0.216900  0.248330  1.0
  C  C474  1  0.978300  0.783100  0.248330  1.0
  C  C475  1  0.783100  0.021700  0.248330  1.0
  C  C476  1  0.216900  0.978300  0.248330  1.0
  C  C477  1  0.978300  0.783100  0.751670  1.0
  C  C478  1  0.021700  0.216900  0.751670  1.0
  C  C479  1  0.216900  0.978300  0.751670  1.0
  C  C480  1  0.783100  0.021700  0.751670  1.0
  C  C481  1  0.979800  0.210900  0.232600  1.0
  C  C482  1  0.020200  0.789100  0.232600  1.0
  C  C483  1  0.789100  0.979800  0.232600  1.0
  C  C484  1  0.210900  0.020200  0.232600  1.0
  C  C485  1  0.020200  0.789100  0.767400  1.0
  C  C486  1  0.979800  0.210900  0.767400  1.0
  C  C487  1  0.210900  0.020200  0.767400  1.0
  C  C488  1  0.789100  0.979800  0.767400  1.0
  C  C489  1  0.978100  0.188600  0.202600  1.0
  C  C490  1  0.021900  0.811400  0.202600  1.0
  C  C491  1  0.811400  0.978100  0.202600  1.0
  C  C492  1  0.188600  0.021900  0.202600  1.0
  C  C493  1  0.021900  0.811400  0.797400  1.0
  C  C494  1  0.978100  0.188600  0.797400  1.0
  C  C495  1  0.188600  0.021900  0.797400  1.0
  C  C496  1  0.811400  0.978100  0.797400  1.0
  C  C497  1  0.018300  0.172300  0.188340  1.0
  C  C498  1  0.981700  0.827700  0.188340  1.0
  C  C499  1  0.827700  0.018300  0.188340  1.0
  C  C500  1  0.172300  0.981700  0.188340  1.0
  C  C501  1  0.981700  0.827700  0.811660  1.0
  C  C502  1  0.018300  0.172300  0.811660  1.0
  C  C503  1  0.172300  0.981700  0.811660  1.0
  C  C504  1  0.827700  0.018300  0.811660  1.0
  C  C505  1  0.931500  0.183000  0.186400  1.0
  C  C506  1  0.068500  0.817000  0.186400  1.0
  C  C507  1  0.817000  0.931500  0.186400  1.0
  C  C508  1  0.183000  0.068500  0.186400  1.0
  C  C509  1  0.068500  0.817000  0.813600  1.0
  C  C510  1  0.931500  0.183000  0.813600  1.0
  C  C511  1  0.183000  0.068500  0.813600  1.0
  C  C512  1  0.817000  0.931500  0.813600  1.0
  C  C513  1  0.172500  0.220900  0.129800  1.0
  C  C514  1  0.827500  0.779100  0.129800  1.0
  C  C515  1  0.779100  0.172500  0.129800  1.0
  C  C516  1  0.220900  0.827500  0.129800  1.0
  C  C517  1  0.827500  0.779100  0.870200  1.0
  C  C518  1  0.172500  0.220900  0.870200  1.0
  C  C519  1  0.220900  0.827500  0.870200  1.0
  C  C520  1  0.779100  0.172500  0.870200  1.0
  C  C521  1  0.167200  0.266200  0.112000  1.0
  C  C522  1  0.832800  0.733800  0.112000  1.0
  C  C523  1  0.733800  0.167200  0.112000  1.0
  C  C524  1  0.266200  0.832800  0.112000  1.0
  C  C525  1  0.832800  0.733800  0.888000  1.0
  C  C526  1  0.167200  0.266200  0.888000  1.0
  C  C527  1  0.266200  0.832800  0.888000  1.0
  C  C528  1  0.733800  0.167200  0.888000  1.0
  C  C529  1  0.191200  0.304700  0.122600  1.0
  C  C530  1  0.808800  0.695300  0.122600  1.0
  C  C531  1  0.695300  0.191200  0.122600  1.0
  C  C532  1  0.304700  0.808800  0.122600  1.0
  C  C533  1  0.808800  0.695300  0.877400  1.0
  C  C534  1  0.191200  0.304700  0.877400  1.0
  C  C535  1  0.304700  0.808800  0.877400  1.0
  C  C536  1  0.695300  0.191200  0.877400  1.0
  C  C537  1  0.184300  0.346900  0.107500  1.0
  C  C538  1  0.815700  0.653100  0.107500  1.0
  C  C539  1  0.653100  0.184300  0.107500  1.0
  C  C540  1  0.346900  0.815700  0.107500  1.0
  C  C541  1  0.815700  0.653100  0.892500  1.0
  C  C542  1  0.184300  0.346900  0.892500  1.0
  C  C543  1  0.346900  0.815700  0.892500  1.0
  C  C544  1  0.653100  0.184300  0.892500  1.0
  C  C545  1  0.153300  0.350600  0.081800  1.0
  C  C546  1  0.846700  0.649400  0.081800  1.0
  C  C547  1  0.649400  0.153300  0.081800  1.0
  C  C548  1  0.350600  0.846700  0.081800  1.0
  C  C549  1  0.846700  0.649400  0.918200  1.0
  C  C550  1  0.153300  0.350600  0.918200  1.0
  C  C551  1  0.350600  0.846700  0.918200  1.0
  C  C552  1  0.649400  0.153300  0.918200  1.0
  C  C553  1  0.129300  0.312200  0.071200  1.0
  C  C554  1  0.870700  0.687800  0.071200  1.0
  C  C555  1  0.687800  0.129300  0.071200  1.0
  C  C556  1  0.312200  0.870700  0.071200  1.0
  C  C557  1  0.870700  0.687800  0.928800  1.0
  C  C558  1  0.129300  0.312200  0.928800  1.0
  C  C559  1  0.312200  0.870700  0.928800  1.0
  C  C560  1  0.687800  0.129300  0.928800  1.0
  C  C561  1  0.136200  0.270000  0.086300  1.0
  C  C562  1  0.863800  0.730000  0.086300  1.0
  C  C563  1  0.730000  0.136200  0.086300  1.0
  C  C564  1  0.270000  0.863800  0.086300  1.0
  C  C565  1  0.863800  0.730000  0.913700  1.0
  C  C566  1  0.136200  0.270000  0.913700  1.0
  C  C567  1  0.270000  0.863800  0.913700  1.0
  C  C568  1  0.730000  0.136200  0.913700  1.0
  C  C569  1  0.092900  0.316500  0.044600  1.0
  C  C570  1  0.907100  0.683500  0.044600  1.0
  C  C571  1  0.683500  0.092900  0.044600  1.0
  C  C572  1  0.316500  0.907100  0.044600  1.0
  C  C573  1  0.907100  0.683500  0.955400  1.0
  C  C574  1  0.092900  0.316500  0.955400  1.0
  C  C575  1  0.316500  0.907100  0.955400  1.0
  C  C576  1  0.683500  0.092900  0.955400  1.0
  O  O577  1  0.459100  0.302000  0.500000  1.0
  O  O578  1  0.540900  0.698000  0.500000  1.0
  O  O579  1  0.698000  0.459100  0.500000  1.0
  O  O580  1  0.302000  0.540900  0.500000  1.0
  O  O581  1  0.408600  0.070600  0.500000  1.0
  O  O582  1  0.591400  0.929400  0.500000  1.0
  O  O583  1  0.929400  0.408600  0.500000  1.0
  O  O584  1  0.070600  0.591400  0.500000  1.0
  O  O585  1  0.443100  0.947000  0.000000  1.0
  O  O586  1  0.556900  0.053000  0.000000  1.0
  O  O587  1  0.053000  0.443100  0.000000  1.0
  O  O588  1  0.947000  0.556900  0.000000  1.0
  O  O589  1  0.488600  0.215600  0.466300  1.0
  O  O590  1  0.511400  0.784400  0.466300  1.0
  O  O591  1  0.784400  0.488600  0.466300  1.0
  O  O592  1  0.215600  0.511400  0.466300  1.0
  O  O593  1  0.511400  0.784400  0.533700  1.0
  O  O594  1  0.488600  0.215600  0.533700  1.0
  O  O595  1  0.215600  0.511400  0.533700  1.0
  O  O596  1  0.784400  0.488600  0.533700  1.0
  O  O597  1  0.470600  0.138000  0.467500  1.0
  O  O598  1  0.529400  0.862000  0.467500  1.0
  O  O599  1  0.862000  0.470600  0.467500  1.0
  O  O600  1  0.138000  0.529400  0.467500  1.0
  O  O601  1  0.529400  0.862000  0.532500  1.0
  O  O602  1  0.470600  0.138000  0.532500  1.0
  O  O603  1  0.138000  0.529400  0.532500  1.0
  O  O604  1  0.862000  0.470600  0.532500  1.0
  O  O605  1  0.586800  0.280300  0.381340  1.0
  O  O606  1  0.413200  0.719700  0.381340  1.0
  O  O607  1  0.719700  0.586800  0.381340  1.0
  O  O608  1  0.280300  0.413200  0.381340  1.0
  O  O609  1  0.413200  0.719700  0.618660  1.0
  O  O610  1  0.586800  0.280300  0.618660  1.0
  O  O611  1  0.280300  0.413200  0.618660  1.0
  O  O612  1  0.719700  0.586800  0.618660  1.0
  O  O613  1  0.618400  0.234100  0.342800  1.0
  O  O614  1  0.381600  0.765900  0.342800  1.0
  O  O615  1  0.765900  0.618400  0.342800  1.0
  O  O616  1  0.234100  0.381600  0.342800  1.0
  O  O617  1  0.381600  0.765900  0.657200  1.0
  O  O618  1  0.618400  0.234100  0.657200  1.0
  O  O619  1  0.234100  0.381600  0.657200  1.0
  O  O620  1  0.765900  0.618400  0.657200  1.0
  O  O621  1  0.568900  0.073900  0.378200  1.0
  O  O622  1  0.431100  0.926100  0.378200  1.0
  O  O623  1  0.926100  0.568900  0.378200  1.0
  O  O624  1  0.073900  0.431100  0.378200  1.0
  O  O625  1  0.431100  0.926100  0.621800  1.0
  O  O626  1  0.568900  0.073900  0.621800  1.0
  O  O627  1  0.073900  0.431100  0.621800  1.0
  O  O628  1  0.926100  0.568900  0.621800  1.0
  O  O629  1  0.396000  0.236400  0.534200  1.0
  O  O630  1  0.604000  0.763600  0.534200  1.0
  O  O631  1  0.763600  0.396000  0.534200  1.0
  O  O632  1  0.236400  0.604000  0.534200  1.0
  O  O633  1  0.604000  0.763600  0.465800  1.0
  O  O634  1  0.396000  0.236400  0.465800  1.0
  O  O635  1  0.236400  0.604000  0.465800  1.0
  O  O636  1  0.763600  0.396000  0.465800  1.0
  O  O637  1  0.380800  0.159300  0.533100  1.0
  O  O638  1  0.619200  0.840700  0.533100  1.0
  O  O639  1  0.840700  0.380800  0.533100  1.0
  O  O640  1  0.159300  0.619200  0.533100  1.0
  O  O641  1  0.619200  0.840700  0.466900  1.0
  O  O642  1  0.380800  0.159300  0.466900  1.0
  O  O643  1  0.159300  0.619200  0.466900  1.0
  O  O644  1  0.840700  0.380800  0.466900  1.0
  O  O645  1  0.332600  0.334800  0.618200  1.0
  O  O646  1  0.667400  0.665200  0.618200  1.0
  O  O647  1  0.665200  0.332600  0.618200  1.0
  O  O648  1  0.334800  0.667400  0.618200  1.0
  O  O649  1  0.667400  0.665200  0.381800  1.0
  O  O650  1  0.332600  0.334800  0.381800  1.0
  O  O651  1  0.334800  0.667400  0.381800  1.0
  O  O652  1  0.665200  0.332600  0.381800  1.0
  O  O653  1  0.285400  0.306100  0.656600  1.0
  O  O654  1  0.714600  0.693900  0.656600  1.0
  O  O655  1  0.693900  0.285400  0.656600  1.0
  O  O656  1  0.306100  0.714600  0.656600  1.0
  O  O657  1  0.714600  0.693900  0.343400  1.0
  O  O658  1  0.285400  0.306100  0.343400  1.0
  O  O659  1  0.306100  0.714600  0.343400  1.0
  O  O660  1  0.693900  0.285400  0.343400  1.0
  O  O661  1  0.256200  0.142600  0.616800  1.0
  O  O662  1  0.743800  0.857400  0.616800  1.0
  O  O663  1  0.857400  0.256200  0.616800  1.0
  O  O664  1  0.142600  0.743800  0.616800  1.0
  O  O665  1  0.743800  0.857400  0.383200  1.0
  O  O666  1  0.256200  0.142600  0.383200  1.0
  O  O667  1  0.142600  0.743800  0.383200  1.0
  O  O668  1  0.857400  0.256200  0.383200  1.0
  O  O669  1  0.552000  0.337000  0.334200  1.0
  O  O670  1  0.448000  0.663000  0.334200  1.0
  O  O671  1  0.663000  0.552000  0.334200  1.0
  O  O672  1  0.337000  0.448000  0.334200  1.0
  O  O673  1  0.448000  0.663000  0.665800  1.0
  O  O674  1  0.552000  0.337000  0.665800  1.0
  O  O675  1  0.337000  0.448000  0.665800  1.0
  O  O676  1  0.663000  0.552000  0.665800  1.0
  O  O677  1  0.581500  0.290500  0.295800  1.0
  O  O678  1  0.418500  0.709500  0.295800  1.0
  O  O679  1  0.709500  0.581500  0.295800  1.0
  O  O680  1  0.290500  0.418500  0.295800  1.0
  O  O681  1  0.418500  0.709500  0.704200  1.0
  O  O682  1  0.581500  0.290500  0.704200  1.0
  O  O683  1  0.290500  0.418500  0.704200  1.0
  O  O684  1  0.709500  0.581500  0.704200  1.0
  O  O685  1  0.387800  0.370600  0.335000  1.0
  O  O686  1  0.612200  0.629400  0.335000  1.0
  O  O687  1  0.629400  0.387800  0.335000  1.0
  O  O688  1  0.370600  0.612200  0.335000  1.0
  O  O689  1  0.612200  0.629400  0.665000  1.0
  O  O690  1  0.387800  0.370600  0.665000  1.0
  O  O691  1  0.370600  0.612200  0.665000  1.0
  O  O692  1  0.629400  0.387800  0.665000  1.0
  O  O693  1  0.339200  0.337500  0.297000  1.0
  O  O694  1  0.660800  0.662500  0.297000  1.0
  O  O695  1  0.662500  0.339200  0.297000  1.0
  O  O696  1  0.337500  0.660800  0.297000  1.0
  O  O697  1  0.660800  0.662500  0.703000  1.0
  O  O698  1  0.339200  0.337500  0.703000  1.0
  O  O699  1  0.337500  0.660800  0.703000  1.0
  O  O700  1  0.662500  0.339200  0.703000  1.0
  O  O701  1  0.446700  0.259800  0.219700  1.0
  O  O702  1  0.553300  0.740200  0.219700  1.0
  O  O703  1  0.740200  0.446700  0.219700  1.0
  O  O704  1  0.259800  0.553300  0.219700  1.0
  O  O705  1  0.553300  0.740200  0.780300  1.0
  O  O706  1  0.446700  0.259800  0.780300  1.0
  O  O707  1  0.259800  0.553300  0.780300  1.0
  O  O708  1  0.740200  0.446700  0.780300  1.0
  O  O709  1  0.574500  0.381000  0.397990  1.0
  O  O710  1  0.425500  0.619000  0.397990  1.0
  O  O711  1  0.619000  0.574500  0.397990  1.0
  O  O712  1  0.381000  0.425500  0.397990  1.0
  O  O713  1  0.425500  0.619000  0.602010  1.0
  O  O714  1  0.574500  0.381000  0.602010  1.0
  O  O715  1  0.381000  0.425500  0.602010  1.0
  O  O716  1  0.619000  0.574500  0.602010  1.0
  O  O717  1  0.670500  0.236900  0.279100  1.0
  O  O718  1  0.329500  0.763100  0.279100  1.0
  O  O719  1  0.763100  0.670500  0.279100  1.0
  O  O720  1  0.236900  0.329500  0.279100  1.0
  O  O721  1  0.329500  0.763100  0.720900  1.0
  O  O722  1  0.670500  0.236900  0.720900  1.0
  O  O723  1  0.236900  0.329500  0.720900  1.0
  O  O724  1  0.763100  0.670500  0.720900  1.0
  O  O725  1  0.211200  0.111600  0.113690  1.0
  O  O726  1  0.788800  0.888400  0.113690  1.0
  O  O727  1  0.888400  0.211200  0.113690  1.0
  O  O728  1  0.111600  0.788800  0.113690  1.0
  O  O729  1  0.788800  0.888400  0.886310  1.0
  O  O730  1  0.211200  0.111600  0.886310  1.0
  O  O731  1  0.111600  0.788800  0.886310  1.0
  O  O732  1  0.888400  0.211200  0.886310  1.0
  O  O733  1  0.252600  0.144800  0.153700  1.0
  O  O734  1  0.747400  0.855200  0.153700  1.0
  O  O735  1  0.855200  0.252600  0.153700  1.0
  O  O736  1  0.144800  0.747400  0.153700  1.0
  O  O737  1  0.747400  0.855200  0.846300  1.0
  O  O738  1  0.252600  0.144800  0.846300  1.0
  O  O739  1  0.144800  0.747400  0.846300  1.0
  O  O740  1  0.855200  0.252600  0.846300  1.0
  O  O741  1  0.287800  0.015500  0.033630  1.0
  O  O742  1  0.712200  0.984500  0.033630  1.0
  O  O743  1  0.984500  0.287800  0.033630  1.0
  O  O744  1  0.015500  0.712200  0.033630  1.0
  O  O745  1  0.712200  0.984500  0.966370  1.0
  O  O746  1  0.287800  0.015500  0.966370  1.0
  O  O747  1  0.015500  0.712200  0.966370  1.0
  O  O748  1  0.984500  0.287800  0.966370  1.0
  O  O749  1  0.367500  0.009000  0.034020  1.0
  O  O750  1  0.632500  0.991000  0.034020  1.0
  O  O751  1  0.991000  0.367500  0.034020  1.0
  O  O752  1  0.009000  0.632500  0.034020  1.0
  O  O753  1  0.632500  0.991000  0.965980  1.0
  O  O754  1  0.367500  0.009000  0.965980  1.0
  O  O755  1  0.009000  0.632500  0.965980  1.0
  O  O756  1  0.991000  0.367500  0.965980  1.0
  O  O757  1  0.416400  0.122900  0.119600  1.0
  O  O758  1  0.583600  0.877100  0.119600  1.0
  O  O759  1  0.877100  0.416400  0.119600  1.0
  O  O760  1  0.122900  0.583600  0.119600  1.0
  O  O761  1  0.583600  0.877100  0.880400  1.0
  O  O762  1  0.416400  0.122900  0.880400  1.0
  O  O763  1  0.122900  0.583600  0.880400  1.0
  O  O764  1  0.877100  0.416400  0.880400  1.0
  O  O765  1  0.099600  0.142100  0.161160  1.0
  O  O766  1  0.900400  0.857900  0.161160  1.0
  O  O767  1  0.857900  0.099600  0.161160  1.0
  O  O768  1  0.142100  0.900400  0.161160  1.0
  O  O769  1  0.900400  0.857900  0.838840  1.0
  O  O770  1  0.099600  0.142100  0.838840  1.0
  O  O771  1  0.142100  0.900400  0.838840  1.0
  O  O772  1  0.857900  0.099600  0.838840  1.0
  O  O773  1  0.142700  0.175500  0.201330  1.0
  O  O774  1  0.857300  0.824500  0.201330  1.0
  O  O775  1  0.824500  0.142700  0.201330  1.0
  O  O776  1  0.175500  0.857300  0.201330  1.0
  O  O777  1  0.857300  0.824500  0.798670  1.0
  O  O778  1  0.142700  0.175500  0.798670  1.0
  O  O779  1  0.175500  0.857300  0.798670  1.0
  O  O780  1  0.824500  0.142700  0.798670  1.0
  O  O781  1  0.931800  0.158700  0.160310  1.0
  O  O782  1  0.068200  0.841300  0.160310  1.0
  O  O783  1  0.841300  0.931800  0.160310  1.0
  O  O784  1  0.158700  0.068200  0.160310  1.0
  O  O785  1  0.068200  0.841300  0.839690  1.0
  O  O786  1  0.931800  0.158700  0.839690  1.0
  O  O787  1  0.158700  0.068200  0.839690  1.0
  O  O788  1  0.841300  0.931800  0.839690  1.0
  O  O789  1  0.897400  0.200400  0.200100  1.0
  O  O790  1  0.102600  0.799600  0.200100  1.0
  O  O791  1  0.799600  0.897400  0.200100  1.0
  O  O792  1  0.200400  0.102600  0.200100  1.0
  O  O793  1  0.102600  0.799600  0.799900  1.0
  O  O794  1  0.897400  0.200400  0.799900  1.0
  O  O795  1  0.200400  0.102600  0.799900  1.0
  O  O796  1  0.799600  0.897400  0.799900  1.0
  O  O797  1  0.022500  0.235100  0.277700  1.0
  O  O798  1  0.977500  0.764900  0.277700  1.0
  O  O799  1  0.764900  0.022500  0.277700  1.0
  O  O800  1  0.235100  0.977500  0.277700  1.0
  O  O801  1  0.977500  0.764900  0.722300  1.0
  O  O802  1  0.022500  0.235100  0.722300  1.0
  O  O803  1  0.235100  0.977500  0.722300  1.0
  O  O804  1  0.764900  0.022500  0.722300  1.0
  O  O805  1  0.154700  0.186500  0.115320  1.0
  O  O806  1  0.845300  0.813500  0.115320  1.0
  O  O807  1  0.813500  0.154700  0.115320  1.0
  O  O808  1  0.186500  0.845300  0.115320  1.0
  O  O809  1  0.845300  0.813500  0.884680  1.0
  O  O810  1  0.154700  0.186500  0.884680  1.0
  O  O811  1  0.186500  0.845300  0.884680  1.0
  O  O812  1  0.813500  0.154700  0.884680  1.0
  O  O813  1  0.195900  0.219900  0.155200  1.0
  O  O814  1  0.804100  0.780100  0.155200  1.0
  O  O815  1  0.780100  0.195900  0.155200  1.0
  O  O816  1  0.219900  0.804100  0.155200  1.0
  O  O817  1  0.804100  0.780100  0.844800  1.0
  O  O818  1  0.195900  0.219900  0.844800  1.0
  O  O819  1  0.219900  0.804100  0.844800  1.0
  O  O820  1  0.780100  0.195900  0.844800  1.0
  O  O821  1  0.077200  0.278800  0.033550  1.0
  O  O822  1  0.922800  0.721200  0.033550  1.0
  O  O823  1  0.721200  0.077200  0.033550  1.0
  O  O824  1  0.278800  0.922800  0.033550  1.0
  O  O825  1  0.922800  0.721200  0.966450  1.0
  O  O826  1  0.077200  0.278800  0.966450  1.0
  O  O827  1  0.278800  0.922800  0.966450  1.0
  O  O828  1  0.721200  0.077200  0.966450  1.0
  O  O829  1  0.085500  0.356000  0.034200  1.0
  O  O830  1  0.914500  0.644000  0.034200  1.0
  O  O831  1  0.644000  0.085500  0.034200  1.0
  O  O832  1  0.356000  0.914500  0.034200  1.0
  O  O833  1  0.914500  0.644000  0.965800  1.0
  O  O834  1  0.085500  0.356000  0.965800  1.0
  O  O835  1  0.356000  0.914500  0.965800  1.0
  O  O836  1  0.644000  0.085500  0.965800  1.0
  O  O837  1  0.205300  0.385000  0.119200  1.0
  O  O838  1  0.794700  0.615000  0.119200  1.0
  O  O839  1  0.615000  0.205300  0.119200  1.0
  O  O840  1  0.385000  0.794700  0.119200  1.0
  O  O841  1  0.794700  0.615000  0.880800  1.0
  O  O842  1  0.205300  0.385000  0.880800  1.0
  O  O843  1  0.385000  0.794700  0.880800  1.0
  O  O844  1  0.615000  0.205300  0.880800  1.0
  O  O845  1  0.107800  0.098000  0.095780  1.0
  O  O846  1  0.892200  0.902000  0.095780  1.0
  O  O847  1  0.902000  0.107800  0.095780  1.0
  O  O848  1  0.098000  0.892200  0.095780  1.0
  O  O849  1  0.892200  0.902000  0.904220  1.0
  O  O850  1  0.107800  0.098000  0.904220  1.0
  O  O851  1  0.098000  0.892200  0.904220  1.0
  O  O852  1  0.902000  0.107800  0.904220  1.0
  O  O853  1  0.243000  0.192100  0.220700  1.0
  O  O854  1  0.757000  0.807900  0.220700  1.0
  O  O855  1  0.807900  0.243000  0.220700  1.0
  O  O856  1  0.192100  0.757000  0.220700  1.0
  O  O857  1  0.757000  0.807900  0.779300  1.0
  O  O858  1  0.243000  0.192100  0.779300  1.0
  O  O859  1  0.192100  0.757000  0.779300  1.0
  O  O860  1  0.807900  0.243000  0.779300  1.0
