
#######################################################################
#
#                 Cambridge Crystallographic Data Centre
#                                CCDC 
#
#######################################################################
#
# If this CIF has been generated from an entry in the Cambridge 
# Structural Database, then it will include bibliographic, chemical, 
# crystal, experimental, refinement or atomic coordinate data resulting 
# from the CCDC's data processing and validation procedures.
#
#######################################################################

data_GEWMIH
_chemical_formula_moiety         '(C10 H10 Cu1 O6)n'
_chemical_name_systematic        
'catena-((\m-5-ethoxyisophthalato)-aqua-copper unknown solvate)'
_symmetry_cell_setting           trigonal
_symmetry_space_group_name_H-M   'P -3 m 1'
_symmetry_Int_Tables_number      164
_space_group_name_Hall           '-P 3 2"'
loop_
_symmetry_equiv_pos_site_id
_symmetry_equiv_pos_as_xyz
1 x,y,z
2 -y,x-y,z
3 -x+y,-x,z
4 y,x,-z
5 x-y,-y,-z
6 -x,-x+y,-z
7 -x,-y,-z
8 y,-x+y,-z
9 x-y,x,-z
10 -y,-x,z
11 -x+y,y,z
12 x,x-y,z
_cell_length_a                   18.767(4)
_cell_length_b                   18.767(4)
_cell_length_c                   7.015(2)
_cell_angle_alpha                90
_cell_angle_beta                 90
_cell_angle_gamma                120
_cell_volume                     2139.68
_exptl_crystal_colour            green
_exptl_crystal_description       needle
_cell_formula_units_Z            6
loop_
_atom_site_label
_atom_site_type_symbol
_atom_site_fract_x
_atom_site_fract_y
_atom_site_fract_z
Cu1 Cu 0.52420(2) 0.47580(2) 0.34447(9)
O1 O 0.62908(17) 0.51981(19) 0.4888(4)
O2 O 0.58940(17) 0.56039(19) 0.7502(4)
O3 O 0.83846(16) 0.6769(3) 1.1855(7)
O4 O 0.56380(15) 0.43620(15) 0.0942(7)
C1 C 0.6404(2) 0.5498(2) 0.6525(6)
C2 C 0.77914(18) 0.5583(4) 0.6531(8)
H1 H 0.767019 0.534038 0.529847
C3 C 0.7233(2) 0.5767(2) 0.7469(6)
C4 C 0.7428(2) 0.6153(3) 0.9248(6)
H2 H 0.705073 0.627500 0.986234
C5 C 0.81809(18) 0.6362(4) 1.0138(9)
C6 C 0.9159(7) 0.7113(7) 1.2666(15)
H3 H 0.958106 0.741504 1.167781
H4 H 0.924698 0.666971 1.316838
C7 C 0.9256(10) 0.7683(11) 1.423(2)
H5 H 0.980873 0.791641 1.477715
H6 H 0.917850 0.812718 1.373166
H7 H 0.884474 0.738255 1.522081
O1J O 0.89073(25) 0.51981(19) 0.4888(4)
O2J O 0.97099(25) 0.56039(19) 0.7502(4)
C1J C 0.9094(3) 0.5498(2) 0.6525(6)
C3J C 0.8534(3) 0.5767(2) 0.7469(6)
C4J C 0.8725(4) 0.6153(3) 0.9248(6)
H2J H 0.922427 0.627500 0.986234
C6J C 0.7954(10) 0.7113(7) 1.2666(15)
H3J H 0.783398 0.741504 1.167781
H4J H 0.742273 0.666971 1.316838
C7J C 0.8427(15) 0.7683(11) 1.423(2)
H5J H 0.810768 0.791641 1.477715
H6J H 0.894868 0.812718 1.373166
H7J H 0.853781 0.738255 1.522081
Cu1B Cu 0.95160(3) 0.47580(2) 0.34447(9)
Cu1C Cu 0.47580(2) 0.52420(2) 0.65553(9)
Cu1D Cu 1.04840(3) 0.52420(2) 0.65553(9)
O1I O 0.48019(19) 0.37092(17) 0.4888(4)
O2C O 0.56039(19) 0.58940(17) 0.2498(4)
O2F O 0.41060(17) 0.43961(19) 0.2498(4)
C8? C 0.9159(7) 0.7113(7) 1.2666(15)
H8? H 0.938873 0.674359 1.248864
H9? H 0.912790 0.719742 1.405006
C9? C 0.9707(12) 0.7940(13) 1.168(4)
H10? H 1.026190 0.819884 1.222347
H11? H 0.973516 0.784876 1.030996
H12? H 0.947537 0.830079 1.186515
loop_
_geom_bond_atom_site_label_1
_geom_bond_atom_site_label_2
_geom_bond_site_symmetry_1
_geom_bond_site_symmetry_2
Cu1 O1 1_555 1_555
O1 C1 1_555 1_555
O2 C1 1_555 1_555
O3 C5 1_555 1_555
O4 Cu1 1_555 1_555
C1 C3 1_555 1_555
C2 H1 1_555 1_555
C3 C2 1_555 1_555
C4 C3 1_555 1_555
H2 C4 1_555 1_555
C5 C4 1_555 1_555
C6 O3 1_555 1_555
H3 C6 1_555 1_555
H4 C6 1_555 1_555
C7 C6 1_555 1_555
H5 C7 1_555 1_555
H6 C7 1_555 1_555
H7 C7 1_555 1_555
O1J C1J 1_555 1_555
O2J C1J 1_555 1_555
C1J C3J 1_555 1_555
C3J C2 1_555 1_555
C4J C5 1_555 1_555
H2J C4J 1_555 1_555
C6J O3 1_555 1_555
H3J C6J 1_555 1_555
H4J C6J 1_555 1_555
C7J C7 1_555 1_555
H5J C7J 1_555 1_555
H6J C7 1_555 1_555
H7J C7J 1_555 1_555
Cu1B O1J 1_555 1_555
Cu1C O2 1_555 1_555
Cu1D O2J 1_555 1_555
O1I Cu1 1_555 1_555
O2C Cu1 1_555 1_555
O2F Cu1 1_555 1_555
H6 C7J 1_555 1_555
C3J C4J 1_555 1_555
C6J C7J 1_555 1_555
C7J H6J 1_555 1_555

#END
