
#######################################################################
#
#                 Cambridge Crystallographic Data Centre
#                                CCDC 
#
#######################################################################
#
# If this CIF has been generated from an entry in the Cambridge 
# Structural Database, then it will include bibliographic, chemical, 
# crystal, experimental, refinement or atomic coordinate data resulting 
# from the CCDC's data processing and validation procedures.
#
#######################################################################

data_GEWNII
_chemical_formula_moiety         'C270 H290 Cu24 N10 O144'
_chemical_name_systematic        
'catena-(tetracosakis(\m-5-ethoxyisophthalato)-tetradeca-aqua-decakis(dimethylformamide)-tetracosa-copper unknown solvate)'
_symmetry_cell_setting           triclinic
_symmetry_space_group_name_H-M   'P -1'
_symmetry_Int_Tables_number      2
_space_group_name_Hall           '-P 1'
loop_
_symmetry_equiv_pos_site_id
_symmetry_equiv_pos_as_xyz
1 x,y,z
2 -x,-y,-z
_cell_length_a                   23.5934(15)
_cell_length_b                   23.6713(17)
_cell_length_c                   23.9591(16)
_cell_angle_alpha                106.650(5)
_cell_angle_beta                 97.080(5)
_cell_angle_gamma                113.638(5)
_cell_volume                     11303.6
_exptl_crystal_colour            green
_exptl_crystal_description       block
_cell_formula_units_Z            1
loop_
_atom_site_label
_atom_site_type_symbol
_atom_site_fract_x
_atom_site_fract_y
_atom_site_fract_z
Cu1 Cu 0.87958(7) 0.67296(9) 0.56009(7)
Cu2 Cu 1.00490(7) 0.73114(9) 0.58225(7)
Cu3 Cu 0.72068(7) 0.55711(9) 0.81313(7)
Cu4 Cu 0.79508(7) 0.57143(10) 0.91352(8)
Cu5 Cu 0.50639(7) 0.19108(8) 0.55596(7)
Cu6 Cu 0.50764(7) 0.08645(8) 0.57610(7)
Cu7 Cu 0.33812(8) 0.38331(10) 0.74921(8)
Cu8 Cu 0.28509(7) 0.34266(9) 0.82997(8)
Cu9 Cu 0.32898(7) 0.69336(9) 0.68853(7)
Cu10 Cu 0.27245(7) 0.75714(9) 0.74907(7)
Cu11 Cu 0.71202(7) 0.86451(9) 0.75871(7)
Cu12 Cu 0.78339(7) 0.98646(9) 0.83919(7)
O1 O 0.8945(4) 0.6526(4) 0.6318(4)
O2 O 1.0031(3) 0.6998(4) 0.6499(3)
O3 O 0.7976(4) 0.5841(5) 0.7859(4)
O4 O 0.8615(4) 0.5993(5) 0.8726(4)
O5 O 1.0770(4) 0.6656(6) 0.8397(4)
C1 C 0.9509(5) 0.6718(7) 0.6622(5)
C2 C 0.9558(5) 0.6548(6) 0.7195(5)
C3 C 1.0161(5) 0.6654(7) 0.7507(5)
H1 H 1.052289 0.679945 0.735193
C4 C 1.0215(6) 0.6541(8) 0.8044(6)
C5 C 0.9671(6) 0.6346(8) 0.8269(6)
H2 H 0.970711 0.628955 0.864677
C6 C 0.9095(6) 0.6238(7) 0.7950(6)
C7 C 0.9036(6) 0.6314(7) 0.7402(5)
H3 H 0.862466 0.620206 0.716643
C8 C 0.8518(6) 0.6009(7) 0.8191(6)
C9 C 1.1209(7) 0.6553(10) 0.8084(8)
H4 H 1.163684 0.676785 0.837795
H5 H 1.124660 0.677738 0.778957
C10 C 1.1032(8) 0.5823(10) 0.7745(9)
H6 H 1.136196 0.579815 0.754131
H7 H 1.100648 0.559795 0.803308
H8 H 1.061543 0.560750 0.744347
O6 O 0.8922(4) 0.7599(4) 0.6130(4)
O7 O 1.0002(3) 0.8092(4) 0.6335(3)
O8 O 0.7934(4) 0.8771(4) 0.7372(4)
O9 O 0.8540(4) 0.9796(5) 0.8050(4)
O10 O 1.0683(4) 1.0455(5) 0.7529(4)
C11 C 0.9468(5) 0.8098(7) 0.6401(5)
C12 C 0.9493(5) 0.8697(7) 0.6790(6)
C13 C 1.0056(6) 0.9306(7) 0.6980(6)
H9 H 1.041677 0.931458 0.683766
C14 C 1.0101(6) 0.9897(7) 0.7372(6)
C15 C 0.9570(6) 0.9871(7) 0.7551(6)
H10 H 0.958871 1.027168 0.780706
C16 C 0.9012(5) 0.9301(7) 0.7382(5)
C17 C 0.8969(5) 0.8705(7) 0.7000(6)
H11 H 0.858171 0.830387 0.688322
C18 C 0.8444(6) 0.9273(7) 0.7625(6)
C19 C 1.0727(6) 1.1062(8) 0.7863(7)
H12 H 1.063285 1.106097 0.825443
H13 H 1.041464 1.115477 0.763859
C20 C 1.1394(7) 1.1574(8) 0.7967(8)
H14 H 1.145260 1.163441 0.758659
H15 H 1.169925 1.143004 0.811350
H16 H 1.147027 1.199476 0.826946
O11 O 0.8851(4) 0.7041(5) 0.4927(4)
O12 O 0.9912(4) 0.7571(5) 0.5125(4)
O13 O 0.7499(4) 0.6639(5) 0.3003(4)
O14 O 0.7963(4) 0.6978(5) 0.2303(4)
O15 O 1.0241(5) 0.8496(7) 0.3430(6)
C21 C 0.9355(6) 0.7354(7) 0.4820(6)
C22 C 0.9281(6) 0.7514(7) 0.4238(5)
C23 C 0.9818(7) 0.7965(8) 0.4126(6)
H17 H 1.022694 0.819099 0.441342
C24 C 0.9743(7) 0.8072(8) 0.3597(7)
C25 C 0.9170(7) 0.7745(8) 0.3166(6)
H18 H 0.913227 0.781238 0.279379
C26 C 0.8635(6) 0.7303(7) 0.3290(6)
C27 C 0.8697(6) 0.7198(7) 0.3831(5)
H19 H 0.833266 0.690651 0.391497
C28 C 0.7981(6) 0.6942(7) 0.2832(6)
C29 C 1.0846(9) 0.8868(12) 0.3860(10)
H20 H 1.105346 0.858271 0.388443
H21 H 1.080070 0.906790 0.426510
C30 C 1.1276(11) 0.9454(14) 0.3620(12)
H22 H 1.170534 0.973146 0.390379
H23 H 1.131376 0.924760 0.321850
H24 H 1.106240 0.973011 0.359706
O16 O 0.7089(4) 0.4657(4) 0.7864(4)
O17 O 0.7726(4) 0.4784(5) 0.8713(4)
O18 O 0.5780(4) 0.2437(4) 0.6285(4)
O19 O 0.5780(4) 0.1566(5) 0.6475(4)
O20 O 0.7459(6) 0.2545(6) 0.8460(5)
C31 C 0.7336(5) 0.4440(7) 0.8186(5)
C32 C 0.7156(6) 0.3705(7) 0.7947(5)
C33 C 0.7406(7) 0.3453(7) 0.8278(6)
H25 H 0.772098 0.374306 0.865293
C34 C 0.7216(8) 0.2763(8) 0.8086(6)
C35 C 0.6722(7) 0.2349(7) 0.7521(5)
H26 H 0.655551 0.188063 0.738118
C36 C 0.6494(6) 0.2632(7) 0.7187(5)
C37 C 0.6680(5) 0.3299(6) 0.7386(5)
H27 H 0.649816 0.348279 0.715683
C38 C 0.5975(6) 0.2163(7) 0.6596(5)
C39 C 0.7177(12) 0.1813(10) 0.8298(9)
H28 H 0.670375 0.161866 0.815102
H29 H 0.733114 0.162716 0.795920
C40 C 0.7322(16) 0.1619(13) 0.8765(12)
H30 H 0.711920 0.113385 0.862107
H31 H 0.778895 0.179785 0.890668
H32 H 0.716042 0.178934 0.909884
O21 O 0.6529(4) 0.5317(4) 0.8543(4)
O22 O 0.7137(4) 0.5414(5) 0.9381(4)
O23 O 0.4185(4) 0.4238(5) 0.8117(4)
O24 O 0.3744(4) 0.3861(5) 0.8796(4)
O25 O 0.5641(5) 0.4425(5) 1.0490(5)
C41 C 0.6612(5) 0.5242(7) 0.9034(6)
C42 C 0.6028(5) 0.4949(7) 0.9258(6)
C43 C 0.6080(6) 0.4850(7) 0.9798(6)
H33 H 0.649169 0.501970 1.006541
C44 C 0.5538(6) 0.4507(7) 0.9947(6)
C45 C 0.4942(6) 0.4287(6) 0.9583(6)
H34 H 0.457058 0.405457 0.969666
C46 C 0.4876(5) 0.4405(7) 0.9029(6)
C47 C 0.5420(5) 0.4716(7) 0.8863(6)
H35 H 0.538803 0.477391 0.848578
C48 C 0.4219(5) 0.4154(6) 0.8623(6)
C49 C 0.5114(7) 0.4008(9) 1.0630(8)
H36 H 0.491828 0.355323 1.032130
H37 H 0.478572 0.416871 1.063080
C50 C 0.5334(9) 0.3998(11) 1.1258(9)
H38 H 0.560109 0.376884 1.123690
H39 H 0.495680 0.376458 1.138564
H40 H 0.558424 0.445444 1.155108
O26 O 0.7452(4) 0.6530(4) 0.8568(4)
O27 O 0.8057(4) 0.6636(5) 0.9427(4)
O28 O 0.7398(4) 0.8400(4) 0.8252(4)
O29 O 0.7992(4) 0.9434(5) 0.8947(4)
O30 O 0.8755(8) 0.8977(7) 1.0776(6)
C51 C 0.7802(6) 0.6863(7) 0.9085(6)
C52 C 0.7997(5) 0.7577(4) 0.9341(4)
C53 C 0.8333(5) 0.7969(5) 0.9943(4)
H41 H 0.845932 0.777931 1.020405
C54 C 0.8486(6) 0.8638(5) 1.0163(3)
C55 C 0.8302(6) 0.8915(4) 0.9781(4)
H42 H 0.840555 0.937203 0.993200
C56 C 0.7965(5) 0.8524(5) 0.9179(4)
C57 C 0.7813(4) 0.7855(4) 0.8959(3)
H43 H 0.758305 0.758733 0.854731
C58 C 0.7750(7) 0.8786(8) 0.8750(6)
C59 C 0.8706(13) 0.9696(12) 1.1133(10)
H44 H 0.897901 0.992156 1.155566
H45 H 0.884337 1.000485 1.091560
C60 C 0.7977(14) 0.9453(13) 1.1112(13)
H46 H 0.773509 0.937939 1.071258
H47 H 0.793010 0.979071 1.142395
H48 H 0.781054 0.903710 1.118503
O31 O 0.4473(3) 0.1854(4) 0.6091(4)
O32 O 0.4476(4) 0.0965(4) 0.6244(4)
O33 O 0.3438(4) 0.2995(4) 0.7255(4)
O34 O 0.2966(4) 0.2643(4) 0.7923(4)
O35 O 0.3233(4) 0.0633(5) 0.7778(4)
C61 C 0.4331(5) 0.1410(7) 0.6339(5)
C62 C 0.3938(5) 0.1488(7) 0.6775(5)
C63 C 0.3757(5) 0.1002(7) 0.7047(5)
H49 H 0.386494 0.064663 0.693692
C64 C 0.3418(6) 0.1065(7) 0.7480(6)
C65 C 0.3241(6) 0.1558(7) 0.7611(6)
H50 H 0.299854 0.158865 0.789629
C66 C 0.3414(5) 0.2021(7) 0.7328(5)
C67 C 0.3756(5) 0.1969(6) 0.6915(5)
H51 H 0.386958 0.228164 0.672095
C68 C 0.3251(5) 0.2596(7) 0.7505(5)
C69 C 0.3461(7) 0.0155(7) 0.7687(7)
H52 H 0.393639 0.037624 0.782049
H53 H 0.331988 -0.012860 0.725262
C70 C 0.3187(7) -0.0264(8) 0.8056(7)
H54 H 0.271674 -0.045639 0.793952
H55 H 0.335421 0.001591 0.848794
H56 H 0.331239 -0.062051 0.797994
O36 O 0.3245(4) 0.4599(5) 0.7841(4)
O37 O 0.2807(4) 0.4268(4) 0.8550(4)
O38 O 0.3162(4) 0.6458(4) 0.7434(4)
O39 O 0.2735(3) 0.7056(4) 0.8002(4)
O40 O 0.2355(6) 0.6149(7) 0.9624(5)
C71 C 0.2971(6) 0.4658(7) 0.8249(6)
C72 C 0.2873(6) 0.5257(7) 0.8441(6)
C73 C 0.2660(7) 0.5400(8) 0.8980(6)
H57 H 0.257605 0.511953 0.920692
C74 C 0.2585(8) 0.5968(9) 0.9146(6)
C75 C 0.2638(6) 0.6355(7) 0.8777(6)
H58 H 0.253394 0.671273 0.888774
C76 C 0.2837(6) 0.6215(7) 0.8270(6)
C77 C 0.2957(5) 0.5650(7) 0.8095(6)
H59 H 0.309377 0.554372 0.774010
C78 C 0.2923(6) 0.6636(7) 0.7894(6)
C79 C 0.2488(11) 0.5925(11) 1.0113(8)
H60 H 0.237695 0.544846 0.994083
H61 H 0.222067 0.597889 1.039179
C80 C 0.3239(10) 0.6352(12) 1.0480(8)
H62 H 0.349190 0.618563 1.025053
H63 H 0.329931 0.631101 1.087595
H64 H 0.338095 0.681970 1.053672
O41 O 0.4078(4) 0.7680(5) 0.7486(4)
O42 O 0.3606(4) 0.8248(4) 0.7978(4)
O43 O 0.6406(4) 0.8690(5) 0.7896(4)
O44 O 0.7010(4) 0.9754(5) 0.8596(4)
O45 O 0.5490(4) 1.0402(6) 0.9439(5)
C81 C 0.4073(5) 0.8161(7) 0.7867(6)
C82 C 0.4735(5) 0.8734(7) 0.8241(5)
C83 C 0.4779(5) 0.9273(7) 0.8680(5)
H65 H 0.439892 0.928210 0.876281
C84 C 0.5369(6) 0.9809(8) 0.9006(6)
C85 C 0.5926(6) 0.9759(8) 0.8874(6)
H66 H 0.633992 1.011475 0.909868
C86 C 0.5880(5) 0.9226(7) 0.8442(5)
C87 C 0.5297(5) 0.8706(7) 0.8111(5)
H67 H 0.526651 0.833210 0.779895
C88 C 0.6480(5) 0.9230(8) 0.8288(6)
C89 C 0.4916(8) 1.0533(10) 0.9478(9)
H68 H 0.466880 1.045514 0.907449
H69 H 0.462678 1.025618 0.966472
C90 C 0.5219(11) 1.1209(12) 0.9851(12)
H70 H 0.489341 1.136019 0.991438
H71 H 0.546678 1.126973 1.024269
H72 H 0.550840 1.146681 0.965804
O46 O 0.3346(4) 0.7513(4) 0.6431(4)
O47 O 0.2817(3) 0.7991(4) 0.6894(3)
O48 O 0.4345(3) 0.8183(4) 0.4922(4)
O49 O 0.4305(3) 0.9034(4) 0.4723(3)
O50 O 0.2800(4) 0.9551(5) 0.5882(4)
C91 C 0.3124(5) 0.7915(6) 0.6513(5)
C92 C 0.3215(5) 0.8313(6) 0.6111(5)
C93 C 0.2966(5) 0.8756(6) 0.6165(5)
H73 H 0.271113 0.879021 0.643829
C94 C 0.3088(5) 0.9155(6) 0.5821(5)
C95 C 0.3472(5) 0.9111(6) 0.5439(5)
H74 H 0.356166 0.938377 0.520444
C96 C 0.3723(5) 0.8679(6) 0.5396(5)
C97 C 0.3601(5) 0.8253(6) 0.5725(5)
H75 H 0.377113 0.794578 0.568609
C98 C 0.4164(5) 0.8626(6) 0.4978(5)
C99 C 0.2831(6) 0.9941(8) 0.5505(7)
H76 H 0.327640 1.030236 0.562963
H77 H 0.275102 0.965198 0.508236
C100 C 0.2422(10) 1.0220(12) 0.5507(12)
O51 O 0.6968(4) 0.9074(5) 0.7058(4)
O52 O 0.7575(4) 1.0125(5) 0.7742(4)
O53 O 0.5641(4) 0.8754(4) 0.5151(4)
O54 O 0.5649(3) 0.9628(4) 0.4971(3)
O55 O 0.7468(4) 1.1600(5) 0.6682(4)
C101 C 0.7200(5) 0.9720(7) 0.7237(6)
C102 C 0.7017(5) 1.0000(7) 0.6784(5)
C103 C 0.7322(5) 1.0662(6) 0.6914(6)
H78 H 0.766577 1.094221 0.727070
C104 C 0.7130(6) 1.0940(7) 0.6519(6)
C105 C 0.6646(5) 1.0509(6) 0.5997(5)
H79 H 0.649459 1.067881 0.573050
C106 C 0.6381(5) 0.9839(7) 0.5859(5)
C107 C 0.6567(5) 0.9588(6) 0.6243(5)
H80 H 0.638341 0.912090 0.613668
C108 C 0.5843(5) 0.9362(7) 0.5280(5)
C109 C 0.7372(6) 1.1892(7) 0.6264(6)
H81 H 0.692598 1.183297 0.618330
H82 H 0.744181 1.167738 0.587746
C110 C 0.7835(8) 1.2610(8) 0.6528(7)
H83 H 0.827309 1.266514 0.655389
H84 H 0.780078 1.280661 0.693468
H85 H 0.773717 1.283274 0.627084
O56 O 0.2425(4) 0.6289(4) 0.6379(4)
O57 O 0.1942(3) 0.6818(4) 0.6918(4)
O58 O 0.1133(4) 0.4062(4) 0.4891(4)
O59 O 0.0063(4) 0.3549(4) 0.4737(4)
O60 O -0.0390(4) 0.5349(5) 0.6004(4)
C111 C 0.1914(5) 0.6348(7) 0.6496(5)
C112 C 0.1288(5) 0.5771(6) 0.6118(5)
C113 C 0.0720(5) 0.5804(7) 0.6199(6)
H86 H 0.074478 0.620315 0.646507
C114 C 0.0136(6) 0.5272(7) 0.5900(6)
C115 C 0.0096(5) 0.4698(7) 0.5508(5)
H87 H -0.031035 0.432054 0.530524
C116 C 0.0653(5) 0.4674(7) 0.5413(5)
C117 C 0.1255(5) 0.5222(6) 0.5720(5)
H88 H 0.163522 0.520533 0.564736
C118 C 0.0621(6) 0.4033(6) 0.4977(5)
C119 C -0.0996(6) 0.4780(8) 0.5824(8)
H89 H -0.094291 0.445076 0.597388
H90 H -0.113858 0.457923 0.537670
C120 C -0.1486(10) 0.4907(11) 0.6036(12)
H91 H -0.188709 0.449133 0.589320
H92 H -0.135711 0.509432 0.647954
H93 H -0.155314 0.522303 0.588129
O61 O 1.1095(4) 0.7783(5) 0.6025(4)
N1 N 1.1509(5) 0.7400(7) 0.5266(6)
C121 C 1.1389(6) 0.7437(8) 0.5784(7)
H94 H 1.151506 0.720831 0.600050
C122 C 1.1850(7) 0.7023(10) 0.5067(9)
H95 H 1.158835 0.665864 0.467904
H96 H 1.193512 0.684205 0.536900
H97 H 1.225863 0.731434 0.501656
C123 C 1.1349(10) 0.7757(11) 0.4912(9)
H98 H 1.147835 0.766310 0.453649
H99 H 1.088502 0.760982 0.481579
H100 H 1.157817 0.823458 0.514906
O62 O 0.8530(5) 0.5822(6) 0.9934(4)
C124 C 0.8827(13) 0.6607(14) 1.1527(10)
H101 H 0.903154 0.655057 1.187430
H102 H 0.907701 0.705983 1.154288
H103 H 0.838961 0.653030 1.153905
N2 N 0.8803(9) 0.6121(12) 1.0953(7)
C125 C 0.8535(9) 0.6113(13) 1.0407(9)
H104 H 0.832548 0.638398 1.042514
O63 O 0.5099(4) 0.0109(4) 0.6096(3)
N3 N 0.5156(6) -0.0134(6) 0.6937(5)
C126 C 0.5119(6) 0.0241(7) 0.6638(6)
H105 H 0.510814 0.064067 0.685159
C127 C 0.5144(6) -0.0779(7) 0.6662(6)
H106 H 0.515635 -0.085572 0.624057
H107 H 0.474935 -0.113105 0.667463
H108 H 0.551807 -0.078244 0.688736
C128 C 0.5169(11) 0.0065(10) 0.7595(7)
H109 H 0.514694 0.048534 0.773060
H110 H 0.556831 0.011803 0.783371
H111 H 0.480037 -0.028001 0.765016
O64 O 0.2495(4) 0.3145(4) 0.9019(4)
N4 N 0.3097(5) 0.2915(7) 0.9669(6)
C129 C 0.2799(7) 0.3246(8) 0.9511(7)
H112 H 0.283206 0.361318 0.983273
C130 C 0.3142(10) 0.2410(10) 0.9247(9)
H113 H 0.295838 0.228595 0.882828
H114 H 0.335666 0.218565 0.937477
C131 C 0.3419(9) 0.3121(10) 1.0298(8)
H115 H 0.321809 0.275857 1.044106
H116 H 0.338476 0.351126 1.053834
H117 H 0.387349 0.323137 1.034027
O65 O 0.2218(4) 0.8033(5) 0.7940(4)
N5 N 0.1410(5) 0.8331(6) 0.7946(5)
C132 C 0.1803(6) 0.8145(8) 0.7686(6)
H118 H 0.176546 0.809214 0.727303
C133 C 0.1411(8) 0.8341(10) 0.8554(7)
H119 H 0.114205 0.789205 0.853553
H120 H 0.123966 0.863816 0.874849
H121 H 0.185169 0.850062 0.878939
C134 C 0.0936(7) 0.8456(9) 0.7607(8)
H122 H 0.053260 0.804372 0.741381
H123 H 0.110272 0.861305 0.729652
H124 H 0.085835 0.879344 0.788585
O66 O 0.8402(5) 1.0866(5) 0.9058(4)
O67 O 0.7761(4) 0.6221(6) 0.5349(6)
O68 O 0.6571(8) 0.5406(9) 0.7300(5)
O69 O 0.5027(6) 0.2787(7) 0.5449(11)
O70 O 0.3778(7) 0.4153(6) 0.6809(5)
O71 O 0.3807(8) 0.6488(10) 0.6371(5)
O72 O 0.6655(6) 0.7615(5) 0.6986(5)
Cu1A Cu 0.12042(7) 0.32704(9) 0.43991(7)
Cu2A Cu -0.00490(7) 0.26886(9) 0.41775(7)
Cu3A Cu 0.27932(7) 0.44289(9) 0.18687(7)
Cu4A Cu 0.20492(7) 0.42857(10) 0.08648(8)
Cu5A Cu 0.49361(7) 0.80892(8) 0.44404(7)
Cu6A Cu 0.49236(7) 0.91355(8) 0.42390(7)
Cu7A Cu 0.66188(8) 0.61669(10) 0.25079(8)
Cu8A Cu 0.71491(7) 0.65734(9) 0.17003(8)
Cu9A Cu 0.67102(7) 0.30664(9) 0.31147(7)
Cu10A Cu 0.72755(7) 0.24286(9) 0.25093(7)
Cu11A Cu 0.28798(7) 0.13549(9) 0.24129(7)
Cu12A Cu 0.21661(7) 0.01354(9) 0.16081(7)
O1A O 0.1055(4) 0.3474(4) 0.3682(4)
O2A O -0.0031(3) 0.3002(4) 0.3501(3)
O3A O 0.2024(4) 0.4159(5) 0.2141(4)
O4A O 0.1385(4) 0.4007(5) 0.1274(4)
O5A O -0.0770(4) 0.3344(6) 0.1603(4)
C1A C 0.0491(5) 0.3282(7) 0.3378(5)
C2A C 0.0442(5) 0.3452(6) 0.2805(5)
C3A C -0.0161(5) 0.3346(7) 0.2493(5)
H1A H -0.052289 0.320055 0.264807
C4A C -0.0215(6) 0.3459(8) 0.1956(6)
C5A C 0.0329(6) 0.3654(8) 0.1731(6)
H2A H 0.029289 0.371045 0.135323
C6A C 0.0905(6) 0.3762(7) 0.2050(6)
C7A C 0.0964(6) 0.3686(7) 0.2598(5)
H3A H 0.137534 0.379794 0.283357
C8A C 0.1482(6) 0.3991(7) 0.1809(6)
C9A C -0.1209(7) 0.3447(10) 0.1916(8)
H4A H -0.163684 0.323215 0.162205
H5A H -0.124660 0.322262 0.221043
C10A C -0.1032(8) 0.4177(10) 0.2255(9)
H6A H -0.136196 0.420185 0.245869
H7A H -0.100648 0.440205 0.196692
H8A H -0.061543 0.439250 0.255653
O6A O 0.1078(4) 0.2401(4) 0.3870(4)
O7A O -0.0002(3) 0.1908(4) 0.3665(3)
O8A O 0.2066(4) 0.1229(4) 0.2628(4)
O9A O 0.1460(4) 0.0204(5) 0.1950(4)
O10A O -0.0683(4) -0.0455(5) 0.2471(4)
C11A C 0.0532(5) 0.1902(7) 0.3599(5)
C12A C 0.0507(5) 0.1303(7) 0.3210(6)
C13A C -0.0056(6) 0.0694(7) 0.3020(6)
H9A H -0.041677 0.068542 0.316234
C14A C -0.0101(6) 0.0103(7) 0.2628(6)
C15A C 0.0430(6) 0.0129(7) 0.2449(6)
H10A H 0.041129 -0.027168 0.219294
C16A C 0.0988(5) 0.0699(7) 0.2618(5)
C17A C 0.1031(5) 0.1295(7) 0.3000(6)
H11A H 0.141829 0.169613 0.311678
C18A C 0.1556(6) 0.0727(7) 0.2375(6)
C19A C -0.0727(6) -0.1062(8) 0.2137(7)
H12A H -0.063285 -0.106097 0.174557
H13A H -0.041464 -0.115477 0.236141
C20A C -0.1394(7) -0.1574(8) 0.2033(8)
H14A H -0.145260 -0.163441 0.241341
H15A H -0.169925 -0.143004 0.188650
H16A H -0.147027 -0.199476 0.173054
O11A O 0.1149(4) 0.2959(5) 0.5073(4)
O12A O 0.0088(4) 0.2429(5) 0.4875(4)
O13A O 0.2501(4) 0.3361(5) 0.6997(4)
O14A O 0.2037(4) 0.3022(5) 0.7697(4)
O15A O -0.0241(5) 0.1504(7) 0.6570(6)
C21A C 0.0645(6) 0.2646(7) 0.5180(6)
C22A C 0.0719(6) 0.2486(7) 0.5762(5)
C23A C 0.0182(7) 0.2035(8) 0.5874(6)
H17A H -0.022694 0.180901 0.558658
C24A C 0.0257(7) 0.1928(8) 0.6403(7)
C25A C 0.0830(7) 0.2255(8) 0.6834(6)
H18A H 0.086773 0.218762 0.720621
C26A C 0.1365(6) 0.2697(7) 0.6710(6)
C27A C 0.1303(6) 0.2802(7) 0.6169(5)
H19A H 0.166734 0.309349 0.608503
C28A C 0.2019(6) 0.3058(7) 0.7168(6)
C29A C -0.0846(9) 0.1132(12) 0.6140(10)
H20A H -0.105346 0.141729 0.611557
H21A H -0.080070 0.093210 0.573490
C30A C -0.1276(11) 0.0546(14) 0.6380(12)
H22A H -0.170534 0.026854 0.609621
H23A H -0.131376 0.075240 0.678150
H24A H -0.106240 0.026989 0.640294
O16A O 0.2911(4) 0.5343(4) 0.2136(4)
O17A O 0.2274(4) 0.5216(5) 0.1287(4)
O18A O 0.4220(4) 0.7563(4) 0.3715(4)
O19A O 0.4220(4) 0.8434(5) 0.3525(4)
O20A O 0.2541(6) 0.7455(6) 0.1540(5)
C31A C 0.2664(5) 0.5560(7) 0.1814(5)
C32A C 0.2844(6) 0.6295(7) 0.2053(5)
C33A C 0.2594(7) 0.6547(7) 0.1722(6)
H25A H 0.227902 0.625694 0.134707
C34A C 0.2784(8) 0.7237(8) 0.1914(6)
C35A C 0.3278(7) 0.7651(7) 0.2479(5)
H26A H 0.344449 0.811937 0.261882
C36A C 0.3506(6) 0.7368(7) 0.2813(5)
C37A C 0.3320(5) 0.6701(6) 0.2614(5)
H27A H 0.350184 0.651721 0.284317
C38A C 0.4025(6) 0.7837(7) 0.3404(5)
C39A C 0.2823(12) 0.8187(10) 0.1702(9)
H28A H 0.329625 0.838134 0.184898
H29A H 0.266886 0.837284 0.204080
C40A C 0.2678(16) 0.8381(13) 0.1235(12)
H30A H 0.288080 0.886615 0.137893
H31A H 0.221105 0.820215 0.109332
H32A H 0.283958 0.821066 0.090116
O21A O 0.3471(4) 0.4683(4) 0.1457(4)
O22A O 0.2863(4) 0.4586(5) 0.0619(4)
O23A O 0.5815(4) 0.5762(5) 0.1883(4)
O24A O 0.6256(4) 0.6139(5) 0.1204(4)
O25A O 0.4359(5) 0.5575(5) -0.0490(5)
C41A C 0.3388(5) 0.4758(7) 0.0966(6)
C42A C 0.3972(5) 0.5051(7) 0.0742(6)
C43A C 0.3920(6) 0.5150(7) 0.0202(6)
H33A H 0.350831 0.498030 -0.006541
C44A C 0.4462(6) 0.5493(7) 0.0053(6)
C45A C 0.5058(6) 0.5713(6) 0.0417(6)
H34A H 0.542942 0.594543 0.030334
C46A C 0.5124(5) 0.5595(7) 0.0971(6)
C47A C 0.4580(5) 0.5284(7) 0.1137(6)
H35A H 0.461197 0.522609 0.151422
C48A C 0.5781(5) 0.5846(6) 0.1377(6)
C49A C 0.4886(7) 0.5992(9) -0.0630(8)
H36A H 0.508172 0.644677 -0.032130
H37A H 0.521428 0.583129 -0.063080
C50A C 0.4666(9) 0.6002(11) -0.1258(9)
H38A H 0.439891 0.623116 -0.123690
H39A H 0.504320 0.623542 -0.138564
H40A H 0.441576 0.554556 -0.155108
O26A O 0.2548(4) 0.3470(4) 0.1432(4)
O27A O 0.1943(4) 0.3364(5) 0.0573(4)
O28A O 0.2602(4) 0.1600(4) 0.1748(4)
O29A O 0.2008(4) 0.0566(5) 0.1053(4)
O30A O 0.1245(8) 0.1023(7) -0.0776(6)
C51A C 0.2198(6) 0.3137(7) 0.0915(6)
C52A C 0.2003(5) 0.2423(4) 0.0659(4)
C53A C 0.1667(5) 0.2031(5) 0.0057(4)
H41A H 0.154068 0.222069 -0.020405
C54A C 0.1514(6) 0.1362(5) -0.0163(3)
C55A C 0.1698(6) 0.1085(4) 0.0219(4)
H42A H 0.159445 0.062797 0.006800
C56A C 0.2035(5) 0.1476(5) 0.0821(4)
C57A C 0.2187(4) 0.2145(4) 0.1041(3)
H43A H 0.241695 0.241267 0.145269
C58A C 0.2250(7) 0.1214(8) 0.1250(6)
C59A C 0.1294(13) 0.0304(12) -0.1133(10)
H44A H 0.102099 0.007844 -0.155566
H45A H 0.115663 -0.000485 -0.091560
C60A C 0.2023(14) 0.0547(13) -0.1112(13)
H46A H 0.226491 0.062061 -0.071258
H47A H 0.206990 0.020929 -0.142395
H48A H 0.218946 0.096290 -0.118503
O31A O 0.5527(3) 0.8146(4) 0.3909(4)
O32A O 0.5524(4) 0.9035(4) 0.3756(4)
O33A O 0.6562(4) 0.7005(4) 0.2745(4)
O34A O 0.7034(4) 0.7357(4) 0.2077(4)
O35A O 0.6767(4) 0.9367(5) 0.2222(4)
C61A C 0.5669(5) 0.8590(7) 0.3661(5)
C62A C 0.6062(5) 0.8512(7) 0.3225(5)
C63A C 0.6243(5) 0.8998(7) 0.2953(5)
H49A H 0.613506 0.935337 0.306308
C64A C 0.6582(6) 0.8935(7) 0.2520(6)
C65A C 0.6759(6) 0.8442(7) 0.2389(6)
H50A H 0.700146 0.841135 0.210371
C66A C 0.6586(5) 0.7979(7) 0.2672(5)
C67A C 0.6244(5) 0.8031(6) 0.3085(5)
H51A H 0.613042 0.771836 0.327905
C68A C 0.6749(5) 0.7404(7) 0.2495(5)
C69A C 0.6539(7) 0.9845(7) 0.2313(7)
H52A H 0.606361 0.962376 0.217951
H53A H 0.668012 1.012860 0.274738
C70A C 0.6813(7) 1.0264(8) 0.1944(7)
H54A H 0.728326 1.045639 0.206048
H55A H 0.664579 0.998409 0.151206
H56A H 0.668761 1.062051 0.202006
O36A O 0.6755(4) 0.5401(5) 0.2159(4)
O37A O 0.7193(4) 0.5732(4) 0.1450(4)
O38A O 0.6838(4) 0.3542(4) 0.2566(4)
O39A O 0.7265(3) 0.2944(4) 0.1998(4)
O40A O 0.7645(6) 0.3851(7) 0.0376(5)
C71A C 0.7029(6) 0.5342(7) 0.1751(6)
C72A C 0.7127(6) 0.4743(7) 0.1559(6)
C73A C 0.7340(7) 0.4600(8) 0.1020(6)
H57A H 0.742395 0.488047 0.079308
C74A C 0.7415(8) 0.4032(9) 0.0854(6)
C75A C 0.7362(6) 0.3645(7) 0.1223(6)
H58A H 0.746606 0.328727 0.111226
C76A C 0.7163(6) 0.3785(7) 0.1730(6)
C77A C 0.7043(5) 0.4350(7) 0.1905(6)
H59A H 0.690623 0.445628 0.225990
C78A C 0.7077(6) 0.3364(7) 0.2106(6)
C79A C 0.7512(11) 0.4075(11) -0.0113(8)
H60A H 0.762305 0.455154 0.005917
H61A H 0.777933 0.402111 -0.039179
C80A C 0.6761(10) 0.3648(12) -0.0480(8)
H62A H 0.650810 0.381437 -0.025053
H63A H 0.670069 0.368899 -0.087595
H64A H 0.661905 0.318030 -0.053672
O41A O 0.5922(4) 0.2320(5) 0.2514(4)
O42A O 0.6394(4) 0.1752(4) 0.2022(4)
O43A O 0.3594(4) 0.1310(5) 0.2104(4)
O44A O 0.2990(4) 0.0246(5) 0.1404(4)
O45A O 0.4510(4) -0.0402(6) 0.0561(5)
C81A C 0.5927(5) 0.1839(7) 0.2133(6)
C82A C 0.5265(5) 0.1266(7) 0.1759(5)
C83A C 0.5221(5) 0.0727(7) 0.1320(5)
H65A H 0.560108 0.071790 0.123719
C84A C 0.4631(6) 0.0191(8) 0.0994(6)
C85A C 0.4074(6) 0.0241(8) 0.1126(6)
H66A H 0.366008 -0.011475 0.090132
C86A C 0.4120(5) 0.0774(7) 0.1558(5)
C87A C 0.4703(5) 0.1294(7) 0.1889(5)
H67A H 0.473349 0.166790 0.220105
C88A C 0.3520(5) 0.0770(8) 0.1712(6)
C89A C 0.5084(8) -0.0533(10) 0.0522(9)
H68A H 0.533120 -0.045514 0.092551
H69A H 0.537322 -0.025618 0.033528
C90A C 0.4781(11) -0.1209(12) 0.0149(12)
H70A H 0.510659 -0.136019 0.008562
H71A H 0.453322 -0.126973 -0.024269
H72A H 0.449160 -0.146681 0.034196
O46A O 0.6654(4) 0.2487(4) 0.3569(4)
O47A O 0.7183(3) 0.2009(4) 0.3106(3)
O48A O 0.5655(3) 0.1817(4) 0.5078(4)
O49A O 0.5695(3) 0.0966(4) 0.5277(3)
O50A O 0.7200(4) 0.0449(5) 0.4118(4)
C91A C 0.6876(5) 0.2085(6) 0.3487(5)
C92A C 0.6785(5) 0.1687(6) 0.3889(5)
C93A C 0.7034(5) 0.1244(6) 0.3835(5)
H73A H 0.728887 0.120979 0.356171
C94A C 0.6912(5) 0.0845(6) 0.4179(5)
C95A C 0.6528(5) 0.0889(6) 0.4561(5)
H74A H 0.643834 0.061623 0.479556
C96A C 0.6277(5) 0.1321(6) 0.4604(5)
C97A C 0.6399(5) 0.1747(6) 0.4275(5)
H75A H 0.622887 0.205422 0.431391
C98A C 0.5836(5) 0.1374(6) 0.5022(5)
C99A C 0.7169(6) 0.0059(8) 0.4495(7)
H76A H 0.672360 -0.030236 0.437037
H77A H 0.724898 0.034802 0.491764
C100A C 0.7578(10) -0.0220(12) 0.4493(12)
O51A O 0.3032(4) 0.0926(5) 0.2942(4)
O52A O 0.2425(4) -0.0125(5) 0.2258(4)
O53A O 0.4359(4) 0.1246(4) 0.4849(4)
O54A O 0.4351(3) 0.0372(4) 0.5029(3)
O55A O 0.2532(4) -0.1600(5) 0.3318(4)
C101A C 0.2800(5) 0.0280(7) 0.2763(6)
C102A C 0.2983(5) 0.0000(7) 0.3216(5)
C103A C 0.2678(5) -0.0662(6) 0.3086(6)
H78A H 0.233423 -0.094221 0.272930
C104A C 0.2870(6) -0.0940(7) 0.3481(6)
C105A C 0.3354(5) -0.0509(6) 0.4003(5)
H79A H 0.350541 -0.067881 0.426950
C106A C 0.3619(5) 0.0161(7) 0.4141(5)
C107A C 0.3433(5) 0.0412(6) 0.3757(5)
H80A H 0.361659 0.087910 0.386332
C108A C 0.4157(5) 0.0638(7) 0.4720(5)
C109A C 0.2628(6) -0.1892(7) 0.3736(6)
H81A H 0.307402 -0.183297 0.381670
H82A H 0.255819 -0.167738 0.412254
C110A C 0.2165(8) -0.2610(8) 0.3472(7)
H83A H 0.172691 -0.266514 0.344611
H84A H 0.219922 -0.280661 0.306532
H85A H 0.226283 -0.283274 0.372916
O56A O 0.7575(4) 0.3711(4) 0.3621(4)
O57A O 0.8058(3) 0.3182(4) 0.3082(4)
O58A O 0.8867(4) 0.5938(4) 0.5109(4)
O59A O 0.9937(4) 0.6451(4) 0.5263(4)
O60A O 1.0390(4) 0.4651(5) 0.3996(4)
C111A C 0.8086(5) 0.3652(7) 0.3504(5)
C112A C 0.8712(5) 0.4229(6) 0.3882(5)
C113A C 0.9280(5) 0.4196(7) 0.3801(6)
H86A H 0.925522 0.379685 0.353493
C114A C 0.9864(6) 0.4728(7) 0.4100(6)
C115A C 0.9904(5) 0.5302(7) 0.4492(5)
H87A H 1.031035 0.567946 0.469476
C116A C 0.9347(5) 0.5326(7) 0.4587(5)
C117A C 0.8745(5) 0.4778(6) 0.4280(5)
H88A H 0.836478 0.479467 0.435264
C118A C 0.9379(6) 0.5967(6) 0.5023(5)
C119A C 1.0996(6) 0.5220(8) 0.4176(8)
H89A H 1.094291 0.554924 0.402612
H90A H 1.113858 0.542077 0.462330
C120A C 1.1486(10) 0.5093(11) 0.3964(12)
H91A H 1.188709 0.550867 0.410680
H92A H 1.135711 0.490568 0.352046
H93A H 1.155314 0.477697 0.411871
O61A O -0.1095(4) 0.2217(5) 0.3975(4)
N1A N -0.1509(5) 0.2600(7) 0.4734(6)
C121A C -0.1389(6) 0.2563(8) 0.4216(7)
H94A H -0.151506 0.279169 0.399950
C122A C -0.1850(7) 0.2977(10) 0.4933(9)
H95A H -0.158835 0.334136 0.532096
H96A H -0.193512 0.315795 0.463100
H97A H -0.225863 0.268566 0.498344
C123A C -0.1349(10) 0.2243(11) 0.5088(9)
H98A H -0.147835 0.233690 0.546351
H99A H -0.088502 0.239018 0.518421
H100A H -0.157817 0.176542 0.485094
O62A O 0.1470(5) 0.4178(6) 0.0066(4)
C124A C 0.1173(13) 0.3393(14) -0.1527(10)
H101A H 0.096846 0.344943 -0.187430
H102A H 0.092299 0.294017 -0.154288
H103A H 0.161039 0.346970 -0.153905
N2A N 0.1197(9) 0.3879(12) -0.0953(7)
C125A C 0.1465(9) 0.3887(13) -0.0407(9)
H104A H 0.167452 0.361602 -0.042514
O63A O 0.4901(4) 0.9891(4) 0.3904(3)
N3A N 0.4844(6) 1.0134(6) 0.3063(5)
C126A C 0.4881(6) 0.9759(7) 0.3362(6)
H105A H 0.489186 0.935933 0.314841
C127A C 0.4856(6) 1.0779(7) 0.3338(6)
H106A H 0.484365 1.085572 0.375943
H107A H 0.525065 1.113105 0.332537
H108A H 0.448193 1.078244 0.311264
C128A C 0.4831(11) 0.9935(10) 0.2405(7)
H109A H 0.485306 0.951466 0.226940
H110A H 0.443169 0.988197 0.216629
H111A H 0.519963 1.028001 0.234984
O64A O 0.7505(4) 0.6855(4) 0.0981(4)
N4A N 0.6903(5) 0.7085(7) 0.0331(6)
C129A C 0.7201(7) 0.6754(8) 0.0489(7)
H112A H 0.716794 0.638682 0.016727
C130A C 0.6858(10) 0.7590(10) 0.0753(9)
H113A H 0.704162 0.771405 0.117172
H114A H 0.664334 0.781435 0.062523
C131A C 0.6581(9) 0.6879(10) -0.0298(8)
H115A H 0.678191 0.724143 -0.044106
H116A H 0.661524 0.648874 -0.053834
H117A H 0.612651 0.676863 -0.034027
O65A O 0.7782(4) 0.1967(5) 0.2060(4)
N5A N 0.8590(5) 0.1669(6) 0.2054(5)
C132A C 0.8197(6) 0.1855(8) 0.2314(6)
H118A H 0.823454 0.190786 0.272697
C133A C 0.8589(8) 0.1659(10) 0.1446(7)
H119A H 0.885795 0.210795 0.146447
H120A H 0.876034 0.136184 0.125151
H121A H 0.814831 0.149938 0.121061
C134A C 0.9064(7) 0.1544(9) 0.2393(8)
H122A H 0.946740 0.195628 0.258619
H123A H 0.889728 0.138695 0.270348
H124A H 0.914165 0.120656 0.211415
O66A O 0.1598(5) -0.0866(5) 0.0942(4)
O67A O 0.2239(4) 0.3779(6) 0.4651(6)
O68A O 0.3429(8) 0.4594(9) 0.2700(5)
O69A O 0.4973(6) 0.7213(7) 0.4551(11)
O70A O 0.6222(7) 0.5847(6) 0.3191(5)
O71A O 0.6193(8) 0.3512(10) 0.3629(5)
O72A O 0.3345(6) 0.2385(5) 0.3014(5)
loop_
_geom_bond_atom_site_label_1
_geom_bond_atom_site_label_2
_geom_bond_site_symmetry_1
_geom_bond_site_symmetry_2
Cu1 O1 1_555 1_555
Cu2 O2 1_555 1_555
Cu3 O3 1_555 1_555
Cu4 O4 1_555 1_555
Cu5 O18 1_555 1_555
Cu6 O19 1_555 1_555
Cu7 O23 1_555 1_555
Cu8 O24 1_555 1_555
Cu9 O38 1_555 1_555
Cu10 O39 1_555 1_555
Cu11 O8 1_555 1_555
Cu12 O9 1_555 1_555
O1 C1 1_555 1_555
O2 C1 1_555 1_555
O3 C8 1_555 1_555
O4 C8 1_555 1_555
O5 C4 1_555 1_555
C1 C2 1_555 1_555
C2 C3 1_555 1_555
C3 H1 1_555 1_555
C4 C3 1_555 1_555
C5 C4 1_555 1_555
H2 C5 1_555 1_555
C6 C5 1_555 1_555
C7 C2 1_555 1_555
H3 C7 1_555 1_555
C8 C6 1_555 1_555
C9 O5 1_555 1_555
H4 C9 1_555 1_555
H5 C9 1_555 1_555
C10 C9 1_555 1_555
H6 C10 1_555 1_555
H7 C10 1_555 1_555
H8 C10 1_555 1_555
O6 Cu1 1_555 1_555
O7 Cu2 1_555 1_555
O8 C18 1_555 1_555
O9 C18 1_555 1_555
O10 C14 1_555 1_555
C11 O6 1_555 1_555
C12 C11 1_555 1_555
C13 C12 1_555 1_555
H9 C13 1_555 1_555
C14 C13 1_555 1_555
C15 C14 1_555 1_555
H10 C15 1_555 1_555
C16 C15 1_555 1_555
C17 C12 1_555 1_555
H11 C17 1_555 1_555
C18 C16 1_555 1_555
C19 O10 1_555 1_555
H12 C19 1_555 1_555
H13 C19 1_555 1_555
C20 C19 1_555 1_555
H14 C20 1_555 1_555
H15 C20 1_555 1_555
H16 C20 1_555 1_555
O11 Cu1 1_555 1_555
O12 Cu2 1_555 1_555
O13 C28 1_555 1_555
O14 C28 1_555 1_555
O15 C24 1_555 1_555
C21 O11 1_555 1_555
C22 C21 1_555 1_555
C23 C22 1_555 1_555
H17 C23 1_555 1_555
C24 C23 1_555 1_555
C25 C24 1_555 1_555
H18 C25 1_555 1_555
C26 C25 1_555 1_555
C27 C22 1_555 1_555
H19 C27 1_555 1_555
C28 C26 1_555 1_555
C29 O15 1_555 1_555
H20 C29 1_555 1_555
H21 C29 1_555 1_555
C30 C29 1_555 1_555
H22 C30 1_555 1_555
H23 C30 1_555 1_555
H24 C30 1_555 1_555
O16 Cu3 1_555 1_555
O17 Cu4 1_555 1_555
O18 C38 1_555 1_555
O19 C38 1_555 1_555
O20 C34 1_555 1_555
C31 O16 1_555 1_555
C32 C31 1_555 1_555
C33 C32 1_555 1_555
H25 C33 1_555 1_555
C34 C33 1_555 1_555
C35 C34 1_555 1_555
H26 C35 1_555 1_555
C36 C35 1_555 1_555
C37 C32 1_555 1_555
H27 C37 1_555 1_555
C38 C36 1_555 1_555
C39 O20 1_555 1_555
H28 C39 1_555 1_555
H29 C39 1_555 1_555
C40 C39 1_555 1_555
H30 C40 1_555 1_555
H31 C40 1_555 1_555
H32 C40 1_555 1_555
O21 Cu3 1_555 1_555
O22 Cu4 1_555 1_555
O23 C48 1_555 1_555
O24 C48 1_555 1_555
O25 C44 1_555 1_555
C41 O21 1_555 1_555
C42 C41 1_555 1_555
C43 C42 1_555 1_555
H33 C43 1_555 1_555
C44 C43 1_555 1_555
C45 C44 1_555 1_555
H34 C45 1_555 1_555
C46 C45 1_555 1_555
C47 C42 1_555 1_555
H35 C47 1_555 1_555
C48 C46 1_555 1_555
C49 O25 1_555 1_555
H36 C49 1_555 1_555
H37 C49 1_555 1_555
C50 C49 1_555 1_555
H38 C50 1_555 1_555
H39 C50 1_555 1_555
H40 C50 1_555 1_555
O26 Cu3 1_555 1_555
O27 Cu4 1_555 1_555
O28 Cu11 1_555 1_555
O29 Cu12 1_555 1_555
O30 C54 1_555 1_555
C51 O26 1_555 1_555
C52 C51 1_555 1_555
C53 C52 1_555 1_555
H41 C53 1_555 1_555
C54 C53 1_555 1_555
C55 C54 1_555 1_555
H42 C55 1_555 1_555
C56 C55 1_555 1_555
C57 C52 1_555 1_555
H43 C57 1_555 1_555
C58 O28 1_555 1_555
C59 O30 1_555 1_555
H44 C59 1_555 1_555
H45 C59 1_555 1_555
C60 C59 1_555 1_555
H46 C60 1_555 1_555
H47 C60 1_555 1_555
H48 C60 1_555 1_555
O31 Cu5 1_555 1_555
O32 Cu6 1_555 1_555
O33 Cu7 1_555 1_555
O34 Cu8 1_555 1_555
O35 C64 1_555 1_555
C61 O31 1_555 1_555
C62 C61 1_555 1_555
C63 C62 1_555 1_555
H49 C63 1_555 1_555
C64 C63 1_555 1_555
C65 C64 1_555 1_555
H50 C65 1_555 1_555
C66 C65 1_555 1_555
C67 C62 1_555 1_555
H51 C67 1_555 1_555
C68 O33 1_555 1_555
C69 O35 1_555 1_555
H52 C69 1_555 1_555
H53 C69 1_555 1_555
C70 C69 1_555 1_555
H54 C70 1_555 1_555
H55 C70 1_555 1_555
H56 C70 1_555 1_555
O36 Cu7 1_555 1_555
O37 Cu8 1_555 1_555
O38 C78 1_555 1_555
O39 C78 1_555 1_555
O40 C74 1_555 1_555
C71 O36 1_555 1_555
C72 C71 1_555 1_555
C73 C72 1_555 1_555
H57 C73 1_555 1_555
C74 C73 1_555 1_555
C75 C74 1_555 1_555
H58 C75 1_555 1_555
C76 C75 1_555 1_555
C77 C72 1_555 1_555
H59 C77 1_555 1_555
C78 C76 1_555 1_555
C79 O40 1_555 1_555
H60 C79 1_555 1_555
H61 C79 1_555 1_555
C80 C79 1_555 1_555
H62 C80 1_555 1_555
H63 C80 1_555 1_555
H64 C80 1_555 1_555
O41 Cu9 1_555 1_555
O42 Cu10 1_555 1_555
O43 Cu11 1_555 1_555
O44 Cu12 1_555 1_555
O45 C84 1_555 1_555
C81 O41 1_555 1_555
C82 C81 1_555 1_555
C83 C82 1_555 1_555
H65 C83 1_555 1_555
C84 C83 1_555 1_555
C85 C84 1_555 1_555
H66 C85 1_555 1_555
C86 C85 1_555 1_555
C87 C82 1_555 1_555
H67 C87 1_555 1_555
C88 O43 1_555 1_555
C89 O45 1_555 1_555
H68 C89 1_555 1_555
H69 C89 1_555 1_555
C90 C89 1_555 1_555
H70 C90 1_555 1_555
H71 C90 1_555 1_555
H72 C90 1_555 1_555
O46 Cu9 1_555 1_555
O47 Cu10 1_555 1_555
O48 C98 1_555 1_555
O49 C98 1_555 1_555
O50 C94 1_555 1_555
C91 O46 1_555 1_555
C92 C91 1_555 1_555
C93 C92 1_555 1_555
H73 C93 1_555 1_555
C94 C93 1_555 1_555
C95 C94 1_555 1_555
H74 C95 1_555 1_555
C96 C95 1_555 1_555
C97 C92 1_555 1_555
H75 C97 1_555 1_555
C98 C96 1_555 1_555
C99 O50 1_555 1_555
H76 C99 1_555 1_555
H77 C99 1_555 1_555
C100 C99 1_555 1_555
O51 Cu11 1_555 1_555
O52 Cu12 1_555 1_555
O53 C108 1_555 1_555
O54 C108 1_555 1_555
O55 C104 1_555 1_555
C101 O51 1_555 1_555
C102 C101 1_555 1_555
C103 C102 1_555 1_555
H78 C103 1_555 1_555
C104 C103 1_555 1_555
C105 C104 1_555 1_555
H79 C105 1_555 1_555
C106 C105 1_555 1_555
C107 C102 1_555 1_555
H80 C107 1_555 1_555
C108 C106 1_555 1_555
C109 O55 1_555 1_555
H81 C109 1_555 1_555
H82 C109 1_555 1_555
C110 C109 1_555 1_555
H83 C110 1_555 1_555
H84 C110 1_555 1_555
H85 C110 1_555 1_555
O56 Cu9 1_555 1_555
O57 Cu10 1_555 1_555
O58 C118 1_555 1_555
O59 C118 1_555 1_555
O60 C114 1_555 1_555
C111 O56 1_555 1_555
C112 C111 1_555 1_555
C113 C112 1_555 1_555
H86 C113 1_555 1_555
C114 C113 1_555 1_555
C115 C114 1_555 1_555
H87 C115 1_555 1_555
C116 C115 1_555 1_555
C117 C112 1_555 1_555
H88 C117 1_555 1_555
C118 C116 1_555 1_555
C119 O60 1_555 1_555
H89 C119 1_555 1_555
H90 C119 1_555 1_555
C120 C119 1_555 1_555
H91 C120 1_555 1_555
H92 C120 1_555 1_555
H93 C120 1_555 1_555
O61 Cu2 1_555 1_555
N1 C121 1_555 1_555
C121 O61 1_555 1_555
H94 C121 1_555 1_555
C122 N1 1_555 1_555
H95 C122 1_555 1_555
H96 C122 1_555 1_555
H97 C122 1_555 1_555
C123 N1 1_555 1_555
H98 C123 1_555 1_555
H99 C123 1_555 1_555
H100 C123 1_555 1_555
O62 Cu4 1_555 1_555
C124 H101 1_555 1_555
H102 C124 1_555 1_555
H103 C124 1_555 1_555
N2 C124 1_555 1_555
C125 O62 1_555 1_555
H104 C125 1_555 1_555
O63 Cu6 1_555 1_555
N3 C126 1_555 1_555
C126 O63 1_555 1_555
H105 C126 1_555 1_555
C127 N3 1_555 1_555
H106 C127 1_555 1_555
H107 C127 1_555 1_555
H108 C127 1_555 1_555
C128 N3 1_555 1_555
H109 C128 1_555 1_555
H110 C128 1_555 1_555
H111 C128 1_555 1_555
O64 Cu8 1_555 1_555
N4 C129 1_555 1_555
C129 O64 1_555 1_555
H112 C129 1_555 1_555
C130 N4 1_555 1_555
H113 C130 1_555 1_555
H114 C130 1_555 1_555
C131 N4 1_555 1_555
H115 C131 1_555 1_555
H116 C131 1_555 1_555
H117 C131 1_555 1_555
O65 Cu10 1_555 1_555
N5 C132 1_555 1_555
C132 O65 1_555 1_555
H118 C132 1_555 1_555
C133 N5 1_555 1_555
H119 C133 1_555 1_555
H120 C133 1_555 1_555
H121 C133 1_555 1_555
C134 N5 1_555 1_555
H122 C134 1_555 1_555
H123 C134 1_555 1_555
H124 C134 1_555 1_555
O66 Cu12 1_555 1_555
O67 Cu1 1_555 1_555
O68 Cu3 1_555 1_555
O69 Cu5 1_555 1_555
O70 Cu7 1_555 1_555
O71 Cu9 1_555 1_555
O72 Cu11 1_555 1_555
Cu1A O58 1_555 1_555
Cu2A O59 1_555 1_555
Cu3A O3A 1_555 1_555
Cu4A O4A 1_555 1_555
Cu5A O48 1_555 1_555
Cu6A O49 1_555 1_555
Cu7A O13 1_555 1_555
Cu8A O14 1_555 1_555
Cu9A O38A 1_555 1_555
Cu10A O39A 1_555 1_555
Cu11A O8A 1_555 1_555
Cu12A O9A 1_555 1_555
O1A Cu1A 1_555 1_555
O2A Cu2A 1_555 1_555
O3A C8A 1_555 1_555
O4A C8A 1_555 1_555
O5A C4A 1_555 1_555
C1A O1A 1_555 1_555
C2A C1A 1_555 1_555
C3A C2A 1_555 1_555
H1A C3A 1_555 1_555
C4A C3A 1_555 1_555
C5A C4A 1_555 1_555
H2A C5A 1_555 1_555
C6A C5A 1_555 1_555
C7A C2A 1_555 1_555
H3A C7A 1_555 1_555
C8A C6A 1_555 1_555
C9A O5A 1_555 1_555
H4A C9A 1_555 1_555
H5A C9A 1_555 1_555
C10A C9A 1_555 1_555
H6A C10A 1_555 1_555
H7A C10A 1_555 1_555
H8A C10A 1_555 1_555
O6A Cu1A 1_555 1_555
O7A Cu2A 1_555 1_555
O8A C18A 1_555 1_555
O9A C18A 1_555 1_555
O10A C14A 1_555 1_555
C11A O6A 1_555 1_555
C12A C11A 1_555 1_555
C13A C12A 1_555 1_555
H9A C13A 1_555 1_555
C14A C13A 1_555 1_555
C15A C14A 1_555 1_555
H10A C15A 1_555 1_555
C16A C15A 1_555 1_555
C17A C12A 1_555 1_555
H11A C17A 1_555 1_555
C18A C16A 1_555 1_555
C19A O10A 1_555 1_555
H12A C19A 1_555 1_555
H13A C19A 1_555 1_555
C20A C19A 1_555 1_555
H14A C20A 1_555 1_555
H15A C20A 1_555 1_555
H16A C20A 1_555 1_555
O11A Cu1A 1_555 1_555
O12A Cu2A 1_555 1_555
O13A Cu7 1_555 1_555
O14A Cu8 1_555 1_555
O15A C24A 1_555 1_555
C21A O11A 1_555 1_555
C22A C21A 1_555 1_555
C23A C22A 1_555 1_555
H17A C23A 1_555 1_555
C24A C23A 1_555 1_555
C25A C24A 1_555 1_555
H18A C25A 1_555 1_555
C26A C25A 1_555 1_555
C27A C22A 1_555 1_555
H19A C27A 1_555 1_555
C28A O13A 1_555 1_555
C29A O15A 1_555 1_555
H20A C29A 1_555 1_555
H21A C29A 1_555 1_555
C30A C29A 1_555 1_555
H22A C30A 1_555 1_555
H23A C30A 1_555 1_555
H24A C30A 1_555 1_555
O16A Cu3A 1_555 1_555
O17A Cu4A 1_555 1_555
O18A Cu5A 1_555 1_555
O19A Cu6A 1_555 1_555
O20A C34A 1_555 1_555
C31A O16A 1_555 1_555
C32A C31A 1_555 1_555
C33A C32A 1_555 1_555
H25A C33A 1_555 1_555
C34A C33A 1_555 1_555
C35A C34A 1_555 1_555
H26A C35A 1_555 1_555
C36A C35A 1_555 1_555
C37A C32A 1_555 1_555
H27A C37A 1_555 1_555
C38A O18A 1_555 1_555
C39A O20A 1_555 1_555
H28A C39A 1_555 1_555
H29A C39A 1_555 1_555
C40A C39A 1_555 1_555
H30A C40A 1_555 1_555
H31A C40A 1_555 1_555
H32A C40A 1_555 1_555
O21A Cu3A 1_555 1_555
O22A Cu4A 1_555 1_555
O23A Cu7A 1_555 1_555
O24A Cu8A 1_555 1_555
O25A C44A 1_555 1_555
C41A O21A 1_555 1_555
C42A C41A 1_555 1_555
C43A C42A 1_555 1_555
H33A C43A 1_555 1_555
C44A C43A 1_555 1_555
C45A C44A 1_555 1_555
H34A C45A 1_555 1_555
C46A C45A 1_555 1_555
C47A C42A 1_555 1_555
H35A C47A 1_555 1_555
C48A O23A 1_555 1_555
C49A O25A 1_555 1_555
H36A C49A 1_555 1_555
H37A C49A 1_555 1_555
C50A C49A 1_555 1_555
H38A C50A 1_555 1_555
H39A C50A 1_555 1_555
H40A C50A 1_555 1_555
O26A Cu3A 1_555 1_555
O27A Cu4A 1_555 1_555
O28A Cu11A 1_555 1_555
O29A Cu12A 1_555 1_555
O30A C54A 1_555 1_555
C51A O26A 1_555 1_555
C52A C51A 1_555 1_555
C53A C52A 1_555 1_555
H41A C53A 1_555 1_555
C54A C53A 1_555 1_555
C55A C54A 1_555 1_555
H42A C55A 1_555 1_555
C56A C55A 1_555 1_555
C57A C52A 1_555 1_555
H43A C57A 1_555 1_555
C58A O28A 1_555 1_555
C59A O30A 1_555 1_555
H44A C59A 1_555 1_555
H45A C59A 1_555 1_555
C60A C59A 1_555 1_555
H46A C60A 1_555 1_555
H47A C60A 1_555 1_555
H48A C60A 1_555 1_555
O31A Cu5A 1_555 1_555
O32A Cu6A 1_555 1_555
O33A Cu7A 1_555 1_555
O34A Cu8A 1_555 1_555
O35A C64A 1_555 1_555
C61A O31A 1_555 1_555
C62A C61A 1_555 1_555
C63A C62A 1_555 1_555
H49A C63A 1_555 1_555
C64A C63A 1_555 1_555
C65A C64A 1_555 1_555
H50A C65A 1_555 1_555
C66A C65A 1_555 1_555
C67A C62A 1_555 1_555
H51A C67A 1_555 1_555
C68A O33A 1_555 1_555
C69A O35A 1_555 1_555
H52A C69A 1_555 1_555
H53A C69A 1_555 1_555
C70A C69A 1_555 1_555
H54A C70A 1_555 1_555
H55A C70A 1_555 1_555
H56A C70A 1_555 1_555
O36A Cu7A 1_555 1_555
O37A Cu8A 1_555 1_555
O38A C78A 1_555 1_555
O39A C78A 1_555 1_555
O40A C74A 1_555 1_555
C71A O36A 1_555 1_555
C72A C71A 1_555 1_555
C73A C72A 1_555 1_555
H57A C73A 1_555 1_555
C74A C73A 1_555 1_555
C75A C74A 1_555 1_555
H58A C75A 1_555 1_555
C76A C75A 1_555 1_555
C77A C72A 1_555 1_555
H59A C77A 1_555 1_555
C78A C76A 1_555 1_555
C79A O40A 1_555 1_555
H60A C79A 1_555 1_555
H61A C79A 1_555 1_555
C80A C79A 1_555 1_555
H62A C80A 1_555 1_555
H63A C80A 1_555 1_555
H64A C80A 1_555 1_555
O41A Cu9A 1_555 1_555
O42A Cu10A 1_555 1_555
O43A Cu11A 1_555 1_555
O44A Cu12A 1_555 1_555
O45A C84A 1_555 1_555
C81A O41A 1_555 1_555
C82A C81A 1_555 1_555
C83A C82A 1_555 1_555
H65A C83A 1_555 1_555
C84A C83A 1_555 1_555
C85A C84A 1_555 1_555
H66A C85A 1_555 1_555
C86A C85A 1_555 1_555
C87A C82A 1_555 1_555
H67A C87A 1_555 1_555
C88A O43A 1_555 1_555
C89A O45A 1_555 1_555
H68A C89A 1_555 1_555
H69A C89A 1_555 1_555
C90A C89A 1_555 1_555
H70A C90A 1_555 1_555
H71A C90A 1_555 1_555
H72A C90A 1_555 1_555
O46A Cu9A 1_555 1_555
O47A Cu10A 1_555 1_555
O48A Cu5 1_555 1_555
O49A Cu6 1_555 1_555
O50A C94A 1_555 1_555
C91A O46A 1_555 1_555
C92A C91A 1_555 1_555
C93A C92A 1_555 1_555
H73A C93A 1_555 1_555
C94A C93A 1_555 1_555
C95A C94A 1_555 1_555
H74A C95A 1_555 1_555
C96A C95A 1_555 1_555
C97A C92A 1_555 1_555
H75A C97A 1_555 1_555
C98A O48A 1_555 1_555
C99A O50A 1_555 1_555
H76A C99A 1_555 1_555
H77A C99A 1_555 1_555
C100A C99A 1_555 1_555
O51A Cu11A 1_555 1_555
O52A Cu12A 1_555 1_555
O53A Cu5 1_555 1_555
O54A Cu6 1_555 1_555
O55A C104A 1_555 1_555
C101A O51A 1_555 1_555
C102A C101A 1_555 1_555
C103A C102A 1_555 1_555
H78A C103A 1_555 1_555
C104A C103A 1_555 1_555
C105A C104A 1_555 1_555
H79A C105A 1_555 1_555
C106A C105A 1_555 1_555
C107A C102A 1_555 1_555
H80A C107A 1_555 1_555
C108A O53A 1_555 1_555
C109A O55A 1_555 1_555
H81A C109A 1_555 1_555
H82A C109A 1_555 1_555
C110A C109A 1_555 1_555
H83A C110A 1_555 1_555
H84A C110A 1_555 1_555
H85A C110A 1_555 1_555
O56A Cu9A 1_555 1_555
O57A Cu10A 1_555 1_555
O58A Cu1 1_555 1_555
O59A Cu2 1_555 1_555
O60A C114A 1_555 1_555
C111A O56A 1_555 1_555
C112A C111A 1_555 1_555
C113A C112A 1_555 1_555
H86A C113A 1_555 1_555
C114A C113A 1_555 1_555
C115A C114A 1_555 1_555
H87A C115A 1_555 1_555
C116A C115A 1_555 1_555
C117A C112A 1_555 1_555
H88A C117A 1_555 1_555
C118A O58A 1_555 1_555
C119A O60A 1_555 1_555
H89A C119A 1_555 1_555
H90A C119A 1_555 1_555
C120A C119A 1_555 1_555
H91A C120A 1_555 1_555
H92A C120A 1_555 1_555
H93A C120A 1_555 1_555
O61A Cu2A 1_555 1_555
N1A C121A 1_555 1_555
C121A O61A 1_555 1_555
H94A C121A 1_555 1_555
C122A N1A 1_555 1_555
H95A C122A 1_555 1_555
H96A C122A 1_555 1_555
H97A C122A 1_555 1_555
C123A N1A 1_555 1_555
H98A C123A 1_555 1_555
H99A C123A 1_555 1_555
H100A C123A 1_555 1_555
O62A Cu4A 1_555 1_555
C124A H101A 1_555 1_555
H102A C124A 1_555 1_555
H103A C124A 1_555 1_555
N2A C124A 1_555 1_555
C125A O62A 1_555 1_555
H104A C125A 1_555 1_555
O63A Cu6A 1_555 1_555
N3A C126A 1_555 1_555
C126A O63A 1_555 1_555
H105A C126A 1_555 1_555
C127A N3A 1_555 1_555
H106A C127A 1_555 1_555
H107A C127A 1_555 1_555
H108A C127A 1_555 1_555
C128A N3A 1_555 1_555
H109A C128A 1_555 1_555
H110A C128A 1_555 1_555
H111A C128A 1_555 1_555
O64A Cu8A 1_555 1_555
N4A C129A 1_555 1_555
C129A O64A 1_555 1_555
H112A C129A 1_555 1_555
C130A N4A 1_555 1_555
H113A C130A 1_555 1_555
H114A C130A 1_555 1_555
C131A N4A 1_555 1_555
H115A C131A 1_555 1_555
H116A C131A 1_555 1_555
H117A C131A 1_555 1_555
O65A Cu10A 1_555 1_555
N5A C132A 1_555 1_555
C132A O65A 1_555 1_555
H118A C132A 1_555 1_555
C133A N5A 1_555 1_555
H119A C133A 1_555 1_555
H120A C133A 1_555 1_555
H121A C133A 1_555 1_555
C134A N5A 1_555 1_555
H122A C134A 1_555 1_555
H123A C134A 1_555 1_555
H124A C134A 1_555 1_555
O66A Cu12A 1_555 1_555
O67A Cu1A 1_555 1_555
O68A Cu3A 1_555 1_555
O69A Cu5A 1_555 1_555
O70A Cu7A 1_555 1_555
O71A Cu9A 1_555 1_555
O72A Cu11A 1_555 1_555
C6 C7 1_555 1_555
O7 C11 1_555 1_555
C16 C17 1_555 1_555
O12 C21 1_555 1_555
C26 C27 1_555 1_555
O17 C31 1_555 1_555
C36 C37 1_555 1_555
O22 C41 1_555 1_555
C46 C47 1_555 1_555
O27 C51 1_555 1_555
O29 C58 1_555 1_555
C56 C57 1_555 1_555
C56 C58 1_555 1_555
O32 C61 1_555 1_555
O34 C68 1_555 1_555
C66 C67 1_555 1_555
C66 C68 1_555 1_555
O37 C71 1_555 1_555
C76 C77 1_555 1_555
O42 C81 1_555 1_555
O44 C88 1_555 1_555
C86 C87 1_555 1_555
C86 C88 1_555 1_555
O47 C91 1_555 1_555
C96 C97 1_555 1_555
O52 C101 1_555 1_555
O53 Cu5A 1_555 1_555
O54 Cu6A 1_555 1_555
C106 C107 1_555 1_555
O57 C111 1_555 1_555
C116 C117 1_555 1_555
N2 C125 1_555 1_555
O2A C1A 1_555 1_555
C6A C7A 1_555 1_555
O7A C11A 1_555 1_555
C16A C17A 1_555 1_555
O12A C21A 1_555 1_555
O14A C28A 1_555 1_555
C26A C27A 1_555 1_555
C26A C28A 1_555 1_555
O17A C31A 1_555 1_555
O19A C38A 1_555 1_555
C36A C37A 1_555 1_555
C36A C38A 1_555 1_555
O22A C41A 1_555 1_555
O24A C48A 1_555 1_555
C46A C47A 1_555 1_555
C46A C48A 1_555 1_555
O27A C51A 1_555 1_555
O29A C58A 1_555 1_555
C56A C57A 1_555 1_555
C56A C58A 1_555 1_555
O32A C61A 1_555 1_555
O34A C68A 1_555 1_555
C66A C67A 1_555 1_555
C66A C68A 1_555 1_555
O37A C71A 1_555 1_555
C76A C77A 1_555 1_555
O42A C81A 1_555 1_555
O44A C88A 1_555 1_555
C86A C87A 1_555 1_555
C86A C88A 1_555 1_555
O47A C91A 1_555 1_555
O49A C98A 1_555 1_555
C96A C97A 1_555 1_555
C96A C98A 1_555 1_555
O52A C101A 1_555 1_555
O54A C108A 1_555 1_555
C106A C107A 1_555 1_555
C106A C108A 1_555 1_555
O57A C111A 1_555 1_555
O59A C118A 1_555 1_555
C116A C117A 1_555 1_555
C116A C118A 1_555 1_555
N2A C125A 1_555 1_555

#END
