# generated using pymatgen
data_Cu12H194C173(N5O39)2
_symmetry_space_group_name_H-M   'P 1'
_cell_length_a   25.48770000
_cell_length_b   25.72610000
_cell_length_c   25.87440000
_cell_angle_alpha   71.20540000
_cell_angle_beta   61.67710000
_cell_angle_gamma   61.26090000
_symmetry_Int_Tables_number   1
_chemical_formula_structural   Cu12H194C173(N5O39)2
_chemical_formula_sum   'Cu24 H388 C346 N20 O156'
_cell_volume   12997.52154125
_cell_formula_units_Z   2
loop_
 _symmetry_equiv_pos_site_id
 _symmetry_equiv_pos_as_xyz
  1  'x, y, z'
loop_
 _atom_site_type_symbol
 _atom_site_label
 _atom_site_symmetry_multiplicity
 _atom_site_fract_x
 _atom_site_fract_y
 _atom_site_fract_z
 _atom_site_occupancy
  Cu  Cu1  1  0.552970  0.349270  0.251540  1.0
  Cu  Cu2  1  0.447030  0.650730  0.748460  1.0
  Cu  Cu3  1  0.582860  0.293970  0.165430  1.0
  Cu  Cu4  1  0.417140  0.706030  0.834570  1.0
  Cu  Cu5  1  0.382100  0.696940  0.231220  1.0
  Cu  Cu6  1  0.617900  0.303060  0.768780  1.0
  Cu  Cu7  1  0.344480  0.761310  0.143280  1.0
  Cu  Cu8  1  0.655520  0.238690  0.856720  1.0
  Cu  Cu9  1  0.314120  0.849240  0.487410  1.0
  Cu  Cu10  1  0.685880  0.150760  0.512590  1.0
  Cu  Cu11  1  0.254430  0.965890  0.488410  1.0
  Cu  Cu12  1  0.745570  0.034110  0.511590  1.0
  Cu  Cu13  1  0.118380  0.654580  0.557130  1.0
  Cu  Cu14  1  0.881620  0.345420  0.442870  1.0
  Cu  Cu15  1  0.994080  0.706140  0.575690  1.0
  Cu  Cu16  1  0.005920  0.293860  0.424310  1.0
  Cu  Cu17  1  0.238680  0.448740  0.815940  1.0
  Cu  Cu18  1  0.761320  0.551260  0.184060  1.0
  Cu  Cu19  1  0.153190  0.439310  0.924350  1.0
  Cu  Cu20  1  0.846810  0.560690  0.075650  1.0
  Cu  Cu21  1  0.297640  0.303500  0.571200  1.0
  Cu  Cu22  1  0.702360  0.696500  0.428800  1.0
  Cu  Cu23  1  0.236260  0.235540  0.590890  1.0
  Cu  Cu24  1  0.763740  0.764460  0.409110  1.0
  H  H25  1  0.230244  0.754167  0.613433  1
  H  H26  1  0.769756  0.245833  0.386567  1
  H  H27  1  0.249027  0.724102  0.558410  1
  H  H28  1  0.750973  0.275898  0.441590  1
  H  H29  1  0.182827  0.729356  0.614668  1
  H  H30  1  0.817173  0.270644  0.385332  1
  H  H31  1  0.340872  0.606225  0.712561  1
  H  H32  1  0.659128  0.393775  0.287439  1
  H  H33  1  0.291535  0.583754  0.713912  1
  H  H34  1  0.708465  0.416246  0.286088  1
  H  H35  1  0.357512  0.577907  0.657204  1
  H  H36  1  0.642488  0.422093  0.342796  1
  H  H37  1  0.313604  0.698061  0.699626  1
  H  H38  1  0.686396  0.301939  0.300374  1
  H  H39  1  0.312484  0.730140  0.635690  1
  H  H40  1  0.687516  0.269860  0.364310  1
  H  H41  1  0.245857  0.738026  0.692052  1
  H  H42  1  0.754143  0.261974  0.307948  1
  H  H43  1  0.316549  0.586134  0.338368  1
  H  H44  1  0.683451  0.413866  0.661632  1
  H  H45  1  0.255563  0.619422  0.392967  1
  H  H46  1  0.744437  0.380578  0.607033  1
  H  H47  1  0.327591  0.600750  0.387184  1
  H  H48  1  0.672409  0.399250  0.612816  1
  H  H49  1  0.328337  0.397540  0.407129  1
  H  H50  1  0.671663  0.602460  0.592871  1
  H  H51  1  0.337596  0.416461  0.454457  1
  H  H52  1  0.662404  0.583539  0.545543  1
  H  H53  1  0.266689  0.439441  0.455256  1
  H  H54  1  0.733311  0.560559  0.544744  1
  H  H55  1  0.361517  0.457210  0.308075  1
  H  H56  1  0.638483  0.542790  0.691925  1
  H  H57  1  0.315703  0.526800  0.309420  1
  H  H58  1  0.684297  0.473200  0.690580  1
  H  H59  1  0.386178  0.502985  0.309933  1
  H  H60  1  0.613822  0.497015  0.690067  1
  H  H61  1  0.410759  0.225206  0.774593  1
  H  H62  1  0.589241  0.774794  0.225407  1
  H  H63  1  0.369757  0.293891  0.785572  1
  H  H64  1  0.630243  0.706109  0.214428  1
  H  H65  1  0.337774  0.257751  0.778087  1
  H  H66  1  0.662226  0.742249  0.221913  1
  H  H67  1  0.525952  0.243957  0.580881  1
  H  H68  1  0.474048  0.756043  0.419119  1
  H  H69  1  0.452341  0.277693  0.586087  1
  H  H70  1  0.547659  0.722307  0.413913  1
  H  H71  1  0.484093  0.310291  0.599030  1
  H  H72  1  0.515907  0.689709  0.400970  1
  H  H73  1  0.544032  0.173440  0.654648  1
  H  H74  1  0.455968  0.826560  0.345352  1
  H  H75  1  0.512991  0.198445  0.716332  1
  H  H76  1  0.487009  0.801555  0.283668  1
  H  H77  1  0.481715  0.162945  0.706823  1
  H  H78  1  0.518285  0.837055  0.293177  1
  H  H79  1  0.915233  0.640991  0.758986  1
  H  H80  1  0.084767  0.359009  0.241014  1
  H  H81  1  0.976281  0.531108  0.889534  1
  H  H82  1  0.023719  0.468892  0.110466  1
  H  H83  1  0.104136  0.577317  0.734000  1
  H  H84  1  0.895864  0.422683  0.266000  1
  H  H85  1  0.821167  0.545253  0.917326  1
  H  H86  1  0.178833  0.454747  0.082674  1
  H  H87  1  0.839914  0.573976  0.948982  1
  H  H88  1  0.160086  0.426024  0.051018  1
  H  H89  1  0.946829  0.491621  0.879409  1
  H  H90  1  0.053171  0.508379  0.120591  1
  H  H91  1  0.896163  0.463542  0.928830  1
  H  H92  1  0.103837  0.536458  0.071170  1
  H  H93  1  0.970031  0.452950  0.965344  1
  H  H94  1  0.029969  0.547050  0.034656  1
  H  H95  1  0.949357  0.523756  0.953971  1
  H  H96  1  0.050643  0.476244  0.046029  1
  H  H97  1  0.898676  0.495669  0.003407  1
  H  H98  1  0.101324  0.504331  0.996593  1
  H  H99  1  0.317249  0.072088  0.504465  1
  H  H100  1  0.682751  0.927912  0.495535  1
  H  H101  1  0.253449  0.122218  0.493870  1
  H  H102  1  0.746551  0.877782  0.506130  1
  H  H103  1  0.306901  0.140905  0.489849  1
  H  H104  1  0.693099  0.859095  0.510151  1
  H  H105  1  0.214718  0.053666  0.711263  1
  H  H106  1  0.785282  0.946334  0.288737  1
  H  H107  1  0.200722  0.123252  0.691787  1
  H  H108  1  0.799278  0.876748  0.308213  1
  H  H109  1  0.164343  0.094831  0.679808  1
  H  H110  1  0.835657  0.905169  0.320192  1
  H  H111  1  0.305420  0.989103  0.640838  1
  H  H112  1  0.694580  0.010897  0.359162  1
  H  H113  1  0.280444  0.001563  0.590049  1
  H  H114  1  0.719556  0.998437  0.409951  1
  H  H115  1  0.345229  0.009551  0.573964  1
  H  H116  1  0.654771  0.990449  0.426036  1
  H  H117  1  0.949621  0.579299  0.957327  1
  H  H118  1  0.050379  0.420701  0.042673  1
  H  H119  1  0.430324  0.220025  0.254714  1.0
  H  H120  1  0.569676  0.779975  0.745286  1.0
  H  H121  1  0.297380  0.203141  0.417063  1.0
  H  H122  1  0.702620  0.796859  0.582937  1.0
  H  H123  1  0.399967  0.301500  0.380667  1.0
  H  H124  1  0.600033  0.698500  0.619333  1.0
  H  H125  1  0.261248  0.171438  0.371314  1.0
  H  H126  1  0.738752  0.828562  0.628686  1.0
  H  H127  1  0.320688  0.120687  0.388988  1.0
  H  H128  1  0.679312  0.879313  0.611012  1.0
  H  H129  1  0.280371  0.078266  0.351752  1.0
  H  H130  1  0.719629  0.921734  0.648248  1.0
  H  H131  1  0.298439  0.119286  0.289797  1.0
  H  H132  1  0.701561  0.880714  0.710203  1.0
  H  H133  1  0.378957  0.020648  0.289274  1.0
  H  H134  1  0.621043  0.979352  0.710726  1.0
  H  H135  1  0.391905  0.034227  0.337381  1.0
  H  H136  1  0.608095  0.965773  0.662619  1.0
  H  H137  1  0.406841  0.070477  0.272467  1.0
  H  H138  1  0.593159  0.929523  0.727533  1.0
  H  H139  1  0.461333  0.437201  0.074597  1.0
  H  H140  1  0.538667  0.562799  0.925403  1.0
  H  H141  1  0.368917  0.616746  0.064316  1.0
  H  H142  1  0.631083  0.383254  0.935684  1.0
  H  H143  1  0.445509  0.526461  0.189052  1.0
  H  H144  1  0.554491  0.473539  0.810948  1.0
  H  H145  1  0.394882  0.452016  0.032223  1.0
  H  H146  1  0.605118  0.547984  0.967777  1.0
  H  H147  1  0.459750  0.457910  0.979793  1.0
  H  H148  1  0.540250  0.542090  0.020207  1.0
  H  H149  1  0.401458  0.521101  0.920038  1.0
  H  H150  1  0.598542  0.478899  0.079962  1.0
  H  H151  1  0.335506  0.518030  0.972695  1.0
  H  H152  1  0.664494  0.481970  0.027305  1.0
  H  H153  1  0.385341  0.449020  0.900120  1.0
  H  H154  1  0.614659  0.550980  0.099880  1.0
  H  H155  1  0.370744  0.417150  0.966815  1.0
  H  H156  1  0.629256  0.582850  0.033185  1.0
  H  H157  1  0.442855  0.412293  0.923737  1.0
  H  H158  1  0.557145  0.587707  0.076263  1.0
  H  H159  1  0.742155  0.335395  0.044860  1.0
  H  H160  1  0.257845  0.664605  0.955140  1.0
  H  H161  1  0.844290  0.433081  0.008599  1.0
  H  H162  1  0.155710  0.566919  0.991401  1.0
  H  H163  1  0.700951  0.427155  0.169739  1.0
  H  H164  1  0.299049  0.572845  0.830261  1.0
  H  H165  1  0.761453  0.375239  0.941071  1.0
  H  H166  1  0.238547  0.624761  0.058929  1.0
  H  H167  1  0.814831  0.309470  0.946056  1.0
  H  H168  1  0.185169  0.690530  0.053944  1.0
  H  H169  1  0.878145  0.317636  0.853865  1.0
  H  H170  1  0.121855  0.682364  0.146135  1.0
  H  H171  1  0.855203  0.388080  0.849530  1.0
  H  H172  1  0.144797  0.611920  0.150470  1.0
  H  H173  1  0.818177  0.371165  0.790620  1.0
  H  H174  1  0.181823  0.628835  0.209380  1.0
  H  H175  1  0.755694  0.402565  0.845495  1.0
  H  H176  1  0.244306  0.597435  0.154505  1.0
  H  H177  1  0.782905  0.332116  0.845191  1.0
  H  H178  1  0.217095  0.667884  0.154809  1.0
  H  H179  1  0.284349  0.937991  0.181258  1.0
  H  H180  1  0.715651  0.062009  0.818742  1.0
  H  H181  1  0.258376  0.017415  0.308657  1.0
  H  H182  1  0.741624  0.982585  0.691343  1.0
  H  H183  1  0.337320  0.837878  0.318918  1.0
  H  H184  1  0.662680  0.162122  0.681082  1.0
  H  H185  1  0.149431  0.759476  0.228658  1.0
  H  H186  1  0.850569  0.240524  0.771342  1.0
  H  H187  1  0.017615  0.740552  0.392169  1.0
  H  H188  1  0.982385  0.259448  0.607831  1.0
  H  H189  1  0.198797  0.706893  0.370169  1.0
  H  H190  1  0.801203  0.293107  0.629831  1.0
  H  H191  1  0.947997  0.790994  0.339894  1.0
  H  H192  1  0.052003  0.209006  0.660106  1.0
  H  H193  1  0.982179  0.719595  0.340598  1.0
  H  H194  1  0.017821  0.280405  0.659402  1.0
  H  H195  1  0.529843  0.767111  0.014257  1.0
  H  H196  1  0.470157  0.232889  0.985743  1.0
  H  H197  1  0.719890  0.688545  0.989220  1.0
  H  H198  1  0.280110  0.311455  0.010780  1.0
  H  H199  1  0.584256  0.659966  0.150001  1.0
  H  H200  1  0.415744  0.340034  0.849999  1.0
  H  H201  1  0.732200  0.752410  0.903475  1.0
  H  H202  1  0.267800  0.247590  0.096525  1.0
  H  H203  1  0.731572  0.696411  0.888992  1.0
  H  H204  1  0.268428  0.303589  0.111008  1.0
  H  H205  1  0.684376  0.817237  0.835306  1.0
  H  H206  1  0.315624  0.182763  0.164694  1.0
  H  H207  1  0.678977  0.762943  0.822748  1.0
  H  H208  1  0.321023  0.237057  0.177252  1.0
  H  H209  1  0.805109  0.756956  0.802819  1.0
  H  H210  1  0.194891  0.243044  0.197181  1.0
  H  H211  1  0.781071  0.779441  0.749490  1.0
  H  H212  1  0.218929  0.220559  0.250510  1.0
  H  H213  1  0.795377  0.712037  0.780699  1.0
  H  H214  1  0.204623  0.287963  0.219301  1.0
  H  H215  1  0.416961  0.009401  0.436348  1.0
  H  H216  1  0.583039  0.990599  0.563652  1.0
  H  H217  1  0.608787  0.930584  0.404806  1.0
  H  H218  1  0.391213  0.069416  0.595194  1.0
  H  H219  1  0.507244  0.830690  0.441291  1.0
  H  H220  1  0.492756  0.169310  0.558709  1.0
  H  H221  1  0.439862  0.075335  0.464710  1.0
  H  H222  1  0.560138  0.924665  0.535290  1.0
  H  H223  1  0.447847  0.092361  0.396467  1.0
  H  H224  1  0.552153  0.907639  0.603533  1.0
  H  H225  1  0.458589  0.163342  0.427130  1.0
  H  H226  1  0.541411  0.836658  0.572870  1.0
  H  H227  1  0.516694  0.111626  0.444568  1.0
  H  H228  1  0.483306  0.888374  0.555432  1.0
  H  H229  1  0.517040  0.169361  0.337162  1.0
  H  H230  1  0.482960  0.830639  0.662838  1.0
  H  H231  1  0.571672  0.104224  0.342906  1.0
  H  H232  1  0.428328  0.895776  0.657094  1.0
  H  H233  1  0.562674  0.157552  0.369441  1.0
  H  H234  1  0.437326  0.842448  0.630559  1.0
  H  H235  1  0.194992  0.964480  0.675504  1.0
  H  H236  1  0.805008  0.035520  0.324496  1.0
  H  H237  1  0.268468  0.870954  0.801374  1.0
  H  H238  1  0.731532  0.129046  0.198626  1.0
  H  H239  1  0.338088  0.799357  0.653836  1.0
  H  H240  1  0.661912  0.200643  0.346164  1.0
  H  H241  1  0.227234  0.971478  0.818133  1.0
  H  H242  1  0.772766  0.028522  0.181867  1.0
  H  H243  1  0.176127  0.940569  0.858539  1.0
  H  H244  1  0.823873  0.059431  0.141461  1.0
  H  H245  1  0.086800  0.034653  0.868376  1.0
  H  H246  1  0.913200  0.965347  0.131624  1.0
  H  H247  1  0.132306  0.068156  0.817483  1.0
  H  H248  1  0.867694  0.931844  0.182517  1.0
  H  H249  1  0.187775  0.004848  0.900625  1.0
  H  H250  1  0.812225  0.995152  0.099375  1.0
  H  H251  1  0.113337  0.043986  0.936049  1.0
  H  H252  1  0.886663  0.956014  0.063951  1.0
  H  H253  1  0.159631  0.075991  0.885332  1.0
  H  H254  1  0.840369  0.924009  0.114668  1.0
  H  H255  1  0.052864  0.988254  0.553064  1.0
  H  H256  1  0.947136  0.011746  0.446936  1.0
  H  H257  1  0.956097  0.880693  0.602106  1.0
  H  H258  1  0.043903  0.119307  0.397894  1.0
  H  H259  1  0.150771  0.810048  0.533542  1.0
  H  H260  1  0.849229  0.189952  0.466458  1.0
  H  H261  1  0.949537  0.061937  0.553107  1.0
  H  H262  1  0.050463  0.938063  0.446893  1.0
  H  H263  1  0.950806  0.045883  0.618128  1.0
  H  H264  1  0.049194  0.954117  0.381872  1.0
  H  H265  1  0.836839  0.068207  0.661380  1.0
  H  H266  1  0.163161  0.931793  0.338620  1.0
  H  H267  1  0.835528  0.084042  0.596586  1.0
  H  H268  1  0.164472  0.915958  0.403414  1.0
  H  H269  1  0.855427  0.169290  0.576795  1.0
  H  H270  1  0.144573  0.830710  0.423205  1.0
  H  H271  1  0.878211  0.148594  0.630730  1.0
  H  H272  1  0.121789  0.851406  0.369270  1.0
  H  H273  1  0.803119  0.171601  0.643408  1.0
  H  H274  1  0.196881  0.828399  0.356592  1.0
  H  H275  1  0.963573  0.554275  0.571810  1.0
  H  H276  1  0.036427  0.445725  0.428190  1.0
  H  H277  1  0.055582  0.374874  0.583855  1.0
  H  H278  1  0.944418  0.625126  0.416145  1.0
  H  H279  1  0.147613  0.475937  0.560331  1.0
  H  H280  1  0.852387  0.524063  0.439669  1.0
  H  H281  1  0.926230  0.703059  0.769806  1.0
  H  H282  1  0.073770  0.296941  0.230194  1.0
  H  H283  1  0.987645  0.598742  0.901701  1.0
  H  H284  1  0.012355  0.401258  0.098299  1.0
  H  H285  1  0.108374  0.574805  0.730775  1.0
  H  H286  1  0.891626  0.425195  0.269225  1.0
  H  H287  1  0.854312  0.671091  0.966624  1.0
  H  H288  1  0.145688  0.328909  0.033376  1.0
  H  H289  1  0.860525  0.734565  0.941272  1.0
  H  H290  1  0.139475  0.265435  0.058728  1.0
  H  H291  1  0.952639  0.690573  0.952913  1.0
  H  H292  1  0.047361  0.309427  0.047087  1.0
  H  H293  1  0.981030  0.658835  0.895605  1.0
  H  H294  1  0.018970  0.341165  0.104395  1.0
  H  H295  1  0.997717  0.585309  0.976149  1.0
  H  H296  1  0.002283  0.414691  0.023851  1.0
  H  H297  1  0.921350  0.610904  0.014393  1.0
  H  H298  1  0.078650  0.389096  0.985607  1.0
  H  H299  1  0.225177  0.332808  0.747028  1.0
  H  H300  1  0.774823  0.667192  0.252972  1.0
  H  H301  1  0.109990  0.296854  0.916079  1.0
  H  H302  1  0.890010  0.703146  0.083921  1.0
  H  H303  1  0.144834  0.214958  0.786332  1.0
  H  H304  1  0.855166  0.785042  0.213668  1.0
  H  H305  1  0.486384  0.314062  0.455294  1.0
  H  H306  1  0.513616  0.685938  0.544706  1.0
  H  H307  1  0.481598  0.304541  0.399764  1.0
  H  H308  1  0.518402  0.695459  0.600236  1.0
  H  H309  1  0.551011  0.286479  0.399924  1.0
  H  H310  1  0.448989  0.713521  0.600076  1.0
  H  H311  1  0.452348  0.501415  0.424656  1.0
  H  H312  1  0.547652  0.498585  0.575344  1.0
  H  H313  1  0.517907  0.474577  0.369662  1.0
  H  H314  1  0.482093  0.525423  0.630338  1.0
  H  H315  1  0.449270  0.493057  0.367617  1.0
  H  H316  1  0.550730  0.506943  0.632383  1.0
  H  H317  1  0.421000  0.456786  0.496395  1.0
  H  H318  1  0.579000  0.543214  0.503605  1.0
  H  H319  1  0.394587  0.414399  0.490856  1.0
  H  H320  1  0.605413  0.585601  0.509144  1.0
  H  H321  1  0.457746  0.385750  0.506029  1.0
  H  H322  1  0.542254  0.614250  0.493971  1.0
  H  H323  1  0.552152  0.635000  0.287425  1.0
  H  H324  1  0.447848  0.365000  0.712575  1.0
  H  H325  1  0.494228  0.694655  0.276161  1.0
  H  H326  1  0.505772  0.305345  0.723839  1.0
  H  H327  1  0.484076  0.659021  0.341213  1.0
  H  H328  1  0.515924  0.340979  0.658787  1.0
  H  H329  1  0.544552  0.500291  0.227826  1.0
  H  H330  1  0.455448  0.499709  0.772174  1.0
  H  H331  1  0.473240  0.523419  0.277979  1.0
  H  H332  1  0.526760  0.476581  0.722021  1.0
  H  H333  1  0.489140  0.560800  0.213680  1.0
  H  H334  1  0.510860  0.439200  0.786320  1.0
  H  H335  1  0.617259  0.507696  0.231056  1.0
  H  H336  1  0.382741  0.492304  0.768944  1.0
  H  H337  1  0.611840  0.574700  0.219813  1.0
  H  H338  1  0.388160  0.425300  0.780187  1.0
  H  H339  1  0.601712  0.538138  0.284487  1.0
  H  H340  1  0.398288  0.461862  0.715513  1.0
  H  H341  1  0.300264  0.710994  0.425009  1.0
  H  H342  1  0.699736  0.289006  0.574991  1.0
  H  H343  1  0.257345  0.768097  0.460330  1.0
  H  H344  1  0.742655  0.231903  0.539670  1.0
  H  H345  1  0.316379  0.769427  0.398358  1.0
  H  H346  1  0.683621  0.230573  0.601642  1.0
  H  H347  1  0.436579  0.595556  0.511913  1.0
  H  H348  1  0.563421  0.404444  0.488087  1.0
  H  H349  1  0.453280  0.653654  0.484148  1.0
  H  H350  1  0.546720  0.346346  0.515852  1.0
  H  H351  1  0.394037  0.653357  0.546209  1.0
  H  H352  1  0.605963  0.346643  0.453791  1.0
  H  H353  1  0.397354  0.579309  0.467323  1.0
  H  H354  1  0.602646  0.420691  0.532677  1.0
  H  H355  1  0.326684  0.626018  0.469330  1.0
  H  H356  1  0.673316  0.373982  0.530670  1.0
  H  H357  1  0.389469  0.627457  0.411214  1.0
  H  H358  1  0.610531  0.372543  0.588786  1.0
  H  H359  1  0.087442  0.118584  0.454766  1.0
  H  H360  1  0.912558  0.881416  0.545234  1.0
  H  H361  1  0.154972  0.125649  0.414180  1.0
  H  H362  1  0.845028  0.874351  0.585820  1.0
  H  H363  1  0.151449  0.061885  0.427907  1.0
  H  H364  1  0.848551  0.938115  0.572093  1.0
  H  H365  1  0.071717  0.099228  0.636302  1.0
  H  H366  1  0.928283  0.900772  0.363698  1.0
  H  H367  1  0.133649  0.040918  0.610255  1.0
  H  H368  1  0.866351  0.959082  0.389745  1.0
  H  H369  1  0.141368  0.102465  0.597858  1.0
  H  H370  1  0.858632  0.897535  0.402142  1.0
  H  H371  1  0.003812  0.138507  0.597995  1.0
  H  H372  1  0.996188  0.861493  0.402005  1.0
  H  H373  1  0.024878  0.169884  0.531249  1.0
  H  H374  1  0.975122  0.830116  0.468751  1.0
  H  H375  1  0.019778  0.106796  0.545301  1.0
  H  H376  1  0.980222  0.893204  0.454699  1.0
  H  H377  1  0.864260  0.717093  0.494032  1.0
  H  H378  1  0.135740  0.282907  0.505968  1.0
  H  H379  1  0.860956  0.781536  0.491509  1.0
  H  H380  1  0.139044  0.218464  0.508491  1.0
  H  H381  1  0.929106  0.725424  0.477029  1.0
  H  H382  1  0.070894  0.274576  0.522971  1.0
  H  H383  1  0.814569  0.653793  0.686006  1.0
  H  H384  1  0.185431  0.346207  0.313994  1.0
  H  H385  1  0.881398  0.661527  0.661372  1.0
  H  H386  1  0.118602  0.338473  0.338628  1.0
  H  H387  1  0.814080  0.718482  0.677268  1.0
  H  H388  1  0.185920  0.281518  0.322732  1.0
  H  H389  1  0.805780  0.633505  0.602688  1.0
  H  H390  1  0.194220  0.366495  0.397312  1.0
  H  H391  1  0.801497  0.688001  0.550757  1.0
  H  H392  1  0.198503  0.311999  0.449243  1.0
  H  H393  1  0.869600  0.633187  0.545110  1.0
  H  H394  1  0.130400  0.366813  0.454890  1.0
  H  H395  1  0.267895  0.047106  0.681346  1.0
  H  H396  1  0.732105  0.952894  0.318654  1.0
  H  H397  1  0.248777  0.112082  0.694128  1.0
  H  H398  1  0.751223  0.887918  0.305872  1.0
  H  H399  1  0.193221  0.090761  0.708459  1.0
  H  H400  1  0.806779  0.909239  0.291541  1.0
  H  H401  1  0.322238  0.063357  0.499968  1.0
  H  H402  1  0.677762  0.936643  0.500032  1.0
  H  H403  1  0.251664  0.116215  0.514782  1.0
  H  H404  1  0.748336  0.883785  0.485218  1.0
  H  H405  1  0.310655  0.126535  0.510802  1.0
  H  H406  1  0.689345  0.873465  0.489198  1.0
  H  H407  1  0.307955  0.004170  0.634014  1.0
  H  H408  1  0.692045  0.995830  0.365986  1.0
  H  H409  1  0.317518  0.987568  0.574743  1.0
  H  H410  1  0.682482  0.012432  0.425257  1.0
  H  H411  1  0.366882  0.009917  0.573527  1.0
  H  H412  1  0.633118  0.990083  0.426473  1.0
  C  C413  1  0.263100  0.662600  0.629600  1
  C  C414  1  0.736900  0.337400  0.370400  1
  C  C415  1  0.228200  0.722800  0.601600  1
  C  C416  1  0.771800  0.277200  0.398400  1
  C  C417  1  0.322600  0.602500  0.688700  1
  C  C418  1  0.677400  0.397500  0.311300  1
  C  C419  1  0.290700  0.710300  0.673500  1
  C  C420  1  0.709300  0.289700  0.326500  1
  C  C421  1  0.300600  0.529600  0.415900  1
  C  C422  1  0.699400  0.470400  0.584100  1
  C  C423  1  0.300000  0.589200  0.380500  1
  C  C424  1  0.700000  0.410800  0.619500  1
  C  C425  1  0.312700  0.429600  0.429900  1
  C  C426  1  0.687300  0.570400  0.570100  1
  C  C427  1  0.348300  0.493600  0.323600  1
  C  C428  1  0.651700  0.506400  0.676400  1
  C  C429  1  0.402400  0.281500  0.699300  1
  C  C430  1  0.597600  0.718500  0.300700  1
  C  C431  1  0.378000  0.263000  0.765200  1
  C  C432  1  0.622000  0.737000  0.234800  1
  C  C433  1  0.482600  0.271900  0.602600  1
  C  C434  1  0.517400  0.728100  0.397400  1
  C  C435  1  0.503500  0.190800  0.687600  1
  C  C436  1  0.496500  0.809200  0.312400  1
  C  C437  1  0.011800  0.614000  0.737500  1
  C  C438  1  0.988200  0.386000  0.262500  1
  C  C439  1  0.949100  0.617500  0.773300  1
  C  C440  1  0.050900  0.382500  0.226700  1
  C  C441  1  0.935800  0.586600  0.829900  1
  C  C442  1  0.064200  0.413400  0.170100  1
  C  C443  1  0.985300  0.552200  0.850800  1
  C  C444  1  0.014700  0.447800  0.149200  1
  C  C445  1  0.048000  0.548800  0.815100  1
  C  C446  1  0.952000  0.451200  0.184900  1
  C  C447  1  0.061300  0.579700  0.758400  1
  C  C448  1  0.938700  0.420300  0.241600  1
  C  C449  1  0.856600  0.553700  0.914400  1
  C  C450  1  0.143400  0.446300  0.085600  1
  C  C451  1  0.910400  0.496500  0.918500  1
  C  C452  1  0.089600  0.503500  0.081500  1
  C  C453  1  0.934200  0.491800  0.964400  1
  C  C454  1  0.065800  0.508200  0.035600  1
  C  C455  1  0.250700  0.119300  0.575400  1
  C  C456  1  0.749300  0.880700  0.424600  1
  C  C457  1  0.285100  0.113100  0.510200  1
  C  C458  1  0.714900  0.886900  0.489800  1
  C  C459  1  0.205000  0.087600  0.681400  1
  C  C460  1  0.795000  0.912400  0.318600  1
  C  C461  1  0.301800  0.014000  0.604000  1
  C  C462  1  0.698200  0.986000  0.396000  1
  C  C463  1  0.476200  0.287900  0.269000  1.0
  C  C464  1  0.523800  0.712100  0.731000  1.0
  C  C465  1  0.423300  0.264200  0.312100  1.0
  C  C466  1  0.576700  0.735800  0.687900  1.0
  C  C467  1  0.407700  0.230000  0.294000  1.0
  C  C468  1  0.592300  0.770000  0.706000  1.0
  C  C469  1  0.359300  0.210800  0.333700  1.0
  C  C470  1  0.640700  0.789200  0.666300  1.0
  C  C471  1  0.328300  0.219900  0.390400  1.0
  C  C472  1  0.671700  0.780100  0.609600  1.0
  C  C473  1  0.343100  0.255800  0.410400  1.0
  C  C474  1  0.656900  0.744200  0.589600  1.0
  C  C475  1  0.390300  0.276900  0.368800  1.0
  C  C476  1  0.609700  0.723100  0.631200  1.0
  C  C477  1  0.311800  0.262200  0.473100  1.0
  C  C478  1  0.688200  0.737800  0.526900  1.0
  C  C479  1  0.306500  0.142200  0.355600  1.0
  C  C480  1  0.693500  0.857800  0.644400  1.0
  C  C481  1  0.310800  0.097700  0.324200  1.0
  C  C482  1  0.689200  0.902300  0.675800  1.0
  C  C483  1  0.377800  0.051900  0.304100  1.0
  C  C484  1  0.622200  0.948100  0.695900  1.0
  C  C485  1  0.498700  0.415900  0.162400  1.0
  C  C486  1  0.501300  0.584100  0.837600  1.0
  C  C487  1  0.459400  0.473600  0.136100  1.0
  C  C488  1  0.540600  0.526400  0.863900  1.0
  C  C489  1  0.446700  0.473600  0.088700  1.0
  C  C490  1  0.553300  0.526400  0.911300  1.0
  C  C491  1  0.412900  0.526900  0.063200  1.0
  C  C492  1  0.587100  0.473100  0.936800  1.0
  C  C493  1  0.392300  0.580200  0.082500  1.0
  C  C494  1  0.607700  0.419800  0.917500  1.0
  C  C495  1  0.405800  0.580800  0.129100  1.0
  C  C496  1  0.594200  0.419200  0.870900  1.0
  C  C497  1  0.438000  0.526900  0.156300  1.0
  C  C498  1  0.562000  0.473100  0.843700  1.0
  C  C499  1  0.388000  0.638300  0.149200  1.0
  C  C500  1  0.612000  0.361700  0.850800  1.0
  C  C501  1  0.412100  0.479000  0.998300  1.0
  C  C502  1  0.587900  0.521000  0.001700  1.0
  C  C503  1  0.382900  0.495400  0.954600  1.0
  C  C504  1  0.617100  0.504600  0.045400  1.0
  C  C505  1  0.396700  0.438300  0.934500  1.0
  C  C506  1  0.603300  0.561700  0.065500  1.0
  C  C507  1  0.659300  0.358600  0.150700  1.0
  C  C508  1  0.340700  0.641400  0.849300  1.0
  C  C509  1  0.713900  0.378000  0.113500  1.0
  C  C510  1  0.286100  0.622000  0.886500  1.0
  C  C511  1  0.750400  0.361000  0.056900  1.0
  C  C512  1  0.249600  0.639000  0.943100  1.0
  C  C513  1  0.799000  0.381500  0.017800  1.0
  C  C514  1  0.201000  0.618500  0.982200  1.0
  C  C515  1  0.811100  0.419100  0.035300  1.0
  C  C516  1  0.188900  0.580900  0.964700  1.0
  C  C517  1  0.774500  0.436100  0.091900  1.0
  C  C518  1  0.225500  0.563900  0.908100  1.0
  C  C519  1  0.725900  0.415500  0.131000  1.0
  C  C520  1  0.274100  0.584500  0.869000  1.0
  C  C521  1  0.784900  0.475900  0.111600  1.0
  C  C522  1  0.215100  0.524100  0.888400  1.0
  C  C523  1  0.808600  0.351600  0.930000  1.0
  C  C524  1  0.191400  0.648400  0.070000  1.0
  C  C525  1  0.839700  0.355300  0.864800  1.0
  C  C526  1  0.160300  0.644700  0.135200  1.0
  C  C527  1  0.794900  0.366300  0.833600  1.0
  C  C528  1  0.205100  0.633700  0.166400  1.0
  C  C529  1  0.335400  0.821800  0.223100  1.0
  C  C530  1  0.664600  0.178200  0.776900  1.0
  C  C531  1  0.313700  0.880500  0.245800  1.0
  C  C532  1  0.686300  0.119500  0.754200  1.0
  C  C533  1  0.287400  0.934700  0.217500  1.0
  C  C534  1  0.712600  0.065300  0.782500  1.0
  C  C535  1  0.264700  0.985700  0.243200  1.0
  C  C536  1  0.735300  0.014300  0.756800  1.0
  C  C537  1  0.271100  0.982200  0.293500  1.0
  C  C538  1  0.728900  0.017800  0.706500  1.0
  C  C539  1  0.296600  0.926400  0.322200  1.0
  C  C540  1  0.703400  0.073600  0.677800  1.0
  C  C541  1  0.318700  0.875900  0.299300  1.0
  C  C542  1  0.681300  0.124100  0.700700  1.0
  C  C543  1  0.296400  0.921500  0.382500  1.0
  C  C544  1  0.703600  0.078500  0.617500  1.0
  C  C545  1  0.196100  0.095200  0.247300  1.0
  C  C546  1  0.803900  0.904800  0.752700  1.0
  C  C547  1  0.251000  0.732700  0.254300  1.0
  C  C548  1  0.749000  0.267300  0.745700  1.0
  C  C549  1  0.184600  0.734200  0.293900  1.0
  C  C550  1  0.815400  0.265800  0.706100  1.0
  C  C551  1  0.139000  0.748900  0.270000  1.0
  C  C552  1  0.861000  0.251100  0.730000  1.0
  C  C553  1  0.079400  0.747500  0.307400  1.0
  C  C554  1  0.920600  0.252500  0.692600  1.0
  C  C555  1  0.060800  0.736700  0.367000  1.0
  C  C556  1  0.939200  0.263300  0.633000  1.0
  C  C557  1  0.107400  0.719700  0.390600  1.0
  C  C558  1  0.892600  0.280300  0.609400  1.0
  C  C559  1  0.167700  0.718600  0.353900  1.0
  C  C560  1  0.832300  0.281400  0.646100  1.0
  C  C561  1  0.088800  0.704600  0.456100  1.0
  C  C562  1  0.911200  0.295400  0.543900  1.0
  C  C563  1  0.976900  0.758200  0.314700  1.0
  C  C564  1  0.023100  0.241800  0.685300  1.0
  C  C565  1  0.948800  0.763100  0.271900  1.0
  C  C566  1  0.051200  0.236900  0.728100  1.0
  C  C567  1  0.479500  0.719200  0.125500  1.0
  C  C568  1  0.520500  0.280800  0.874500  1.0
  C  C569  1  0.549500  0.711900  0.085700  1.0
  C  C570  1  0.450500  0.288100  0.914300  1.0
  C  C571  1  0.563600  0.740800  0.028000  1.0
  C  C572  1  0.436400  0.259200  0.972000  1.0
  C  C573  1  0.626600  0.730600  0.991800  1.0
  C  C574  1  0.373400  0.269400  0.008200  1.0
  C  C575  1  0.675900  0.695400  0.014200  1.0
  C  C576  1  0.324100  0.304600  0.985800  1.0
  C  C577  1  0.659500  0.670800  0.072900  1.0
  C  C578  1  0.340500  0.329200  0.927100  1.0
  C  C579  1  0.595400  0.677800  0.110000  1.0
  C  C580  1  0.404600  0.322200  0.890000  1.0
  C  C581  1  0.713000  0.631100  0.096400  1.0
  C  C582  1  0.287000  0.368900  0.903600  1.0
  C  C583  1  0.708800  0.739900  0.891500  1.0
  C  C584  1  0.291200  0.260100  0.108500  1.0
  C  C585  1  0.704600  0.773600  0.833700  1.0
  C  C586  1  0.295400  0.226400  0.166300  1.0
  C  C587  1  0.778800  0.753600  0.787100  1.0
  C  C588  1  0.221200  0.246400  0.212900  1.0
  C  C589  1  0.390700  0.913600  0.457100  1.0
  C  C590  1  0.609300  0.086400  0.542900  1.0
  C  C591  1  0.453800  0.918600  0.441600  1.0
  C  C592  1  0.546200  0.081400  0.558400  1.0
  C  C593  1  0.455500  0.974400  0.432700  1.0
  C  C594  1  0.544500  0.025600  0.567300  1.0
  C  C595  1  0.512600  0.979100  0.418700  1.0
  C  C596  1  0.487400  0.020900  0.581300  1.0
  C  C597  1  0.569600  0.927700  0.413400  1.0
  C  C598  1  0.430400  0.072300  0.586600  1.0
  C  C599  1  0.568200  0.870800  0.421000  1.0
  C  C600  1  0.431800  0.129200  0.579000  1.0
  C  C601  1  0.508900  0.868300  0.435500  1.0
  C  C602  1  0.491100  0.131700  0.564500  1.0
  C  C603  1  0.627300  0.817200  0.419400  1.0
  C  C604  1  0.372700  0.182800  0.580600  1.0
  C  C605  1  0.470400  0.080200  0.423400  1.0
  C  C606  1  0.529600  0.919800  0.576600  1.0
  C  C607  1  0.496600  0.125600  0.415300  1.0
  C  C608  1  0.503400  0.874400  0.584700  1.0
  C  C609  1  0.540100  0.140200  0.362500  1.0
  C  C610  1  0.459900  0.859800  0.637500  1.0
  C  C611  1  0.269900  0.890100  0.594600  1.0
  C  C612  1  0.730100  0.109900  0.405400  1.0
  C  C613  1  0.266800  0.883600  0.654900  1.0
  C  C614  1  0.733200  0.116400  0.345100  1.0
  C  C615  1  0.224100  0.929400  0.689700  1.0
  C  C616  1  0.775900  0.070600  0.310300  1.0
  C  C617  1  0.222900  0.925400  0.744900  1.0
  C  C618  1  0.777100  0.074600  0.255100  1.0
  C  C619  1  0.267600  0.873700  0.764300  1.0
  C  C620  1  0.732400  0.126300  0.235700  1.0
  C  C621  1  0.309300  0.827900  0.731400  1.0
  C  C622  1  0.690700  0.172100  0.268600  1.0
  C  C623  1  0.309300  0.831800  0.676700  1.0
  C  C624  1  0.690700  0.168200  0.323300  1.0
  C  C625  1  0.356500  0.772700  0.752300  1.0
  C  C626  1  0.643500  0.227300  0.247700  1.0
  C  C627  1  0.183600  0.974100  0.827900  1.0
  C  C628  1  0.816400  0.025900  0.172100  1.0
  C  C629  1  0.130700  0.035000  0.850100  1.0
  C  C630  1  0.869300  0.965000  0.149900  1.0
  C  C631  1  0.149700  0.040500  0.897500  1.0
  C  C632  1  0.850300  0.959500  0.102500  1.0
  C  C633  1  0.175600  0.904000  0.520400  1.0
  C  C634  1  0.824400  0.096000  0.479600  1.0
  C  C635  1  0.111500  0.899100  0.542300  1.0
  C  C636  1  0.888500  0.100900  0.457700  1.0
  C  C637  1  0.052800  0.950000  0.558000  1.0
  C  C638  1  0.947200  0.050000  0.442000  1.0
  C  C639  1  0.994200  0.942300  0.581200  1.0
  C  C640  1  0.005800  0.057700  0.418800  1.0
  C  C641  1  0.995800  0.885700  0.586100  1.0
  C  C642  1  0.004200  0.114300  0.413900  1.0
  C  C643  1  0.052400  0.838100  0.568400  1.0
  C  C644  1  0.947600  0.161900  0.431600  1.0
  C  C645  1  0.111100  0.843600  0.546100  1.0
  C  C646  1  0.888900  0.156400  0.453900  1.0
  C  C647  1  0.055300  0.778200  0.568900  1.0
  C  C648  1  0.944700  0.221800  0.431100  1.0
  C  C649  1  0.929100  0.046400  0.594700  1.0
  C  C650  1  0.070900  0.953600  0.405300  1.0
  C  C651  1  0.856800  0.084400  0.620000  1.0
  C  C652  1  0.143200  0.915600  0.380000  1.0
  C  C653  1  0.847500  0.149500  0.617500  1.0
  C  C654  1  0.152500  0.850500  0.382500  1.0
  C  C655  1  0.056100  0.583500  0.562200  1.0
  C  C656  1  0.943900  0.416500  0.437800  1.0
  C  C657  1  0.056000  0.523000  0.566300  1.0
  C  C658  1  0.944000  0.477000  0.433700  1.0
  C  C659  1  0.001200  0.519200  0.571800  1.0
  C  C660  1  0.998800  0.480800  0.428200  1.0
  C  C661  1  0.001900  0.464300  0.577000  1.0
  C  C662  1  0.998100  0.535700  0.423000  1.0
  C  C663  1  0.056100  0.413000  0.578500  1.0
  C  C664  1  0.943900  0.587000  0.421500  1.0
  C  C665  1  0.109600  0.417200  0.572400  1.0
  C  C666  1  0.890400  0.582800  0.427600  1.0
  C  C667  1  0.109600  0.473000  0.565600  1.0
  C  C668  1  0.890400  0.527000  0.434400  1.0
  C  C669  1  0.169500  0.362200  0.575000  1.0
  C  C670  1  0.830500  0.637800  0.425000  1.0
  C  C671  1  0.934600  0.416600  0.599700  1.0
  C  C672  1  0.065400  0.583400  0.400300  1.0
  C  C673  1  0.031400  0.650600  0.673900  1.0
  C  C674  1  0.968600  0.349400  0.326100  1.0
  C  C675  1  0.019200  0.641500  0.740800  1.0
  C  C676  1  0.980800  0.358500  0.259200  1.0
  C  C677  1  0.959200  0.671600  0.782400  1.0
  C  C678  1  0.040800  0.328400  0.217600  1.0
  C  C679  1  0.947400  0.655700  0.842300  1.0
  C  C680  1  0.052600  0.344300  0.157700  1.0
  C  C681  1  0.995700  0.609600  0.860700  1.0
  C  C682  1  0.004300  0.390400  0.139300  1.0
  C  C683  1  0.055600  0.579500  0.819100  1.0
  C  C684  1  0.944400  0.420500  0.180900  1.0
  C  C685  1  0.067400  0.595400  0.759200  1.0
  C  C686  1  0.932600  0.404600  0.240800  1.0
  C  C687  1  0.107100  0.516700  0.836500  1.0
  C  C688  1  0.892900  0.483300  0.163500  1.0
  C  C689  1  0.881600  0.692000  0.934900  1.0
  C  C690  1  0.118400  0.308000  0.065100  1.0
  C  C691  1  0.947500  0.664500  0.936200  1.0
  C  C692  1  0.052500  0.335500  0.063800  1.0
  C  C693  1  0.954700  0.604700  0.974400  1.0
  C  C694  1  0.045300  0.395300  0.025600  1.0
  C  C695  1  0.217900  0.267500  0.693100  1.0
  C  C696  1  0.782100  0.732500  0.306900  1.0
  C  C697  1  0.189700  0.272400  0.757300  1.0
  C  C698  1  0.810300  0.727600  0.242700  1.0
  C  C699  1  0.198700  0.312000  0.775200  1.0
  C  C700  1  0.801300  0.688000  0.224800  1.0
  C  C701  1  0.169000  0.321100  0.834400  1.0
  C  C702  1  0.831000  0.678900  0.165600  1.0
  C  C703  1  0.130300  0.290600  0.875600  1.0
  C  C704  1  0.869700  0.709400  0.124400  1.0
  C  C705  1  0.121300  0.251100  0.857700  1.0
  C  C706  1  0.878700  0.748900  0.142300  1.0
  C  C707  1  0.151000  0.242000  0.798600  1.0
  C  C708  1  0.849000  0.758000  0.201400  1.0
  C  C709  1  0.180400  0.365200  0.852000  1.0
  C  C710  1  0.819600  0.634800  0.148000  1.0
  C  C711  1  0.503000  0.377100  0.383700  1.0
  C  C712  1  0.497000  0.622900  0.616300  1.0
  C  C713  1  0.505700  0.315100  0.412200  1.0
  C  C714  1  0.494300  0.684900  0.587800  1.0
  C  C715  1  0.473700  0.476200  0.393200  1.0
  C  C716  1  0.526300  0.523800  0.606800  1.0
  C  C717  1  0.433600  0.419100  0.483700  1.0
  C  C718  1  0.566400  0.580900  0.516300  1.0
  C  C719  1  0.481500  0.618400  0.286400  1.0
  C  C720  1  0.518500  0.381600  0.713600  1.0
  C  C721  1  0.505000  0.655000  0.298900  1.0
  C  C722  1  0.495000  0.345000  0.701100  1.0
  C  C723  1  0.506500  0.535800  0.244100  1.0
  C  C724  1  0.493500  0.464200  0.755900  1.0
  C  C725  1  0.594800  0.545200  0.248200  1.0
  C  C726  1  0.405200  0.454800  0.751800  1.0
  C  C727  1  0.346300  0.720100  0.466700  1.0
  C  C728  1  0.653700  0.279900  0.533300  1.0
  C  C729  1  0.301100  0.744300  0.434800  1.0
  C  C730  1  0.698900  0.255700  0.565200  1.0
  C  C731  1  0.418200  0.639300  0.507200  1.0
  C  C732  1  0.581800  0.360700  0.492800  1.0
  C  C733  1  0.372100  0.620300  0.454500  1.0
  C  C734  1  0.627900  0.379700  0.545500  1.0
  C  C735  1  0.149100  0.084900  0.498200  1.0
  C  C736  1  0.850900  0.915100  0.501800  1.0
  C  C737  1  0.134500  0.099000  0.444000  1.0
  C  C738  1  0.865500  0.901000  0.556000  1.0
  C  C739  1  0.112800  0.084500  0.602800  1.0
  C  C740  1  0.887200  0.915500  0.397200  1.0
  C  C741  1  0.031300  0.131500  0.556600  1.0
  C  C742  1  0.968700  0.868500  0.443400  1.0
  C  C743  1  0.872600  0.725300  0.565900  1.0
  C  C744  1  0.127400  0.274700  0.434100  1.0
  C  C745  1  0.882600  0.738500  0.501500  1.0
  C  C746  1  0.117400  0.261500  0.498500  1.0
  C  C747  1  0.837600  0.680100  0.661400  1.0
  C  C748  1  0.162400  0.319900  0.338600  1.0
  C  C749  1  0.828500  0.658400  0.572600  1.0
  C  C750  1  0.171500  0.341600  0.427400  1.0
  C  C751  1  0.237900  0.114100  0.619700  1.0
  C  C752  1  0.762100  0.885900  0.380300  1.0
  C  C753  1  0.236900  0.088800  0.681300  1.0
  C  C754  1  0.763100  0.911200  0.318700  1.0
  C  C755  1  0.291400  0.097400  0.522600  1.0
  C  C756  1  0.708600  0.902600  0.477400  1.0
  C  C757  1  0.321600  0.014400  0.591000  1.0
  C  C758  1  0.678400  0.985600  0.409000  1.0
  N  N759  1  0.290700  0.659700  0.663400  1
  N  N760  1  0.709300  0.340300  0.336600  1
  N  N761  1  0.321000  0.484200  0.388000  1
  N  N762  1  0.679000  0.515800  0.612000  1
  N  N763  1  0.460800  0.247500  0.665000  1
  N  N764  1  0.539200  0.752500  0.335000  1
  N  N765  1  0.266400  0.072100  0.614000  1
  N  N766  1  0.733600  0.927900  0.386000  1
  N  N767  1  0.476100  0.419400  0.417900  1.0
  N  N768  1  0.523900  0.580600  0.582100  1.0
  N  N769  1  0.524200  0.568100  0.262500  1.0
  N  N770  1  0.475800  0.431900  0.737500  1.0
  N  N771  1  0.376200  0.661400  0.477500  1.0
  N  N772  1  0.623800  0.338600  0.522500  1.0
  N  N773  1  0.100300  0.100400  0.549500  1.0
  N  N774  1  0.899700  0.899600  0.450500  1.0
  N  N775  1  0.841800  0.689800  0.601900  1.0
  N  N776  1  0.158200  0.310200  0.398100  1.0
  N  N777  1  0.278100  0.079800  0.576400  1.0
  N  N778  1  0.721900  0.920200  0.423600  1.0
  O  O779  1  0.266200  0.616300  0.620100  1
  O  O780  1  0.733800  0.383700  0.379900  1
  O  O781  1  0.281400  0.523700  0.471000  1
  O  O782  1  0.718600  0.476300  0.529000  1
  O  O783  1  0.367800  0.328800  0.677700  1
  O  O784  1  0.632200  0.671200  0.322300  1
  O  O785  1  0.871300  0.593900  0.862200  1
  O  O786  1  0.128700  0.406100  0.137800  1
  O  O787  1  0.911800  0.587400  0.987500  1
  O  O788  1  0.088200  0.412600  0.012500  1
  O  O789  1  0.207500  0.168400  0.592400  1
  O  O790  1  0.792500  0.831600  0.407600  1
  O  O791  1  0.482100  0.321500  0.290500  1.0
  O  O792  1  0.517900  0.678500  0.709500  1.0
  O  O793  1  0.509500  0.268800  0.221000  1.0
  O  O794  1  0.490500  0.731200  0.779000  1.0
  O  O795  1  0.330500  0.292500  0.487800  1.0
  O  O796  1  0.669500  0.707500  0.512200  1.0
  O  O797  1  0.270600  0.241400  0.505200  1.0
  O  O798  1  0.729400  0.758600  0.494800  1.0
  O  O799  1  0.349300  0.173600  0.311700  1.0
  O  O800  1  0.650700  0.826400  0.688300  1.0
  O  O801  1  0.504000  0.418600  0.208100  1.0
  O  O802  1  0.496000  0.581400  0.791900  1.0
  O  O803  1  0.523500  0.369300  0.138900  1.0
  O  O804  1  0.476500  0.630700  0.861100  1.0
  O  O805  1  0.393300  0.631900  0.196700  1.0
  O  O806  1  0.606700  0.368100  0.803300  1.0
  O  O807  1  0.367800  0.686300  0.118800  1.0
  O  O808  1  0.632200  0.313700  0.881200  1.0
  O  O809  1  0.396400  0.532700  0.018300  1.0
  O  O810  1  0.603600  0.467300  0.981700  1.0
  O  O811  1  0.626100  0.370100  0.203000  1.0
  O  O812  1  0.373900  0.629900  0.797000  1.0
  O  O813  1  0.649200  0.328400  0.125500  1.0
  O  O814  1  0.350800  0.671600  0.874500  1.0
  O  O815  1  0.753000  0.489500  0.163000  1.0
  O  O816  1  0.247000  0.510500  0.837000  1.0
  O  O817  1  0.828100  0.495500  0.071400  1.0
  O  O818  1  0.171900  0.504500  0.928600  1.0
  O  O819  1  0.831400  0.372100  0.959100  1.0
  O  O820  1  0.168600  0.627900  0.040900  1.0
  O  O821  1  0.363100  0.773500  0.249800  1.0
  O  O822  1  0.636900  0.226500  0.750200  1.0
  O  O823  1  0.323800  0.830100  0.178600  1.0
  O  O824  1  0.676200  0.169900  0.821400  1.0
  O  O825  1  0.322200  0.868700  0.405600  1.0
  O  O826  1  0.677800  0.131300  0.594400  1.0
  O  O827  1  0.270800  0.968100  0.405100  1.0
  O  O828  1  0.729200  0.031900  0.594900  1.0
  O  O829  1  0.237500  0.040900  0.212700  1.0
  O  O830  1  0.762500  0.959100  0.787300  1.0
  O  O831  1  0.292100  0.708300  0.277000  1.0
  O  O832  1  0.707900  0.291700  0.723000  1.0
  O  O833  1  0.260800  0.756400  0.202100  1.0
  O  O834  1  0.739200  0.243600  0.797900  1.0
  O  O835  1  0.135000  0.678600  0.473200  1.0
  O  O836  1  0.865000  0.321400  0.526800  1.0
  O  O837  1  0.030200  0.718900  0.488100  1.0
  O  O838  1  0.969800  0.281100  0.511900  1.0
  O  O839  1  0.039400  0.762200  0.278400  1.0
  O  O840  1  0.960600  0.237800  0.721600  1.0
  O  O841  1  0.468800  0.692400  0.176300  1.0
  O  O842  1  0.531200  0.307600  0.823700  1.0
  O  O843  1  0.437000  0.750600  0.103300  1.0
  O  O844  1  0.563000  0.249400  0.896700  1.0
  O  O845  1  0.696500  0.611200  0.150100  1.0
  O  O846  1  0.303500  0.388800  0.849900  1.0
  O  O847  1  0.770900  0.618900  0.057200  1.0
  O  O848  1  0.229100  0.381100  0.942800  1.0
  O  O849  1  0.639500  0.755100  0.935000  1.0
  O  O850  1  0.360500  0.244900  0.065000  1.0
  O  O851  1  0.392000  0.863400  0.463600  1.0
  O  O852  1  0.608000  0.136600  0.536400  1.0
  O  O853  1  0.340800  0.963100  0.464200  1.0
  O  O854  1  0.659200  0.036900  0.535800  1.0
  O  O855  1  0.626200  0.768000  0.423400  1.0
  O  O856  1  0.373800  0.232000  0.576600  1.0
  O  O857  1  0.677300  0.826200  0.409800  1.0
  O  O858  1  0.322700  0.173800  0.590200  1.0
  O  O859  1  0.524800  0.028200  0.409700  1.0
  O  O860  1  0.475200  0.971800  0.590300  1.0
  O  O861  1  0.300300  0.843100  0.568900  1.0
  O  O862  1  0.699700  0.156900  0.431100  1.0
  O  O863  1  0.246100  0.942900  0.571100  1.0
  O  O864  1  0.753900  0.057100  0.428900  1.0
  O  O865  1  0.389900  0.729500  0.723300  1.0
  O  O866  1  0.610100  0.270500  0.276700  1.0
  O  O867  1  0.358900  0.774100  0.799400  1.0
  O  O868  1  0.641100  0.225900  0.200600  1.0
  O  O869  1  0.177800  0.972100  0.776200  1.0
  O  O870  1  0.822200  0.027900  0.223800  1.0
  O  O871  1  0.224000  0.857800  0.512800  1.0
  O  O872  1  0.776000  0.142200  0.487200  1.0
  O  O873  1  0.174000  0.955800  0.513700  1.0
  O  O874  1  0.826000  0.044200  0.486300  1.0
  O  O875  1  0.106200  0.734800  0.562300  1.0
  O  O876  1  0.893800  0.265200  0.437700  1.0
  O  O877  1  0.000700  0.778600  0.577200  1.0
  O  O878  1  0.999300  0.221400  0.422800  1.0
  O  O879  1  0.933400  0.987000  0.598400  1.0
  O  O880  1  0.066600  0.013000  0.401600  1.0
  O  O881  1  0.107700  0.584900  0.553900  1.0
  O  O882  1  0.892300  0.415100  0.446100  1.0
  O  O883  1  0.001300  0.628200  0.571600  1.0
  O  O884  1  0.998700  0.371800  0.428400  1.0
  O  O885  1  0.218900  0.367800  0.564800  1.0
  O  O886  1  0.781100  0.632200  0.435200  1.0
  O  O887  1  0.162500  0.313100  0.587200  1.0
  O  O888  1  0.837500  0.686900  0.412800  1.0
  O  O889  1  0.948000  0.460300  0.582200  1.0
  O  O890  1  0.052000  0.539700  0.417800  1.0
  O  O891  1  0.088000  0.637500  0.641900  1.0
  O  O892  1  0.912000  0.362500  0.358100  1.0
  O  O893  1  0.981900  0.680000  0.659900  1.0
  O  O894  1  0.018100  0.320000  0.340100  1.0
  O  O895  1  0.162400  0.508700  0.799200  1.0
  O  O896  1  0.837600  0.491300  0.200800  1.0
  O  O897  1  0.089000  0.497900  0.891400  1.0
  O  O898  1  0.911000  0.502100  0.108600  1.0
  O  O899  1  0.888800  0.687000  0.879400  1.0
  O  O900  1  0.111200  0.313000  0.120600  1.0
  O  O901  1  0.252000  0.297400  0.658400  1.0
  O  O902  1  0.748000  0.702600  0.341600  1.0
  O  O903  1  0.204900  0.235000  0.675400  1.0
  O  O904  1  0.795100  0.765000  0.324600  1.0
  O  O905  1  0.219700  0.385300  0.811100  1.0
  O  O906  1  0.780300  0.614700  0.188900  1.0
  O  O907  1  0.147900  0.374900  0.903900  1.0
  O  O908  1  0.852100  0.625100  0.096100  1.0
  O  O909  1  0.082700  0.220900  0.898200  1.0
  O  O910  1  0.917300  0.779100  0.101800  1.0
  O  O911  1  0.220100  0.615700  0.538400  1.0
  O  O912  1  0.779900  0.384300  0.461600  1.0
  O  O913  1  0.617600  0.245600  0.093200  1.0
  O  O914  1  0.382400  0.754400  0.906800  1.0
  O  O915  1  0.319300  0.817300  0.069700  1.0
  O  O916  1  0.680700  0.182700  0.930300  1.0
  O  O917  1  0.335900  0.360800  0.574100  1.0
  O  O918  1  0.664100  0.639200  0.425900  1.0
  O  O919  1  0.308900  0.438300  0.723600  1.0
  O  O920  1  0.691100  0.561700  0.276400  1.0
  O  O921  1  0.525300  0.388200  0.328600  1.0
  O  O922  1  0.474700  0.611800  0.671400  1.0
  O  O923  1  0.422500  0.636000  0.297800  1.0
  O  O924  1  0.577500  0.364000  0.702200  1.0
  O  O925  1  0.354500  0.755300  0.483300  1.0
  O  O926  1  0.645500  0.244700  0.516700  1.0
  O  O927  1  0.206500  0.059700  0.494200  1.0
  O  O928  1  0.793500  0.940300  0.505800  1.0
  O  O929  1  0.892500  0.748300  0.584900  1.0
  O  O930  1  0.107500  0.251700  0.415100  1.0
  O  O931  1  0.201600  0.167000  0.609800  1.0
  O  O932  1  0.798400  0.833000  0.390200  1.0
  O  O933  1  0.090700  0.456100  0.016900  1.0
  O  O934  1  0.909300  0.543900  0.983100  1.0
