
#######################################################################
#
#                 Cambridge Crystallographic Data Centre
#                                CCDC 
#
#######################################################################
#
# If this CIF has been generated from an entry in the Cambridge 
# Structural Database, then it will include bibliographic, chemical, 
# crystal, experimental, refinement or atomic coordinate data resulting 
# from the CCDC's data processing and validation procedures.
#
#######################################################################

data_GIDFUW
_chemical_formula_moiety         
'C144 H96 N24 Ni4 O36 S12 4-,2(H12 Ni1 O6 2+),C1 Cl4,74.90(H2 O1)'
_chemical_name_systematic        
"hexakis(\m~2~-4,4'-bis((Pyridin-2-ylmethylene)amino)biphenyl-2,2'-disulfonate)-tetra-nickel bis(hexa-aqua-nickel) tetrachloromethane clathrate hydrate"
_symmetry_cell_setting           monoclinic
_symmetry_space_group_name_H-M   'C 2/c'
_symmetry_Int_Tables_number      15
_space_group_name_Hall           '-C 2yn'
loop_
_symmetry_equiv_pos_site_id
_symmetry_equiv_pos_as_xyz
1 x,y,z
2 -x,y,1/2-z
3 1/2+x,1/2+y,z
4 1/2-x,1/2+y,1/2-z
5 -x,-y,-z
6 x,-y,1/2+z
7 1/2-x,1/2-y,-z
8 1/2+x,1/2-y,1/2+z
_cell_length_a                   36.3342(4)
_cell_length_b                   36.3340(4)
_cell_length_c                   25.6826(3)
_cell_angle_alpha                90
_cell_angle_beta                 134.9869(5)
_cell_angle_gamma                90
_cell_volume                     23980.2
_exptl_crystal_colour            orange
_exptl_crystal_description       prism
_cell_formula_units_Z            4
loop_
_atom_site_label
_atom_site_type_symbol
_atom_site_fract_x
_atom_site_fract_y
_atom_site_fract_z
C1 C 0.5000 0.6277(2) 0.7500
Cl1 Cl 0.4997(4) 0.6562(3) 0.8057(5)
Cl2 Cl 0.5649(2) 0.6168(3) 0.8023(5)
Cl1A Cl 0.5003(4) 0.6562(3) 0.6943(5)
Cl2A Cl 0.4351(2) 0.6168(3) 0.6977(5)
Ni1 Ni 0.24632(3) 0.498142(19) 0.49628(4)
Ni2 Ni 0.50004(3) 0.751907(19) 0.49624(4)
S1 S 0.25539(8) 0.64245(5) 0.38569(12)
O1 O 0.2614(2) 0.65892(13) 0.3413(3)
O2 O 0.2730(3) 0.66704(15) 0.4454(4)
O3 O 0.2051(2) 0.62746(15) 0.3444(4)
N1 N 0.24623(19) 0.44591(13) 0.4608(3)
N2 N 0.28771(18) 0.50809(13) 0.4678(3)
C2 C 0.2255(3) 0.41482(18) 0.4580(4)
H1 H 0.2083 0.4151 0.4736
C3 C 0.2282(3) 0.3822(2) 0.4333(5)
H2 H 0.2134 0.3604 0.4324
C4 C 0.2527(4) 0.3816(2) 0.4098(6)
H3 H 0.2547 0.3595 0.3923
C5 C 0.2739(3) 0.4136(2) 0.4121(5)
H4 H 0.2910 0.4141 0.3964
C6 C 0.2700(2) 0.44491(17) 0.4377(4)
C7 C 0.2924(2) 0.47987(17) 0.4429(3)
H5 H 0.3100 0.4816 0.4282
C8 C 0.3105(2) 0.54163(17) 0.4728(3)
C9 C 0.2785(2) 0.57176(16) 0.4326(3)
H6 H 0.2423 0.5699 0.4037
C10 C 0.2986(2) 0.60468(16) 0.4342(3)
C11 C 0.3524(3) 0.60789(17) 0.4767(3)
C12 C 0.3830(3) 0.5778(2) 0.5179(4)
H7 H 0.4195 0.5795 0.5487
C13 C 0.3629(2) 0.54511(19) 0.5162(4)
H8 H 0.3854 0.5249 0.5451
S2 S 0.38030(8) 0.60762(5) 0.38511(12)
O4 O 0.3301(2) 0.59114(13) 0.3415(3)
O5 O 0.4225(2) 0.58312(16) 0.4446(4)
O6 O 0.3892(3) 0.62277(16) 0.3437(4)
N3 N 0.4645(2) 0.80396(14) 0.4606(3)
N4 N 0.43040(19) 0.74172(13) 0.4681(3)
C14 C 0.4827(3) 0.83497(17) 0.4585(4)
H9 H 0.5155 0.8347 0.4742
C15 C 0.4551(4) 0.8679(2) 0.4339(5)
H10 H 0.4693 0.8898 0.4336
C16 C 0.4072(4) 0.8685(2) 0.4099(6)
H11 H 0.3877 0.8907 0.3924
C17 C 0.3881(3) 0.8362(2) 0.4120(5)
H12 H 0.3552 0.8356 0.3960
C18 C 0.4177(3) 0.80503(17) 0.4376(4)
C19 C 0.4007(2) 0.77000(18) 0.4427(3)
H13 H 0.3682 0.7682 0.4276
C20 C 0.4126(2) 0.70811(17) 0.4730(3)
C21 C 0.4044(2) 0.67826(16) 0.4325(3)
H14 H 0.4118 0.6802 0.4038
C22 C 0.3855(2) 0.64547(16) 0.4336(3)
C23 C 0.3749(2) 0.64227(18) 0.4763(3)
C24 C 0.3851(3) 0.6722(2) 0.5180(4)
H15 H 0.3789 0.6703 0.5482
C25 C 0.4039(3) 0.70446(19) 0.5168(4)
H16 H 0.4111 0.7245 0.5466
S3 S 0.33518(8) 0.56236(5) 0.78491(10)
O7 O 0.3299(2) 0.59095(14) 0.8181(3)
O8 O 0.3892(3) 0.5498(2) 0.8337(3)
O9 O 0.2988(3) 0.53285(16) 0.7543(3)
N5 N 0.17655(19) 0.51577(14) 0.3920(3)
N6 N 0.24219(18) 0.55368(13) 0.5163(3)
C26 C 0.1441(3) 0.4966(2) 0.3299(4)
H17 H 0.1520 0.4716 0.3302
C27 C 0.0992(3) 0.5119(2) 0.2649(4)
H18 H 0.0770 0.4975 0.2212
C28 C 0.0867(3) 0.5479(3) 0.2630(5)
H19 H 0.0561 0.5589 0.2186
C29 C 0.1203(3) 0.5677(2) 0.3281(4)
H20 H 0.1128 0.5925 0.3294
C30 C 0.1641(2) 0.55112(18) 0.3902(4)
C31 C 0.2018(2) 0.57102(17) 0.4602(4)
H21 H 0.1963 0.5961 0.4638
C32 C 0.2780(2) 0.57391(17) 0.5831(3)
C33 C 0.2878(2) 0.56244(17) 0.6431(3)
H22 H 0.2711 0.5409 0.6392
C34 C 0.3214(2) 0.58165(17) 0.7089(3)
C35 C 0.3460(2) 0.61349(18) 0.7155(4)
C36 C 0.3367(3) 0.6242(2) 0.6555(4)
H23 H 0.3536 0.6455 0.6593
C37 C 0.3037(3) 0.60482(19) 0.5903(4)
H24 H 0.2985 0.6127 0.5502
S4 S 0.30031(8) 0.68771(5) 0.71512(10)
O10 O 0.26216(18) 0.65936(14) 0.6823(3)
O11 O 0.3054(3) 0.6998(2) 0.6659(3)
O12 O 0.2946(2) 0.71733(16) 0.7451(3)
N7 N 0.5343(2) 0.73437(14) 1.1080(3)
N8 N 0.47567(18) 0.69631(13) 0.9836(3)
C38 C 0.5642(3) 0.75340(19) 1.1701(4)
H25 H 0.5720 0.7783 1.1698
C39 C 0.5845(3) 0.7381(2) 1.2356(4)
H26 H 0.6058 0.7526 1.2792
C40 C 0.5739(4) 0.7022(3) 1.2374(4)
H27 H 0.5879 0.6913 1.2820
C41 C 0.5421(4) 0.6822(2) 1.1726(4)
H28 H 0.5333 0.6574 1.1715
C42 C 0.5234(3) 0.69898(18) 1.1095(4)
C43 C 0.4916(3) 0.67924(17) 1.0401(4)
H29 H 0.4828 0.6541 1.0367
C44 C 0.4446(2) 0.67596(16) 0.9164(3)
C45 C 0.3945(2) 0.68802(16) 0.8564(3)
H30 H 0.3819 0.7097 0.8602
C46 C 0.3624(2) 0.66842(17) 0.7906(3)
C47 C 0.3804(2) 0.63660(18) 0.7847(4)
C48 C 0.4314(3) 0.6256(2) 0.8444(4)
H31 H 0.4447 0.6046 0.8403
C49 C 0.4632(3) 0.6452(2) 0.9101(4)
H32 H 0.4979 0.6373 0.9507
S5 S 0.45481(7) 0.44263(6) 0.62476(10)
O13 O 0.4996(2) 0.42086(14) 0.6816(3)
O14 O 0.4671(3) 0.4722(2) 0.6001(4)
O15 O 0.4105(2) 0.4222(2) 0.5659(3)
N9 N 0.21195(19) 0.48031(14) 0.5316(3)
N10 N 0.31206(18) 0.48415(13) 0.6076(3)
C50 C 0.1617(3) 0.4792(2) 0.4933(4)
H33 H 0.1370 0.4871 0.4435
C51 C 0.1440(3) 0.4668(3) 0.5233(5)
H34 H 0.1078 0.4664 0.4944
C52 C 0.1794(3) 0.4549(3) 0.5957(5)
H35 H 0.1681 0.4463 0.6174
C53 C 0.2318(3) 0.4560(3) 0.6357(5)
H36 H 0.2573 0.4480 0.6855
C54 C 0.2462(3) 0.46882(18) 0.6023(4)
C55 C 0.3009(2) 0.47144(16) 0.6418(4)
H37 H 0.3276 0.4639 0.6918
C56 C 0.3659(2) 0.48661(15) 0.6479(3)
C57 C 0.3836(2) 0.46633(15) 0.6241(3)
H38 H 0.3600 0.4518 0.5808
C58 C 0.4362(2) 0.46695(16) 0.6634(4)
C59 C 0.4714(2) 0.48822(17) 0.7270(4)
C60 C 0.4523(3) 0.50909(19) 0.7483(5)
H39 H 0.4755 0.5243 0.7906
C61 C 0.4000(3) 0.50854(18) 0.7095(4)
H40 H 0.3877 0.5232 0.7254
S6 S 0.41996(6) 0.80721(6) 0.62476(10)
O16 O 0.43182(19) 0.82903(14) 0.6814(3)
O17 O 0.3829(2) 0.7776(2) 0.5999(4)
O18 O 0.4053(2) 0.8278(2) 0.5655(3)
N11 N 0.5699(2) 0.76959(14) 0.5317(3)
N12 N 0.5457(2) 0.76592(13) 0.6076(3)
C62 C 0.5817(3) 0.7707(2) 0.4929(4)
H41 H 0.5567 0.7627 0.4431
C63 C 0.6294(3) 0.7833(3) 0.5231(4)
H42 H 0.6368 0.7839 0.4942
C64 C 0.6666(3) 0.7950(3) 0.5960(5)
H43 H 0.6998 0.8034 0.6179
C65 C 0.6542(3) 0.7942(2) 0.6359(5)
H44 H 0.6783 0.8026 0.6855
C66 C 0.6059(3) 0.78110(18) 0.6020(4)
C67 C 0.5908(3) 0.77851(17) 0.6418(4)
H45 H 0.6139 0.7860 0.6918
C68 C 0.5322(2) 0.76349(15) 0.6478(3)
C69 C 0.4906(2) 0.78344(16) 0.6242(3)
H46 H 0.4708 0.7979 0.5808
C70 C 0.4770(2) 0.78283(16) 0.6630(3)
C71 C 0.5057(3) 0.76172(16) 0.7268(4)
C72 C 0.5462(3) 0.74091(19) 0.7482(4)
H47 H 0.5654 0.7256 0.7904
C73 C 0.5598(3) 0.74176(18) 0.7094(4)
H48 H 0.5881 0.7273 0.7255
S5A S 0.54519(7) 0.44263(6) 0.87524(10)
O13A O 0.5004(2) 0.42086(14) 0.8184(3)
O14A O 0.5329(3) 0.4722(2) 0.8999(4)
O15A O 0.5895(2) 0.4222(2) 0.9341(3)
N9A N 0.78805(19) 0.48031(14) 0.9684(3)
N10A N 0.68794(18) 0.48415(13) 0.8924(3)
C50A C 0.8383(3) 0.4792(2) 1.0067(4)
H33A H 0.8630 0.4871 1.0565
C51A C 0.8560(3) 0.4668(3) 0.9767(5)
H34A H 0.8922 0.4664 1.0056
C52A C 0.8206(3) 0.4549(3) 0.9043(5)
H35A H 0.8319 0.4463 0.8826
C53A C 0.7682(3) 0.4560(3) 0.8643(5)
H36A H 0.7427 0.4480 0.8145
C54A C 0.7538(3) 0.46882(18) 0.8977(4)
C55A C 0.6991(2) 0.47144(16) 0.8582(4)
H37A H 0.6724 0.4639 0.8082
C56A C 0.6341(2) 0.48661(15) 0.8521(3)
C57A C 0.6164(2) 0.46633(15) 0.8759(3)
H38A H 0.6400 0.4518 0.9192
C58A C 0.5638(2) 0.46695(16) 0.8366(4)
C59A C 0.5286(2) 0.48822(17) 0.7730(4)
C60A C 0.5477(3) 0.50909(19) 0.7517(5)
H39A H 0.5245 0.5243 0.7094
C61A C 0.6000(3) 0.50854(18) 0.7905(4)
H40A H 0.6123 0.5232 0.7746
S6A S 0.58004(6) 0.80721(6) 0.87524(10)
O16A O 0.56818(19) 0.82903(14) 0.8186(3)
O17A O 0.6171(2) 0.7776(2) 0.9001(4)
O18A O 0.5947(2) 0.8278(2) 0.9345(3)
N11A N 0.4301(2) 0.76959(14) 0.9683(3)
N12A N 0.4543(2) 0.76592(13) 0.8924(3)
C62A C 0.4183(3) 0.7707(2) 1.0071(4)
H41A H 0.4433 0.7627 1.0569
C63A C 0.3706(3) 0.7833(3) 0.9769(4)
H42A H 0.3632 0.7839 1.0058
C64A C 0.3334(3) 0.7950(3) 0.9040(5)
H43A H 0.3002 0.8034 0.8821
C65A C 0.3458(3) 0.7942(2) 0.8641(5)
H44A H 0.3217 0.8026 0.8145
C66A C 0.3941(3) 0.78110(18) 0.8980(4)
C67A C 0.4092(3) 0.77851(17) 0.8582(4)
H45A H 0.3861 0.7860 0.8082
C68A C 0.4678(2) 0.76349(15) 0.8522(3)
C69A C 0.5094(2) 0.78344(16) 0.8758(3)
H46A H 0.5292 0.7979 0.9192
C70A C 0.5230(2) 0.78283(16) 0.8370(3)
C71A C 0.4943(3) 0.76172(16) 0.7732(4)
C72A C 0.4538(3) 0.74091(19) 0.7518(4)
H47A H 0.4346 0.7256 0.7096
C73A C 0.4402(3) 0.74176(18) 0.7906(4)
H48A H 0.4119 0.7273 0.7745
Ni1A Ni 0.75368(3) 0.498142(19) 1.00372(4)
Ni2A Ni 0.49996(3) 0.751907(19) 1.00376(4)
S1A S 0.74461(8) 0.64245(5) 1.11431(12)
O1A O 0.7386(2) 0.65892(13) 1.1587(3)
O2A O 0.7270(3) 0.66704(15) 1.0546(4)
O3A O 0.7949(2) 0.62746(15) 1.1556(4)
N1A N 0.75377(19) 0.44591(13) 1.0392(3)
N2A N 0.71229(18) 0.50809(13) 1.0322(3)
C2A C 0.7745(3) 0.41482(18) 1.0420(4)
H1A H 0.7917 0.4151 1.0264
C3A C 0.7718(3) 0.3822(2) 1.0667(5)
H2A H 0.7866 0.3604 1.0676
C4A C 0.7473(4) 0.3816(2) 1.0902(6)
H3A H 0.7453 0.3595 1.1077
C5A C 0.7261(3) 0.4136(2) 1.0879(5)
H4A H 0.7090 0.4141 1.1036
C6A C 0.7300(2) 0.44491(17) 1.0623(4)
C7A C 0.7076(2) 0.47987(17) 1.0571(3)
H5A H 0.6900 0.4816 1.0718
C8A C 0.6895(2) 0.54163(17) 1.0272(3)
C9A C 0.7215(2) 0.57176(16) 1.0674(3)
H6A H 0.7577 0.5699 1.0963
C10A C 0.7014(2) 0.60468(16) 1.0658(3)
C11A C 0.6476(3) 0.60789(17) 1.0233(3)
C12A C 0.6170(3) 0.5778(2) 0.9821(4)
H7A H 0.5805 0.5795 0.9513
C13A C 0.6371(2) 0.54511(19) 0.9838(4)
H8A H 0.6146 0.5249 0.9549
S2A S 0.61970(8) 0.60762(5) 1.11489(12)
O4A O 0.6699(2) 0.59114(13) 1.1585(3)
O5A O 0.5775(2) 0.58312(16) 1.0554(4)
O6A O 0.6108(3) 0.62277(16) 1.1563(4)
N3A N 0.5355(2) 0.80396(14) 1.0394(3)
N4A N 0.56960(19) 0.74172(13) 1.0319(3)
C14A C 0.5173(3) 0.83497(17) 1.0415(4)
H9A H 0.4845 0.8347 1.0258
C15A C 0.5449(4) 0.8679(2) 1.0661(5)
H10A H 0.5307 0.8898 1.0664
C16A C 0.5928(4) 0.8685(2) 1.0901(6)
H11A H 0.6123 0.8907 1.1076
C17A C 0.6119(3) 0.8362(2) 1.0880(5)
H12A H 0.6448 0.8356 1.1040
C18A C 0.5823(3) 0.80503(17) 1.0624(4)
C19A C 0.5993(2) 0.77000(18) 1.0573(3)
H13A H 0.6318 0.7682 1.0724
C20A C 0.5874(2) 0.70811(17) 1.0270(3)
C21A C 0.5956(2) 0.67826(16) 1.0675(3)
H14A H 0.5882 0.6802 1.0962
C22A C 0.6145(2) 0.64547(16) 1.0664(3)
C23A C 0.6251(2) 0.64227(18) 1.0237(3)
C24A C 0.6149(3) 0.6722(2) 0.9820(4)
H15A H 0.6211 0.6703 0.9518
C25A C 0.5961(3) 0.70446(19) 0.9832(4)
H16A H 0.5889 0.7245 0.9534
S3A S 0.66482(8) 0.56236(5) 0.71509(10)
O7A O 0.6701(2) 0.59095(14) 0.6819(3)
O8A O 0.6108(3) 0.5498(2) 0.6663(3)
O9A O 0.7012(3) 0.53285(16) 0.7457(3)
N5A N 0.82345(19) 0.51577(14) 1.1080(3)
N6A N 0.75781(18) 0.55368(13) 0.9837(3)
C26A C 0.8559(3) 0.4966(2) 1.1701(4)
H17A H 0.8480 0.4716 1.1698
C27A C 0.9008(3) 0.5119(2) 1.2351(4)
H18A H 0.9230 0.4975 1.2788
C28A C 0.9133(3) 0.5479(3) 1.2370(5)
H19A H 0.9439 0.5589 1.2814
C29A C 0.8797(3) 0.5677(2) 1.1719(4)
H20A H 0.8872 0.5925 1.1706
C30A C 0.8359(2) 0.55112(18) 1.1098(4)
C31A C 0.7982(2) 0.57102(17) 1.0398(4)
H21A H 0.8037 0.5961 1.0362
C32A C 0.7220(2) 0.57391(17) 0.9169(3)
C33A C 0.7122(2) 0.56244(17) 0.8569(3)
H22A H 0.7289 0.5409 0.8608
C34A C 0.6786(2) 0.58165(17) 0.7911(3)
C35A C 0.6540(2) 0.61349(18) 0.7845(4)
C36A C 0.6633(3) 0.6242(2) 0.8445(4)
H23A H 0.6464 0.6455 0.8407
C37A C 0.6963(3) 0.60482(19) 0.9097(4)
H24A H 0.7015 0.6127 0.9498
S4A S 0.69969(8) 0.68771(5) 0.78488(10)
O10A O 0.73784(18) 0.65936(14) 0.8177(3)
O11A O 0.6946(3) 0.6998(2) 0.8341(3)
O12A O 0.7054(2) 0.71733(16) 0.7549(3)
N7A N 0.4657(2) 0.73437(14) 0.3920(3)
N8A N 0.52433(18) 0.69631(13) 0.5164(3)
C38A C 0.4358(3) 0.75340(19) 0.3299(4)
H25A H 0.4280 0.7783 0.3302
C39A C 0.4155(3) 0.7381(2) 0.2644(4)
H26A H 0.3942 0.7526 0.2208
C40A C 0.4261(4) 0.7022(3) 0.2626(4)
H27A H 0.4121 0.6913 0.2180
C41A C 0.4579(4) 0.6822(2) 0.3274(4)
H28A H 0.4667 0.6574 0.3285
C42A C 0.4766(3) 0.69898(18) 0.3905(4)
C43A C 0.5084(3) 0.67924(17) 0.4599(4)
H29A H 0.5172 0.6541 0.4633
C44A C 0.5554(2) 0.67596(16) 0.5836(3)
C45A C 0.6055(2) 0.68802(16) 0.6436(3)
H30A H 0.6181 0.7097 0.6398
C46A C 0.6376(2) 0.66842(17) 0.7094(3)
C47A C 0.6196(2) 0.63660(18) 0.7153(4)
C48A C 0.5686(3) 0.6256(2) 0.6556(4)
H31A H 0.5553 0.6046 0.6597
C49A C 0.5368(3) 0.6452(2) 0.5899(4)
H32A H 0.5021 0.6373 0.5493
Ni3 Ni 0.5000 0.5000 0.5000
O19 O 0.4357(3) 0.5077(2) 0.4823(5)
O20 O 0.4523(3) 0.5087(3) 0.3894(4)
O21 O 0.5164(4) 0.5557(2) 0.5157(5)
O19D O 0.5643(3) 0.4923(2) 0.5177(5)
O20D O 0.5477(3) 0.4913(3) 0.6106(4)
O21D O 0.4836(4) 0.4443(2) 0.4843(5)
Ni4 Ni 0.2500 0.7500 0.5000
O22 O 0.3129(3) 0.7591(3) 0.6108(4)
O23 O 0.2486(4) 0.6945(2) 0.5160(5)
O24 O 0.2027(4) 0.7578(2) 0.5166(5)
O22F O 0.1871(3) 0.7409(3) 0.3892(4)
O23F O 0.2514(4) 0.8055(2) 0.4840(5)
O24F O 0.2973(4) 0.7422(2) 0.4834(5)
O25 O 0.3391(7) 0.6139(4) 0.1282(9)
O26 O 0.0604(6) 0.5455(4) 0.3726(9)
O27 O 0.1684(6) 0.4369(4) 0.2474(10)
O28 O 0.3913(5) 0.8760(5) 0.9103(8)
O29 O 0.1735(5) 0.5938(4) 0.2163(7)
O30 O 0.2383(7) 0.6221(4) 0.2026(8)
O31 O 0.0335(2) 0.47767(16) 0.3249(3)
O32 O 0.1402(2) 0.37095(15) 0.4554(3)
O33 O 0.0986(2) 0.41246(17) 0.2417(3)
O34 O 0.5417(2) 0.77221(16) 0.3251(3)
O35 O 0.6272(2) 0.81135(15) 0.3772(3)
O36 O 0.5001(2) 0.93858(15) 0.3774(3)
O37 O 0.6067(2) 0.83738(16) 1.2583(3)
O38 O 0.0653(2) 0.37915(16) 0.4557(3)
O39 O 0.5002(3) 0.82476(17) 1.1496(4)
O40 O 0.1001(2) 0.42520(17) 0.3499(4)
O41 O 0.4138(14) 0.5722(9) 0.2929(19)
O42 O 0.2363(5) 0.8154(4) 0.1875(9)
O43 O 0.5615(7) 0.7057(4) 0.3714(8)
O44 O 0.2984(5) 0.9352(4) 0.3122(8)
O45 O 0.2769(6) 0.8629(4) 0.2559(9)
O46 O 0.4601(7) 0.8636(4) 0.8699(10)
O47 O 0.3618(14) 0.6827(9) 0.981(2)
O48 O 0.6701(7) 0.8145(4) 1.2516(10)
O49 O 0.1783(6) 0.7750(5) 0.7272(8)
O50 O 0.2191(15) 0.7658(11) 0.633(2)
O51 O 0.4171(14) 0.5978(10) 0.968(2)
O52 O 0.3687(12) 0.8218(8) 0.7061(17)
O53 O 0.1911(11) 0.4904(8) 0.7513(17)
O54 O 0.2967(3) 0.48065(15) 0.8330(3)
O55 O 0.2486(5) 0.3539(4) 0.5786(8)
O56 O 0.1639(6) 0.5669(8) 0.5564(14)
O57 O 0.0283(5) 0.6079(4) 0.3691(8)
O58 O 0.3288(12) 0.3219(8) 0.7238(17)
O59 O 0.1851(2) 0.6291(2) 0.5391(3)
O60 O 0.4096(6) 0.3575(4) 0.6307(8)
O61 O -0.0123(19) 0.5011(14) 0.047(3)
O62 O -0.060(3) 0.4768(18) -0.071(4)
O63 O 0.0036(19) 0.5553(14) 0.068(3)
O64 O -0.084(2) 0.5332(14) -0.060(3)
O65 O 0.716(2) 0.7750(13) 0.431(3)
O66 O 0.776(2) 0.7824(15) 0.445(3)
O67 O 0.7595(19) 0.7169(14) 1.478(3)
loop_
_geom_bond_atom_site_label_1
_geom_bond_atom_site_label_2
_geom_bond_site_symmetry_1
_geom_bond_site_symmetry_2
C1 Cl1 1_555 1_555
Cl2 C1 1_555 1_555
Ni1 N1 1_555 1_555
Ni2 N3 1_555 1_555
S1 O1 1_555 1_555
O2 S1 1_555 1_555
O3 S1 1_555 1_555
N1 C2 1_555 1_555
N2 Ni1 1_555 1_555
C2 H1 1_555 1_555
C3 C2 1_555 1_555
H2 C3 1_555 1_555
C4 C3 1_555 1_555
H3 C4 1_555 1_555
C5 C4 1_555 1_555
H4 C5 1_555 1_555
C6 N1 1_555 1_555
C7 N2 1_555 1_555
H5 C7 1_555 1_555
C8 N2 1_555 1_555
C9 C8 1_555 1_555
H6 C9 1_555 1_555
C10 S1 1_555 1_555
C11 C10 1_555 1_555
C12 C11 1_555 1_555
H7 C12 1_555 1_555
C13 C8 1_555 1_555
H8 C13 1_555 1_555
S2 O4 1_555 1_555
O5 S2 1_555 1_555
O6 S2 1_555 1_555
N3 C14 1_555 1_555
N4 Ni2 1_555 1_555
C14 H9 1_555 1_555
C15 C14 1_555 1_555
H10 C15 1_555 1_555
C16 C15 1_555 1_555
H11 C16 1_555 1_555
C17 C16 1_555 1_555
H12 C17 1_555 1_555
C18 N3 1_555 1_555
C19 N4 1_555 1_555
H13 C19 1_555 1_555
C20 N4 1_555 1_555
C21 C20 1_555 1_555
H14 C21 1_555 1_555
C22 S2 1_555 1_555
C23 C11 1_555 1_555
C24 C23 1_555 1_555
H15 C24 1_555 1_555
C25 C20 1_555 1_555
H16 C25 1_555 1_555
S3 O7 1_555 1_555
O8 S3 1_555 1_555
O9 S3 1_555 1_555
N5 Ni1 1_555 1_555
N6 Ni1 1_555 1_555
C26 N5 1_555 1_555
H17 C26 1_555 1_555
C27 C26 1_555 1_555
H18 C27 1_555 1_555
C28 C27 1_555 1_555
H19 C28 1_555 1_555
C29 C28 1_555 1_555
H20 C29 1_555 1_555
C30 N5 1_555 1_555
C31 N6 1_555 1_555
H21 C31 1_555 1_555
C32 N6 1_555 1_555
C33 C32 1_555 1_555
H22 C33 1_555 1_555
C34 S3 1_555 1_555
C35 C34 1_555 1_555
C36 C35 1_555 1_555
H23 C36 1_555 1_555
C37 C32 1_555 1_555
H24 C37 1_555 1_555
S4 O10 1_555 1_555
O11 S4 1_555 1_555
O12 S4 1_555 1_555
N7 C38 1_555 1_555
N8 C43 1_555 1_555
C38 H25 1_555 1_555
C39 C38 1_555 1_555
H26 C39 1_555 1_555
C40 C39 1_555 1_555
H27 C40 1_555 1_555
C41 C40 1_555 1_555
H28 C41 1_555 1_555
C42 N7 1_555 1_555
C43 C42 1_555 1_555
H29 C43 1_555 1_555
C44 N8 1_555 1_555
C45 C44 1_555 1_555
H30 C45 1_555 1_555
C46 S4 1_555 1_555
C47 C35 1_555 1_555
C48 C47 1_555 1_555
H31 C48 1_555 1_555
C49 C44 1_555 1_555
H32 C49 1_555 1_555
S5 O13 1_555 1_555
O14 S5 1_555 1_555
O15 S5 1_555 1_555
N9 Ni1 1_555 1_555
N10 Ni1 1_555 1_555
C50 N9 1_555 1_555
H33 C50 1_555 1_555
C51 C50 1_555 1_555
H34 C51 1_555 1_555
C52 C51 1_555 1_555
H35 C52 1_555 1_555
C53 C52 1_555 1_555
H36 C53 1_555 1_555
C54 N9 1_555 1_555
C55 N10 1_555 1_555
H37 C55 1_555 1_555
C56 N10 1_555 1_555
C57 C56 1_555 1_555
H38 C57 1_555 1_555
C58 S5 1_555 1_555
C59 C58 1_555 1_555
C60 C59 1_555 1_555
H39 C60 1_555 1_555
C61 C56 1_555 1_555
H40 C61 1_555 1_555
S6 O16 1_555 1_555
O17 S6 1_555 1_555
O18 S6 1_555 1_555
N11 Ni2 1_555 1_555
N12 Ni2 1_555 1_555
C62 N11 1_555 1_555
H41 C62 1_555 1_555
C63 C62 1_555 1_555
H42 C63 1_555 1_555
C64 C63 1_555 1_555
H43 C64 1_555 1_555
C65 C64 1_555 1_555
H44 C65 1_555 1_555
C66 N11 1_555 1_555
C67 N12 1_555 1_555
H45 C67 1_555 1_555
C68 N12 1_555 1_555
C69 C68 1_555 1_555
H46 C69 1_555 1_555
C70 S6 1_555 1_555
C71 C70 1_555 1_555
C72 C71 1_555 1_555
H47 C72 1_555 1_555
C73 C68 1_555 1_555
H48 C73 1_555 1_555
Ni3 O19 1_555 1_555
O20 Ni3 1_555 1_555
O21 Ni3 1_555 1_555
Ni4 O22 1_555 1_555
O23 Ni4 1_555 1_555
O24 Ni4 1_555 1_555
Cl1A C1 1_555 1_555
Cl2A C1 1_555 1_555
S5A O13A 1_555 1_555
O14A S5A 1_555 1_555
O15A S5A 1_555 1_555
N9A C50A 1_555 1_555
N10A C55A 1_555 1_555
C50A H33A 1_555 1_555
C51A C50A 1_555 1_555
H34A C51A 1_555 1_555
C52A C51A 1_555 1_555
H35A C52A 1_555 1_555
C53A C52A 1_555 1_555
H36A C53A 1_555 1_555
C54A N9A 1_555 1_555
C55A C54A 1_555 1_555
H37A C55A 1_555 1_555
C56A N10A 1_555 1_555
C57A C56A 1_555 1_555
H38A C57A 1_555 1_555
C58A S5A 1_555 1_555
C59A C59 1_555 1_555
C60A C59A 1_555 1_555
H39A C60A 1_555 1_555
C61A C56A 1_555 1_555
H40A C61A 1_555 1_555
S6A O16A 1_555 1_555
O17A S6A 1_555 1_555
O18A S6A 1_555 1_555
N11A C62A 1_555 1_555
N12A C67A 1_555 1_555
C62A H41A 1_555 1_555
C63A C62A 1_555 1_555
H42A C63A 1_555 1_555
C64A C63A 1_555 1_555
H43A C64A 1_555 1_555
C65A C64A 1_555 1_555
H44A C65A 1_555 1_555
C66A N11A 1_555 1_555
C67A C66A 1_555 1_555
H45A C67A 1_555 1_555
C68A N12A 1_555 1_555
C69A C68A 1_555 1_555
H46A C69A 1_555 1_555
C70A S6A 1_555 1_555
C71A C71 1_555 1_555
C72A C71A 1_555 1_555
H47A C72A 1_555 1_555
C73A C68A 1_555 1_555
H48A C73A 1_555 1_555
Ni1A N9A 1_555 1_555
Ni2A N7 1_555 1_555
S1A O1A 1_555 1_555
O2A S1A 1_555 1_555
O3A S1A 1_555 1_555
N1A Ni1A 1_555 1_555
N2A Ni1A 1_555 1_555
C2A N1A 1_555 1_555
H1A C2A 1_555 1_555
C3A C2A 1_555 1_555
H2A C3A 1_555 1_555
C4A C3A 1_555 1_555
H3A C4A 1_555 1_555
C5A C4A 1_555 1_555
H4A C5A 1_555 1_555
C6A N1A 1_555 1_555
C7A N2A 1_555 1_555
H5A C7A 1_555 1_555
C8A N2A 1_555 1_555
C9A C8A 1_555 1_555
H6A C9A 1_555 1_555
C10A S1A 1_555 1_555
C11A C10A 1_555 1_555
C12A C11A 1_555 1_555
H7A C12A 1_555 1_555
C13A C8A 1_555 1_555
H8A C13A 1_555 1_555
S2A O4A 1_555 1_555
O5A S2A 1_555 1_555
O6A S2A 1_555 1_555
N3A Ni2A 1_555 1_555
N4A Ni2A 1_555 1_555
C14A N3A 1_555 1_555
H9A C14A 1_555 1_555
C15A C14A 1_555 1_555
H10A C15A 1_555 1_555
C16A C15A 1_555 1_555
H11A C16A 1_555 1_555
C17A C16A 1_555 1_555
H12A C17A 1_555 1_555
C18A N3A 1_555 1_555
C19A N4A 1_555 1_555
H13A C19A 1_555 1_555
C20A N4A 1_555 1_555
C21A C20A 1_555 1_555
H14A C21A 1_555 1_555
C22A S2A 1_555 1_555
C23A C11A 1_555 1_555
C24A C23A 1_555 1_555
H15A C24A 1_555 1_555
C25A C20A 1_555 1_555
H16A C25A 1_555 1_555
S3A O7A 1_555 1_555
O8A S3A 1_555 1_555
O9A S3A 1_555 1_555
N5A Ni1A 1_555 1_555
N6A Ni1A 1_555 1_555
C26A N5A 1_555 1_555
H17A C26A 1_555 1_555
C27A C26A 1_555 1_555
H18A C27A 1_555 1_555
C28A C27A 1_555 1_555
H19A C28A 1_555 1_555
C29A C28A 1_555 1_555
H20A C29A 1_555 1_555
C30A N5A 1_555 1_555
C31A N6A 1_555 1_555
H21A C31A 1_555 1_555
C32A N6A 1_555 1_555
C33A C32A 1_555 1_555
H22A C33A 1_555 1_555
C34A S3A 1_555 1_555
C35A C34A 1_555 1_555
C36A C35A 1_555 1_555
H23A C36A 1_555 1_555
C37A C32A 1_555 1_555
H24A C37A 1_555 1_555
S4A O10A 1_555 1_555
O11A S4A 1_555 1_555
O12A S4A 1_555 1_555
N7A Ni2 1_555 1_555
N8A Ni2 1_555 1_555
C38A N7A 1_555 1_555
H25A C38A 1_555 1_555
C39A C38A 1_555 1_555
H26A C39A 1_555 1_555
C40A C39A 1_555 1_555
H27A C40A 1_555 1_555
C41A C40A 1_555 1_555
H28A C41A 1_555 1_555
C42A N7A 1_555 1_555
C43A N8A 1_555 1_555
H29A C43A 1_555 1_555
C44A N8A 1_555 1_555
C45A C44A 1_555 1_555
H30A C45A 1_555 1_555
C46A S4A 1_555 1_555
C47A C35A 1_555 1_555
C48A C47A 1_555 1_555
H31A C48A 1_555 1_555
C49A C44A 1_555 1_555
H32A C49A 1_555 1_555
O19D Ni3 1_555 1_555
O20D Ni3 1_555 1_555
O21D Ni3 1_555 1_555
O22F Ni4 1_555 1_555
O23F Ni4 1_555 1_555
O24F Ni4 1_555 1_555
C5 C6 1_555 1_555
C6 C7 1_555 1_555
C9 C10 1_555 1_555
C12 C13 1_555 1_555
C17 C18 1_555 1_555
C18 C19 1_555 1_555
C21 C22 1_555 1_555
C22 C23 1_555 1_555
C24 C25 1_555 1_555
C29 C30 1_555 1_555
C30 C31 1_555 1_555
C33 C34 1_555 1_555
C36 C37 1_555 1_555
N8 Ni2A 1_555 1_555
C41 C42 1_555 1_555
C45 C46 1_555 1_555
C46 C47 1_555 1_555
C48 C49 1_555 1_555
C53 C54 1_555 1_555
C54 C55 1_555 1_555
C57 C58 1_555 1_555
C60 C61 1_555 1_555
C65 C66 1_555 1_555
C66 C67 1_555 1_555
C69 C70 1_555 1_555
C72 C73 1_555 1_555
N10A Ni1A 1_555 1_555
C53A C54A 1_555 1_555
C57A C58A 1_555 1_555
C58A C59A 1_555 1_555
C60A C61A 1_555 1_555
N11A Ni2A 1_555 1_555
N12A Ni2A 1_555 1_555
C65A C66A 1_555 1_555
C69A C70A 1_555 1_555
C70A C71A 1_555 1_555
C72A C73A 1_555 1_555
C5A C6A 1_555 1_555
C6A C7A 1_555 1_555
C9A C10A 1_555 1_555
C12A C13A 1_555 1_555
C17A C18A 1_555 1_555
C18A C19A 1_555 1_555
C21A C22A 1_555 1_555
C22A C23A 1_555 1_555
C24A C25A 1_555 1_555
C29A C30A 1_555 1_555
C30A C31A 1_555 1_555
C33A C34A 1_555 1_555
C36A C37A 1_555 1_555
C41A C42A 1_555 1_555
C42A C43A 1_555 1_555
C45A C46A 1_555 1_555
C46A C47A 1_555 1_555
C48A C49A 1_555 1_555

#END
