# generated using pymatgen
data_Ni3H48C80S6(N3O31)4
_symmetry_space_group_name_H-M   'P 1'
_cell_length_a   25.67780494
_cell_length_b   25.67780494
_cell_length_c   25.67780494
_cell_angle_alpha   60.00000000
_cell_angle_beta   60.00000000
_cell_angle_gamma   60.00000000
_symmetry_Int_Tables_number   1
_chemical_formula_structural   Ni3H48C80S6(N3O31)4
_chemical_formula_sum   'Ni12 H192 C320 S24 N48 O496'
_cell_volume   11971.77892906
_cell_formula_units_Z   4
loop_
 _symmetry_equiv_pos_site_id
 _symmetry_equiv_pos_as_xyz
  1  'x, y, z'
loop_
 _atom_site_type_symbol
 _atom_site_label
 _atom_site_symmetry_multiplicity
 _atom_site_fract_x
 _atom_site_fract_y
 _atom_site_fract_z
 _atom_site_occupancy
  C  C1  1  0.599400  0.599400  0.599400  1.0
  C  C2  1  0.701800  0.599400  0.599400  1.0
  C  C3  1  0.599400  0.599400  0.701800  1.0
  C  C4  1  0.599400  0.701800  0.599400  1.0
  C  C5  1  0.400600  0.400600  0.400600  1.0
  C  C6  1  0.298200  0.400600  0.400600  1.0
  C  C7  1  0.400600  0.400600  0.298200  1.0
  C  C8  1  0.400600  0.298200  0.400600  1.0
  C  C9  1  0.818120  0.688680  0.140480  1.0
  C  C10  1  0.852720  0.140480  0.688680  1.0
  C  C11  1  0.688680  0.818120  0.852720  1.0
  C  C12  1  0.140480  0.852720  0.818120  1.0
  C  C13  1  0.140480  0.818120  0.688680  1.0
  C  C14  1  0.852720  0.688680  0.818120  1.0
  C  C15  1  0.818120  0.140480  0.852720  1.0
  C  C16  1  0.688680  0.852720  0.140480  1.0
  C  C17  1  0.688680  0.140480  0.818120  1.0
  C  C18  1  0.818120  0.852720  0.688680  1.0
  C  C19  1  0.852720  0.818120  0.140480  1.0
  C  C20  1  0.140480  0.688680  0.852720  1.0
  C  C21  1  0.181880  0.311320  0.859520  1.0
  C  C22  1  0.147280  0.859520  0.311320  1.0
  C  C23  1  0.311320  0.181880  0.147280  1.0
  C  C24  1  0.859520  0.147280  0.181880  1.0
  C  C25  1  0.859520  0.181880  0.311320  1.0
  C  C26  1  0.147280  0.311320  0.181880  1.0
  C  C27  1  0.181880  0.859520  0.147280  1.0
  C  C28  1  0.311320  0.147280  0.859520  1.0
  C  C29  1  0.311320  0.859520  0.181880  1.0
  C  C30  1  0.181880  0.147280  0.311320  1.0
  C  C31  1  0.147280  0.181880  0.859520  1.0
  C  C32  1  0.859520  0.311320  0.147280  1.0
  C  C33  1  0.823200  0.652600  0.110800  1.0
  C  C34  1  0.913400  0.110800  0.652600  1.0
  C  C35  1  0.652600  0.823200  0.913400  1.0
  C  C36  1  0.110800  0.913400  0.823200  1.0
  C  C37  1  0.110800  0.823200  0.652600  1.0
  C  C38  1  0.913400  0.652600  0.823200  1.0
  C  C39  1  0.823200  0.110800  0.913400  1.0
  C  C40  1  0.652600  0.913400  0.110800  1.0
  C  C41  1  0.652600  0.110800  0.823200  1.0
  C  C42  1  0.823200  0.913400  0.652600  1.0
  C  C43  1  0.913400  0.823200  0.110800  1.0
  C  C44  1  0.110800  0.652600  0.913400  1.0
  C  C45  1  0.176800  0.347400  0.889200  1.0
  C  C46  1  0.086600  0.889200  0.347400  1.0
  C  C47  1  0.347400  0.176800  0.086600  1.0
  C  C48  1  0.889200  0.086600  0.176800  1.0
  C  C49  1  0.889200  0.176800  0.347400  1.0
  C  C50  1  0.086600  0.347400  0.176800  1.0
  C  C51  1  0.176800  0.889200  0.086600  1.0
  C  C52  1  0.347400  0.086600  0.889200  1.0
  C  C53  1  0.347400  0.889200  0.176800  1.0
  C  C54  1  0.176800  0.086600  0.347400  1.0
  C  C55  1  0.086600  0.176800  0.889200  1.0
  C  C56  1  0.889200  0.347400  0.086600  1.0
  C  C57  1  0.777200  0.627000  0.134600  1.0
  C  C58  1  0.961200  0.134600  0.627000  1.0
  C  C59  1  0.627000  0.777200  0.961200  1.0
  C  C60  1  0.134600  0.961200  0.777200  1.0
  C  C61  1  0.134600  0.777200  0.627000  1.0
  C  C62  1  0.961200  0.627000  0.777200  1.0
  C  C63  1  0.777200  0.134600  0.961200  1.0
  C  C64  1  0.627000  0.961200  0.134600  1.0
  C  C65  1  0.627000  0.134600  0.777200  1.0
  C  C66  1  0.777200  0.961200  0.627000  1.0
  C  C67  1  0.961200  0.777200  0.134600  1.0
  C  C68  1  0.134600  0.627000  0.961200  1.0
  C  C69  1  0.222800  0.373000  0.865400  1.0
  C  C70  1  0.038800  0.865400  0.373000  1.0
  C  C71  1  0.373000  0.222800  0.038800  1.0
  C  C72  1  0.865400  0.038800  0.222800  1.0
  C  C73  1  0.865400  0.222800  0.373000  1.0
  C  C74  1  0.038800  0.373000  0.222800  1.0
  C  C75  1  0.222800  0.865400  0.038800  1.0
  C  C76  1  0.373000  0.038800  0.865400  1.0
  C  C77  1  0.373000  0.865400  0.222800  1.0
  C  C78  1  0.222800  0.038800  0.373000  1.0
  C  C79  1  0.038800  0.222800  0.865400  1.0
  C  C80  1  0.865400  0.373000  0.038800  1.0
  C  C81  1  0.725500  0.638900  0.187700  1.0
  C  C82  1  0.947900  0.187700  0.638900  1.0
  C  C83  1  0.638900  0.725500  0.947900  1.0
  C  C84  1  0.187700  0.947900  0.725500  1.0
  C  C85  1  0.187700  0.725500  0.638900  1.0
  C  C86  1  0.947900  0.638900  0.725500  1.0
  C  C87  1  0.725500  0.187700  0.947900  1.0
  C  C88  1  0.638900  0.947900  0.187700  1.0
  C  C89  1  0.638900  0.187700  0.725500  1.0
  C  C90  1  0.725500  0.947900  0.638900  1.0
  C  C91  1  0.947900  0.725500  0.187700  1.0
  C  C92  1  0.187700  0.638900  0.947900  1.0
  C  C93  1  0.274500  0.361100  0.812300  1.0
  C  C94  1  0.052100  0.812300  0.361100  1.0
  C  C95  1  0.361100  0.274500  0.052100  1.0
  C  C96  1  0.812300  0.052100  0.274500  1.0
  C  C97  1  0.812300  0.274500  0.361100  1.0
  C  C98  1  0.052100  0.361100  0.274500  1.0
  C  C99  1  0.274500  0.812300  0.052100  1.0
  C  C100  1  0.361100  0.052100  0.812300  1.0
  C  C101  1  0.361100  0.812300  0.274500  1.0
  C  C102  1  0.274500  0.052100  0.361100  1.0
  C  C103  1  0.052100  0.274500  0.812300  1.0
  C  C104  1  0.812300  0.361100  0.052100  1.0
  C  C105  1  0.723200  0.674740  0.214800  1.0
  C  C106  1  0.887260  0.214800  0.674740  1.0
  C  C107  1  0.674740  0.723200  0.887260  1.0
  C  C108  1  0.214800  0.887260  0.723200  1.0
  C  C109  1  0.214800  0.723200  0.674740  1.0
  C  C110  1  0.887260  0.674740  0.723200  1.0
  C  C111  1  0.723200  0.214800  0.887260  1.0
  C  C112  1  0.674740  0.887260  0.214800  1.0
  C  C113  1  0.674740  0.214800  0.723200  1.0
  C  C114  1  0.723200  0.887260  0.674740  1.0
  C  C115  1  0.887260  0.723200  0.214800  1.0
  C  C116  1  0.214800  0.674740  0.887260  1.0
  C  C117  1  0.276800  0.325260  0.785200  1.0
  C  C118  1  0.112740  0.785200  0.325260  1.0
  C  C119  1  0.325260  0.276800  0.112740  1.0
  C  C120  1  0.785200  0.112740  0.276800  1.0
  C  C121  1  0.785200  0.276800  0.325260  1.0
  C  C122  1  0.112740  0.325260  0.276800  1.0
  C  C123  1  0.276800  0.785200  0.112740  1.0
  C  C124  1  0.325260  0.112740  0.785200  1.0
  C  C125  1  0.325260  0.785200  0.276800  1.0
  C  C126  1  0.276800  0.112740  0.325260  1.0
  C  C127  1  0.112740  0.276800  0.785200  1.0
  C  C128  1  0.785200  0.325260  0.112740  1.0
  C  C129  1  0.670980  0.688100  0.271700  1.0
  C  C130  1  0.869220  0.271700  0.688100  1.0
  C  C131  1  0.688100  0.670980  0.869220  1.0
  C  C132  1  0.271700  0.869220  0.670980  1.0
  C  C133  1  0.271700  0.670980  0.688100  1.0
  C  C134  1  0.869220  0.688100  0.670980  1.0
  C  C135  1  0.670980  0.271700  0.869220  1.0
  C  C136  1  0.688100  0.869220  0.271700  1.0
  C  C137  1  0.688100  0.271700  0.670980  1.0
  C  C138  1  0.670980  0.869220  0.688100  1.0
  C  C139  1  0.869220  0.670980  0.271700  1.0
  C  C140  1  0.271700  0.688100  0.869220  1.0
  C  C141  1  0.329020  0.311900  0.728300  1.0
  C  C142  1  0.130780  0.728300  0.311900  1.0
  C  C143  1  0.311900  0.329020  0.130780  1.0
  C  C144  1  0.728300  0.130780  0.329020  1.0
  C  C145  1  0.728300  0.329020  0.311900  1.0
  C  C146  1  0.130780  0.311900  0.329020  1.0
  C  C147  1  0.329020  0.728300  0.130780  1.0
  C  C148  1  0.311900  0.130780  0.728300  1.0
  C  C149  1  0.311900  0.728300  0.329020  1.0
  C  C150  1  0.329020  0.130780  0.311900  1.0
  C  C151  1  0.130780  0.329020  0.728300  1.0
  C  C152  1  0.728300  0.311900  0.130780  1.0
  C  C153  1  0.619940  0.731620  0.351900  1.0
  C  C154  1  0.796540  0.351900  0.731620  1.0
  C  C155  1  0.731620  0.619940  0.796540  1.0
  C  C156  1  0.351900  0.796540  0.619940  1.0
  C  C157  1  0.351900  0.619940  0.731620  1.0
  C  C158  1  0.796540  0.731620  0.619940  1.0
  C  C159  1  0.619940  0.351900  0.796540  1.0
  C  C160  1  0.731620  0.796540  0.351900  1.0
  C  C161  1  0.731620  0.351900  0.619940  1.0
  C  C162  1  0.619940  0.796540  0.731620  1.0
  C  C163  1  0.796540  0.619940  0.351900  1.0
  C  C164  1  0.351900  0.731620  0.796540  1.0
  C  C165  1  0.380060  0.268380  0.648100  1.0
  C  C166  1  0.203460  0.648100  0.268380  1.0
  C  C167  1  0.268380  0.380060  0.203460  1.0
  C  C168  1  0.648100  0.203460  0.380060  1.0
  C  C169  1  0.648100  0.380060  0.268380  1.0
  C  C170  1  0.203460  0.268380  0.380060  1.0
  C  C171  1  0.380060  0.648100  0.203460  1.0
  C  C172  1  0.268380  0.203460  0.648100  1.0
  C  C173  1  0.268380  0.648100  0.380060  1.0
  C  C174  1  0.380060  0.203460  0.268380  1.0
  C  C175  1  0.203460  0.380060  0.648100  1.0
  C  C176  1  0.648100  0.268380  0.203460  1.0
  C  C177  1  0.582310  0.793690  0.349230  1.0
  C  C178  1  0.774770  0.349230  0.793690  1.0
  C  C179  1  0.793690  0.582310  0.774770  1.0
  C  C180  1  0.349230  0.774770  0.582310  1.0
  C  C181  1  0.349230  0.582310  0.793690  1.0
  C  C182  1  0.774770  0.793690  0.582310  1.0
  C  C183  1  0.582310  0.349230  0.774770  1.0
  C  C184  1  0.793690  0.774770  0.349230  1.0
  C  C185  1  0.793690  0.349230  0.582310  1.0
  C  C186  1  0.582310  0.774770  0.793690  1.0
  C  C187  1  0.774770  0.582310  0.349230  1.0
  C  C188  1  0.349230  0.793690  0.774770  1.0
  C  C189  1  0.417690  0.206310  0.650770  1.0
  C  C190  1  0.225230  0.650770  0.206310  1.0
  C  C191  1  0.206310  0.417690  0.225230  1.0
  C  C192  1  0.650770  0.225230  0.417690  1.0
  C  C193  1  0.650770  0.417690  0.206310  1.0
  C  C194  1  0.225230  0.206310  0.417690  1.0
  C  C195  1  0.417690  0.650770  0.225230  1.0
  C  C196  1  0.206310  0.225230  0.650770  1.0
  C  C197  1  0.206310  0.650770  0.417690  1.0
  C  C198  1  0.417690  0.225230  0.206310  1.0
  C  C199  1  0.225230  0.417690  0.650770  1.0
  C  C200  1  0.650770  0.206310  0.225230  1.0
  C  C201  1  0.530270  0.806870  0.402150  1.0
  C  C202  1  0.760710  0.402150  0.806870  1.0
  C  C203  1  0.806870  0.530270  0.760710  1.0
  C  C204  1  0.402150  0.760710  0.530270  1.0
  C  C205  1  0.402150  0.530270  0.806870  1.0
  C  C206  1  0.760710  0.806870  0.530270  1.0
  C  C207  1  0.530270  0.402150  0.760710  1.0
  C  C208  1  0.806870  0.760710  0.402150  1.0
  C  C209  1  0.806870  0.402150  0.530270  1.0
  C  C210  1  0.530270  0.760710  0.806870  1.0
  C  C211  1  0.760710  0.530270  0.402150  1.0
  C  C212  1  0.402150  0.806870  0.760710  1.0
  C  C213  1  0.469730  0.193130  0.597850  1.0
  C  C214  1  0.239290  0.597850  0.193130  1.0
  C  C215  1  0.193130  0.469730  0.239290  1.0
  C  C216  1  0.597850  0.239290  0.469730  1.0
  C  C217  1  0.597850  0.469730  0.193130  1.0
  C  C218  1  0.239290  0.193130  0.469730  1.0
  C  C219  1  0.469730  0.597850  0.239290  1.0
  C  C220  1  0.193130  0.239290  0.597850  1.0
  C  C221  1  0.193130  0.597850  0.469730  1.0
  C  C222  1  0.469730  0.239290  0.193130  1.0
  C  C223  1  0.239290  0.469730  0.597850  1.0
  C  C224  1  0.597850  0.193130  0.239290  1.0
  C  C225  1  0.515110  0.757570  0.457810  1.0
  C  C226  1  0.769510  0.457810  0.757570  1.0
  C  C227  1  0.757570  0.515110  0.769510  1.0
  C  C228  1  0.457810  0.769510  0.515110  1.0
  C  C229  1  0.457810  0.515110  0.757570  1.0
  C  C230  1  0.769510  0.757570  0.515110  1.0
  C  C231  1  0.515110  0.457810  0.769510  1.0
  C  C232  1  0.757570  0.769510  0.457810  1.0
  C  C233  1  0.757570  0.457810  0.515110  1.0
  C  C234  1  0.515110  0.769510  0.757570  1.0
  C  C235  1  0.769510  0.515110  0.457810  1.0
  C  C236  1  0.457810  0.757570  0.769510  1.0
  C  C237  1  0.484890  0.242430  0.542190  1.0
  C  C238  1  0.230490  0.542190  0.242430  1.0
  C  C239  1  0.242430  0.484890  0.230490  1.0
  C  C240  1  0.542190  0.230490  0.484890  1.0
  C  C241  1  0.542190  0.484890  0.242430  1.0
  C  C242  1  0.230490  0.242430  0.484890  1.0
  C  C243  1  0.484890  0.542190  0.230490  1.0
  C  C244  1  0.242430  0.230490  0.542190  1.0
  C  C245  1  0.242430  0.542190  0.484890  1.0
  C  C246  1  0.484890  0.230490  0.242430  1.0
  C  C247  1  0.230490  0.484890  0.542190  1.0
  C  C248  1  0.542190  0.242430  0.230490  1.0
  C  C249  1  0.555100  0.695900  0.459900  1.0
  C  C250  1  0.789100  0.459900  0.695900  1.0
  C  C251  1  0.695900  0.555100  0.789100  1.0
  C  C252  1  0.459900  0.789100  0.555100  1.0
  C  C253  1  0.459900  0.555100  0.695900  1.0
  C  C254  1  0.789100  0.695900  0.555100  1.0
  C  C255  1  0.555100  0.459900  0.789100  1.0
  C  C256  1  0.695900  0.789100  0.459900  1.0
  C  C257  1  0.695900  0.459900  0.555100  1.0
  C  C258  1  0.555100  0.789100  0.695900  1.0
  C  C259  1  0.789100  0.555100  0.459900  1.0
  C  C260  1  0.459900  0.695900  0.789100  1.0
  C  C261  1  0.444900  0.304100  0.540100  1.0
  C  C262  1  0.210900  0.540100  0.304100  1.0
  C  C263  1  0.304100  0.444900  0.210900  1.0
  C  C264  1  0.540100  0.210900  0.444900  1.0
  C  C265  1  0.540100  0.444900  0.304100  1.0
  C  C266  1  0.210900  0.304100  0.444900  1.0
  C  C267  1  0.444900  0.540100  0.210900  1.0
  C  C268  1  0.304100  0.210900  0.540100  1.0
  C  C269  1  0.304100  0.540100  0.444900  1.0
  C  C270  1  0.444900  0.210900  0.304100  1.0
  C  C271  1  0.210900  0.444900  0.540100  1.0
  C  C272  1  0.540100  0.304100  0.210900  1.0
  C  C273  1  0.607670  0.682330  0.406910  1.0
  C  C274  1  0.803090  0.406910  0.682330  1.0
  C  C275  1  0.682330  0.607670  0.803090  1.0
  C  C276  1  0.406910  0.803090  0.607670  1.0
  C  C277  1  0.406910  0.607670  0.682330  1.0
  C  C278  1  0.803090  0.682330  0.607670  1.0
  C  C279  1  0.607670  0.406910  0.803090  1.0
  C  C280  1  0.682330  0.803090  0.406910  1.0
  C  C281  1  0.682330  0.406910  0.607670  1.0
  C  C282  1  0.607670  0.803090  0.682330  1.0
  C  C283  1  0.803090  0.607670  0.406910  1.0
  C  C284  1  0.406910  0.682330  0.803090  1.0
  C  C285  1  0.392330  0.317670  0.593090  1.0
  C  C286  1  0.196910  0.593090  0.317670  1.0
  C  C287  1  0.317670  0.392330  0.196910  1.0
  C  C288  1  0.593090  0.196910  0.392330  1.0
  C  C289  1  0.593090  0.392330  0.317670  1.0
  C  C290  1  0.196910  0.317670  0.392330  1.0
  C  C291  1  0.392330  0.593090  0.196910  1.0
  C  C292  1  0.317670  0.196910  0.593090  1.0
  C  C293  1  0.317670  0.593090  0.392330  1.0
  C  C294  1  0.392330  0.196910  0.317670  1.0
  C  C295  1  0.196910  0.392330  0.593090  1.0
  C  C296  1  0.593090  0.317670  0.196910  1.0
  C  C297  1  0.554200  0.645000  0.623000  1.0
  C  C298  1  0.677800  0.623000  0.645000  1.0
  C  C299  1  0.645000  0.554200  0.677800  1.0
  C  C300  1  0.623000  0.677800  0.554200  1.0
  C  C301  1  0.623000  0.554200  0.645000  1.0
  C  C302  1  0.677800  0.645000  0.554200  1.0
  C  C303  1  0.554200  0.623000  0.677800  1.0
  C  C304  1  0.645000  0.677800  0.623000  1.0
  C  C305  1  0.645000  0.623000  0.554200  1.0
  C  C306  1  0.554200  0.677800  0.645000  1.0
  C  C307  1  0.677800  0.554200  0.623000  1.0
  C  C308  1  0.623000  0.645000  0.677800  1.0
  C  C309  1  0.445800  0.355000  0.377000  1.0
  C  C310  1  0.322200  0.377000  0.355000  1.0
  C  C311  1  0.355000  0.445800  0.322200  1.0
  C  C312  1  0.377000  0.322200  0.445800  1.0
  C  C313  1  0.377000  0.445800  0.355000  1.0
  C  C314  1  0.322200  0.355000  0.445800  1.0
  C  C315  1  0.445800  0.377000  0.322200  1.0
  C  C316  1  0.355000  0.322200  0.377000  1.0
  C  C317  1  0.355000  0.377000  0.445800  1.0
  C  C318  1  0.445800  0.322200  0.355000  1.0
  C  C319  1  0.322200  0.445800  0.377000  1.0
  C  C320  1  0.377000  0.355000  0.322200  1.0
  H  H321  1  0.851100  0.705500  0.123700  1.0
  H  H322  1  0.819700  0.123700  0.705500  1.0
  H  H323  1  0.705500  0.851100  0.819700  1.0
  H  H324  1  0.123700  0.819700  0.851100  1.0
  H  H325  1  0.123700  0.851100  0.705500  1.0
  H  H326  1  0.819700  0.705500  0.851100  1.0
  H  H327  1  0.851100  0.123700  0.819700  1.0
  H  H328  1  0.705500  0.819700  0.123700  1.0
  H  H329  1  0.705500  0.123700  0.851100  1.0
  H  H330  1  0.851100  0.819700  0.705500  1.0
  H  H331  1  0.819700  0.851100  0.123700  1.0
  H  H332  1  0.123700  0.705500  0.819700  1.0
  H  H333  1  0.148900  0.294500  0.876300  1.0
  H  H334  1  0.180300  0.876300  0.294500  1.0
  H  H335  1  0.294500  0.148900  0.180300  1.0
  H  H336  1  0.876300  0.180300  0.148900  1.0
  H  H337  1  0.876300  0.148900  0.294500  1.0
  H  H338  1  0.180300  0.294500  0.148900  1.0
  H  H339  1  0.148900  0.876300  0.180300  1.0
  H  H340  1  0.294500  0.180300  0.876300  1.0
  H  H341  1  0.294500  0.876300  0.148900  1.0
  H  H342  1  0.148900  0.180300  0.294500  1.0
  H  H343  1  0.180300  0.148900  0.876300  1.0
  H  H344  1  0.876300  0.294500  0.180300  1.0
  H  H345  1  0.858800  0.646000  0.073800  1.0
  H  H346  1  0.921400  0.073800  0.646000  1.0
  H  H347  1  0.646000  0.858800  0.921400  1.0
  H  H348  1  0.073800  0.921400  0.858800  1.0
  H  H349  1  0.073800  0.858800  0.646000  1.0
  H  H350  1  0.921400  0.646000  0.858800  1.0
  H  H351  1  0.858800  0.073800  0.921400  1.0
  H  H352  1  0.646000  0.921400  0.073800  1.0
  H  H353  1  0.646000  0.073800  0.858800  1.0
  H  H354  1  0.858800  0.921400  0.646000  1.0
  H  H355  1  0.921400  0.858800  0.073800  1.0
  H  H356  1  0.073800  0.646000  0.921400  1.0
  H  H357  1  0.141200  0.354000  0.926200  1.0
  H  H358  1  0.078600  0.926200  0.354000  1.0
  H  H359  1  0.354000  0.141200  0.078600  1.0
  H  H360  1  0.926200  0.078600  0.141200  1.0
  H  H361  1  0.926200  0.141200  0.354000  1.0
  H  H362  1  0.078600  0.354000  0.141200  1.0
  H  H363  1  0.141200  0.926200  0.078600  1.0
  H  H364  1  0.354000  0.078600  0.926200  1.0
  H  H365  1  0.354000  0.926200  0.141200  1.0
  H  H366  1  0.141200  0.078600  0.354000  1.0
  H  H367  1  0.078600  0.141200  0.926200  1.0
  H  H368  1  0.926200  0.354000  0.078600  1.0
  H  H369  1  0.780700  0.601500  0.115300  1.0
  H  H370  1  0.002500  0.115300  0.601500  1.0
  H  H371  1  0.601500  0.780700  0.002500  1.0
  H  H372  1  0.115300  0.002500  0.780700  1.0
  H  H373  1  0.115300  0.780700  0.601500  1.0
  H  H374  1  0.002500  0.601500  0.780700  1.0
  H  H375  1  0.780700  0.115300  0.002500  1.0
  H  H376  1  0.601500  0.002500  0.115300  1.0
  H  H377  1  0.601500  0.115300  0.780700  1.0
  H  H378  1  0.780700  0.002500  0.601500  1.0
  H  H379  1  0.002500  0.780700  0.115300  1.0
  H  H380  1  0.115300  0.601500  0.002500  1.0
  H  H381  1  0.219300  0.398500  0.884700  1.0
  H  H382  1  0.997500  0.884700  0.398500  1.0
  H  H383  1  0.398500  0.219300  0.997500  1.0
  H  H384  1  0.884700  0.997500  0.219300  1.0
  H  H385  1  0.884700  0.219300  0.398500  1.0
  H  H386  1  0.997500  0.398500  0.219300  1.0
  H  H387  1  0.219300  0.884700  0.997500  1.0
  H  H388  1  0.398500  0.997500  0.884700  1.0
  H  H389  1  0.398500  0.884700  0.219300  1.0
  H  H390  1  0.219300  0.997500  0.398500  1.0
  H  H391  1  0.997500  0.219300  0.884700  1.0
  H  H392  1  0.884700  0.398500  0.997500  1.0
  H  H393  1  0.692000  0.622600  0.205000  1.0
  H  H394  1  0.980400  0.205000  0.622600  1.0
  H  H395  1  0.622600  0.692000  0.980400  1.0
  H  H396  1  0.205000  0.980400  0.692000  1.0
  H  H397  1  0.205000  0.692000  0.622600  1.0
  H  H398  1  0.980400  0.622600  0.692000  1.0
  H  H399  1  0.692000  0.205000  0.980400  1.0
  H  H400  1  0.622600  0.980400  0.205000  1.0
  H  H401  1  0.622600  0.205000  0.692000  1.0
  H  H402  1  0.692000  0.980400  0.622600  1.0
  H  H403  1  0.980400  0.692000  0.205000  1.0
  H  H404  1  0.205000  0.622600  0.980400  1.0
  H  H405  1  0.308000  0.377400  0.795000  1.0
  H  H406  1  0.019600  0.795000  0.377400  1.0
  H  H407  1  0.377400  0.308000  0.019600  1.0
  H  H408  1  0.795000  0.019600  0.308000  1.0
  H  H409  1  0.795000  0.308000  0.377400  1.0
  H  H410  1  0.019600  0.377400  0.308000  1.0
  H  H411  1  0.308000  0.795000  0.019600  1.0
  H  H412  1  0.377400  0.019600  0.795000  1.0
  H  H413  1  0.377400  0.795000  0.308000  1.0
  H  H414  1  0.308000  0.019600  0.377400  1.0
  H  H415  1  0.019600  0.308000  0.795000  1.0
  H  H416  1  0.795000  0.377400  0.019600  1.0
  H  H417  1  0.636400  0.672800  0.290800  1.0
  H  H418  1  0.900000  0.290800  0.672800  1.0
  H  H419  1  0.672800  0.636400  0.900000  1.0
  H  H420  1  0.290800  0.900000  0.636400  1.0
  H  H421  1  0.290800  0.636400  0.672800  1.0
  H  H422  1  0.900000  0.672800  0.636400  1.0
  H  H423  1  0.636400  0.290800  0.900000  1.0
  H  H424  1  0.672800  0.900000  0.290800  1.0
  H  H425  1  0.672800  0.290800  0.636400  1.0
  H  H426  1  0.636400  0.900000  0.672800  1.0
  H  H427  1  0.900000  0.636400  0.290800  1.0
  H  H428  1  0.290800  0.672800  0.900000  1.0
  H  H429  1  0.363600  0.327200  0.709200  1.0
  H  H430  1  0.100000  0.709200  0.327200  1.0
  H  H431  1  0.327200  0.363600  0.100000  1.0
  H  H432  1  0.709200  0.100000  0.363600  1.0
  H  H433  1  0.709200  0.363600  0.327200  1.0
  H  H434  1  0.100000  0.327200  0.363600  1.0
  H  H435  1  0.363600  0.709200  0.100000  1.0
  H  H436  1  0.327200  0.100000  0.709200  1.0
  H  H437  1  0.327200  0.709200  0.363600  1.0
  H  H438  1  0.363600  0.100000  0.327200  1.0
  H  H439  1  0.100000  0.363600  0.709200  1.0
  H  H440  1  0.709200  0.327200  0.100000  1.0
  H  H441  1  0.591900  0.827700  0.311100  1.0
  H  H442  1  0.769300  0.311100  0.827700  1.0
  H  H443  1  0.827700  0.591900  0.769300  1.0
  H  H444  1  0.311100  0.769300  0.591900  1.0
  H  H445  1  0.311100  0.591900  0.827700  1.0
  H  H446  1  0.769300  0.827700  0.591900  1.0
  H  H447  1  0.591900  0.311100  0.769300  1.0
  H  H448  1  0.827700  0.769300  0.311100  1.0
  H  H449  1  0.827700  0.311100  0.591900  1.0
  H  H450  1  0.591900  0.769300  0.827700  1.0
  H  H451  1  0.769300  0.591900  0.311100  1.0
  H  H452  1  0.311100  0.827700  0.769300  1.0
  H  H453  1  0.408100  0.172300  0.688900  1.0
  H  H454  1  0.230700  0.688900  0.172300  1.0
  H  H455  1  0.172300  0.408100  0.230700  1.0
  H  H456  1  0.688900  0.230700  0.408100  1.0
  H  H457  1  0.688900  0.408100  0.172300  1.0
  H  H458  1  0.230700  0.172300  0.408100  1.0
  H  H459  1  0.408100  0.688900  0.230700  1.0
  H  H460  1  0.172300  0.230700  0.688900  1.0
  H  H461  1  0.172300  0.688900  0.408100  1.0
  H  H462  1  0.408100  0.230700  0.172300  1.0
  H  H463  1  0.230700  0.408100  0.688900  1.0
  H  H464  1  0.688900  0.172300  0.230700  1.0
  H  H465  1  0.546600  0.661800  0.498400  1.0
  H  H466  1  0.793200  0.498400  0.661800  1.0
  H  H467  1  0.661800  0.546600  0.793200  1.0
  H  H468  1  0.498400  0.793200  0.546600  1.0
  H  H469  1  0.498400  0.546600  0.661800  1.0
  H  H470  1  0.793200  0.661800  0.546600  1.0
  H  H471  1  0.546600  0.498400  0.793200  1.0
  H  H472  1  0.661800  0.793200  0.498400  1.0
  H  H473  1  0.661800  0.498400  0.546600  1.0
  H  H474  1  0.546600  0.793200  0.661800  1.0
  H  H475  1  0.793200  0.546600  0.498400  1.0
  H  H476  1  0.498400  0.661800  0.793200  1.0
  H  H477  1  0.453400  0.338200  0.501600  1.0
  H  H478  1  0.206800  0.501600  0.338200  1.0
  H  H479  1  0.338200  0.453400  0.206800  1.0
  H  H480  1  0.501600  0.206800  0.453400  1.0
  H  H481  1  0.501600  0.453400  0.338200  1.0
  H  H482  1  0.206800  0.338200  0.453400  1.0
  H  H483  1  0.453400  0.501600  0.206800  1.0
  H  H484  1  0.338200  0.206800  0.501600  1.0
  H  H485  1  0.338200  0.501600  0.453400  1.0
  H  H486  1  0.453400  0.206800  0.338200  1.0
  H  H487  1  0.206800  0.453400  0.501600  1.0
  H  H488  1  0.501600  0.338200  0.206800  1.0
  H  H489  1  0.634300  0.639500  0.409300  1.0
  H  H490  1  0.816900  0.409300  0.639500  1.0
  H  H491  1  0.639500  0.634300  0.816900  1.0
  H  H492  1  0.409300  0.816900  0.634300  1.0
  H  H493  1  0.409300  0.634300  0.639500  1.0
  H  H494  1  0.816900  0.639500  0.634300  1.0
  H  H495  1  0.634300  0.409300  0.816900  1.0
  H  H496  1  0.639500  0.816900  0.409300  1.0
  H  H497  1  0.639500  0.409300  0.634300  1.0
  H  H498  1  0.634300  0.816900  0.639500  1.0
  H  H499  1  0.816900  0.634300  0.409300  1.0
  H  H500  1  0.409300  0.639500  0.816900  1.0
  H  H501  1  0.365700  0.360500  0.590700  1.0
  H  H502  1  0.183100  0.590700  0.360500  1.0
  H  H503  1  0.360500  0.365700  0.183100  1.0
  H  H504  1  0.590700  0.183100  0.365700  1.0
  H  H505  1  0.590700  0.365700  0.360500  1.0
  H  H506  1  0.183100  0.360500  0.365700  1.0
  H  H507  1  0.365700  0.590700  0.183100  1.0
  H  H508  1  0.360500  0.183100  0.590700  1.0
  H  H509  1  0.360500  0.590700  0.365700  1.0
  H  H510  1  0.365700  0.183100  0.360500  1.0
  H  H511  1  0.183100  0.365700  0.590700  1.0
  H  H512  1  0.590700  0.360500  0.183100  1.0
  N  N513  1  0.768780  0.700160  0.191380  1.0
  N  N514  1  0.839680  0.191380  0.700160  1.0
  N  N515  1  0.700160  0.768780  0.839680  1.0
  N  N516  1  0.191380  0.839680  0.768780  1.0
  N  N517  1  0.191380  0.768780  0.700160  1.0
  N  N518  1  0.839680  0.700160  0.768780  1.0
  N  N519  1  0.768780  0.191380  0.839680  1.0
  N  N520  1  0.700160  0.839680  0.191380  1.0
  N  N521  1  0.700160  0.191380  0.768780  1.0
  N  N522  1  0.768780  0.839680  0.700160  1.0
  N  N523  1  0.839680  0.768780  0.191380  1.0
  N  N524  1  0.191380  0.700160  0.839680  1.0
  N  N525  1  0.231220  0.299840  0.808620  1.0
  N  N526  1  0.160320  0.808620  0.299840  1.0
  N  N527  1  0.299840  0.231220  0.160320  1.0
  N  N528  1  0.808620  0.160320  0.231220  1.0
  N  N529  1  0.808620  0.231220  0.299840  1.0
  N  N530  1  0.160320  0.299840  0.231220  1.0
  N  N531  1  0.231220  0.808620  0.160320  1.0
  N  N532  1  0.299840  0.160320  0.808620  1.0
  N  N533  1  0.299840  0.808620  0.231220  1.0
  N  N534  1  0.231220  0.160320  0.299840  1.0
  N  N535  1  0.160320  0.231220  0.808620  1.0
  N  N536  1  0.808620  0.299840  0.160320  1.0
  N  N537  1  0.672310  0.720550  0.295450  1.0
  N  N538  1  0.811690  0.295450  0.720550  1.0
  N  N539  1  0.720550  0.672310  0.811690  1.0
  N  N540  1  0.295450  0.811690  0.672310  1.0
  N  N541  1  0.295450  0.672310  0.720550  1.0
  N  N542  1  0.811690  0.720550  0.672310  1.0
  N  N543  1  0.672310  0.295450  0.811690  1.0
  N  N544  1  0.720550  0.811690  0.295450  1.0
  N  N545  1  0.720550  0.295450  0.672310  1.0
  N  N546  1  0.672310  0.811690  0.720550  1.0
  N  N547  1  0.811690  0.672310  0.295450  1.0
  N  N548  1  0.295450  0.720550  0.811690  1.0
  N  N549  1  0.327690  0.279450  0.704550  1.0
  N  N550  1  0.188310  0.704550  0.279450  1.0
  N  N551  1  0.279450  0.327690  0.188310  1.0
  N  N552  1  0.704550  0.188310  0.327690  1.0
  N  N553  1  0.704550  0.327690  0.279450  1.0
  N  N554  1  0.188310  0.279450  0.327690  1.0
  N  N555  1  0.327690  0.704550  0.188310  1.0
  N  N556  1  0.279450  0.188310  0.704550  1.0
  N  N557  1  0.279450  0.704550  0.327690  1.0
  N  N558  1  0.327690  0.188310  0.279450  1.0
  N  N559  1  0.188310  0.327690  0.704550  1.0
  N  N560  1  0.704550  0.279450  0.188310  1.0
  Ni  Ni561  1  0.500000  0.500000  0.500000  1
  Ni  Ni562  1  0.000000  0.500000  0.500000  1
  Ni  Ni563  1  0.500000  0.500000  0.000000  1
  Ni  Ni564  1  0.500000  1.000000  0.500000  1
  Ni  Ni565  1  0.751994  0.751994  0.244018  1.0
  Ni  Ni566  1  0.751994  0.244018  0.751994  1.0
  Ni  Ni567  1  0.751994  0.751994  0.751994  1.0
  Ni  Ni568  1  0.244018  0.751994  0.751994  1.0
  Ni  Ni569  1  0.248006  0.248006  0.755982  1.0
  Ni  Ni570  1  0.248006  0.755982  0.248006  1.0
  Ni  Ni571  1  0.248006  0.248006  0.248006  1.0
  Ni  Ni572  1  0.755982  0.248006  0.248006  1.0
  O  O573  1  0.938200  0.685400  0.938200  1
  O  O574  1  0.938200  0.938200  0.685400  1
  O  O575  1  0.685400  0.938200  0.938200  1
  O  O576  1  0.938200  0.938200  0.938200  1
  O  O577  1  0.061800  0.314600  0.061800  1
  O  O578  1  0.061800  0.061800  0.314600  1
  O  O579  1  0.314600  0.061800  0.061800  1
  O  O580  1  0.061800  0.061800  0.061800  1
  O  O581  1  0.516720  0.728080  0.313480  1
  O  O582  1  0.941720  0.313480  0.728080  1
  O  O583  1  0.728080  0.516720  0.941720  1
  O  O584  1  0.313480  0.941720  0.516720  1
  O  O585  1  0.313480  0.516720  0.728080  1
  O  O586  1  0.941720  0.728080  0.516720  1
  O  O587  1  0.516720  0.313480  0.941720  1
  O  O588  1  0.728080  0.941720  0.313480  1
  O  O589  1  0.728080  0.313480  0.516720  1
  O  O590  1  0.516720  0.941720  0.728080  1
  O  O591  1  0.941720  0.516720  0.313480  1
  O  O592  1  0.313480  0.728080  0.941720  1
  O  O593  1  0.483280  0.271920  0.686520  1
  O  O594  1  0.058280  0.686520  0.271920  1
  O  O595  1  0.271920  0.483280  0.058280  1
  O  O596  1  0.686520  0.058280  0.483280  1
  O  O597  1  0.686520  0.483280  0.271920  1
  O  O598  1  0.058280  0.271920  0.483280  1
  O  O599  1  0.483280  0.686520  0.058280  1
  O  O600  1  0.271920  0.058280  0.686520  1
  O  O601  1  0.271920  0.686520  0.483280  1
  O  O602  1  0.483280  0.058280  0.271920  1
  O  O603  1  0.058280  0.483280  0.686520  1
  O  O604  1  0.686520  0.271920  0.058280  1
  O  O605  1  0.947100  0.728900  0.012100  1
  O  O606  1  0.811900  0.012100  0.728900  1
  O  O607  1  0.728900  0.947100  0.811900  1
  O  O608  1  0.012100  0.811900  0.947100  1
  O  O609  1  0.012100  0.947100  0.728900  1
  O  O610  1  0.811900  0.728900  0.947100  1
  O  O611  1  0.947100  0.012100  0.811900  1
  O  O612  1  0.728900  0.811900  0.012100  1
  O  O613  1  0.728900  0.012100  0.947100  1
  O  O614  1  0.947100  0.811900  0.728900  1
  O  O615  1  0.811900  0.947100  0.012100  1
  O  O616  1  0.012100  0.728900  0.811900  1
  O  O617  1  0.052900  0.271100  0.987900  1
  O  O618  1  0.188100  0.987900  0.271100  1
  O  O619  1  0.271100  0.052900  0.188100  1
  O  O620  1  0.987900  0.188100  0.052900  1
  O  O621  1  0.987900  0.052900  0.271100  1
  O  O622  1  0.188100  0.271100  0.052900  1
  O  O623  1  0.052900  0.987900  0.188100  1
  O  O624  1  0.271100  0.188100  0.987900  1
  O  O625  1  0.271100  0.987900  0.052900  1
  O  O626  1  0.052900  0.188100  0.271100  1
  O  O627  1  0.188100  0.052900  0.987900  1
  O  O628  1  0.987900  0.271100  0.188100  1
  O  O629  1  0.825000  0.825000  0.025000  1
  O  O630  1  0.825000  0.025000  0.825000  1
  O  O631  1  0.825000  0.825000  0.825000  1
  O  O632  1  0.025000  0.825000  0.825000  1
  O  O633  1  0.175000  0.175000  0.975000  1
  O  O634  1  0.175000  0.975000  0.175000  1
  O  O635  1  0.175000  0.175000  0.175000  1
  O  O636  1  0.975000  0.175000  0.175000  1
  O  O637  1  0.983200  0.646600  0.103400  1
  O  O638  1  0.766800  0.103400  0.646600  1
  O  O639  1  0.646600  0.983200  0.766800  1
  O  O640  1  0.103400  0.766800  0.983200  1
  O  O641  1  0.103400  0.983200  0.646600  1
  O  O642  1  0.766800  0.646600  0.983200  1
  O  O643  1  0.983200  0.103400  0.766800  1
  O  O644  1  0.646600  0.766800  0.103400  1
  O  O645  1  0.646600  0.103400  0.983200  1
  O  O646  1  0.983200  0.766800  0.646600  1
  O  O647  1  0.766800  0.983200  0.103400  1
  O  O648  1  0.103400  0.646600  0.766800  1
  O  O649  1  0.016800  0.353400  0.896600  1
  O  O650  1  0.233200  0.896600  0.353400  1
  O  O651  1  0.353400  0.016800  0.233200  1
  O  O652  1  0.896600  0.233200  0.016800  1
  O  O653  1  0.896600  0.016800  0.353400  1
  O  O654  1  0.233200  0.353400  0.016800  1
  O  O655  1  0.016800  0.896600  0.233200  1
  O  O656  1  0.353400  0.233200  0.896600  1
  O  O657  1  0.353400  0.896600  0.016800  1
  O  O658  1  0.016800  0.233200  0.353400  1
  O  O659  1  0.233200  0.016800  0.896600  1
  O  O660  1  0.896600  0.353400  0.233200  1
  O  O661  1  0.448900  0.917900  0.265300  1
  O  O662  1  0.867900  0.265300  0.917900  1
  O  O663  1  0.917900  0.448900  0.867900  1
  O  O664  1  0.265300  0.867900  0.448900  1
  O  O665  1  0.265300  0.448900  0.917900  1
  O  O666  1  0.867900  0.917900  0.448900  1
  O  O667  1  0.448900  0.265300  0.867900  1
  O  O668  1  0.917900  0.867900  0.265300  1
  O  O669  1  0.917900  0.265300  0.448900  1
  O  O670  1  0.448900  0.867900  0.917900  1
  O  O671  1  0.867900  0.448900  0.265300  1
  O  O672  1  0.265300  0.917900  0.867900  1
  O  O673  1  0.551100  0.082100  0.734700  1
  O  O674  1  0.132100  0.734700  0.082100  1
  O  O675  1  0.082100  0.551100  0.132100  1
  O  O676  1  0.734700  0.132100  0.551100  1
  O  O677  1  0.734700  0.551100  0.082100  1
  O  O678  1  0.132100  0.082100  0.551100  1
  O  O679  1  0.551100  0.734700  0.132100  1
  O  O680  1  0.082100  0.132100  0.734700  1
  O  O681  1  0.082100  0.734700  0.551100  1
  O  O682  1  0.551100  0.132100  0.082100  1
  O  O683  1  0.132100  0.551100  0.734700  1
  O  O684  1  0.734700  0.082100  0.132100  1
  O  O685  1  0.572700  0.815100  0.207500  1
  O  O686  1  0.904700  0.207500  0.815100  1
  O  O687  1  0.815100  0.572700  0.904700  1
  O  O688  1  0.207500  0.904700  0.572700  1
  O  O689  1  0.207500  0.572700  0.815100  1
  O  O690  1  0.904700  0.815100  0.572700  1
  O  O691  1  0.572700  0.207500  0.904700  1
  O  O692  1  0.815100  0.904700  0.207500  1
  O  O693  1  0.815100  0.207500  0.572700  1
  O  O694  1  0.572700  0.904700  0.815100  1
  O  O695  1  0.904700  0.572700  0.207500  1
  O  O696  1  0.207500  0.815100  0.904700  1
  O  O697  1  0.427300  0.184900  0.792500  1
  O  O698  1  0.095300  0.792500  0.184900  1
  O  O699  1  0.184900  0.427300  0.095300  1
  O  O700  1  0.792500  0.095300  0.427300  1
  O  O701  1  0.792500  0.427300  0.184900  1
  O  O702  1  0.095300  0.184900  0.427300  1
  O  O703  1  0.427300  0.792500  0.095300  1
  O  O704  1  0.184900  0.095300  0.792500  1
  O  O705  1  0.184900  0.792500  0.427300  1
  O  O706  1  0.427300  0.095300  0.184900  1
  O  O707  1  0.095300  0.427300  0.792500  1
  O  O708  1  0.792500  0.184900  0.095300  1
  O  O709  1  0.052000  0.515400  0.060200  1
  O  O710  1  0.872400  0.060200  0.515400  1
  O  O711  1  0.515400  0.052000  0.872400  1
  O  O712  1  0.060200  0.872400  0.052000  1
  O  O713  1  0.060200  0.052000  0.515400  1
  O  O714  1  0.872400  0.515400  0.052000  1
  O  O715  1  0.052000  0.060200  0.872400  1
  O  O716  1  0.515400  0.872400  0.060200  1
  O  O717  1  0.515400  0.060200  0.052000  1
  O  O718  1  0.052000  0.872400  0.515400  1
  O  O719  1  0.872400  0.052000  0.060200  1
  O  O720  1  0.060200  0.515400  0.872400  1
  O  O721  1  0.948000  0.484600  0.939800  1
  O  O722  1  0.127600  0.939800  0.484600  1
  O  O723  1  0.484600  0.948000  0.127600  1
  O  O724  1  0.939800  0.127600  0.948000  1
  O  O725  1  0.939800  0.948000  0.484600  1
  O  O726  1  0.127600  0.484600  0.948000  1
  O  O727  1  0.948000  0.939800  0.127600  1
  O  O728  1  0.484600  0.127600  0.939800  1
  O  O729  1  0.484600  0.939800  0.948000  1
  O  O730  1  0.948000  0.127600  0.484600  1
  O  O731  1  0.127600  0.948000  0.939800  1
  O  O732  1  0.939800  0.484600  0.127600  1
  O  O733  1  0.993800  0.567400  0.016200  1
  O  O734  1  0.922600  0.016200  0.567400  1
  O  O735  1  0.567400  0.993800  0.922600  1
  O  O736  1  0.016200  0.922600  0.993800  1
  O  O737  1  0.016200  0.993800  0.567400  1
  O  O738  1  0.922600  0.567400  0.993800  1
  O  O739  1  0.993800  0.016200  0.922600  1
  O  O740  1  0.567400  0.922600  0.016200  1
  O  O741  1  0.567400  0.016200  0.993800  1
  O  O742  1  0.993800  0.922600  0.567400  1
  O  O743  1  0.922600  0.993800  0.016200  1
  O  O744  1  0.016200  0.567400  0.922600  1
  O  O745  1  0.006200  0.432600  0.983800  1
  O  O746  1  0.077400  0.983800  0.432600  1
  O  O747  1  0.432600  0.006200  0.077400  1
  O  O748  1  0.983800  0.077400  0.006200  1
  O  O749  1  0.983800  0.006200  0.432600  1
  O  O750  1  0.077400  0.432600  0.006200  1
  O  O751  1  0.006200  0.983800  0.077400  1
  O  O752  1  0.432600  0.077400  0.983800  1
  O  O753  1  0.432600  0.983800  0.006200  1
  O  O754  1  0.006200  0.077400  0.432600  1
  O  O755  1  0.077400  0.006200  0.983800  1
  O  O756  1  0.983800  0.432600  0.077400  1
  O  O757  1  0.543200  0.569200  0.444400  1
  O  O758  1  0.943200  0.444400  0.569200  1
  O  O759  1  0.569200  0.543200  0.943200  1
  O  O760  1  0.444400  0.943200  0.543200  1
  O  O761  1  0.444400  0.543200  0.569200  1
  O  O762  1  0.943200  0.569200  0.543200  1
  O  O763  1  0.543200  0.444400  0.943200  1
  O  O764  1  0.569200  0.943200  0.444400  1
  O  O765  1  0.569200  0.444400  0.543200  1
  O  O766  1  0.543200  0.943200  0.569200  1
  O  O767  1  0.943200  0.543200  0.444400  1
  O  O768  1  0.444400  0.569200  0.943200  1
  O  O769  1  0.456800  0.430800  0.555600  1
  O  O770  1  0.056800  0.555600  0.430800  1
  O  O771  1  0.430800  0.456800  0.056800  1
  O  O772  1  0.555600  0.056800  0.456800  1
  O  O773  1  0.555600  0.456800  0.430800  1
  O  O774  1  0.056800  0.430800  0.456800  1
  O  O775  1  0.456800  0.555600  0.056800  1
  O  O776  1  0.430800  0.056800  0.555600  1
  O  O777  1  0.430800  0.555600  0.456800  1
  O  O778  1  0.456800  0.056800  0.430800  1
  O  O779  1  0.056800  0.456800  0.555600  1
  O  O780  1  0.555600  0.430800  0.056800  1
  O  O781  1  0.540600  0.835200  0.224600  1
  O  O782  1  0.899600  0.224600  0.835200  1
  O  O783  1  0.835200  0.540600  0.899600  1
  O  O784  1  0.224600  0.899600  0.540600  1
  O  O785  1  0.224600  0.540600  0.835200  1
  O  O786  1  0.899600  0.835200  0.540600  1
  O  O787  1  0.540600  0.224600  0.899600  1
  O  O788  1  0.835200  0.899600  0.224600  1
  O  O789  1  0.835200  0.224600  0.540600  1
  O  O790  1  0.540600  0.899600  0.835200  1
  O  O791  1  0.899600  0.540600  0.224600  1
  O  O792  1  0.224600  0.835200  0.899600  1
  O  O793  1  0.459400  0.164800  0.775400  1
  O  O794  1  0.100400  0.775400  0.164800  1
  O  O795  1  0.164800  0.459400  0.100400  1
  O  O796  1  0.775400  0.100400  0.459400  1
  O  O797  1  0.775400  0.459400  0.164800  1
  O  O798  1  0.100400  0.164800  0.459400  1
  O  O799  1  0.459400  0.775400  0.100400  1
  O  O800  1  0.164800  0.100400  0.775400  1
  O  O801  1  0.164800  0.775400  0.459400  1
  O  O802  1  0.459400  0.100400  0.164800  1
  O  O803  1  0.100400  0.459400  0.775400  1
  O  O804  1  0.775400  0.164800  0.100400  1
  O  O805  1  0.572300  0.481100  0.418700  1
  O  O806  1  0.027900  0.418700  0.481100  1
  O  O807  1  0.481100  0.572300  0.027900  1
  O  O808  1  0.418700  0.027900  0.572300  1
  O  O809  1  0.418700  0.572300  0.481100  1
  O  O810  1  0.027900  0.481100  0.572300  1
  O  O811  1  0.572300  0.418700  0.027900  1
  O  O812  1  0.481100  0.027900  0.418700  1
  O  O813  1  0.481100  0.418700  0.572300  1
  O  O814  1  0.572300  0.027900  0.481100  1
  O  O815  1  0.027900  0.572300  0.418700  1
  O  O816  1  0.418700  0.481100  0.027900  1
  O  O817  1  0.427700  0.518900  0.581300  1
  O  O818  1  0.972100  0.581300  0.518900  1
  O  O819  1  0.518900  0.427700  0.972100  1
  O  O820  1  0.581300  0.972100  0.427700  1
  O  O821  1  0.581300  0.427700  0.518900  1
  O  O822  1  0.972100  0.518900  0.427700  1
  O  O823  1  0.427700  0.581300  0.972100  1
  O  O824  1  0.518900  0.972100  0.581300  1
  O  O825  1  0.518900  0.581300  0.427700  1
  O  O826  1  0.427700  0.972100  0.518900  1
  O  O827  1  0.972100  0.427700  0.581300  1
  O  O828  1  0.581300  0.518900  0.972100  1
  O  O829  1  0.457400  0.447800  0.503200  1
  O  O830  1  0.091600  0.503200  0.447800  1
  O  O831  1  0.447800  0.457400  0.091600  1
  O  O832  1  0.503200  0.091600  0.457400  1
  O  O833  1  0.503200  0.457400  0.447800  1
  O  O834  1  0.091600  0.447800  0.457400  1
  O  O835  1  0.457400  0.503200  0.091600  1
  O  O836  1  0.447800  0.091600  0.503200  1
  O  O837  1  0.447800  0.503200  0.457400  1
  O  O838  1  0.457400  0.091600  0.447800  1
  O  O839  1  0.091600  0.457400  0.503200  1
  O  O840  1  0.503200  0.447800  0.091600  1
  O  O841  1  0.542600  0.552200  0.496800  1
  O  O842  1  0.908400  0.496800  0.552200  1
  O  O843  1  0.552200  0.542600  0.908400  1
  O  O844  1  0.496800  0.908400  0.542600  1
  O  O845  1  0.496800  0.542600  0.552200  1
  O  O846  1  0.908400  0.552200  0.542600  1
  O  O847  1  0.542600  0.496800  0.908400  1
  O  O848  1  0.552200  0.908400  0.496800  1
  O  O849  1  0.552200  0.496800  0.542600  1
  O  O850  1  0.542600  0.908400  0.552200  1
  O  O851  1  0.908400  0.542600  0.496800  1
  O  O852  1  0.496800  0.552200  0.908400  1
  O  O853  1  0.513000  0.677200  0.349400  1
  O  O854  1  0.960400  0.349400  0.677200  1
  O  O855  1  0.677200  0.513000  0.960400  1
  O  O856  1  0.349400  0.960400  0.513000  1
  O  O857  1  0.349400  0.513000  0.677200  1
  O  O858  1  0.960400  0.677200  0.513000  1
  O  O859  1  0.513000  0.349400  0.960400  1
  O  O860  1  0.677200  0.960400  0.349400  1
  O  O861  1  0.677200  0.349400  0.513000  1
  O  O862  1  0.513000  0.960400  0.677200  1
  O  O863  1  0.960400  0.513000  0.349400  1
  O  O864  1  0.349400  0.677200  0.960400  1
  O  O865  1  0.487000  0.322800  0.650600  1
  O  O866  1  0.039600  0.650600  0.322800  1
  O  O867  1  0.322800  0.487000  0.039600  1
  O  O868  1  0.650600  0.039600  0.487000  1
  O  O869  1  0.650600  0.487000  0.322800  1
  O  O870  1  0.039600  0.322800  0.487000  1
  O  O871  1  0.487000  0.650600  0.039600  1
  O  O872  1  0.322800  0.039600  0.650600  1
  O  O873  1  0.322800  0.650600  0.487000  1
  O  O874  1  0.487000  0.039600  0.322800  1
  O  O875  1  0.039600  0.487000  0.650600  1
  O  O876  1  0.650600  0.322800  0.039600  1
  O  O877  1  0.636100  0.658300  0.118300  1
  O  O878  1  0.087300  0.118300  0.658300  1
  O  O879  1  0.658300  0.636100  0.087300  1
  O  O880  1  0.118300  0.087300  0.636100  1
  O  O881  1  0.118300  0.636100  0.658300  1
  O  O882  1  0.087300  0.658300  0.636100  1
  O  O883  1  0.636100  0.118300  0.087300  1
  O  O884  1  0.658300  0.087300  0.118300  1
  O  O885  1  0.658300  0.118300  0.636100  1
  O  O886  1  0.636100  0.087300  0.658300  1
  O  O887  1  0.087300  0.636100  0.118300  1
  O  O888  1  0.118300  0.658300  0.087300  1
  O  O889  1  0.363900  0.341700  0.881700  1
  O  O890  1  0.912700  0.881700  0.341700  1
  O  O891  1  0.341700  0.363900  0.912700  1
  O  O892  1  0.881700  0.912700  0.363900  1
  O  O893  1  0.881700  0.363900  0.341700  1
  O  O894  1  0.912700  0.341700  0.363900  1
  O  O895  1  0.363900  0.881700  0.912700  1
  O  O896  1  0.341700  0.912700  0.881700  1
  O  O897  1  0.341700  0.881700  0.363900  1
  O  O898  1  0.363900  0.912700  0.341700  1
  O  O899  1  0.912700  0.363900  0.881700  1
  O  O900  1  0.881700  0.341700  0.912700  1
  O  O901  1  0.541100  0.798900  0.236700  1
  O  O902  1  0.923300  0.236700  0.798900  1
  O  O903  1  0.798900  0.541100  0.923300  1
  O  O904  1  0.236700  0.923300  0.541100  1
  O  O905  1  0.236700  0.541100  0.798900  1
  O  O906  1  0.923300  0.798900  0.541100  1
  O  O907  1  0.541100  0.236700  0.923300  1
  O  O908  1  0.798900  0.923300  0.236700  1
  O  O909  1  0.798900  0.236700  0.541100  1
  O  O910  1  0.541100  0.923300  0.798900  1
  O  O911  1  0.923300  0.541100  0.236700  1
  O  O912  1  0.236700  0.798900  0.923300  1
  O  O913  1  0.458900  0.201100  0.763300  1
  O  O914  1  0.076700  0.763300  0.201100  1
  O  O915  1  0.201100  0.458900  0.076700  1
  O  O916  1  0.763300  0.076700  0.458900  1
  O  O917  1  0.763300  0.458900  0.201100  1
  O  O918  1  0.076700  0.201100  0.458900  1
  O  O919  1  0.458900  0.763300  0.076700  1
  O  O920  1  0.201100  0.076700  0.763300  1
  O  O921  1  0.201100  0.763300  0.458900  1
  O  O922  1  0.458900  0.076700  0.201100  1
  O  O923  1  0.076700  0.458900  0.763300  1
  O  O924  1  0.763300  0.201100  0.076700  1
  O  O925  1  0.518200  0.876800  0.229400  1
  O  O926  1  0.875600  0.229400  0.876800  1
  O  O927  1  0.876800  0.518200  0.875600  1
  O  O928  1  0.229400  0.875600  0.518200  1
  O  O929  1  0.229400  0.518200  0.876800  1
  O  O930  1  0.875600  0.876800  0.518200  1
  O  O931  1  0.518200  0.229400  0.875600  1
  O  O932  1  0.876800  0.875600  0.229400  1
  O  O933  1  0.876800  0.229400  0.518200  1
  O  O934  1  0.518200  0.875600  0.876800  1
  O  O935  1  0.875600  0.518200  0.229400  1
  O  O936  1  0.229400  0.876800  0.875600  1
  O  O937  1  0.481800  0.123200  0.770600  1
  O  O938  1  0.124400  0.770600  0.123200  1
  O  O939  1  0.123200  0.481800  0.124400  1
  O  O940  1  0.770600  0.124400  0.481800  1
  O  O941  1  0.770600  0.481800  0.123200  1
  O  O942  1  0.124400  0.123200  0.481800  1
  O  O943  1  0.481800  0.770600  0.124400  1
  O  O944  1  0.123200  0.124400  0.770600  1
  O  O945  1  0.123200  0.770600  0.481800  1
  O  O946  1  0.481800  0.124400  0.123200  1
  O  O947  1  0.124400  0.481800  0.770600  1
  O  O948  1  0.770600  0.123200  0.124400  1
  O  O949  1  0.983600  0.599800  0.102800  1
  O  O950  1  0.813800  0.102800  0.599800  1
  O  O951  1  0.599800  0.983600  0.813800  1
  O  O952  1  0.102800  0.813800  0.983600  1
  O  O953  1  0.102800  0.983600  0.599800  1
  O  O954  1  0.813800  0.599800  0.983600  1
  O  O955  1  0.983600  0.102800  0.813800  1
  O  O956  1  0.599800  0.813800  0.102800  1
  O  O957  1  0.599800  0.102800  0.983600  1
  O  O958  1  0.983600  0.813800  0.599800  1
  O  O959  1  0.813800  0.983600  0.102800  1
  O  O960  1  0.102800  0.599800  0.813800  1
  O  O961  1  0.016400  0.400200  0.897200  1
  O  O962  1  0.186200  0.897200  0.400200  1
  O  O963  1  0.400200  0.016400  0.186200  1
  O  O964  1  0.897200  0.186200  0.016400  1
  O  O965  1  0.897200  0.016400  0.400200  1
  O  O966  1  0.186200  0.400200  0.016400  1
  O  O967  1  0.016400  0.897200  0.186200  1
  O  O968  1  0.400200  0.186200  0.897200  1
  O  O969  1  0.400200  0.897200  0.016400  1
  O  O970  1  0.016400  0.186200  0.400200  1
  O  O971  1  0.186200  0.016400  0.897200  1
  O  O972  1  0.897200  0.400200  0.186200  1
  O  O973  1  0.581600  0.446800  0.446800  1.0
  O  O974  1  0.024800  0.446800  0.446800  1.0
  O  O975  1  0.446800  0.581600  0.024800  1.0
  O  O976  1  0.446800  0.024800  0.581600  1.0
  O  O977  1  0.446800  0.581600  0.446800  1.0
  O  O978  1  0.024800  0.446800  0.581600  1.0
  O  O979  1  0.581600  0.446800  0.024800  1.0
  O  O980  1  0.446800  0.024800  0.446800  1.0
  O  O981  1  0.446800  0.446800  0.581600  1.0
  O  O982  1  0.581600  0.024800  0.446800  1.0
  O  O983  1  0.024800  0.581600  0.446800  1.0
  O  O984  1  0.446800  0.446800  0.024800  1.0
  O  O985  1  0.418400  0.553200  0.553200  1.0
  O  O986  1  0.975200  0.553200  0.553200  1.0
  O  O987  1  0.553200  0.418400  0.975200  1.0
  O  O988  1  0.553200  0.975200  0.418400  1.0
  O  O989  1  0.553200  0.418400  0.553200  1.0
  O  O990  1  0.975200  0.553200  0.418400  1.0
  O  O991  1  0.418400  0.553200  0.975200  1.0
  O  O992  1  0.553200  0.975200  0.553200  1.0
  O  O993  1  0.553200  0.553200  0.418400  1.0
  O  O994  1  0.418400  0.975200  0.553200  1.0
  O  O995  1  0.975200  0.418400  0.553200  1.0
  O  O996  1  0.553200  0.553200  0.975200  1.0
  O  O997  1  0.503920  0.896080  0.437480  1.0
  O  O998  1  0.662520  0.437480  0.896080  1.0
  O  O999  1  0.896080  0.503920  0.662520  1.0
  O  O1000  1  0.437480  0.662520  0.503920  1.0
  O  O1001  1  0.437480  0.503920  0.896080  1.0
  O  O1002  1  0.662520  0.896080  0.503920  1.0
  O  O1003  1  0.503920  0.437480  0.662520  1.0
  O  O1004  1  0.896080  0.662520  0.437480  1.0
  O  O1005  1  0.896080  0.437480  0.503920  1.0
  O  O1006  1  0.503920  0.662520  0.896080  1.0
  O  O1007  1  0.662520  0.503920  0.437480  1.0
  O  O1008  1  0.437480  0.896080  0.662520  1.0
  O  O1009  1  0.496080  0.103920  0.562520  1.0
  O  O1010  1  0.337480  0.562520  0.103920  1.0
  O  O1011  1  0.103920  0.496080  0.337480  1.0
  O  O1012  1  0.562520  0.337480  0.496080  1.0
  O  O1013  1  0.562520  0.496080  0.103920  1.0
  O  O1014  1  0.337480  0.103920  0.496080  1.0
  O  O1015  1  0.496080  0.562520  0.337480  1.0
  O  O1016  1  0.103920  0.337480  0.562520  1.0
  O  O1017  1  0.103920  0.562520  0.496080  1.0
  O  O1018  1  0.496080  0.337480  0.103920  1.0
  O  O1019  1  0.337480  0.496080  0.562520  1.0
  O  O1020  1  0.562520  0.103920  0.337480  1.0
  O  O1021  1  0.421020  0.898840  0.419220  1.0
  O  O1022  1  0.760920  0.419220  0.898840  1.0
  O  O1023  1  0.898840  0.421020  0.760920  1.0
  O  O1024  1  0.419220  0.760920  0.421020  1.0
  O  O1025  1  0.419220  0.421020  0.898840  1.0
  O  O1026  1  0.760920  0.898840  0.421020  1.0
  O  O1027  1  0.421020  0.419220  0.760920  1.0
  O  O1028  1  0.898840  0.760920  0.419220  1.0
  O  O1029  1  0.898840  0.419220  0.421020  1.0
  O  O1030  1  0.421020  0.760920  0.898840  1.0
  O  O1031  1  0.760920  0.421020  0.419220  1.0
  O  O1032  1  0.419220  0.898840  0.760920  1.0
  O  O1033  1  0.578980  0.101160  0.580780  1.0
  O  O1034  1  0.239080  0.580780  0.101160  1.0
  O  O1035  1  0.101160  0.578980  0.239080  1.0
  O  O1036  1  0.580780  0.239080  0.578980  1.0
  O  O1037  1  0.580780  0.578980  0.101160  1.0
  O  O1038  1  0.239080  0.101160  0.578980  1.0
  O  O1039  1  0.578980  0.580780  0.239080  1.0
  O  O1040  1  0.101160  0.239080  0.580780  1.0
  O  O1041  1  0.101160  0.580780  0.578980  1.0
  O  O1042  1  0.578980  0.239080  0.101160  1.0
  O  O1043  1  0.239080  0.578980  0.580780  1.0
  O  O1044  1  0.580780  0.101160  0.239080  1.0
  O  O1045  1  0.510350  0.922870  0.330050  1.0
  O  O1046  1  0.736730  0.330050  0.922870  1.0
  O  O1047  1  0.922870  0.510350  0.736730  1.0
  O  O1048  1  0.330050  0.736730  0.510350  1.0
  O  O1049  1  0.330050  0.510350  0.922870  1.0
  O  O1050  1  0.736730  0.922870  0.510350  1.0
  O  O1051  1  0.510350  0.330050  0.736730  1.0
  O  O1052  1  0.922870  0.736730  0.330050  1.0
  O  O1053  1  0.922870  0.330050  0.510350  1.0
  O  O1054  1  0.510350  0.736730  0.922870  1.0
  O  O1055  1  0.736730  0.510350  0.330050  1.0
  O  O1056  1  0.330050  0.922870  0.736730  1.0
  O  O1057  1  0.489650  0.077130  0.669950  1.0
  O  O1058  1  0.263270  0.669950  0.077130  1.0
  O  O1059  1  0.077130  0.489650  0.263270  1.0
  O  O1060  1  0.669950  0.263270  0.489650  1.0
  O  O1061  1  0.669950  0.489650  0.077130  1.0
  O  O1062  1  0.263270  0.077130  0.489650  1.0
  O  O1063  1  0.489650  0.669950  0.263270  1.0
  O  O1064  1  0.077130  0.263270  0.669950  1.0
  O  O1065  1  0.077130  0.669950  0.489650  1.0
  O  O1066  1  0.489650  0.263270  0.077130  1.0
  O  O1067  1  0.263270  0.489650  0.669950  1.0
  O  O1068  1  0.669950  0.077130  0.263270  1.0
  S  S1069  1  0.487120  0.888540  0.395260  1.0
  S  S1070  1  0.729080  0.395260  0.888540  1.0
  S  S1071  1  0.888540  0.487120  0.729080  1.0
  S  S1072  1  0.395260  0.729080  0.487120  1.0
  S  S1073  1  0.395260  0.487120  0.888540  1.0
  S  S1074  1  0.729080  0.888540  0.487120  1.0
  S  S1075  1  0.487120  0.395260  0.729080  1.0
  S  S1076  1  0.888540  0.729080  0.395260  1.0
  S  S1077  1  0.888540  0.395260  0.487120  1.0
  S  S1078  1  0.487120  0.729080  0.888540  1.0
  S  S1079  1  0.729080  0.487120  0.395260  1.0
  S  S1080  1  0.395260  0.888540  0.729080  1.0
  S  S1081  1  0.512880  0.111460  0.604740  1.0
  S  S1082  1  0.270920  0.604740  0.111460  1.0
  S  S1083  1  0.111460  0.512880  0.270920  1.0
  S  S1084  1  0.604740  0.270920  0.512880  1.0
  S  S1085  1  0.604740  0.512880  0.111460  1.0
  S  S1086  1  0.270920  0.111460  0.512880  1.0
  S  S1087  1  0.512880  0.604740  0.270920  1.0
  S  S1088  1  0.111460  0.270920  0.604740  1.0
  S  S1089  1  0.111460  0.604740  0.512880  1.0
  S  S1090  1  0.512880  0.270920  0.111460  1.0
  S  S1091  1  0.270920  0.512880  0.604740  1.0
  S  S1092  1  0.604740  0.111460  0.270920  1.0
