
#######################################################################
#
#                 Cambridge Crystallographic Data Centre
#                                CCDC 
#
#######################################################################
#
# If this CIF has been generated from an entry in the Cambridge 
# Structural Database, then it will include bibliographic, chemical, 
# crystal, experimental, refinement or atomic coordinate data resulting 
# from the CCDC's data processing and validation procedures.
#
#######################################################################

data_GIDFOQ
_chemical_formula_moiety         
'C144 H96 N24 Ni4 O36 S12 4-,2(H12 Ni1 O6 2+),C1 Br4,74.76(H2 O1)'
_chemical_name_systematic        
"hexakis(\m~2~-4,4'-bis((Pyridin-2-ylmethylene)amino)biphenyl-2,2'-disulfonate)-tetra-nickel bis(hexa-aqua-nickel) tetrabromomethane clathrate hydrate"
_symmetry_cell_setting           monoclinic
_symmetry_space_group_name_H-M   'C 2/c'
_symmetry_Int_Tables_number      15
_space_group_name_Hall           '-C 2yn'
loop_
_symmetry_equiv_pos_site_id
_symmetry_equiv_pos_as_xyz
1 x,y,z
2 -x,y,1/2-z
3 1/2+x,1/2+y,z
4 1/2-x,1/2+y,1/2-z
5 -x,-y,-z
6 x,-y,1/2+z
7 1/2-x,1/2-y,-z
8 1/2+x,1/2-y,1/2+z
_cell_length_a                   36.2550(7)
_cell_length_b                   36.2598(7)
_cell_length_c                   25.6247(5)
_cell_angle_alpha                90
_cell_angle_beta                 134.9912(6)
_cell_angle_gamma                90
_cell_volume                     23823.4
_exptl_crystal_colour            orange
_exptl_crystal_description       block
_cell_formula_units_Z            4
loop_
_atom_site_label
_atom_site_type_symbol
_atom_site_fract_x
_atom_site_fract_y
_atom_site_fract_z
Ni1 Ni 0.50001(4) 0.24765(3) 0.49536(6)
Ni2 Ni 0.75465(4) 0.50230(3) 1.00464(6)
S1 S 0.70098(12) 0.31176(8) 0.78406(14)
O1 O 0.7392(3) 0.3403(2) 0.8179(4)
O2 O 0.7066(4) 0.2832(3) 0.7531(5)
O3 O 0.6952(5) 0.2993(4) 0.8327(5)
N1 N 0.4658(3) 0.2656(2) 0.3913(4)
N2 N 0.5244(3) 0.3035(2) 0.5159(4)
C2 C 0.4356(4) 0.2456(3) 0.3286(5)
H1 H 0.4283 0.2206 0.3291
C3 C 0.4152(5) 0.2613(4) 0.2629(6)
H2 H 0.3937 0.2472 0.2188
C4 C 0.4265(6) 0.2981(3) 0.2625(6)
H3 H 0.4126 0.3093 0.2181
C5 C 0.4576(5) 0.3175(3) 0.3263(6)
H4 H 0.4663 0.3423 0.3273
C6 C 0.4766(4) 0.3010(3) 0.3896(5)
C7 C 0.5092(4) 0.3200(2) 0.4598(5)
H5 H 0.5192 0.3448 0.4638
C8 C 0.5562(3) 0.3236(3) 0.5835(5)
C9 C 0.6063(4) 0.3120(3) 0.6430(5)
H6 H 0.6188 0.2904 0.6388
C10 C 0.6386(4) 0.3310(3) 0.7087(5)
C11 C 0.6212(4) 0.3637(3) 0.7151(6)
C12 C 0.5709(5) 0.3735(4) 0.6566(8)
H7 H 0.5574 0.3938 0.6623
C13 C 0.5383(4) 0.3559(4) 0.5896(7)
H8 H 0.5045 0.3653 0.5485
S2 S 0.66701(13) 0.43822(8) 0.71606(15)
O4 O 0.6714(3) 0.4100(2) 0.6822(4)
O5 O 0.7047(5) 0.4670(3) 0.7475(5)
O6 O 0.6128(5) 0.4510(4) 0.6679(5)
N3 N 0.8246(3) 0.4844(2) 1.1084(4)
N4 N 0.7586(3) 0.4468(2) 0.9840(4)
C14 C 0.8572(4) 0.5036(3) 1.1714(5)
H9 H 0.8495 0.5288 1.1705
C15 C 0.9015(5) 0.4886(3) 1.2375(6)
H10 H 0.9227 0.5025 1.2819
C16 C 0.9143(5) 0.4527(4) 1.2371(7)
H11 H 0.9458 0.4422 1.2813
C17 C 0.8820(4) 0.4321(3) 1.1741(6)
H12 H 0.8899 0.4072 1.1736
C18 C 0.8370(3) 0.4492(3) 1.1103(5)
C19 C 0.7998(3) 0.4302(3) 1.0408(5)
H13 H 0.8058 0.4053 1.0370
C20 C 0.7227(3) 0.4261(2) 0.9168(5)
C21 C 0.7134(3) 0.4383(3) 0.8574(5)
H14 H 0.7300 0.4600 0.8616
C22 C 0.6795(3) 0.4186(3) 0.7908(5)
C23 C 0.6562(4) 0.3863(3) 0.7848(6)
C24 C 0.6642(6) 0.3757(4) 0.8432(8)
H15 H 0.6462 0.3547 0.8383
C25 C 0.6982(5) 0.3948(4) 0.9103(7)
H16 H 0.7044 0.3863 0.9510
S3 S 0.37925(12) 0.39200(7) 0.3819(2)
O7 O 0.3296(3) 0.4087(2) 0.3396(4)
O8 O 0.3860(5) 0.3767(3) 0.3384(7)
O9 O 0.4224(4) 0.4164(3) 0.4421(8)
N5 N 0.4640(3) 0.1957(2) 0.4593(4)
N6 N 0.4302(3) 0.2579(2) 0.4672(4)
C26 C 0.4827(5) 0.1642(3) 0.4573(6)
H17 H 0.5154 0.1644 0.4726
C27 C 0.4550(5) 0.1315(3) 0.4333(8)
H18 H 0.4691 0.1093 0.4341
C28 C 0.4060(6) 0.1317(3) 0.4081(8)
H19 H 0.3859 0.1097 0.3894
C29 C 0.3876(5) 0.1629(3) 0.4105(7)
H20 H 0.3549 0.1632 0.3952
C30 C 0.4170(4) 0.1947(3) 0.4355(5)
C31 C 0.4008(3) 0.2297(3) 0.4414(5)
H21 H 0.3681 0.2315 0.4260
C32 C 0.4115(3) 0.2916(3) 0.4708(5)
C33 C 0.4033(3) 0.3215(2) 0.4304(5)
H22 H 0.4108 0.3195 0.4017
C34 C 0.3843(3) 0.3544(3) 0.4314(5)
C35 C 0.3724(4) 0.3577(3) 0.4725(5)
C36 C 0.3836(6) 0.3285(4) 0.5151(7)
H23 H 0.3784 0.3310 0.5463
C37 C 0.4025(6) 0.2952(4) 0.5145(6)
H24 H 0.4092 0.2752 0.5441
S4 S 0.25295(14) 0.35805(7) 0.3823(2)
O10 O 0.2598(3) 0.3409(2) 0.3393(4)
O11 O 0.2019(4) 0.3743(3) 0.3382(8)
O12 O 0.2710(6) 0.3336(3) 0.4430(8)
N7 N 0.2454(3) 0.5542(2) 0.4599(4)
N8 N 0.2867(3) 0.4920(2) 0.4670(4)
C38 C 0.2248(4) 0.5856(3) 0.4569(6)
H25 H 0.2070 0.5853 0.4717
C39 C 0.2281(5) 0.6188(3) 0.4332(7)
H26 H 0.2143 0.6409 0.4338
C40 C 0.2519(6) 0.6189(3) 0.4088(9)
H27 H 0.2541 0.6410 0.3913
C41 C 0.2726(5) 0.5866(3) 0.4101(7)
H28 H 0.2889 0.5860 0.3931
C42 C 0.2691(4) 0.5554(3) 0.4362(5)
C43 C 0.2903(4) 0.5200(3) 0.4409(5)
H29 H 0.3068 0.5179 0.4243
C44 C 0.3093(4) 0.4582(3) 0.4711(5)
C45 C 0.2775(4) 0.4288(2) 0.4308(5)
H30 H 0.2413 0.4309 0.4017
C46 C 0.2969(4) 0.3957(3) 0.4313(5)
C47 C 0.3502(4) 0.3924(3) 0.4728(5)
C48 C 0.3812(5) 0.4218(4) 0.5144(7)
H31 H 0.4177 0.4194 0.5455
C49 C 0.3621(4) 0.4550(3) 0.5135(6)
H32 H 0.3849 0.4753 0.5415
S5 S 0.41975(10) 0.19099(10) 0.62346(16)
O13 O 0.4310(3) 0.1697(2) 0.6798(5)
O14 O 0.4071(4) 0.1691(4) 0.5665(5)
O15 O 0.3827(4) 0.2213(4) 0.5981(7)
N9 N 0.5699(3) 0.2299(2) 0.5310(4)
N10 N 0.5457(3) 0.2340(2) 0.6069(4)
C50 C 0.5813(4) 0.2285(3) 0.4912(6)
H33 H 0.5558 0.2354 0.4407
C51 C 0.6308(5) 0.2168(4) 0.5242(7)
H34 H 0.6393 0.2170 0.4966
C52 C 0.6669(5) 0.2050(4) 0.5959(7)
H35 H 0.7001 0.1965 0.6178
C53 C 0.6550(4) 0.2055(3) 0.6356(7)
H36 H 0.6796 0.1975 0.6855
C54 C 0.6060(4) 0.2180(3) 0.6019(5)
C55 C 0.5903(4) 0.2210(3) 0.6397(5)
H37 H 0.6133 0.2133 0.6897
C56 C 0.5318(4) 0.2355(2) 0.6474(5)
C57 C 0.4903(3) 0.2155(3) 0.6232(5)
H38 H 0.4704 0.2012 0.5795
C58 C 0.4768(4) 0.2159(3) 0.6625(6)
C59 C 0.5057(5) 0.2359(3) 0.7271(6)
C60 C 0.5462(7) 0.2579(3) 0.7485(8)
H39 H 0.5647 0.2736 0.7903
C61 C 0.5600(6) 0.2573(3) 0.7103(7)
H40 H 0.5885 0.2717 0.7267
S6 S 0.54613(11) 0.55900(10) 0.87647(16)
O16 O 0.5009(3) 0.5803(2) 0.8196(4)
O17 O 0.5905(3) 0.5809(4) 0.9339(5)
O18 O 0.5343(5) 0.5287(4) 0.9016(7)
N11 N 0.7886(3) 0.5205(2) 0.9689(4)
N12 N 0.6890(3) 0.51666(19) 0.8940(4)
C62 C 0.8395(4) 0.5216(3) 1.0074(6)
H41 H 0.8641 0.5140 1.0576
C63 C 0.8574(4) 0.5332(4) 0.9777(7)
H42 H 0.8936 0.5323 1.0057
C64 C 0.8208(5) 0.5465(4) 0.9043(8)
H43 H 0.8321 0.5565 0.8832
C65 C 0.7694(4) 0.5448(3) 0.8647(6)
H44 H 0.7440 0.5523 0.8145
C66 C 0.7543(4) 0.5319(3) 0.8984(5)
C67 C 0.7003(4) 0.5295(3) 0.8604(5)
H45 H 0.6734 0.5373 0.8106
C68 C 0.6346(3) 0.5143(2) 0.8523(5)
C69 C 0.6164(3) 0.5350(2) 0.8761(5)
H46 H 0.6400 0.5496 0.9194
C70 C 0.5642(4) 0.5344(3) 0.8372(5)
C71 C 0.5283(3) 0.5133(3) 0.7719(6)
C72 C 0.5473(4) 0.4927(4) 0.7522(8)
H47 H 0.5242 0.4769 0.7107
C73 C 0.6001(4) 0.4934(3) 0.7901(7)
H48 H 0.6116 0.4794 0.7725
S5A S 0.58025(10) 0.19099(10) 0.87654(16)
O13A O 0.5690(3) 0.1697(2) 0.8202(5)
O14A O 0.5929(4) 0.1691(4) 0.9335(5)
O15A O 0.6173(4) 0.2213(4) 0.9019(7)
N9A N 0.4301(3) 0.2299(2) 0.9690(4)
N10A N 0.4543(3) 0.2340(2) 0.8931(4)
C50A C 0.4187(4) 0.2285(3) 1.0088(6)
H33A H 0.4442 0.2354 1.0593
C51A C 0.3692(5) 0.2168(4) 0.9758(7)
H34A H 0.3607 0.2170 1.0034
C52A C 0.3331(5) 0.2050(4) 0.9041(7)
H35A H 0.2999 0.1965 0.8822
C53A C 0.3450(4) 0.2055(3) 0.8644(7)
H36A H 0.3204 0.1975 0.8145
C54A C 0.3940(4) 0.2180(3) 0.8981(5)
C55A C 0.4097(4) 0.2210(3) 0.8603(5)
H37A H 0.3867 0.2133 0.8103
C56A C 0.4682(4) 0.2355(2) 0.8526(5)
C57A C 0.5097(3) 0.2155(3) 0.8768(5)
H38A H 0.5296 0.2012 0.9205
C58A C 0.5232(4) 0.2159(3) 0.8375(6)
C59A C 0.4943(5) 0.2359(3) 0.7729(6)
C60A C 0.4538(7) 0.2579(3) 0.7515(8)
H39A H 0.4353 0.2736 0.7097
C61A C 0.4400(6) 0.2573(3) 0.7897(7)
H40A H 0.4115 0.2717 0.7733
S6A S 0.45387(11) 0.55900(10) 0.62353(16)
O16A O 0.4991(3) 0.5803(2) 0.6804(4)
O17A O 0.4095(3) 0.5809(4) 0.5661(5)
O18A O 0.4657(5) 0.5287(4) 0.5984(7)
N11A N 0.2114(3) 0.5205(2) 0.5311(4)
N12A N 0.3110(3) 0.51666(19) 0.6060(4)
C62A C 0.1605(4) 0.5216(3) 0.4926(6)
H41A H 0.1359 0.5140 0.4424
C63A C 0.1426(4) 0.5332(4) 0.5223(7)
H42A H 0.1064 0.5323 0.4943
C64A C 0.1792(5) 0.5465(4) 0.5957(8)
H43A H 0.1679 0.5565 0.6168
C65A C 0.2306(4) 0.5448(3) 0.6353(6)
H44A H 0.2560 0.5523 0.6855
C66A C 0.2457(4) 0.5319(3) 0.6016(5)
C67A C 0.2997(4) 0.5295(3) 0.6396(5)
H45A H 0.3266 0.5373 0.6894
C68A C 0.3654(3) 0.5143(2) 0.6477(5)
C69A C 0.3836(3) 0.5350(2) 0.6239(5)
H46A H 0.3600 0.5496 0.5806
C70A C 0.4358(4) 0.5344(3) 0.6628(5)
C71A C 0.4717(3) 0.5133(3) 0.7281(6)
C72A C 0.4527(4) 0.4927(4) 0.7478(8)
H47A H 0.4758 0.4769 0.7893
C73A C 0.3999(4) 0.4934(3) 0.7099(7)
H48A H 0.3884 0.4794 0.7275
Ni1A Ni 0.49999(4) 0.24765(3) 1.00464(6)
Ni2A Ni 0.24535(4) 0.50230(3) 0.49536(6)
S1A S 0.29902(12) 0.31176(8) 0.71594(14)
O1A O 0.2608(3) 0.3403(2) 0.6821(4)
O2A O 0.2934(4) 0.2832(3) 0.7469(5)
O3A O 0.3048(5) 0.2993(4) 0.6673(5)
N1A N 0.5342(3) 0.2656(2) 1.1087(4)
N2A N 0.4756(3) 0.3035(2) 0.9841(4)
C2A C 0.5644(4) 0.2456(3) 1.1714(5)
H1A H 0.5717 0.2206 1.1709
C3A C 0.5848(5) 0.2613(4) 1.2371(6)
H2A H 0.6063 0.2472 1.2812
C4A C 0.5735(6) 0.2981(3) 1.2375(6)
H3A H 0.5874 0.3093 1.2819
C5A C 0.5424(5) 0.3175(3) 1.1737(6)
H4A H 0.5337 0.3423 1.1727
C6A C 0.5234(4) 0.3010(3) 1.1104(5)
C7A C 0.4908(4) 0.3200(2) 1.0402(5)
H5A H 0.4808 0.3448 1.0362
C8A C 0.4438(3) 0.3236(3) 0.9165(5)
C9A C 0.3937(4) 0.3120(3) 0.8570(5)
H6A H 0.3812 0.2904 0.8612
C10A C 0.3614(4) 0.3310(3) 0.7913(5)
C11A C 0.3788(4) 0.3637(3) 0.7849(6)
C12A C 0.4291(5) 0.3735(4) 0.8434(8)
H7A H 0.4426 0.3938 0.8377
C13A C 0.4617(4) 0.3559(4) 0.9104(7)
H8A H 0.4955 0.3653 0.9515
S2A S 0.33299(13) 0.43822(8) 0.78394(15)
O4A O 0.3286(3) 0.4100(2) 0.8178(4)
O5A O 0.2953(5) 0.4670(3) 0.7525(5)
O6A O 0.3872(5) 0.4510(4) 0.8321(5)
N3A N 0.1754(3) 0.4844(2) 0.3916(4)
N4A N 0.2414(3) 0.4468(2) 0.5160(4)
C14A C 0.1428(4) 0.5036(3) 0.3286(5)
H9A H 0.1505 0.5288 0.3295
C15A C 0.0985(5) 0.4886(3) 0.2625(6)
H10A H 0.0773 0.5025 0.2181
C16A C 0.0857(5) 0.4527(4) 0.2629(7)
H11A H 0.0542 0.4422 0.2187
C17A C 0.1180(4) 0.4321(3) 0.3259(6)
H12A H 0.1101 0.4072 0.3264
C18A C 0.1630(3) 0.4492(3) 0.3897(5)
C19A C 0.2002(3) 0.4302(3) 0.4592(5)
H13A H 0.1942 0.4053 0.4630
C20A C 0.2773(3) 0.4261(2) 0.5832(5)
C21A C 0.2866(3) 0.4383(3) 0.6426(5)
H14A H 0.2700 0.4600 0.6384
C22A C 0.3205(3) 0.4186(3) 0.7092(5)
C23A C 0.3438(4) 0.3863(3) 0.7152(6)
C24A C 0.3358(6) 0.3757(4) 0.6568(8)
H15A H 0.3538 0.3547 0.6617
C25A C 0.3018(5) 0.3948(4) 0.5897(7)
H16A H 0.2956 0.3863 0.5490
S3A S 0.62075(12) 0.39200(7) 1.1181(2)
O7A O 0.6704(3) 0.4087(2) 1.1604(4)
O8A O 0.6140(5) 0.3767(3) 1.1616(7)
O9A O 0.5776(4) 0.4164(3) 1.0579(8)
N5A N 0.5360(3) 0.1957(2) 1.0407(4)
N6A N 0.5698(3) 0.2579(2) 1.0328(4)
C26A C 0.5173(5) 0.1642(3) 1.0427(6)
H17A H 0.4846 0.1644 1.0274
C27A C 0.5450(5) 0.1315(3) 1.0667(8)
H18A H 0.5309 0.1093 1.0659
C28A C 0.5940(6) 0.1317(3) 1.0919(8)
H19A H 0.6141 0.1097 1.1106
C29A C 0.6124(5) 0.1629(3) 1.0895(7)
H20A H 0.6451 0.1632 1.1048
C30A C 0.5830(4) 0.1947(3) 1.0645(5)
C31A C 0.5992(3) 0.2297(3) 1.0586(5)
H21A H 0.6319 0.2315 1.0740
C32A C 0.5885(3) 0.2916(3) 1.0292(5)
C33A C 0.5967(3) 0.3215(2) 1.0696(5)
H22A H 0.5892 0.3195 1.0983
C34A C 0.6157(3) 0.3544(3) 1.0686(5)
C35A C 0.6276(4) 0.3577(3) 1.0275(5)
C36A C 0.6164(6) 0.3285(4) 0.9849(7)
H23A H 0.6216 0.3310 0.9537
C37A C 0.5975(6) 0.2952(4) 0.9855(6)
H24A H 0.5908 0.2752 0.9559
S4A S 0.74705(14) 0.35805(7) 1.1177(2)
O10A O 0.7402(3) 0.3409(2) 1.1607(4)
O11A O 0.7981(4) 0.3743(3) 1.1618(8)
O12A O 0.7290(6) 0.3336(3) 1.0570(8)
N7A N 0.7546(3) 0.5542(2) 1.0401(4)
N8A N 0.7133(3) 0.4920(2) 1.0330(4)
C38A C 0.7752(4) 0.5856(3) 1.0431(6)
H25A H 0.7930 0.5853 1.0283
C39A C 0.7719(5) 0.6188(3) 1.0668(7)
H26A H 0.7857 0.6409 1.0662
C40A C 0.7481(6) 0.6189(3) 1.0912(9)
H27A H 0.7459 0.6410 1.1087
C41A C 0.7274(5) 0.5866(3) 1.0899(7)
H28A H 0.7111 0.5860 1.1069
C42A C 0.7309(4) 0.5554(3) 1.0638(5)
C43A C 0.7097(4) 0.5200(3) 1.0591(5)
H29A H 0.6932 0.5179 1.0757
C44A C 0.6907(4) 0.4582(3) 1.0289(5)
C45A C 0.7225(4) 0.4288(2) 1.0692(5)
H30A H 0.7587 0.4309 1.0983
C46A C 0.7031(4) 0.3957(3) 1.0687(5)
C47A C 0.6498(4) 0.3924(3) 1.0272(5)
C48A C 0.6188(5) 0.4218(4) 0.9856(7)
H31A H 0.5823 0.4194 0.9545
C49A C 0.6379(4) 0.4550(3) 0.9865(6)
H32A H 0.6151 0.4753 0.9585
Ni3 Ni 0.2500 0.2500 0.5000
O19 O 0.3132(6) 0.2419(6) 0.6116(7)
O20 O 0.2516(8) 0.1942(4) 0.4858(11)
O21 O 0.2023(7) 0.2427(5) 0.5161(11)
O19F O 0.1868(6) 0.2581(6) 0.3884(7)
O20F O 0.2484(8) 0.3058(4) 0.5142(11)
O21F O 0.2977(7) 0.2573(5) 0.4839(11)
Ni4 Ni 0.5000 0.5000 0.5000
O22 O 0.5477(7) 0.5088(6) 0.6109(8)
O23 O 0.4836(8) 0.5555(4) 0.4850(11)
O24 O 0.5644(6) 0.5074(6) 0.5178(11)
O22D O 0.4523(7) 0.4912(6) 0.3891(8)
O23D O 0.5164(8) 0.4445(4) 0.5150(11)
O24D O 0.4356(6) 0.4926(6) 0.4822(11)
O25 O 0.6275(4) 0.1888(3) 0.3773(5)
O26 O 0.7631(12) 0.6315(8) 0.9029(15)
O27 O 0.1403(10) 0.5391(7) 0.2014(17)
O28 O 0.2362(13) 0.1850(9) 0.1837(18)
O29 O 0.6085(12) 0.2892(7) 0.4194(15)
O30 O 0.9202(11) 0.6016(8) 0.9206(15)
O31 O 0.8292(12) 0.5911(9) 0.7879(15)
O32 O 0.7606(13) 0.6217(8) 0.7970(14)
O33 O 0.9068(12) 0.5388(7) 0.8822(18)
O34 O 0.0572(8) 0.4512(7) 0.3788(15)
O35 O 0.490(2) 0.1272(14) 0.891(3)
O36 O 0.7267(12) 0.7127(9) 0.887(2)
O37 O 0.212(2) 0.7278(19) 0.458(4)
O38 O 0.3212(13) 0.1882(7) 0.2381(16)
O39 O 0.0949(13) 0.5351(7) 0.0765(15)
O40 O 0.1966(11) 0.5650(9) 0.1813(19)
O41 O 0.2914(12) 0.3406(9) 0.2132(16)
O42 O 0.3209(8) 0.2701(6) 0.2696(10)
O43 O 0.6773(10) 0.3082(9) 0.4306(15)
O44 O 0.5951(15) 0.3560(8) 0.3710(17)
O45 O 0.2866(4) 0.2711(3) 0.3259(6)
O46 O 0.7077(7) 0.5206(3) 0.6717(7)
O47 O 0.3622(18) 0.1808(13) 0.691(3)
O48 O 0.3029(18) 0.1541(13) 0.472(3)
O49 O 0.0000(4) 0.5614(3) 0.3776(5)
O50 O 0.6079(5) 0.3768(4) 0.5416(6)
O51 O 0.0978(4) 0.5877(3) 0.2390(6)
O52 O 0.1409(5) 0.6305(3) 0.4565(6)
O53 O 0.5434(4) 0.2280(3) 0.3254(6)
O54 O 0.6089(4) 0.1626(3) 0.2615(6)
O55 O 0.0317(4) 0.5217(3) 0.3253(6)
O56 O 0.0662(4) 0.6197(3) 0.4572(6)
O57 O 0.0996(5) 0.5755(3) 0.3499(7)
O58 O 0.5000 0.1011(5) 0.7500
O59 O 0.6019(4) 0.5865(3) 0.7440(8)
O60 O 0.5000(5) 0.1751(3) 0.3491(7)
O61 O 0.2758(9) 0.1334(8) 0.2529(13)
O62 O 0.6342(9) 0.3146(6) 0.5382(13)
O63 O 0.6659(9) 0.6138(5) 0.8691(13)
O64 O 0.1561(7) 0.5647(6) 0.0437(14)
O65 O 0.8162(19) 0.5373(14) 0.746(3)
O66 O 0.0243(10) 0.3930(8) 0.3696(18)
O67 O 0.0031(13) 0.4418(10) 0.4299(19)
O68 O 0.2285(13) 0.2148(9) 0.0756(19)
O69 O 0.0363(19) 0.5288(13) 0.068(3)
O70 O -0.035(2) 0.5341(14) -0.007(3)
C1 C 0.5104(2) 0.38018(16) 0.7603(3)
Br1 Br 0.57148(17) 0.41080(13) 0.8215(3)
Br2 Br 0.5274(2) 0.33282(11) 0.7485(3)
Br3 Br 0.48598(18) 0.37431(16) 0.8062(3)
Br4 Br 0.45708(19) 0.40317(13) 0.6657(2)
C1A C 0.4896(2) 0.38018(16) 0.7397(3)
Br1A Br 0.42852(17) 0.41080(13) 0.6785(3)
Br2A Br 0.4726(2) 0.33282(11) 0.7515(3)
Br3A Br 0.51402(18) 0.37431(16) 0.6938(3)
Br4A Br 0.54292(19) 0.40317(13) 0.8343(2)
C74? C 0.4999(2) 0.36980(16) 0.7396(3)
Br5? Br 0.4999(2) 0.33920(13) 0.6785(3)
Br6? Br 0.42969(16) 0.37575(16) 0.6938(3)
Br7? Br 0.5414(2) 0.34693(13) 0.8344(2)
Br8? Br 0.5288(2) 0.41713(12) 0.7515(3)
O71? O 0.2921(11) 0.2352(8) 0.6068(10)
O72? O 0.2701(10) 0.2002(5) 0.4876(14)
O73? O 0.3163(8) 0.2745(7) 0.5360(15)
O74? O 0.2923(10) 0.2985(5) 0.5483(14)
O75? O 0.3067(8) 0.2246(7) 0.6003(10)
O76? O 0.2128(10) 0.2616(8) 0.5318(15)
O77? O 0.3229(7) 0.2674(7) 0.5972(10)
O78? O 0.2254(9) 0.2437(6) 0.5509(12)
O79? O 0.2758(12) 0.1965(5) 0.5223(18)
O80? O 0.5684(8) 0.4893(9) 0.5298(17)
O81? O 0.5432(9) 0.5263(7) 0.5997(10)
O82? O 0.5072(11) 0.4518(6) 0.5497(14)
O83? O 0.5230(10) 0.4815(8) 0.5959(11)
O84? O 0.5759(6) 0.5064(7) 0.5526(13)
O85? O 0.4955(12) 0.5530(5) 0.5226(18)
O86? O 0.4694(10) 0.4751(7) 0.5353(15)
O87? O 0.4669(10) 0.5498(5) 0.4858(14)
O88? O 0.5633(9) 0.5162(8) 0.6063(10)
O89? O 0.786(4) 0.615(3) 0.780(6)
O90? O 0.7966(10) 0.5165(7) 0.7274(11)
O91? O 0.7836(10) 0.6289(8) 0.7995(13)
O92? O 0.7506(11) 0.6502(8) 0.9212(15)
O93? O 0.3952(5) 0.1629(3) 0.7472(7)
O94? O 0.4542(9) 0.1354(5) 0.8712(14)
O95? O 0.650(2) 0.6219(14) 0.890(3)
O96? O 0.8896(8) 0.6191(9) 0.9026(15)
O97? O 0.1668(9) 0.5613(8) 0.2361(17)
O98? O 0.5099(11) 0.3506(5) 0.2732(10)
O99? O -0.001(2) 0.4956(14) 0.062(3)
O100? O 0.3112(11) 0.2093(8) 0.2020(15)
O101? O 0.0603(11) 0.4603(7) 0.4209(15)
O102? O 0.3158(4) 0.1267(4) 0.4577(5)
O103? O 0.3232(17) 0.3002(13) 0.254(2)
O104? O 0.2780(16) 0.2642(11) 0.362(2)
O105? O 0.585(2) 0.4063(16) 0.533(3)
O106? O 0.670(2) 0.3023(14) 0.596(3)
O107? O 0.5685(14) 0.2982(7) 0.3760(15)
O108? O 0.2706(12) 0.1090(9) 0.247(2)
loop_
_geom_bond_atom_site_label_1
_geom_bond_atom_site_label_2
_geom_bond_site_symmetry_1
_geom_bond_site_symmetry_2
C1 Br1 1_555 1_555
Br1 Br3A 1_555 1_555
Br2 C1 1_555 1_555
Br3 C1 1_555 1_555
Br4 C1 1_555 1_555
Ni1 N1 1_555 1_555
Ni2 N3 1_555 1_555
S1 O1 1_555 1_555
O2 S1 1_555 1_555
O3 S1 1_555 1_555
N1 C2 1_555 1_555
N2 Ni1 1_555 1_555
C2 H1 1_555 1_555
C3 C2 1_555 1_555
H2 C3 1_555 1_555
C4 C3 1_555 1_555
H3 C4 1_555 1_555
C5 C4 1_555 1_555
H4 C5 1_555 1_555
C6 N1 1_555 1_555
C7 N2 1_555 1_555
H5 C7 1_555 1_555
C8 N2 1_555 1_555
C9 C8 1_555 1_555
H6 C9 1_555 1_555
C10 S1 1_555 1_555
C11 C10 1_555 1_555
C12 C11 1_555 1_555
H7 C12 1_555 1_555
C13 C8 1_555 1_555
H8 C13 1_555 1_555
S2 O4 1_555 1_555
O5 S2 1_555 1_555
O6 S2 1_555 1_555
N3 C14 1_555 1_555
N4 Ni2 1_555 1_555
C14 H9 1_555 1_555
C15 C14 1_555 1_555
H10 C15 1_555 1_555
C16 C15 1_555 1_555
H11 C16 1_555 1_555
C17 C16 1_555 1_555
H12 C17 1_555 1_555
C18 N3 1_555 1_555
C19 N4 1_555 1_555
H13 C19 1_555 1_555
C20 N4 1_555 1_555
C21 C20 1_555 1_555
H14 C21 1_555 1_555
C22 S2 1_555 1_555
C23 C11 1_555 1_555
C24 C23 1_555 1_555
H15 C24 1_555 1_555
C25 C20 1_555 1_555
H16 C25 1_555 1_555
S3 O7 1_555 1_555
O8 S3 1_555 1_555
O9 S3 1_555 1_555
N5 Ni1 1_555 1_555
N6 Ni1 1_555 1_555
C26 N5 1_555 1_555
H17 C26 1_555 1_555
C27 C26 1_555 1_555
H18 C27 1_555 1_555
C28 C27 1_555 1_555
H19 C28 1_555 1_555
C29 C28 1_555 1_555
H20 C29 1_555 1_555
C30 N5 1_555 1_555
C31 N6 1_555 1_555
H21 C31 1_555 1_555
C32 N6 1_555 1_555
C33 C32 1_555 1_555
H22 C33 1_555 1_555
C34 S3 1_555 1_555
C35 C34 1_555 1_555
C36 C35 1_555 1_555
H23 C36 1_555 1_555
C37 C32 1_555 1_555
H24 C37 1_555 1_555
S4 O10 1_555 1_555
O11 S4 1_555 1_555
O12 S4 1_555 1_555
N7 C38 1_555 1_555
N8 C43 1_555 1_555
C38 H25 1_555 1_555
C39 C38 1_555 1_555
H26 C39 1_555 1_555
C40 C39 1_555 1_555
H27 C40 1_555 1_555
C41 C40 1_555 1_555
H28 C41 1_555 1_555
C42 N7 1_555 1_555
C43 C42 1_555 1_555
H29 C43 1_555 1_555
C44 N8 1_555 1_555
C45 C44 1_555 1_555
H30 C45 1_555 1_555
C46 S4 1_555 1_555
C47 C35 1_555 1_555
C48 C47 1_555 1_555
H31 C48 1_555 1_555
C49 C44 1_555 1_555
H32 C49 1_555 1_555
S5 O13 1_555 1_555
O14 S5 1_555 1_555
O15 S5 1_555 1_555
N9 Ni1 1_555 1_555
N10 Ni1 1_555 1_555
C50 N9 1_555 1_555
H33 C50 1_555 1_555
C51 C50 1_555 1_555
H34 C51 1_555 1_555
C52 C51 1_555 1_555
H35 C52 1_555 1_555
C53 C52 1_555 1_555
H36 C53 1_555 1_555
C54 N9 1_555 1_555
C55 N10 1_555 1_555
H37 C55 1_555 1_555
C56 N10 1_555 1_555
C57 C56 1_555 1_555
H38 C57 1_555 1_555
C58 S5 1_555 1_555
C59 C58 1_555 1_555
C60 C59 1_555 1_555
H39 C60 1_555 1_555
C61 C56 1_555 1_555
H40 C61 1_555 1_555
S6 O16 1_555 1_555
O17 S6 1_555 1_555
O18 S6 1_555 1_555
N11 Ni2 1_555 1_555
N12 Ni2 1_555 1_555
C62 N11 1_555 1_555
H41 C62 1_555 1_555
C63 C62 1_555 1_555
H42 C63 1_555 1_555
C64 C63 1_555 1_555
H43 C64 1_555 1_555
C65 C64 1_555 1_555
H44 C65 1_555 1_555
C66 N11 1_555 1_555
C67 N12 1_555 1_555
H45 C67 1_555 1_555
C68 N12 1_555 1_555
C69 C68 1_555 1_555
H46 C69 1_555 1_555
C70 S6 1_555 1_555
C71 C70 1_555 1_555
C72 C71 1_555 1_555
H47 C72 1_555 1_555
C73 C68 1_555 1_555
H48 C73 1_555 1_555
Ni3 O19 1_555 1_555
O20 Ni3 1_555 1_555
O21 Ni3 1_555 1_555
Ni4 O22 1_555 1_555
O23 Ni4 1_555 1_555
O24 Ni4 1_555 1_555
C1A Br2 1_555 1_555
Br1A Br3 1_555 1_555
Br2A C1 1_555 1_555
Br3A C1 1_555 1_555
Br4A C1 1_555 1_555
S5A O13A 1_555 1_555
O14A S5A 1_555 1_555
O15A S5A 1_555 1_555
N9A C50A 1_555 1_555
N10A C55A 1_555 1_555
C50A H33A 1_555 1_555
C51A C50A 1_555 1_555
H34A C51A 1_555 1_555
C52A C51A 1_555 1_555
H35A C52A 1_555 1_555
C53A C52A 1_555 1_555
H36A C53A 1_555 1_555
C54A N9A 1_555 1_555
C55A C54A 1_555 1_555
H37A C55A 1_555 1_555
C56A N10A 1_555 1_555
C57A C56A 1_555 1_555
H38A C57A 1_555 1_555
C58A S5A 1_555 1_555
C59A C59 1_555 1_555
C60A C59A 1_555 1_555
H39A C60A 1_555 1_555
C61A C56A 1_555 1_555
H40A C61A 1_555 1_555
S6A O16A 1_555 1_555
O17A S6A 1_555 1_555
O18A S6A 1_555 1_555
N11A C62A 1_555 1_555
N12A C67A 1_555 1_555
C62A H41A 1_555 1_555
C63A C62A 1_555 1_555
H42A C63A 1_555 1_555
C64A C63A 1_555 1_555
H43A C64A 1_555 1_555
C65A C64A 1_555 1_555
H44A C65A 1_555 1_555
C66A N11A 1_555 1_555
C67A C66A 1_555 1_555
H45A C67A 1_555 1_555
C68A N12A 1_555 1_555
C69A C68A 1_555 1_555
H46A C69A 1_555 1_555
C70A S6A 1_555 1_555
C71A C71 1_555 1_555
C72A C71A 1_555 1_555
H47A C72A 1_555 1_555
C73A C68A 1_555 1_555
H48A C73A 1_555 1_555
Ni1A N9A 1_555 1_555
Ni2A N7 1_555 1_555
S1A O1A 1_555 1_555
O2A S1A 1_555 1_555
O3A S1A 1_555 1_555
N1A Ni1A 1_555 1_555
N2A Ni1A 1_555 1_555
C2A N1A 1_555 1_555
H1A C2A 1_555 1_555
C3A C2A 1_555 1_555
H2A C3A 1_555 1_555
C4A C3A 1_555 1_555
H3A C4A 1_555 1_555
C5A C4A 1_555 1_555
H4A C5A 1_555 1_555
C6A N1A 1_555 1_555
C7A N2A 1_555 1_555
H5A C7A 1_555 1_555
C8A N2A 1_555 1_555
C9A C8A 1_555 1_555
H6A C9A 1_555 1_555
C10A S1A 1_555 1_555
C11A C10A 1_555 1_555
C12A C11A 1_555 1_555
H7A C12A 1_555 1_555
C13A C8A 1_555 1_555
H8A C13A 1_555 1_555
S2A O4A 1_555 1_555
O5A S2A 1_555 1_555
O6A S2A 1_555 1_555
N3A Ni2A 1_555 1_555
N4A Ni2A 1_555 1_555
C14A N3A 1_555 1_555
H9A C14A 1_555 1_555
C15A C14A 1_555 1_555
H10A C15A 1_555 1_555
C16A C15A 1_555 1_555
H11A C16A 1_555 1_555
C17A C16A 1_555 1_555
H12A C17A 1_555 1_555
C18A N3A 1_555 1_555
C19A N4A 1_555 1_555
H13A C19A 1_555 1_555
C20A N4A 1_555 1_555
C21A C20A 1_555 1_555
H14A C21A 1_555 1_555
C22A S2A 1_555 1_555
C23A C11A 1_555 1_555
C24A C23A 1_555 1_555
H15A C24A 1_555 1_555
C25A C20A 1_555 1_555
H16A C25A 1_555 1_555
S3A O7A 1_555 1_555
O8A S3A 1_555 1_555
O9A S3A 1_555 1_555
N5A Ni1A 1_555 1_555
N6A Ni1A 1_555 1_555
C26A N5A 1_555 1_555
H17A C26A 1_555 1_555
C27A C26A 1_555 1_555
H18A C27A 1_555 1_555
C28A C27A 1_555 1_555
H19A C28A 1_555 1_555
C29A C28A 1_555 1_555
H20A C29A 1_555 1_555
C30A N5A 1_555 1_555
C31A N6A 1_555 1_555
H21A C31A 1_555 1_555
C32A N6A 1_555 1_555
C33A C32A 1_555 1_555
H22A C33A 1_555 1_555
C34A S3A 1_555 1_555
C35A C34A 1_555 1_555
C36A C35A 1_555 1_555
H23A C36A 1_555 1_555
C37A C32A 1_555 1_555
H24A C37A 1_555 1_555
S4A O10A 1_555 1_555
O11A S4A 1_555 1_555
O12A S4A 1_555 1_555
N7A Ni2 1_555 1_555
N8A Ni2 1_555 1_555
C38A N7A 1_555 1_555
H25A C38A 1_555 1_555
C39A C38A 1_555 1_555
H26A C39A 1_555 1_555
C40A C39A 1_555 1_555
H27A C40A 1_555 1_555
C41A C40A 1_555 1_555
H28A C41A 1_555 1_555
C42A N7A 1_555 1_555
C43A N8A 1_555 1_555
H29A C43A 1_555 1_555
C44A N8A 1_555 1_555
C45A C44A 1_555 1_555
H30A C45A 1_555 1_555
C46A S4A 1_555 1_555
C47A C35A 1_555 1_555
C48A C47A 1_555 1_555
H31A C48A 1_555 1_555
C49A C44A 1_555 1_555
H32A C49A 1_555 1_555
O19F Ni3 1_555 1_555
O20F Ni3 1_555 1_555
O21F Ni3 1_555 1_555
O22D Ni4 1_555 1_555
O23D Ni4 1_555 1_555
O24D Ni4 1_555 1_555
Br1 Br4A 1_555 1_555
Br2 Br2A 1_555 1_555
Br2 Br3A 1_555 1_555
Br3 C1A 1_555 1_555
Br3 Br2A 1_555 1_555
Br3 Br4A 1_555 1_555
Br4 C1A 1_555 1_555
Br4 Br1A 1_555 1_555
Br4 Br3A 1_555 1_555
C5 C6 1_555 1_555
C6 C7 1_555 1_555
C9 C10 1_555 1_555
C12 C13 1_555 1_555
C17 C18 1_555 1_555
C18 C19 1_555 1_555
C21 C22 1_555 1_555
C22 C23 1_555 1_555
C24 C25 1_555 1_555
C29 C30 1_555 1_555
C30 C31 1_555 1_555
C33 C34 1_555 1_555
C36 C37 1_555 1_555
N8 Ni2A 1_555 1_555
C41 C42 1_555 1_555
C45 C46 1_555 1_555
C46 C47 1_555 1_555
C48 C49 1_555 1_555
C53 C54 1_555 1_555
C54 C55 1_555 1_555
C57 C58 1_555 1_555
C60 C61 1_555 1_555
C65 C66 1_555 1_555
C66 C67 1_555 1_555
C69 C70 1_555 1_555
C72 C73 1_555 1_555
C1A Br1A 1_555 1_555
C1A Br2A 1_555 1_555
C1A Br3A 1_555 1_555
C1A Br4A 1_555 1_555
N10A Ni1A 1_555 1_555
C53A C54A 1_555 1_555
C57A C58A 1_555 1_555
C58A C59A 1_555 1_555
C60A C61A 1_555 1_555
N11A Ni2A 1_555 1_555
N12A Ni2A 1_555 1_555
C65A C66A 1_555 1_555
C69A C70A 1_555 1_555
C70A C71A 1_555 1_555
C72A C73A 1_555 1_555
C5A C6A 1_555 1_555
C6A C7A 1_555 1_555
C9A C10A 1_555 1_555
C12A C13A 1_555 1_555
C17A C18A 1_555 1_555
C18A C19A 1_555 1_555
C21A C22A 1_555 1_555
C22A C23A 1_555 1_555
C24A C25A 1_555 1_555
C29A C30A 1_555 1_555
C30A C31A 1_555 1_555
C33A C34A 1_555 1_555
C36A C37A 1_555 1_555
C41A C42A 1_555 1_555
C42A C43A 1_555 1_555
C45A C46A 1_555 1_555
C46A C47A 1_555 1_555
C48A C49A 1_555 1_555

#END
