# generated using pymatgen
data_Ni6H96C147S12N24(Cl8O121)2
_symmetry_space_group_name_H-M   'P 1'
_cell_length_a   25.68260000
_cell_length_b   25.69208850
_cell_length_c   25.69208850
_cell_angle_alpha   89.99968462
_cell_angle_beta   119.99252715
_cell_angle_gamma   119.99252715
_symmetry_Int_Tables_number   1
_chemical_formula_structural   Ni6H96C147S12N24(Cl8O121)2
_chemical_formula_sum   'Ni12 H192 C294 S24 N48 Cl32 O484'
_cell_volume   11990.08003723
_cell_formula_units_Z   2
loop_
 _symmetry_equiv_pos_site_id
 _symmetry_equiv_pos_as_xyz
  1  'x, y, z'
loop_
 _atom_site_type_symbol
 _atom_site_label
 _atom_site_symmetry_multiplicity
 _atom_site_fract_x
 _atom_site_fract_y
 _atom_site_fract_z
 _atom_site_occupancy
  C  C1  1  0.250000  0.872300  0.127700  1
  C  C2  1  0.750000  0.127700  0.872300  1
  C  C3  1  0.256500  0.883800  0.128600  1
  C  C4  1  0.243500  0.871400  0.116200  1
  C  C5  1  0.743500  0.116200  0.871400  1
  C  C6  1  0.756500  0.128600  0.883800  1
  C  C7  1  0.542000  0.359680  0.189320  1.0
  C  C8  1  0.958000  0.810680  0.640320  1.0
  C  C9  1  0.458000  0.640320  0.810680  1.0
  C  C10  1  0.042000  0.189320  0.359680  1.0
  C  C11  1  0.566700  0.389600  0.154000  1.0
  C  C12  1  0.933300  0.846000  0.610400  1.0
  C  C13  1  0.433300  0.610400  0.846000  1.0
  C  C14  1  0.066700  0.154000  0.389600  1.0
  C  C15  1  0.590200  0.365700  0.128900  1.0
  C  C16  1  0.909800  0.871100  0.634300  1.0
  C  C17  1  0.409800  0.634300  0.871100  1.0
  C  C18  1  0.090200  0.128900  0.365700  1.0
  C  C19  1  0.587900  0.312500  0.139700  1.0
  C  C20  1  0.912100  0.860300  0.687500  1.0
  C  C21  1  0.412100  0.687500  0.860300  1.0
  C  C22  1  0.087900  0.139700  0.312500  1.0
  C  C23  1  0.562300  0.285090  0.174910  1.0
  C  C24  1  0.937700  0.825090  0.714910  1.0
  C  C25  1  0.437700  0.714910  0.825090  1.0
  C  C26  1  0.062300  0.174910  0.285090  1.0
  C  C27  1  0.557100  0.227730  0.187470  1.0
  C  C28  1  0.942900  0.812530  0.772270  1.0
  C  C29  1  0.442900  0.772270  0.812530  1.0
  C  C30  1  0.057100  0.187470  0.227730  1.0
  C  C31  1  0.527200  0.147870  0.231130  1.0
  C  C32  1  0.972800  0.768870  0.852130  1.0
  C  C33  1  0.472800  0.852130  0.768870  1.0
  C  C34  1  0.027200  0.231130  0.147870  1.0
  C  C35  1  0.567400  0.149740  0.293260  1.0
  C  C36  1  0.932600  0.706740  0.850260  1.0
  C  C37  1  0.432600  0.850260  0.706740  1.0
  C  C38  1  0.067400  0.293260  0.149740  1.0
  C  C39  1  0.565800  0.096720  0.306080  1.0
  C  C40  1  0.934200  0.693920  0.903280  1.0
  C  C41  1  0.434200  0.903280  0.693920  1.0
  C  C42  1  0.065800  0.306080  0.096720  1.0
  C  C43  1  0.523300  0.039710  0.255490  1.0
  C  C44  1  0.976700  0.744510  0.960290  1.0
  C  C45  1  0.476700  0.960290  0.744510  1.0
  C  C46  1  0.023300  0.255490  0.039710  1.0
  C  C47  1  0.482100  0.039200  0.194800  1.0
  C  C48  1  0.017900  0.805200  0.960800  1.0
  C  C49  1  0.517900  0.960800  0.805200  1.0
  C  C50  1  0.982100  0.194800  0.039200  1.0
  C  C51  1  0.483800  0.091990  0.182210  1.0
  C  C52  1  0.016200  0.817790  0.908010  1.0
  C  C53  1  0.516200  0.908010  0.817790  1.0
  C  C54  1  0.983800  0.182210  0.091990  1.0
  C  C55  1  0.541500  0.682330  0.352270  1.0
  C  C56  1  0.958500  0.647730  0.317670  1.0
  C  C57  1  0.458500  0.317670  0.647730  1.0
  C  C58  1  0.041500  0.352270  0.682330  1.0
  C  C59  1  0.566100  0.677000  0.412800  1.0
  C  C60  1  0.933900  0.587200  0.323000  1.0
  C  C61  1  0.433900  0.323000  0.587200  1.0
  C  C62  1  0.066100  0.412800  0.677000  1.0
  C  C63  1  0.590100  0.724300  0.461300  1.0
  C  C64  1  0.909900  0.538700  0.275700  1.0
  C  C65  1  0.409900  0.275700  0.538700  1.0
  C  C66  1  0.090100  0.461300  0.724300  1.0
  C  C67  1  0.588000  0.775700  0.448100  1.0
  C  C68  1  0.912000  0.551900  0.224300  1.0
  C  C69  1  0.412000  0.224300  0.551900  1.0
  C  C70  1  0.088000  0.448100  0.775700  1.0
  C  C71  1  0.562400  0.777270  0.387330  1.0
  C  C72  1  0.937600  0.612670  0.222730  1.0
  C  C73  1  0.437600  0.222730  0.612670  1.0
  C  C74  1  0.062400  0.387330  0.777270  1.0
  C  C75  1  0.557300  0.829300  0.369300  1.0
  C  C76  1  0.942700  0.630700  0.170700  1.0
  C  C77  1  0.442700  0.170700  0.630700  1.0
  C  C78  1  0.057300  0.369300  0.829300  1.0
  C  C79  1  0.527000  0.879290  0.295510  1.0
  C  C80  1  0.973000  0.704490  0.120710  1.0
  C  C81  1  0.473000  0.120710  0.704490  1.0
  C  C82  1  0.027000  0.295510  0.879290  1.0
  C  C83  1  0.567500  0.917340  0.273860  1.0
  C  C84  1  0.932500  0.726140  0.082660  1.0
  C  C85  1  0.432500  0.082660  0.726140  1.0
  C  C86  1  0.067500  0.273860  0.917340  1.0
  C  C87  1  0.566400  0.969030  0.259970  1.0
  C  C88  1  0.933600  0.740030  0.030970  1.0
  C  C89  1  0.433600  0.030970  0.740030  1.0
  C  C90  1  0.066400  0.259970  0.969030  1.0
  C  C91  1  0.523700  0.982830  0.267370  1.0
  C  C92  1  0.976300  0.732630  0.017170  1.0
  C  C93  1  0.476300  0.017170  0.732630  1.0
  C  C94  1  0.023700  0.267370  0.982830  1.0
  C  C95  1  0.482000  0.942700  0.287100  1.0
  C  C96  1  0.018000  0.712900  0.057300  1.0
  C  C97  1  0.518000  0.057300  0.712900  1.0
  C  C98  1  0.982000  0.287100  0.942700  1.0
  C  C99  1  0.483200  0.891640  0.300560  1.0
  C  C100  1  0.016800  0.699440  0.108360  1.0
  C  C101  1  0.516800  0.108360  0.699440  1.0
  C  C102  1  0.983200  0.300560  0.891640  1.0
  C  C103  1  0.670100  0.359300  0.352500  1.0
  C  C104  1  0.829900  0.647500  0.640700  1.0
  C  C105  1  0.329900  0.640700  0.647500  1.0
  C  C106  1  0.170100  0.352500  0.359300  1.0
  C  C107  1  0.735100  0.388900  0.412700  1.0
  C  C108  1  0.764900  0.587300  0.611100  1.0
  C  C109  1  0.264900  0.611100  0.587300  1.0
  C  C110  1  0.235100  0.412700  0.388900  1.0
  C  C111  1  0.737000  0.365400  0.461200  1.0
  C  C112  1  0.763000  0.538800  0.634600  1.0
  C  C113  1  0.263000  0.634600  0.538800  1.0
  C  C114  1  0.237000  0.461200  0.365400  1.0
  C  C115  1  0.671900  0.312000  0.447400  1.0
  C  C116  1  0.828100  0.552600  0.688000  1.0
  C  C117  1  0.328100  0.688000  0.552600  1.0
  C  C118  1  0.171900  0.447400  0.312000  1.0
  C  C119  1  0.609800  0.284780  0.387020  1.0
  C  C120  1  0.890200  0.612980  0.715220  1.0
  C  C121  1  0.390200  0.715220  0.612980  1.0
  C  C122  1  0.109800  0.387020  0.284780  1.0
  C  C123  1  0.539800  0.227180  0.369220  1.0
  C  C124  1  0.960200  0.630780  0.772820  1.0
  C  C125  1  0.460200  0.772820  0.630780  1.0
  C  C126  1  0.039800  0.369220  0.227180  1.0
  C  C127  1  0.416900  0.148090  0.295910  1.0
  C  C128  1  0.083100  0.704090  0.851910  1.0
  C  C129  1  0.583100  0.851910  0.704090  1.0
  C  C130  1  0.916900  0.295910  0.148090  1.0
  C  C131  1  0.356900  0.149760  0.274640  1.0
  C  C132  1  0.143100  0.725360  0.850240  1.0
  C  C133  1  0.643100  0.850240  0.725360  1.0
  C  C134  1  0.856900  0.274640  0.149760  1.0
  C  C135  1  0.291100  0.096950  0.260250  1.0
  C  C136  1  0.208900  0.739750  0.903050  1.0
  C  C137  1  0.708900  0.903050  0.739750  1.0
  C  C138  1  0.791100  0.260250  0.096950  1.0
  C  C139  1  0.284500  0.040510  0.267490  1.0
  C  C140  1  0.215500  0.732510  0.959490  1.0
  C  C141  1  0.715500  0.959490  0.732510  1.0
  C  C142  1  0.784500  0.267490  0.040510  1.0
  C  C143  1  0.344500  0.039100  0.287500  1.0
  C  C144  1  0.155500  0.712500  0.960900  1.0
  C  C145  1  0.655500  0.960900  0.712500  1.0
  C  C146  1  0.844500  0.287500  0.039100  1.0
  C  C147  1  0.409700  0.091480  0.301120  1.0
  C  C148  1  0.090300  0.698880  0.908520  1.0
  C  C149  1  0.590300  0.908520  0.698880  1.0
  C  C150  1  0.909700  0.301120  0.091480  1.0
  C  C151  1  0.829900  0.682400  0.189200  1.0
  C  C152  1  0.670100  0.810800  0.317600  1.0
  C  C153  1  0.170100  0.317600  0.810800  1.0
  C  C154  1  0.329900  0.189200  0.682400  1.0
  C  C155  1  0.764400  0.677400  0.153600  1.0
  C  C156  1  0.735600  0.846400  0.322600  1.0
  C  C157  1  0.235600  0.322600  0.846400  1.0
  C  C158  1  0.264400  0.153600  0.677400  1.0
  C  C159  1  0.762600  0.723900  0.128300  1.0
  C  C160  1  0.737400  0.871700  0.276100  1.0
  C  C161  1  0.237400  0.276100  0.871700  1.0
  C  C162  1  0.262600  0.128300  0.723900  1.0
  C  C163  1  0.827400  0.775700  0.140100  1.0
  C  C164  1  0.672600  0.859900  0.224300  1.0
  C  C165  1  0.172600  0.224300  0.859900  1.0
  C  C166  1  0.327400  0.140100  0.775700  1.0
  C  C167  1  0.890500  0.777620  0.175580  1.0
  C  C168  1  0.609500  0.824420  0.222380  1.0
  C  C169  1  0.109500  0.222380  0.824420  1.0
  C  C170  1  0.390500  0.175580  0.777620  1.0
  C  C171  1  0.959900  0.829160  0.187640  1.0
  C  C172  1  0.540100  0.812360  0.170840  1.0
  C  C173  1  0.040100  0.170840  0.812360  1.0
  C  C174  1  0.459900  0.187640  0.829160  1.0
  C  C175  1  0.083600  0.879440  0.231360  1.0
  C  C176  1  0.416400  0.768640  0.120560  1.0
  C  C177  1  0.916400  0.120560  0.768640  1.0
  C  C178  1  0.583600  0.231360  0.879440  1.0
  C  C179  1  0.143600  0.917480  0.293520  1.0
  C  C180  1  0.356400  0.706480  0.082520  1.0
  C  C181  1  0.856400  0.082520  0.706480  1.0
  C  C182  1  0.643600  0.293520  0.917480  1.0
  C  C183  1  0.209400  0.969180  0.306020  1.0
  C  C184  1  0.290600  0.693980  0.030820  1.0
  C  C185  1  0.790600  0.030820  0.693980  1.0
  C  C186  1  0.709400  0.306020  0.969180  1.0
  C  C187  1  0.215300  0.983000  0.256200  1.0
  C  C188  1  0.284700  0.743800  0.017000  1.0
  C  C189  1  0.784700  0.017000  0.743800  1.0
  C  C190  1  0.715300  0.256200  0.983000  1.0
  C  C191  1  0.155600  0.943000  0.194200  1.0
  C  C192  1  0.344400  0.805800  0.057000  1.0
  C  C193  1  0.844400  0.057000  0.805800  1.0
  C  C194  1  0.655600  0.194200  0.943000  1.0
  C  C195  1  0.089900  0.891600  0.182000  1.0
  C  C196  1  0.410100  0.818000  0.108400  1.0
  C  C197  1  0.910100  0.108400  0.818000  1.0
  C  C198  1  0.589900  0.182000  0.891600  1.0
  C  C199  1  0.506700  0.359100  0.317500  1.0
  C  C200  1  0.993300  0.682500  0.640900  1.0
  C  C201  1  0.493300  0.640900  0.682500  1.0
  C  C202  1  0.006700  0.317500  0.359100  1.0
  C  C203  1  0.476700  0.389200  0.322800  1.0
  C  C204  1  0.023300  0.677200  0.610800  1.0
  C  C205  1  0.523300  0.610800  0.677200  1.0
  C  C206  1  0.976700  0.322800  0.389200  1.0
  C  C207  1  0.404300  0.365700  0.275500  1.0
  C  C208  1  0.095700  0.724500  0.634300  1.0
  C  C209  1  0.595700  0.634300  0.724500  1.0
  C  C210  1  0.904300  0.275500  0.365700  1.0
  C  C211  1  0.364300  0.312200  0.224200  1.0
  C  C212  1  0.135700  0.775800  0.687800  1.0
  C  C213  1  0.635700  0.687800  0.775800  1.0
  C  C214  1  0.864300  0.224200  0.312200  1.0
  C  C215  1  0.397700  0.284980  0.222620  1.0
  C  C216  1  0.102300  0.777380  0.715020  1.0
  C  C217  1  0.602300  0.715020  0.777380  1.0
  C  C218  1  0.897700  0.222620  0.284980  1.0
  C  C219  1  0.358200  0.227660  0.170540  1.0
  C  C220  1  0.141800  0.829460  0.772340  1.0
  C  C221  1  0.641800  0.772340  0.829460  1.0
  C  C222  1  0.858200  0.170540  0.227660  1.0
  C  C223  1  0.352100  0.147490  0.120710  1.0
  C  C224  1  0.147900  0.879290  0.852510  1.0
  C  C225  1  0.647900  0.852510  0.879290  1.0
  C  C226  1  0.852100  0.120710  0.147490  1.0
  C  C227  1  0.375900  0.150070  0.082730  1.0
  C  C228  1  0.124100  0.917270  0.849930  1.0
  C  C229  1  0.624100  0.849930  0.917270  1.0
  C  C230  1  0.875900  0.082730  0.150070  1.0
  C  C231  1  0.336600  0.096850  0.030750  1.0
  C  C232  1  0.163400  0.969250  0.903150  1.0
  C  C233  1  0.663400  0.903150  0.969250  1.0
  C  C234  1  0.836600  0.030750  0.096850  1.0
  C  C235  1  0.273000  0.040380  0.016820  1.0
  C  C236  1  0.227000  0.983180  0.959620  1.0
  C  C237  1  0.727000  0.959620  0.983180  1.0
  C  C238  1  0.773000  0.016820  0.040380  1.0
  C  C239  1  0.251700  0.038610  0.056790  1.0
  C  C240  1  0.248300  0.943210  0.961390  1.0
  C  C241  1  0.748300  0.961390  0.943210  1.0
  C  C242  1  0.751700  0.056790  0.038610  1.0
  C  C243  1  0.290500  0.091460  0.108540  1.0
  C  C244  1  0.209500  0.891460  0.908540  1.0
  C  C245  1  0.709500  0.908540  0.891460  1.0
  C  C246  1  0.790500  0.108540  0.091460  1.0
  C  C247  1  0.507100  0.647600  0.189000  1.0
  C  C248  1  0.992900  0.811000  0.352400  1.0
  C  C249  1  0.492900  0.352400  0.811000  1.0
  C  C250  1  0.007100  0.189000  0.647600  1.0
  C  C251  1  0.476900  0.587300  0.153900  1.0
  C  C252  1  0.023100  0.846100  0.412700  1.0
  C  C253  1  0.523100  0.412700  0.846100  1.0
  C  C254  1  0.976900  0.153900  0.587300  1.0
  C  C255  1  0.404000  0.538333  0.128333  1.0
  C  C256  1  0.096000  0.871667  0.461667  1.0
  C  C257  1  0.596000  0.461667  0.871667  1.0
  C  C258  1  0.904000  0.128333  0.538333  1.0
  C  C259  1  0.364100  0.551600  0.140000  1.0
  C  C260  1  0.135900  0.860000  0.448400  1.0
  C  C261  1  0.635900  0.448400  0.860000  1.0
  C  C262  1  0.864100  0.140000  0.551600  1.0
  C  C263  1  0.398000  0.613000  0.175200  1.0
  C  C264  1  0.102000  0.824800  0.387000  1.0
  C  C265  1  0.602000  0.387000  0.824800  1.0
  C  C266  1  0.898000  0.175200  0.613000  1.0
  C  C267  1  0.358200  0.630690  0.187710  1.0
  C  C268  1  0.141800  0.812290  0.369310  1.0
  C  C269  1  0.641800  0.369310  0.812290  1.0
  C  C270  1  0.858200  0.187710  0.630690  1.0
  C  C271  1  0.352200  0.704310  0.231290  1.0
  C  C272  1  0.147800  0.768710  0.295690  1.0
  C  C273  1  0.647800  0.295690  0.768710  1.0
  C  C274  1  0.852200  0.231290  0.704310  1.0
  C  C275  1  0.375800  0.725960  0.292840  1.0
  C  C276  1  0.124200  0.707160  0.274040  1.0
  C  C277  1  0.624200  0.274040  0.707160  1.0
  C  C278  1  0.875800  0.292840  0.725960  1.0
  C  C279  1  0.337000  0.740170  0.305830  1.0
  C  C280  1  0.163000  0.694170  0.259830  1.0
  C  C281  1  0.663000  0.259830  0.694170  1.0
  C  C282  1  0.837000  0.305830  0.740170  1.0
  C  C283  1  0.273200  0.732580  0.256020  1.0
  C  C284  1  0.226800  0.743980  0.267420  1.0
  C  C285  1  0.726800  0.267420  0.743980  1.0
  C  C286  1  0.773200  0.256020  0.732580  1.0
  C  C287  1  0.251800  0.712890  0.194710  1.0
  C  C288  1  0.248200  0.805290  0.287110  1.0
  C  C289  1  0.748200  0.287110  0.805290  1.0
  C  C290  1  0.751800  0.194710  0.712890  1.0
  C  C291  1  0.290600  0.698440  0.181960  1.0
  C  C292  1  0.209400  0.818040  0.301560  1.0
  C  C293  1  0.709400  0.301560  0.818040  1.0
  C  C294  1  0.790600  0.181960  0.698440  1.0
  Cl  Cl295  1  0.236800  0.856900  0.183300  1
  Cl  Cl296  1  0.263200  0.816700  0.143100  1
  Cl  Cl297  1  0.763200  0.143100  0.816700  1
  Cl  Cl298  1  0.736800  0.183300  0.856900  1
  Cl  Cl299  1  0.174300  0.856500  0.054500  1
  Cl  Cl300  1  0.325700  0.945500  0.143500  1
  Cl  Cl301  1  0.825700  0.143500  0.945500  1
  Cl  Cl302  1  0.674300  0.054500  0.856500  1
  Cl  Cl303  1  0.313000  0.967300  0.156500  1
  Cl  Cl304  1  0.187000  0.843500  0.032700  1
  Cl  Cl305  1  0.687000  0.032700  0.843500  1
  Cl  Cl306  1  0.813000  0.156500  0.967300  1
  Cl  Cl307  1  0.302500  0.855400  0.120800  1
  Cl  Cl308  1  0.197500  0.879200  0.144600  1
  Cl  Cl309  1  0.697500  0.144600  0.879200  1
  Cl  Cl310  1  0.802500  0.120800  0.855400  1
  Cl  Cl311  1  0.329800  0.877800  0.180000  1
  Cl  Cl312  1  0.170200  0.820000  0.122200  1
  Cl  Cl313  1  0.670200  0.122200  0.820000  1
  Cl  Cl314  1  0.829800  0.180000  0.877800  1
  Cl  Cl315  1  0.268100  0.946900  0.122100  1
  Cl  Cl316  1  0.231900  0.877900  0.053100  1
  Cl  Cl317  1  0.731900  0.053100  0.877900  1
  Cl  Cl318  1  0.768100  0.122100  0.946900  1
  Cl  Cl319  1  0.194300  0.844100  0.156500  1.0
  Cl  Cl320  1  0.305700  0.843500  0.155900  1.0
  Cl  Cl321  1  0.805700  0.155900  0.843500  1.0
  Cl  Cl322  1  0.694300  0.156500  0.844100  1.0
  Cl  Cl323  1  0.197700  0.818300  0.051900  1.0
  Cl  Cl324  1  0.302300  0.948100  0.181700  1.0
  Cl  Cl325  1  0.802300  0.181700  0.948100  1.0
  Cl  Cl326  1  0.697700  0.051900  0.818300  1.0
  H  H327  1  0.526400  0.376600  0.206800  1.0
  H  H328  1  0.973600  0.793200  0.623400  1.0
  H  H329  1  0.473600  0.623400  0.793200  1.0
  H  H330  1  0.026400  0.206800  0.376600  1.0
  H  H331  1  0.567600  0.426200  0.147000  1.0
  H  H332  1  0.932400  0.853000  0.573800  1.0
  H  H333  1  0.432400  0.573800  0.853000  1.0
  H  H334  1  0.067600  0.147000  0.426200  1.0
  H  H335  1  0.607700  0.385800  0.104800  1.0
  H  H336  1  0.892300  0.895200  0.614200  1.0
  H  H337  1  0.392300  0.614200  0.895200  1.0
  H  H338  1  0.107700  0.104800  0.385800  1.0
  H  H339  1  0.603600  0.294900  0.123100  1.0
  H  H340  1  0.896400  0.876900  0.705100  1.0
  H  H341  1  0.396400  0.705100  0.876900  1.0
  H  H342  1  0.103600  0.123100  0.294900  1.0
  H  H343  1  0.571800  0.208400  0.171600  1.0
  H  H344  1  0.928200  0.828400  0.791600  1.0
  H  H345  1  0.428200  0.791600  0.828400  1.0
  H  H346  1  0.071800  0.171600  0.208400  1.0
  H  H347  1  0.596300  0.187800  0.327600  1.0
  H  H348  1  0.903700  0.672400  0.812200  1.0
  H  H349  1  0.403700  0.812200  0.672400  1.0
  H  H350  1  0.096300  0.327600  0.187800  1.0
  H  H351  1  0.451300  0.001000  0.160000  1.0
  H  H352  1  0.048700  0.840000  0.999000  1.0
  H  H353  1  0.548700  0.999000  0.840000  1.0
  H  H354  1  0.951300  0.160000  0.001000  1.0
  H  H355  1  0.454900  0.089700  0.139500  1.0
  H  H356  1  0.045100  0.860500  0.910300  1.0
  H  H357  1  0.545100  0.910300  0.860500  1.0
  H  H358  1  0.954900  0.139500  0.089700  1.0
  H  H359  1  0.525800  0.649800  0.319200  1.0
  H  H360  1  0.974200  0.680800  0.350200  1.0
  H  H361  1  0.474200  0.350200  0.680800  1.0
  H  H362  1  0.025800  0.319200  0.649800  1.0
  H  H363  1  0.566400  0.640900  0.420500  1.0
  H  H364  1  0.933600  0.579500  0.359100  1.0
  H  H365  1  0.433600  0.359100  0.579500  1.0
  H  H366  1  0.066400  0.420500  0.640900  1.0
  H  H367  1  0.607600  0.721600  0.503000  1.0
  H  H368  1  0.892400  0.497000  0.278400  1.0
  H  H369  1  0.392400  0.278400  0.497000  1.0
  H  H370  1  0.107600  0.503000  0.721600  1.0
  H  H371  1  0.604000  0.809200  0.480400  1.0
  H  H372  1  0.896000  0.519600  0.190800  1.0
  H  H373  1  0.396000  0.190800  0.519600  1.0
  H  H374  1  0.104000  0.480400  0.809200  1.0
  H  H375  1  0.572400  0.863600  0.400000  1.0
  H  H376  1  0.927600  0.600000  0.136400  1.0
  H  H377  1  0.427600  0.136400  0.600000  1.0
  H  H378  1  0.072400  0.400000  0.863600  1.0
  H  H379  1  0.596200  0.908000  0.268400  1.0
  H  H380  1  0.903800  0.731600  0.092000  1.0
  H  H381  1  0.403800  0.092000  0.731600  1.0
  H  H382  1  0.096200  0.268400  0.908000  1.0
  H  H383  1  0.451800  0.950800  0.291400  1.0
  H  H384  1  0.048200  0.708600  0.049200  1.0
  H  H385  1  0.548200  0.049200  0.708600  1.0
  H  H386  1  0.951800  0.291400  0.950800  1.0
  H  H387  1  0.453400  0.864400  0.313400  1.0
  H  H388  1  0.046600  0.686600  0.135600  1.0
  H  H389  1  0.546600  0.135600  0.686600  1.0
  H  H390  1  0.953400  0.313400  0.864400  1.0
  H  H391  1  0.669800  0.376400  0.319600  1.0
  H  H392  1  0.830200  0.680400  0.623600  1.0
  H  H393  1  0.330200  0.623600  0.680400  1.0
  H  H394  1  0.169800  0.319600  0.376400  1.0
  H  H395  1  0.778800  0.425500  0.420500  1.0
  H  H396  1  0.721200  0.579500  0.574500  1.0
  H  H397  1  0.221200  0.574500  0.579500  1.0
  H  H398  1  0.278800  0.420500  0.425500  1.0
  H  H399  1  0.781400  0.385000  0.502800  1.0
  H  H400  1  0.718600  0.497200  0.615000  1.0
  H  H401  1  0.218600  0.615000  0.497200  1.0
  H  H402  1  0.281400  0.502800  0.385000  1.0
  H  H403  1  0.670600  0.294700  0.479700  1.0
  H  H404  1  0.829400  0.520300  0.705300  1.0
  H  H405  1  0.329400  0.705300  0.520300  1.0
  H  H406  1  0.170600  0.479700  0.294700  1.0
  H  H407  1  0.536200  0.207600  0.399800  1.0
  H  H408  1  0.963800  0.600200  0.792400  1.0
  H  H409  1  0.463800  0.792400  0.600200  1.0
  H  H410  1  0.036200  0.399800  0.207600  1.0
  H  H411  1  0.360800  0.188000  0.269800  1.0
  H  H412  1  0.139200  0.730200  0.812000  1.0
  H  H413  1  0.639200  0.812000  0.730200  1.0
  H  H414  1  0.860800  0.269800  0.188000  1.0
  H  H415  1  0.340700  0.000900  0.291900  1.0
  H  H416  1  0.159300  0.708100  0.999100  1.0
  H  H417  1  0.659300  0.999100  0.708100  1.0
  H  H418  1  0.840700  0.291900  0.000900  1.0
  H  H419  1  0.449800  0.088800  0.314200  1.0
  H  H420  1  0.050200  0.685800  0.911200  1.0
  H  H421  1  0.550200  0.911200  0.685800  1.0
  H  H422  1  0.949800  0.314200  0.088800  1.0
  H  H423  1  0.830200  0.649700  0.206300  1.0
  H  H424  1  0.669800  0.793700  0.350300  1.0
  H  H425  1  0.169800  0.350300  0.793700  1.0
  H  H426  1  0.330200  0.206300  0.649700  1.0
  H  H427  1  0.720800  0.641600  0.146800  1.0
  H  H428  1  0.779200  0.853200  0.358400  1.0
  H  H429  1  0.279200  0.358400  0.853200  1.0
  H  H430  1  0.220800  0.146800  0.641600  1.0
  H  H431  1  0.718000  0.720800  0.103400  1.0
  H  H432  1  0.782000  0.896600  0.279200  1.0
  H  H433  1  0.282000  0.279200  0.896600  1.0
  H  H434  1  0.218000  0.103400  0.720800  1.0
  H  H435  1  0.828500  0.809300  0.124100  1.0
  H  H436  1  0.671500  0.875900  0.190700  1.0
  H  H437  1  0.171500  0.190700  0.875900  1.0
  H  H438  1  0.328500  0.124100  0.809300  1.0
  H  H439  1  0.963300  0.863100  0.171300  1.0
  H  H440  1  0.536700  0.828700  0.136900  1.0
  H  H441  1  0.036700  0.136900  0.828700  1.0
  H  H442  1  0.463300  0.171300  0.863100  1.0
  H  H443  1  0.139800  0.908400  0.327800  1.0
  H  H444  1  0.360200  0.672200  0.091600  1.0
  H  H445  1  0.860200  0.091600  0.672200  1.0
  H  H446  1  0.639800  0.327800  0.908400  1.0
  H  H447  1  0.159700  0.950700  0.159900  1.0
  H  H448  1  0.340300  0.840100  0.049300  1.0
  H  H449  1  0.840300  0.049300  0.840100  1.0
  H  H450  1  0.659700  0.159900  0.950700  1.0
  H  H451  1  0.049300  0.864800  0.139400  1.0
  H  H452  1  0.450700  0.860600  0.135200  1.0
  H  H453  1  0.950700  0.135200  0.860600  1.0
  H  H454  1  0.549300  0.139400  0.864800  1.0
  H  H455  1  0.556500  0.375900  0.350100  1.0
  H  H456  1  0.943500  0.649900  0.624100  1.0
  H  H457  1  0.443500  0.624100  0.649900  1.0
  H  H458  1  0.056500  0.350100  0.375900  1.0
  H  H459  1  0.505600  0.425800  0.358600  1.0
  H  H460  1  0.994400  0.641400  0.574200  1.0
  H  H461  1  0.494400  0.574200  0.641400  1.0
  H  H462  1  0.005600  0.358600  0.425800  1.0
  H  H463  1  0.382600  0.385600  0.278200  1.0
  H  H464  1  0.117400  0.721800  0.614400  1.0
  H  H465  1  0.617400  0.614400  0.721800  1.0
  H  H466  1  0.882600  0.278200  0.385600  1.0
  H  H467  1  0.314500  0.294700  0.190700  1.0
  H  H468  1  0.185500  0.809300  0.705300  1.0
  H  H469  1  0.685500  0.705300  0.809300  1.0
  H  H470  1  0.814500  0.190700  0.294700  1.0
  H  H471  1  0.308200  0.208500  0.136300  1.0
  H  H472  1  0.191800  0.863700  0.791500  1.0
  H  H473  1  0.691800  0.791500  0.863700  1.0
  H  H474  1  0.808200  0.136300  0.208500  1.0
  H  H475  1  0.419200  0.188200  0.091800  1.0
  H  H476  1  0.080800  0.908200  0.811800  1.0
  H  H477  1  0.580800  0.811800  0.908200  1.0
  H  H478  1  0.919200  0.091800  0.188200  1.0
  H  H479  1  0.209400  0.000200  0.048800  1.0
  H  H480  1  0.290600  0.951200  0.999800  1.0
  H  H481  1  0.790600  0.999800  0.951200  1.0
  H  H482  1  0.709400  0.048800  0.000200  1.0
  H  H483  1  0.274600  0.089100  0.135500  1.0
  H  H484  1  0.225400  0.864500  0.910900  1.0
  H  H485  1  0.725400  0.910900  0.864500  1.0
  H  H486  1  0.774600  0.135500  0.089100  1.0
  H  H487  1  0.556900  0.680600  0.206000  1.0
  H  H488  1  0.943100  0.794000  0.319400  1.0
  H  H489  1  0.443100  0.319400  0.794000  1.0
  H  H490  1  0.056900  0.206000  0.680600  1.0
  H  H491  1  0.505800  0.579300  0.147100  1.0
  H  H492  1  0.994200  0.852900  0.420700  1.0
  H  H493  1  0.494200  0.420700  0.852900  1.0
  H  H494  1  0.005800  0.147100  0.579300  1.0
  H  H495  1  0.382100  0.496800  0.103600  1.0
  H  H496  1  0.117900  0.896400  0.503200  1.0
  H  H497  1  0.617900  0.503200  0.896400  1.0
  H  H498  1  0.882100  0.103600  0.496800  1.0
  H  H499  1  0.314500  0.519100  0.124300  1.0
  H  H500  1  0.185500  0.875700  0.480900  1.0
  H  H501  1  0.685500  0.480900  0.875700  1.0
  H  H502  1  0.814500  0.124300  0.519100  1.0
  H  H503  1  0.308200  0.600100  0.172100  1.0
  H  H504  1  0.191800  0.827900  0.399900  1.0
  H  H505  1  0.691800  0.399900  0.827900  1.0
  H  H506  1  0.808200  0.172100  0.600100  1.0
  H  H507  1  0.419200  0.731300  0.327100  1.0
  H  H508  1  0.080800  0.672900  0.268700  1.0
  H  H509  1  0.580800  0.268700  0.672900  1.0
  H  H510  1  0.919200  0.327100  0.731300  1.0
  H  H511  1  0.209600  0.709000  0.160200  1.0
  H  H512  1  0.290400  0.839800  0.291000  1.0
  H  H513  1  0.790400  0.291000  0.839800  1.0
  H  H514  1  0.709600  0.160200  0.709000  1.0
  H  H515  1  0.274500  0.684600  0.139200  1.0
  H  H516  1  0.225500  0.860800  0.315400  1.0
  H  H517  1  0.725500  0.315400  0.860800  1.0
  H  H518  1  0.774500  0.139200  0.684600  1.0
  N  N519  1  0.539200  0.307860  0.199680  1.0
  N  N520  1  0.960800  0.800320  0.692140  1.0
  N  N521  1  0.460800  0.692140  0.800320  1.0
  N  N522  1  0.039200  0.199680  0.307860  1.0
  N  N523  1  0.532200  0.204200  0.220380  1.0
  N  N524  1  0.967800  0.779620  0.795800  1.0
  N  N525  1  0.467800  0.795800  0.779620  1.0
  N  N526  1  0.032200  0.220380  0.204200  1.0
  N  N527  1  0.539400  0.731540  0.339460  1.0
  N  N528  1  0.960600  0.660540  0.268460  1.0
  N  N529  1  0.460600  0.268460  0.660540  1.0
  N  N530  1  0.039400  0.339460  0.731540  1.0
  N  N531  1  0.531900  0.827880  0.311320  1.0
  N  N532  1  0.968100  0.688680  0.172120  1.0
  N  N533  1  0.468100  0.172120  0.688680  1.0
  N  N534  1  0.031900  0.311320  0.827880  1.0
  N  N535  1  0.608000  0.307680  0.339220  1.0
  N  N536  1  0.892000  0.660780  0.692320  1.0
  N  N537  1  0.392000  0.692320  0.660780  1.0
  N  N538  1  0.108000  0.339220  0.307680  1.0
  N  N539  1  0.483700  0.204130  0.311490  1.0
  N  N540  1  0.016300  0.688510  0.795870  1.0
  N  N541  1  0.516300  0.795870  0.688510  1.0
  N  N542  1  0.983700  0.311490  0.204130  1.0
  N  N543  1  0.892000  0.731330  0.200070  1.0
  N  N544  1  0.608000  0.799930  0.268670  1.0
  N  N545  1  0.108000  0.268670  0.799930  1.0
  N  N546  1  0.392000  0.200070  0.731330  1.0
  N  N547  1  0.016400  0.828020  0.220640  1.0
  N  N548  1  0.483600  0.779360  0.171980  1.0
  N  N549  1  0.983600  0.171980  0.779360  1.0
  N  N550  1  0.516400  0.220640  0.828020  1.0
  N  N551  1  0.468400  0.307740  0.268360  1.0
  N  N552  1  0.031600  0.731640  0.692260  1.0
  N  N553  1  0.531600  0.692260  0.731640  1.0
  N  N554  1  0.968400  0.268360  0.307740  1.0
  N  N555  1  0.392400  0.203790  0.172090  1.0
  N  N556  1  0.107600  0.827910  0.796210  1.0
  N  N557  1  0.607600  0.796210  0.827910  1.0
  N  N558  1  0.892400  0.172090  0.203790  1.0
  N  N559  1  0.468300  0.660510  0.199690  1.0
  N  N560  1  0.031700  0.800310  0.339490  1.0
  N  N561  1  0.531700  0.339490  0.800310  1.0
  N  N562  1  0.968300  0.199690  0.660510  1.0
  N  N563  1  0.392400  0.688380  0.220220  1.0
  N  N564  1  0.107600  0.779780  0.311620  1.0
  N  N565  1  0.607600  0.311620  0.779780  1.0
  N  N566  1  0.892400  0.220220  0.688380  1.0
  Ni  Ni567  1  0.500000  0.000000  0.000000  1
  Ni  Ni568  1  0.000000  0.000000  0.000000  1
  Ni  Ni569  1  0.500000  1.000000  0.500000  1
  Ni  Ni570  1  0.000000  0.500000  0.000000  1
  Ni  Ni571  1  0.503720  0.255538  0.251822  1.0
  Ni  Ni572  1  0.996280  0.748178  0.744462  1.0
  Ni  Ni573  1  0.496280  0.744462  0.748178  1.0
  Ni  Ni574  1  0.003720  0.251822  0.255538  1.0
  Ni  Ni575  1  0.503760  0.748053  0.251867  1.0
  Ni  Ni576  1  0.996240  0.748133  0.251947  1.0
  Ni  Ni577  1  0.496240  0.251947  0.748133  1.0
  Ni  Ni578  1  0.003760  0.251867  0.748053  1.0
  O  O579  1  0.871800  0.047000  0.274800  1
  O  O580  1  0.628200  0.725200  0.953000  1
  O  O581  1  0.128200  0.953000  0.725200  1
  O  O582  1  0.371800  0.274800  0.047000  1
  O  O583  1  0.627400  0.394100  0.485100  1
  O  O584  1  0.872600  0.514900  0.605900  1
  O  O585  1  0.372600  0.605900  0.514900  1
  O  O586  1  0.127400  0.485100  0.394100  1
  O  O587  1  0.752600  0.394700  0.268500  1
  O  O588  1  0.747400  0.731500  0.605300  1
  O  O589  1  0.247400  0.605300  0.731500  1
  O  O590  1  0.252600  0.268500  0.394700  1
  O  O591  1  0.089700  0.732700  0.484700  1
  O  O592  1  0.410300  0.515300  0.267300  1
  O  O593  1  0.910300  0.267300  0.515300  1
  O  O594  1  0.589700  0.484700  0.732700  1
  O  O595  1  0.783700  0.232700  0.420300  1
  O  O596  1  0.716300  0.579700  0.767300  1
  O  O597  1  0.216300  0.767300  0.579700  1
  O  O598  1  0.283700  0.420300  0.232700  1
  O  O599  1  0.797400  0.139600  0.383800  1
  O  O600  1  0.702600  0.616200  0.860400  1
  O  O601  1  0.202600  0.860400  0.616200  1
  O  O602  1  0.297400  0.383800  0.139600  1
  O  O603  1  0.675100  0.488830  0.444170  1
  O  O604  1  0.824900  0.555830  0.511170  1
  O  O605  1  0.324900  0.511170  0.555830  1
  O  O606  1  0.175100  0.444170  0.488830  1
  O  O607  1  0.544600  0.488850  0.230750  1
  O  O608  1  0.955400  0.769250  0.511150  1
  O  O609  1  0.455400  0.511150  0.769250  1
  O  O610  1  0.044600  0.230750  0.488850  1
  O  O611  1  0.758300  0.488940  0.313860  1
  O  O612  1  0.741700  0.686140  0.511060  1
  O  O613  1  0.241700  0.511060  0.686140  1
  O  O614  1  0.258300  0.313860  0.488940  1
  O  O615  1  0.674900  0.686090  0.230510  1
  O  O616  1  0.825100  0.769490  0.313910  1
  O  O617  1  0.325100  0.313910  0.769490  1
  O  O618  1  0.174900  0.230510  0.686090  1
  O  O619  1  0.622800  0.561450  0.184150  1
  O  O620  1  0.877200  0.815850  0.438550  1
  O  O621  1  0.377200  0.438550  0.815850  1
  O  O622  1  0.122800  0.184150  0.561450  1
  O  O623  1  0.622600  0.561320  0.438480  1
  O  O624  1  0.877400  0.561520  0.438680  1
  O  O625  1  0.377400  0.438680  0.561520  1
  O  O626  1  0.122600  0.438480  0.561320  1
  O  O627  1  0.741700  0.555920  0.230680  1
  O  O628  1  0.758300  0.769320  0.444080  1
  O  O629  1  0.258300  0.444080  0.769320  1
  O  O630  1  0.241700  0.230680  0.555920  1
  O  O631  1  0.544300  0.555550  0.313850  1
  O  O632  1  0.955700  0.686150  0.444450  1
  O  O633  1  0.455700  0.444450  0.686150  1
  O  O634  1  0.044300  0.313850  0.555550  1
  O  O635  1  0.850400  0.675040  0.324560  1
  O  O636  1  0.649600  0.675440  0.324960  1
  O  O637  1  0.149600  0.324960  0.675440  1
  O  O638  1  0.350400  0.324560  0.675040  1
  O  O639  1  0.650100  0.474700  0.325100  1
  O  O640  1  0.849900  0.674900  0.525300  1
  O  O641  1  0.349900  0.525300  0.674900  1
  O  O642  1  0.150100  0.325100  0.474700  1
  O  O643  1  0.707100  0.014000  0.158400  1
  O  O644  1  0.792900  0.841600  0.986000  1
  O  O645  1  0.292900  0.986000  0.841600  1
  O  O646  1  0.207100  0.158400  0.014000  1
  O  O647  1  0.812500  0.948300  0.579100  1
  O  O648  1  0.687500  0.420900  0.051700  1
  O  O649  1  0.187500  0.051700  0.420900  1
  O  O650  1  0.312500  0.579100  0.948300  1
  O  O651  1  0.628600  0.732800  0.144200  1
  O  O652  1  0.871400  0.855800  0.267200  1
  O  O653  1  0.371400  0.267200  0.855800  1
  O  O654  1  0.128600  0.144200  0.732800  1
  O  O655  1  0.687800  0.766400  0.636800  1
  O  O656  1  0.812200  0.363200  0.233600  1
  O  O657  1  0.312200  0.233600  0.363200  1
  O  O658  1  0.187800  0.636800  0.766400  1
  O  O659  1  0.744100  0.860200  0.586000  1
  O  O660  1  0.755900  0.414000  0.139800  1
  O  O661  1  0.255900  0.139800  0.414000  1
  O  O662  1  0.244100  0.586000  0.860200  1
  O  O663  1  0.130100  0.676300  0.403500  1
  O  O664  1  0.369900  0.596500  0.323700  1
  O  O665  1  0.869900  0.323700  0.596500  1
  O  O666  1  0.630100  0.403500  0.676300  1
  O  O667  1  0.019000  0.955500  0.320900  1
  O  O668  1  0.481000  0.679100  0.044500  1
  O  O669  1  0.981000  0.044500  0.679100  1
  O  O670  1  0.519000  0.320900  0.955500  1
  O  O671  1  0.748400  0.515400  0.144400  1
  O  O672  1  0.751600  0.855600  0.484600  1
  O  O673  1  0.251600  0.484600  0.855600  1
  O  O674  1  0.248400  0.144400  0.515400  1
  O  O675  1  0.272800  0.046700  0.596700  1
  O  O676  1  0.227200  0.403300  0.953300  1
  O  O677  1  0.727200  0.953300  0.403300  1
  O  O678  1  0.772800  0.596700  0.046700  1
  O  O679  1  0.367000  0.015100  0.546700  1
  O  O680  1  0.133000  0.453300  0.984900  1
  O  O681  1  0.633000  0.984900  0.453300  1
  O  O682  1  0.867000  0.546700  0.015100  1
  O  O683  1  0.032000  0.985100  0.180700  1
  O  O684  1  0.468000  0.819300  0.014900  1
  O  O685  1  0.968000  0.014900  0.819300  1
  O  O686  1  0.532000  0.180700  0.985100  1
  O  O687  1  0.293900  0.809500  0.453100  1
  O  O688  1  0.206100  0.546900  0.190500  1
  O  O689  1  0.706100  0.190500  0.546900  1
  O  O690  1  0.793900  0.453100  0.809500  1
  O  O691  1  0.248700  0.318500  0.299300  1
  O  O692  1  0.251300  0.700700  0.681500  1
  O  O693  1  0.751300  0.681500  0.700700  1
  O  O694  1  0.748700  0.299300  0.318500  1
  O  O695  1  0.167000  0.222650  0.183950  1
  O  O696  1  0.333000  0.816050  0.777350  1
  O  O697  1  0.833000  0.777350  0.816050  1
  O  O698  1  0.667000  0.183950  0.222650  1
  O  O699  1  0.421400  0.397500  0.105300  1
  O  O700  1  0.078600  0.894700  0.602500  1
  O  O701  1  0.578600  0.602500  0.894700  1
  O  O702  1  0.921400  0.105300  0.397500  1
  O  O703  1  0.443600  0.269200  0.403000  1
  O  O704  1  0.056400  0.597000  0.730800  1
  O  O705  1  0.556400  0.730800  0.597000  1
  O  O706  1  0.943600  0.403000  0.269200  1
  O  O707  1  0.630900  0.363800  0.579600  1
  O  O708  1  0.869100  0.420400  0.636200  1
  O  O709  1  0.369100  0.636200  0.420400  1
  O  O710  1  0.130900  0.579600  0.363800  1
  O  O711  1  0.276200  0.349300  0.993100  1
  O  O712  1  0.223800  0.006900  0.650700  1
  O  O713  1  0.723800  0.650700  0.006900  1
  O  O714  1  0.776200  0.993100  0.349300  1
  O  O715  1  0.460900  0.185800  0.444000  1
  O  O716  1  0.039100  0.556000  0.814200  1
  O  O717  1  0.539100  0.814200  0.556000  1
  O  O718  1  0.960900  0.444000  0.185800  1
  O  O719  1  0.369300  0.232900  0.947900  1
  O  O720  1  0.130700  0.052100  0.767100  1
  O  O721  1  0.630700  0.767100  0.052100  1
  O  O722  1  0.869300  0.947900  0.232900  1
  O  O723  1  0.953000  0.511200  0.513400  1
  O  O724  1  0.547000  0.486600  0.488800  1
  O  O725  1  0.047000  0.488800  0.486600  1
  O  O726  1  0.453000  0.513400  0.511200  1
  O  O727  1  0.071000  0.583200  0.536800  1
  O  O728  1  0.429000  0.463200  0.416800  1
  O  O729  1  0.929000  0.416800  0.463200  1
  O  O730  1  0.571000  0.536800  0.583200  1
  O  O731  1  0.932000  0.441100  0.551700  1
  O  O732  1  0.568000  0.448300  0.558900  1
  O  O733  1  0.068000  0.558900  0.448300  1
  O  O734  1  0.432000  0.551700  0.441100  1
  O  O735  1  0.060000  0.550800  0.617200  1
  O  O736  1  0.440000  0.382800  0.449200  1
  O  O737  1  0.940000  0.449200  0.382800  1
  O  O738  1  0.560000  0.617200  0.550800  1
  O  O739  1  0.569000  0.509000  0.059000  1
  O  O740  1  0.931000  0.941000  0.491000  1
  O  O741  1  0.431000  0.491000  0.941000  1
  O  O742  1  0.069000  0.059000  0.509000  1
  O  O743  1  0.555000  0.441600  0.006400  1
  O  O744  1  0.945000  0.993600  0.558400  1
  O  O745  1  0.445000  0.558400  0.993600  1
  O  O746  1  0.055000  0.006400  0.441600  1
  O  O747  1  0.522000  0.523600  0.957400  1
  O  O748  1  0.978000  0.042600  0.476400  1
  O  O749  1  0.478000  0.476400  0.042600  1
  O  O750  1  0.022000  0.957400  0.523600  1
  O  O751  1  0.463100  0.006300  0.053500  1
  O  O752  1  0.036900  0.946500  0.993700  1
  O  O753  1  0.536900  0.993700  0.946500  1
  O  O754  1  0.963100  0.053500  0.006300  1
  O  O755  1  0.488900  0.918900  0.019500  1
  O  O756  1  0.011100  0.980500  0.081100  1
  O  O757  1  0.511100  0.081100  0.980500  1
  O  O758  1  0.988900  0.019500  0.918900  1
  O  O759  1  0.606400  0.051400  0.080200  1
  O  O760  1  0.893600  0.919800  0.948600  1
  O  O761  1  0.393600  0.948600  0.919800  1
  O  O762  1  0.106400  0.080200  0.051400  1
  O  O763  1  0.403900  0.957700  0.994900  1
  O  O764  1  0.096100  0.005100  0.042300  1
  O  O765  1  0.596100  0.042300  0.005100  1
  O  O766  1  0.903900  0.994900  0.957700  1
  O  O767  1  0.552100  0.070100  0.081500  1
  O  O768  1  0.947900  0.918500  0.929900  1
  O  O769  1  0.447900  0.929900  0.918500  1
  O  O770  1  0.052100  0.081500  0.070100  1
  O  O771  1  0.525200  0.944600  0.051200  1
  O  O772  1  0.974800  0.948800  0.055400  1
  O  O773  1  0.474800  0.055400  0.948800  1
  O  O774  1  0.025200  0.051200  0.944600  1
  O  O775  1  0.452100  0.946900  0.043100  1
  O  O776  1  0.047900  0.956900  0.053100  1
  O  O777  1  0.547900  0.053100  0.956900  1
  O  O778  1  0.952100  0.043100  0.946900  1
  O  O779  1  0.600400  0.019100  0.070500  1
  O  O780  1  0.899600  0.929500  0.980900  1
  O  O781  1  0.399600  0.980900  0.929500  1
  O  O782  1  0.100400  0.070500  0.019100  1
  O  O783  1  0.529200  0.080400  0.054800  1
  O  O784  1  0.970800  0.945200  0.919600  1
  O  O785  1  0.470800  0.919600  0.945200  1
  O  O786  1  0.029200  0.054800  0.080400  1
  O  O787  1  0.525600  0.080300  0.473300  1
  O  O788  1  0.974400  0.526700  0.919700  1
  O  O789  1  0.474400  0.919700  0.526700  1
  O  O790  1  0.025600  0.473300  0.080300  1
  O  O791  1  0.449100  0.019100  0.530100  1
  O  O792  1  0.050900  0.469900  0.980900  1
  O  O793  1  0.550900  0.980900  0.469900  1
  O  O794  1  0.949100  0.530100  0.019100  1
  O  O795  1  0.403800  0.946300  0.409700  1
  O  O796  1  0.096200  0.590300  0.053700  1
  O  O797  1  0.596200  0.053700  0.590300  1
  O  O798  1  0.903800  0.409700  0.946300  1
  O  O799  1  0.471900  0.052000  0.526400  1
  O  O800  1  0.028100  0.473600  0.948000  1
  O  O801  1  0.528100  0.948000  0.473600  1
  O  O802  1  0.971900  0.526400  0.052000  1
  O  O803  1  0.451800  0.005800  0.409400  1
  O  O804  1  0.048200  0.590600  0.994200  1
  O  O805  1  0.548200  0.994200  0.590600  1
  O  O806  1  0.951800  0.409400  0.005800  1
  O  O807  1  0.400000  0.918700  0.470900  1
  O  O808  1  0.100000  0.529100  0.081300  1
  O  O809  1  0.600000  0.081300  0.529100  1
  O  O810  1  0.900000  0.470900  0.918700  1
  O  O811  1  0.461000  0.957800  0.408200  1
  O  O812  1  0.039000  0.591800  0.042200  1
  O  O813  1  0.539000  0.042200  0.591800  1
  O  O814  1  0.961000  0.408200  0.957800  1
  O  O815  1  0.489100  0.070500  0.471500  1
  O  O816  1  0.010900  0.528500  0.929500  1
  O  O817  1  0.510900  0.929500  0.528500  1
  O  O818  1  0.989100  0.471500  0.070500  1
  O  O819  1  0.393900  0.945300  0.474900  1
  O  O820  1  0.106100  0.525100  0.054700  1
  O  O821  1  0.606100  0.054700  0.525100  1
  O  O822  1  0.893900  0.474900  0.945300  1
  O  O823  1  0.011000  0.562500  0.493500  1
  O  O824  1  0.489000  0.506500  0.437500  1
  O  O825  1  0.989000  0.437500  0.506500  1
  O  O826  1  0.511000  0.493500  0.562500  1
  O  O827  1  0.928000  0.487900  0.444100  1
  O  O828  1  0.572000  0.555900  0.512100  1
  O  O829  1  0.072000  0.512100  0.555900  1
  O  O830  1  0.428000  0.444100  0.487900  1
  O  O831  1  0.967000  0.487400  0.536600  1
  O  O832  1  0.533000  0.463400  0.512600  1
  O  O833  1  0.033000  0.512600  0.463400  1
  O  O834  1  0.467000  0.536600  0.487400  1
  O  O835  1  0.057000  0.530800  0.569200  1
  O  O836  1  0.443000  0.430800  0.469200  1
  O  O837  1  0.943000  0.469200  0.430800  1
  O  O838  1  0.557000  0.569200  0.530800  1
  O  O839  1  0.410900  0.395300  0.143100  1
  O  O840  1  0.089100  0.856900  0.604700  1
  O  O841  1  0.589100  0.604700  0.856900  1
  O  O842  1  0.910900  0.143100  0.395300  1
  O  O843  1  0.284500  0.363700  0.052300  1
  O  O844  1  0.215500  0.947700  0.636300  1
  O  O845  1  0.715500  0.636300  0.947700  1
  O  O846  1  0.784500  0.052300  0.363700  1
  O  O847  1  0.224400  0.138900  0.841900  1
  O  O848  1  0.275600  0.158100  0.861100  1
  O  O849  1  0.775600  0.861100  0.158100  1
  O  O850  1  0.724400  0.841900  0.138900  1
  O  O851  1  0.580900  0.397100  0.476100  1
  O  O852  1  0.919100  0.523900  0.602900  1
  O  O853  1  0.419100  0.602900  0.523900  1
  O  O854  1  0.080900  0.476100  0.397100  1
  O  O855  1  0.793100  0.397400  0.317200  1
  O  O856  1  0.706900  0.682800  0.602600  1
  O  O857  1  0.206900  0.602600  0.682800  1
  O  O858  1  0.293100  0.317200  0.397400  1
  O  O859  1  0.797900  0.158400  0.414000  1
  O  O860  1  0.702100  0.586000  0.841600  1
  O  O861  1  0.202100  0.841600  0.586000  1
  O  O862  1  0.297900  0.414000  0.158400  1
  O  O863  1  0.743300  0.017420  0.186780  1
  O  O864  1  0.756700  0.813220  0.982580  1
  O  O865  1  0.256700  0.982580  0.813220  1
  O  O866  1  0.243300  0.186780  0.017420  1
  O  O867  1  0.777600  0.284900  0.427100  1
  O  O868  1  0.722400  0.572900  0.715100  1
  O  O869  1  0.222400  0.715100  0.572900  1
  O  O870  1  0.277600  0.427100  0.284900  1
  O  O871  1  0.859000  0.007200  0.574800  1
  O  O872  1  0.641000  0.425200  0.992800  1
  O  O873  1  0.141000  0.992800  0.425200  1
  O  O874  1  0.359000  0.574800  0.007200  1
  O  O875  1  0.643800  0.715800  0.649200  1
  O  O876  1  0.856200  0.350800  0.284200  1
  O  O877  1  0.356200  0.284200  0.350800  1
  O  O878  1  0.143800  0.649200  0.715800  1
  O  O879  1  0.055800  0.958800  0.326800  1
  O  O880  1  0.444200  0.673200  0.041200  1
  O  O881  1  0.944200  0.041200  0.673200  1
  O  O882  1  0.555800  0.326800  0.958800  1
  O  O883  1  0.018000  0.930200  0.308400  1
  O  O884  1  0.482000  0.691600  0.069800  1
  O  O885  1  0.982000  0.069800  0.691600  1
  O  O886  1  0.518000  0.308400  0.930200  1
  O  O887  1  0.038400  0.982700  0.224300  1
  O  O888  1  0.461600  0.775700  0.017300  1
  O  O889  1  0.961600  0.017300  0.775700  1
  O  O890  1  0.538400  0.224300  0.982700  1
  O  O891  1  0.725800  0.383800  0.586400  1
  O  O892  1  0.774200  0.413600  0.616200  1
  O  O893  1  0.274200  0.616200  0.413600  1
  O  O894  1  0.225800  0.586400  0.383800  1
  O  O895  1  0.707000  0.522400  0.104600  1
  O  O896  1  0.793000  0.895400  0.477600  1
  O  O897  1  0.293000  0.477600  0.895400  1
  O  O898  1  0.207000  0.104600  0.522400  1
  O  O899  1  0.252200  0.052600  0.568800  1
  O  O900  1  0.247800  0.431200  0.947400  1
  O  O901  1  0.747800  0.947400  0.431200  1
  O  O902  1  0.752200  0.568800  0.052600  1
  O  O903  1  0.331400  0.017200  0.555800  1
  O  O904  1  0.168600  0.444200  0.982800  1
  O  O905  1  0.668600  0.982800  0.444200  1
  O  O906  1  0.831400  0.555800  0.017200  1
  O  O907  1  0.566900  0.352200  0.572400  1
  O  O908  1  0.933100  0.427600  0.647800  1
  O  O909  1  0.433100  0.647800  0.427600  1
  O  O910  1  0.066900  0.572400  0.352200  1
  O  O911  1  0.079200  0.683400  0.475800  1
  O  O912  1  0.420800  0.524200  0.316600  1
  O  O913  1  0.920800  0.316600  0.524200  1
  O  O914  1  0.579200  0.475800  0.683400  1
  O  O915  1  0.131500  0.681600  0.432000  1
  O  O916  1  0.368500  0.568000  0.318400  1
  O  O917  1  0.868500  0.318400  0.568000  1
  O  O918  1  0.631500  0.432000  0.681600  1
  O  O919  1  0.755600  0.841500  0.615100  1
  O  O920  1  0.744400  0.384900  0.158500  1
  O  O921  1  0.244400  0.158500  0.384900  1
  O  O922  1  0.255600  0.615100  0.841500  1
  O  O923  1  0.479200  0.296600  0.422000  1
  O  O924  1  0.020800  0.578000  0.703400  1
  O  O925  1  0.520800  0.703400  0.578000  1
  O  O926  1  0.979200  0.422000  0.296600  1
  O  O927  1  0.467000  0.147500  0.450700  1
  O  O928  1  0.033000  0.549300  0.852500  1
  O  O929  1  0.533000  0.852500  0.549300  1
  O  O930  1  0.967000  0.450700  0.147500  1
  O  O931  1  0.431500  0.281600  0.005600  1
  O  O932  1  0.068500  0.994400  0.718400  1
  O  O933  1  0.568500  0.718400  0.994400  1
  O  O934  1  0.931500  0.005600  0.281600  1
  O  O935  1  0.581800  0.685200  0.105600  1
  O  O936  1  0.918200  0.894400  0.314800  1
  O  O937  1  0.418200  0.314800  0.894400  1
  O  O938  1  0.081800  0.105600  0.685200  1
  O  O939  1  0.562000  0.609500  0.006500  1
  O  O940  1  0.938000  0.993500  0.390500  1
  O  O941  1  0.438000  0.390500  0.993500  1
  O  O942  1  0.062000  0.006500  0.609500  1
  O  O943  1  0.533000  0.566500  0.025500  1
  O  O944  1  0.967000  0.974500  0.433500  1
  O  O945  1  0.467000  0.433500  0.974500  1
  O  O946  1  0.033000  0.025500  0.566500  1
  O  O947  1  0.550000  0.559800  0.060200  1
  O  O948  1  0.950000  0.939800  0.440200  1
  O  O949  1  0.450000  0.440200  0.939800  1
  O  O950  1  0.050000  0.060200  0.559800  1
  O  O951  1  0.557000  0.488600  0.023400  1
  O  O952  1  0.943000  0.976600  0.511400  1
  O  O953  1  0.443000  0.511400  0.976600  1
  O  O954  1  0.057000  0.023400  0.488600  1
  O  O955  1  0.257200  0.774160  0.443840  1
  O  O956  1  0.242800  0.556160  0.225840  1
  O  O957  1  0.742800  0.225840  0.556160  1
  O  O958  1  0.757200  0.443840  0.774160  1
  O  O959  1  0.227300  0.323900  0.273900  1
  O  O960  1  0.272700  0.726100  0.676100  1
  O  O961  1  0.772700  0.676100  0.726100  1
  O  O962  1  0.727300  0.273900  0.323900  1
  O  O963  1  0.868600  0.051800  0.299200  1
  O  O964  1  0.631400  0.700800  0.948200  1
  O  O965  1  0.131400  0.948200  0.700800  1
  O  O966  1  0.368600  0.299200  0.051800  1
  O  O967  1  0.658700  0.079680  0.397520  1.0
  O  O968  1  0.841300  0.602480  0.920320  1.0
  O  O969  1  0.341300  0.920320  0.602480  1.0
  O  O970  1  0.158700  0.397520  0.079680  1.0
  O  O971  1  0.554600  0.059960  0.394040  1.0
  O  O972  1  0.945400  0.605960  0.940040  1.0
  O  O973  1  0.445400  0.940040  0.605960  1.0
  O  O974  1  0.054600  0.394040  0.059960  1.0
  O  O975  1  0.655600  0.167440  0.422360  1.0
  O  O976  1  0.844400  0.577640  0.832560  1.0
  O  O977  1  0.344400  0.832560  0.577640  1.0
  O  O978  1  0.155600  0.422360  0.167440  1.0
  O  O979  1  0.658500  0.078760  0.261040  1.0
  O  O980  1  0.841500  0.738960  0.921240  1.0
  O  O981  1  0.341500  0.921240  0.738960  1.0
  O  O982  1  0.158500  0.261040  0.078760  1.0
  O  O983  1  0.555400  0.994380  0.160620  1.0
  O  O984  1  0.944600  0.839380  0.005620  1.0
  O  O985  1  0.444600  0.005620  0.839380  1.0
  O  O986  1  0.055400  0.160620  0.994380  1.0
  O  O987  1  0.656300  0.988030  0.233570  1.0
  O  O988  1  0.843700  0.766430  0.011970  1.0
  O  O989  1  0.343700  0.011970  0.766430  1.0
  O  O990  1  0.156300  0.233570  0.988030  1.0
  O  O991  1  0.181900  0.079150  0.261050  1.0
  O  O992  1  0.318100  0.738950  0.920850  1.0
  O  O993  1  0.818100  0.920850  0.738950  1.0
  O  O994  1  0.681900  0.261050  0.079150  1.0
  O  O995  1  0.166300  0.061000  0.160600  1.0
  O  O996  1  0.333700  0.839400  0.939000  1.0
  O  O997  1  0.833700  0.939000  0.839400  1.0
  O  O998  1  0.666300  0.160600  0.061000  1.0
  O  O999  1  0.245700  0.168350  0.234050  1.0
  O  O1000  1  0.254300  0.765950  0.831650  1.0
  O  O1001  1  0.754300  0.831650  0.765950  1.0
  O  O1002  1  0.745700  0.234050  0.168350  1.0
  O  O1003  1  0.317700  0.078480  0.397200  1.0
  O  O1004  1  0.182300  0.602800  0.921520  1.0
  O  O1005  1  0.682300  0.921520  0.602800  1.0
  O  O1006  1  0.817700  0.397200  0.078480  1.0
  O  O1007  1  0.334100  0.994800  0.394400  1.0
  O  O1008  1  0.165900  0.605600  0.005200  1.0
  O  O1009  1  0.665900  0.005200  0.605600  1.0
  O  O1010  1  0.834100  0.394400  0.994800  1.0
  O  O1011  1  0.254900  0.988070  0.422730  1.0
  O  O1012  1  0.245100  0.577270  0.011930  1.0
  O  O1013  1  0.745100  0.011930  0.577270  1.0
  O  O1014  1  0.754900  0.422730  0.988070  1.0
  O  O1015  1  0.318400  0.079540  0.921260  1.0
  O  O1016  1  0.181600  0.078740  0.920460  1.0
  O  O1017  1  0.681600  0.920460  0.078740  1.0
  O  O1018  1  0.818400  0.921260  0.079540  1.0
  O  O1019  1  0.399900  0.060700  0.005100  1.0
  O  O1020  1  0.100100  0.994900  0.939300  1.0
  O  O1021  1  0.600100  0.939300  0.994900  1.0
  O  O1022  1  0.899900  0.005100  0.060700  1.0
  O  O1023  1  0.434100  0.167300  0.011700  1.0
  O  O1024  1  0.065900  0.988300  0.832700  1.0
  O  O1025  1  0.565900  0.832700  0.988300  1.0
  O  O1026  1  0.934100  0.011700  0.167300  1.0
  O  O1027  1  0.318600  0.739150  0.397210  1.0
  O  O1028  1  0.181400  0.602790  0.260850  1.0
  O  O1029  1  0.681400  0.260850  0.602790  1.0
  O  O1030  1  0.818600  0.397210  0.739150  1.0
  O  O1031  1  0.400100  0.839500  0.394700  1.0
  O  O1032  1  0.099900  0.605300  0.160500  1.0
  O  O1033  1  0.599900  0.160500  0.605300  1.0
  O  O1034  1  0.900100  0.394700  0.839500  1.0
  O  O1035  1  0.434500  0.766900  0.422500  1.0
  O  O1036  1  0.065500  0.577500  0.233100  1.0
  O  O1037  1  0.565500  0.233100  0.577500  1.0
  O  O1038  1  0.934500  0.422500  0.766900  1.0
  O  O1039  1  0.517700  0.056600  0.072000  1.0
  O  O1040  1  0.982300  0.928000  0.943400  1.0
  O  O1041  1  0.482300  0.943400  0.928000  1.0
  O  O1042  1  0.017700  0.072000  0.056600  1.0
  O  O1043  1  0.610600  0.039000  0.056400  1.0
  O  O1044  1  0.889400  0.943600  0.961000  1.0
  O  O1045  1  0.389400  0.961000  0.943600  1.0
  O  O1046  1  0.110600  0.056400  0.039000  1.0
  O  O1047  1  0.484300  0.927900  0.039300  1.0
  O  O1048  1  0.015700  0.960700  0.072100  1.0
  O  O1049  1  0.515700  0.072100  0.960700  1.0
  O  O1050  1  0.984300  0.039300  0.927900  1.0
  O  O1051  1  0.389200  0.928000  0.446200  1.0
  O  O1052  1  0.110800  0.553800  0.072000  1.0
  O  O1053  1  0.610800  0.072000  0.553800  1.0
  O  O1054  1  0.889200  0.446200  0.928000  1.0
  O  O1055  1  0.484000  0.056900  0.445900  1.0
  O  O1056  1  0.016000  0.554100  0.943100  1.0
  O  O1057  1  0.516000  0.943100  0.554100  1.0
  O  O1058  1  0.984000  0.445900  0.056900  1.0
  O  O1059  1  0.483400  0.039500  0.555100  1.0
  O  O1060  1  0.016600  0.444900  0.960500  1.0
  O  O1061  1  0.516600  0.960500  0.444900  1.0
  O  O1062  1  0.983400  0.555100  0.039500  1.0
  S  S1063  1  0.614310  0.102160  0.387060  1.0
  S  S1064  1  0.885690  0.612940  0.897840  1.0
  S  S1065  1  0.385690  0.897840  0.612940  1.0
  S  S1066  1  0.114310  0.387060  0.102160  1.0
  S  S1067  1  0.614890  0.012080  0.227320  1.0
  S  S1068  1  0.885110  0.772680  0.987920  1.0
  S  S1069  1  0.385110  0.987920  0.772680  1.0
  S  S1070  1  0.114890  0.227320  0.012080  1.0
  S  S1071  1  0.215090  0.102460  0.227180  1.0
  S  S1072  1  0.284910  0.772820  0.897540  1.0
  S  S1073  1  0.784910  0.897540  0.772820  1.0
  S  S1074  1  0.715090  0.227180  0.102460  1.0
  S  S1075  1  0.284880  0.011980  0.387400  1.0
  S  S1076  1  0.215120  0.612600  0.988020  1.0
  S  S1077  1  0.715120  0.988020  0.612600  1.0
  S  S1078  1  0.784880  0.387400  0.011980  1.0
  S  S1079  1  0.375240  0.102560  0.987820  1.0
  S  S1080  1  0.124760  0.012180  0.897440  1.0
  S  S1081  1  0.624760  0.897440  0.012180  1.0
  S  S1082  1  0.875240  0.987820  0.102560  1.0
  S  S1083  1  0.375240  0.772830  0.387250  1.0
  S  S1084  1  0.124760  0.612750  0.227170  1.0
  S  S1085  1  0.624760  0.227170  0.612750  1.0
  S  S1086  1  0.875240  0.387250  0.772830  1.0
