
#######################################################################
#
#                 Cambridge Crystallographic Data Centre
#                                CCDC 
#
#######################################################################
#
# If this CIF has been generated from an entry in the Cambridge 
# Structural Database, then it will include bibliographic, chemical, 
# crystal, experimental, refinement or atomic coordinate data resulting 
# from the CCDC's data processing and validation procedures.
#
#######################################################################

data_GIDFEG
_chemical_formula_moiety         
'C144 H96 N24 Ni4 O36 S12 4-,2(H12 Ni1 O6 2+),C7 H14,67.68(H2 O1)'
_chemical_name_systematic        
"hexakis(\m~2~-4,4'-bis((Pyridin-2-ylmethylene)amino)biphenyl-2,2'-disulfonate)-tetra-nickel bis(hexa-aqua-nickel) cycloheptane clathrate hydrate"
_symmetry_cell_setting           cubic
_symmetry_space_group_name_H-M   'F d -3'
_symmetry_Int_Tables_number      203
_space_group_name_Hall           '-F 2uv 2vw 3'
loop_
_symmetry_equiv_pos_site_id
_symmetry_equiv_pos_as_xyz
1 x,y,z
2 1/4-x,1/4-y,z
3 x,1/4-y,1/4-z
4 1/4-x,y,1/4-z
5 y,z,x
6 1/4-y,1/4-z,x
7 y,1/4-z,1/4-x
8 1/4-y,z,1/4-x
9 z,x,y
10 1/4-z,x,1/4-y
11 1/4-z,1/4-x,y
12 z,1/4-x,1/4-y
13 x,1/2+y,1/2+z
14 1/4-x,3/4-y,1/2+z
15 x,3/4-y,3/4-z
16 1/4-x,1/2+y,3/4-z
17 y,1/2+z,1/2+x
18 1/4-y,3/4-z,1/2+x
19 y,3/4-z,3/4-x
20 1/4-y,1/2+z,3/4-x
21 z,1/2+x,1/2+y
22 1/4-z,1/2+x,3/4-y
23 1/4-z,3/4-x,1/2+y
24 z,3/4-x,3/4-y
25 1/2+x,y,1/2+z
26 3/4-x,1/4-y,1/2+z
27 1/2+x,1/4-y,3/4-z
28 3/4-x,y,3/4-z
29 1/2+y,z,1/2+x
30 3/4-y,1/4-z,1/2+x
31 1/2+y,1/4-z,3/4-x
32 3/4-y,z,3/4-x
33 1/2+z,x,1/2+y
34 3/4-z,x,3/4-y
35 3/4-z,1/4-x,1/2+y
36 1/2+z,1/4-x,3/4-y
37 1/2+x,1/2+y,z
38 3/4-x,3/4-y,z
39 1/2+x,3/4-y,1/4-z
40 3/4-x,1/2+y,1/4-z
41 1/2+y,1/2+z,x
42 3/4-y,3/4-z,x
43 1/2+y,3/4-z,1/4-x
44 3/4-y,1/2+z,1/4-x
45 1/2+z,1/2+x,y
46 3/4-z,1/2+x,1/4-y
47 3/4-z,3/4-x,y
48 1/2+z,3/4-x,1/4-y
49 -x,-y,-z
50 3/4+x,3/4+y,-z
51 -x,3/4+y,3/4+z
52 3/4+x,-y,3/4+z
53 -y,-z,-x
54 3/4+y,3/4+z,-x
55 -y,3/4+z,3/4+x
56 3/4+y,-z,3/4+x
57 -z,-x,-y
58 3/4+z,-x,3/4+y
59 3/4+z,3/4+x,-y
60 -z,3/4+x,3/4+y
61 -x,1/2-y,1/2-z
62 3/4+x,1/4+y,1/2-z
63 -x,1/4+y,1/4+z
64 3/4+x,1/2-y,1/4+z
65 -y,1/2-z,1/2-x
66 3/4+y,1/4+z,1/2-x
67 -y,1/4+z,1/4+x
68 3/4+y,1/2-z,1/4+x
69 -z,1/2-x,1/2-y
70 3/4+z,1/2-x,1/4+y
71 3/4+z,1/4+x,1/2-y
72 -z,1/4+x,1/4+y
73 1/2-x,-y,1/2-z
74 1/4+x,3/4+y,1/2-z
75 1/2-x,3/4+y,1/4+z
76 1/4+x,-y,1/4+z
77 1/2-y,-z,1/2-x
78 1/4+y,3/4+z,1/2-x
79 1/2-y,3/4+z,1/4+x
80 1/4+y,-z,1/4+x
81 1/2-z,-x,1/2-y
82 1/4+z,-x,1/4+y
83 1/4+z,3/4+x,1/2-y
84 1/2-z,3/4+x,1/4+y
85 1/2-x,1/2-y,-z
86 1/4+x,1/4+y,-z
87 1/2-x,1/4+y,3/4+z
88 1/4+x,1/2-y,3/4+z
89 1/2-y,1/2-z,-x
90 1/4+y,1/4+z,-x
91 1/2-y,1/4+z,3/4+x
92 1/4+y,1/2-z,3/4+x
93 1/2-z,1/2-x,-y
94 1/4+z,1/2-x,3/4+y
95 1/4+z,1/4+x,-y
96 1/2-z,1/4+x,3/4+y
_cell_length_a                   36.3139(3)
_cell_length_b                   36.3139(3)
_cell_length_c                   36.3139(3)
_cell_angle_alpha                90
_cell_angle_beta                 90
_cell_angle_gamma                90
_cell_volume                     47887.1
_exptl_crystal_colour            orange
_exptl_crystal_description       prism
_cell_formula_units_Z            8
loop_
_atom_site_label
_atom_site_type_symbol
_atom_site_fract_x
_atom_site_fract_y
_atom_site_fract_z
Ni1 Ni 0.248006(15) 0.001994(15) 0.001994(15)
C3 C 0.2466(2) 0.0207(2) 0.08542(18)
H1 H 0.2217 0.0126 0.0854
C4 C 0.2621(3) 0.0330(3) 0.1183(2)
H2 H 0.2476 0.0337 0.1401
C5 C 0.2979(3) 0.0441(3) 0.1192(2)
H3 H 0.3089 0.0520 0.1416
C6 C 0.3178(2) 0.0434(2) 0.0867(2)
H4 H 0.3427 0.0515 0.0862
C7 C 0.30103(19) 0.03100(18) 0.05523(17)
C8 C 0.32046(17) 0.02866(15) 0.02010(16)
H5 H 0.3454 0.0364 0.0182
C9 C 0.32422(16) 0.01408(13) -0.04176(15)
C10 C 0.31200(14) 0.03423(15) -0.07146(15)
H6 H 0.2902 0.0485 -0.0694
C11 C 0.33143(16) 0.03379(15) -0.10451(14)
C12 C 0.36366(19) 0.01354(16) -0.10769(17)
C13 C 0.3745(2) -0.00750(19) -0.0779(2)
H7 H 0.3958 -0.0225 -0.0801
C14 C 0.3550(2) -0.00729(17) -0.04462(19)
H8 H 0.3631 -0.0218 -0.0244
N1 N 0.26553(14) 0.01992(14) 0.05423(13)
N2 N 0.30357(13) 0.01612(12) -0.00800(12)
O1 O 0.3000(2) 0.0293(2) -0.16678(16)
O2 O 0.34007(13) 0.07988(14) -0.15903(12)
O3 O 0.28339(15) 0.0798(2) -0.12646(14)
S1 S 0.31217(5) 0.05881(6) -0.14190(4)
C3AA C 0.5034(2) 0.0207(2) -0.33542(18)
H1AA H 0.5283 0.0126 -0.3354
C4AA C 0.4879(3) 0.0330(3) -0.3683(2)
H2AA H 0.5024 0.0337 -0.3901
C5AA C 0.4521(3) 0.0441(3) -0.3692(2)
H3AA H 0.4411 0.0520 -0.3916
C6AA C 0.4322(2) 0.0434(2) -0.3367(2)
H4AA H 0.4073 0.0515 -0.3362
C7AA C 0.44897(19) 0.03100(18) -0.30523(17)
C8AA C 0.42954(17) 0.02866(15) -0.27010(16)
H5AA H 0.4046 0.0364 -0.2682
C9AA C 0.42578(16) 0.01408(13) -0.20824(15)
C10AA C 0.43800(14) 0.03423(15) -0.17854(15)
H6AA H 0.4598 0.0485 -0.1806
C11AA C 0.41857(16) 0.03379(15) -0.14549(14)
C12AA C 0.38634(19) 0.01354(16) -0.14231(17)
C13AA C 0.3755(2) -0.00750(19) -0.1721(2)
H7AA H 0.3542 -0.0225 -0.1699
C14AA C 0.3950(2) -0.00729(17) -0.20538(19)
H8AA H 0.3869 -0.0218 -0.2256
N1AA N 0.48447(14) 0.01992(14) -0.30423(13)
N2AA N 0.44643(13) 0.01612(12) -0.24200(12)
O1AA O 0.4500(2) 0.0293(2) -0.08322(16)
O2AA O 0.40993(13) 0.07988(14) -0.09097(12)
O3AA O 0.46661(15) 0.0798(2) -0.12354(14)
S1AA S 0.43783(5) 0.05881(6) -0.10810(4)
C3G C 0.2293(2) 0.08542(18) 0.0034(2)
H1G H 0.2374 0.0854 0.0283
C4G C 0.2170(3) 0.1183(2) -0.0121(3)
H2G H 0.2163 0.1401 0.0024
C5G C 0.2059(3) 0.1192(2) -0.0479(3)
H3G H 0.1980 0.1416 -0.0589
C6G C 0.2066(2) 0.0867(2) -0.0678(2)
H4G H 0.1985 0.0862 -0.0927
C7G C 0.21900(18) 0.05523(17) -0.05103(19)
C8G C 0.22134(15) 0.02010(16) -0.07046(17)
H5G H 0.2136 0.0182 -0.0954
C9G C 0.23592(13) -0.04176(15) -0.07422(16)
C10G C 0.21577(15) -0.07146(15) -0.06200(14)
H6G H 0.2015 -0.0694 -0.0402
C11G C 0.21621(15) -0.10451(14) -0.08143(16)
C12G C 0.23646(16) -0.10769(17) -0.11366(19)
C13G C 0.25750(19) -0.0779(2) -0.1245(2)
H7G H 0.2725 -0.0801 -0.1458
C14G C 0.25729(17) -0.04462(19) -0.1050(2)
H8G H 0.2718 -0.0244 -0.1131
N1G N 0.23008(14) 0.05423(13) -0.01553(14)
N2G N 0.23388(12) -0.00800(12) -0.05357(13)
O1G O 0.2207(2) -0.16678(16) -0.0500(2)
O2G O 0.17012(14) -0.15903(12) -0.09007(13)
O3G O 0.1702(2) -0.12646(14) -0.03339(15)
S1G S 0.19119(6) -0.14190(4) -0.06217(5)
C3Q C 0.2293(2) -0.33542(18) -0.2534(2)
H1Q H 0.2374 -0.3354 -0.2783
C4Q C 0.2170(3) -0.3683(2) -0.2379(3)
H2Q H 0.2163 -0.3901 -0.2524
C5Q C 0.2059(3) -0.3692(2) -0.2021(3)
H3Q H 0.1980 -0.3916 -0.1911
C6Q C 0.2066(2) -0.3367(2) -0.1822(2)
H4Q H 0.1985 -0.3362 -0.1573
C7Q C 0.21900(18) -0.30523(17) -0.19897(19)
C8Q C 0.22134(15) -0.27010(16) -0.17954(17)
H5Q H 0.2136 -0.2682 -0.1546
C9Q C 0.23592(13) -0.20824(15) -0.17578(16)
C10Q C 0.21577(15) -0.17854(15) -0.18800(14)
H6Q H 0.2015 -0.1806 -0.2098
C11Q C 0.21621(15) -0.14549(14) -0.16857(16)
C12Q C 0.23646(16) -0.14231(17) -0.13634(19)
C13Q C 0.25750(19) -0.1721(2) -0.1255(2)
H7Q H 0.2725 -0.1699 -0.1042
C14Q C 0.25729(17) -0.20538(19) -0.1450(2)
H8Q H 0.2718 -0.2256 -0.1369
N1Q N 0.23008(14) -0.30423(13) -0.23447(14)
N2Q N 0.23388(12) -0.24200(12) -0.19643(13)
O1Q O 0.2207(2) -0.08322(16) -0.2000(2)
O2Q O 0.17012(14) -0.09097(12) -0.15993(13)
O3Q O 0.1702(2) -0.12354(14) -0.21661(15)
S1Q S 0.19119(6) -0.10810(4) -0.18783(5)
C3J C 0.16458(18) 0.0034(2) 0.0207(2)
H1J H 0.1646 0.0283 0.0126
C4J C 0.1317(2) -0.0121(3) 0.0330(3)
H2J H 0.1099 0.0024 0.0337
C5J C 0.1308(2) -0.0479(3) 0.0441(3)
H3J H 0.1084 -0.0589 0.0520
C6J C 0.1633(2) -0.0678(2) 0.0434(2)
H4J H 0.1638 -0.0927 0.0515
C7J C 0.19477(17) -0.05103(19) 0.03100(18)
C8J C 0.22990(16) -0.07046(17) 0.02866(15)
H5J H 0.2318 -0.0954 0.0364
C9J C 0.29176(15) -0.07422(16) 0.01408(13)
C10J C 0.32146(15) -0.06200(14) 0.03423(15)
H6J H 0.3194 -0.0402 0.0485
C11J C 0.35451(14) -0.08143(16) 0.03379(15)
C12J C 0.35769(17) -0.11366(19) 0.01354(16)
C13J C 0.3279(2) -0.1245(2) -0.00750(19)
H7J H 0.3301 -0.1458 -0.0225
C14J C 0.29462(19) -0.1050(2) -0.00729(17)
H8J H 0.2744 -0.1131 -0.0218
N1J N 0.19577(13) -0.01553(14) 0.01992(14)
N2J N 0.25800(12) -0.05357(13) 0.01612(12)
O1J O 0.41678(16) -0.0500(2) 0.0293(2)
O2J O 0.40903(12) -0.09007(13) 0.07988(14)
O3J O 0.37646(14) -0.03339(15) 0.0798(2)
S1J S 0.39190(4) -0.06217(5) 0.05881(6)
C3RA C 0.58542(18) -0.2534(2) 0.0207(2)
H1RA H 0.5854 -0.2783 0.0126
C4RA C 0.6183(2) -0.2379(3) 0.0330(3)
H2RA H 0.6401 -0.2524 0.0337
C5RA C 0.6192(2) -0.2021(3) 0.0441(3)
H3RA H 0.6416 -0.1911 0.0520
C6RA C 0.5867(2) -0.1822(2) 0.0434(2)
H4RA H 0.5862 -0.1573 0.0515
C7RA C 0.55523(17) -0.19897(19) 0.03100(18)
C8RA C 0.52010(16) -0.17954(17) 0.02866(15)
H5RA H 0.5182 -0.1546 0.0364
C9RA C 0.45824(15) -0.17578(16) 0.01408(13)
C10RA C 0.42854(15) -0.18800(14) 0.03423(15)
H6RA H 0.4306 -0.2098 0.0485
C11RA C 0.39549(14) -0.16857(16) 0.03379(15)
C12RA C 0.39231(17) -0.13634(19) 0.01354(16)
C13RA C 0.4221(2) -0.1255(2) -0.00750(19)
H7RA H 0.4199 -0.1042 -0.0225
C14RA C 0.45538(19) -0.1450(2) -0.00729(17)
H8RA H 0.4756 -0.1369 -0.0218
N1RA N 0.55423(13) -0.23447(14) 0.01992(14)
N2RA N 0.49200(12) -0.19643(13) 0.01612(12)
O1RA O 0.33322(16) -0.2000(2) 0.0293(2)
O2RA O 0.34097(12) -0.15993(13) 0.07988(14)
O3RA O 0.37354(14) -0.21661(15) 0.0798(2)
S1RA S 0.35810(4) -0.18783(5) 0.05881(6)
Ni1N Ni 0.248006(15) -0.251994(15) -0.251994(15)
C3U C 0.16458(18) -0.2534(2) -0.2707(2)
H1U H 0.1646 -0.2783 -0.2626
C4U C 0.1317(2) -0.2379(3) -0.2830(3)
H2U H 0.1099 -0.2524 -0.2837
C5U C 0.1308(2) -0.2021(3) -0.2941(3)
H3U H 0.1084 -0.1911 -0.3020
C6U C 0.1633(2) -0.1822(2) -0.2934(2)
H4U H 0.1638 -0.1573 -0.3015
C7U C 0.19477(17) -0.19897(19) -0.28100(18)
C8U C 0.22990(16) -0.17954(17) -0.27866(15)
H5U H 0.2318 -0.1546 -0.2864
C9U C 0.29176(15) -0.17578(16) -0.26408(13)
C10U C 0.32146(15) -0.18800(14) -0.28423(15)
H6U H 0.3194 -0.2098 -0.2985
C11U C 0.35451(14) -0.16857(16) -0.28379(15)
C12U C 0.35769(17) -0.13634(19) -0.26354(16)
C13U C 0.3279(2) -0.1255(2) -0.24250(19)
H7U H 0.3301 -0.1042 -0.2275
C14U C 0.29462(19) -0.1450(2) -0.24271(17)
H8U H 0.2744 -0.1369 -0.2282
N1U N 0.19577(13) -0.23447(14) -0.26992(14)
N2U N 0.25800(12) -0.19643(13) -0.26612(12)
O1U O 0.41678(16) -0.2000(2) -0.2793(2)
O2U O 0.40903(12) -0.15993(13) -0.32988(14)
O3U O 0.37646(14) -0.21661(15) -0.3298(2)
S1U S 0.39190(4) -0.18783(5) -0.30881(6)
C3IA C 0.58542(18) 0.0034(2) -0.2707(2)
H1IA H 0.5854 0.0283 -0.2626
C4IA C 0.6183(2) -0.0121(3) -0.2830(3)
H2IA H 0.6401 0.0024 -0.2837
C5IA C 0.6192(2) -0.0479(3) -0.2941(3)
H3IA H 0.6416 -0.0589 -0.3020
C6IA C 0.5867(2) -0.0678(2) -0.2934(2)
H4IA H 0.5862 -0.0927 -0.3015
C7IA C 0.55523(17) -0.05103(19) -0.28100(18)
C8IA C 0.52010(16) -0.07046(17) -0.27866(15)
H5IA H 0.5182 -0.0954 -0.2864
C9IA C 0.45824(15) -0.07422(16) -0.26408(13)
C10IA C 0.42854(15) -0.06200(14) -0.28423(15)
H6IA H 0.4306 -0.0402 -0.2985
C11IA C 0.39549(14) -0.08143(16) -0.28379(15)
C12IA C 0.39231(17) -0.11366(19) -0.26354(16)
C13IA C 0.4221(2) -0.1245(2) -0.24250(19)
H7IA H 0.4199 -0.1458 -0.2275
C14IA C 0.45538(19) -0.1050(2) -0.24271(17)
H8IA H 0.4756 -0.1131 -0.2282
N1IA N 0.55423(13) -0.01553(14) -0.26992(14)
N2IA N 0.49200(12) -0.05357(13) -0.26612(12)
O1IA O 0.33322(16) -0.0500(2) -0.2793(2)
O2IA O 0.34097(12) -0.09007(13) -0.32988(14)
O3IA O 0.37354(14) -0.03339(15) -0.3298(2)
S1IA S 0.35810(4) -0.06217(5) -0.30881(6)
Ni1AA Ni 0.501994(15) 0.001994(15) -0.251994(15)
C3BA C 0.5207(2) 0.08542(18) -0.2534(2)
H1BA H 0.5126 0.0854 -0.2783
C4BA C 0.5330(3) 0.1183(2) -0.2379(3)
H2BA H 0.5337 0.1401 -0.2524
C5BA C 0.5441(3) 0.1192(2) -0.2021(3)
H3BA H 0.5520 0.1416 -0.1911
C6BA C 0.5434(2) 0.0867(2) -0.1822(2)
H4BA H 0.5515 0.0862 -0.1573
C7BA C 0.53100(18) 0.05523(17) -0.19897(19)
C8BA C 0.52866(15) 0.02010(16) -0.17954(17)
H5BA H 0.5364 0.0182 -0.1546
C9BA C 0.51408(13) -0.04176(15) -0.17578(16)
C10BA C 0.53423(15) -0.07146(15) -0.18800(14)
H6BA H 0.5485 -0.0694 -0.2098
C11BA C 0.53379(15) -0.10451(14) -0.16857(16)
C12BA C 0.51354(16) -0.10769(17) -0.13634(19)
C13BA C 0.49250(19) -0.0779(2) -0.1255(2)
H7BA H 0.4775 -0.0801 -0.1042
C14BA C 0.49271(17) -0.04462(19) -0.1450(2)
H8BA H 0.4782 -0.0244 -0.1369
N1BA N 0.51992(14) 0.05423(13) -0.23447(14)
N2BA N 0.51612(12) -0.00800(12) -0.19643(13)
O1BA O 0.5293(2) -0.16678(16) -0.2000(2)
O2BA O 0.57988(14) -0.15903(12) -0.15993(13)
O3BA O 0.5798(2) -0.12646(14) -0.21661(15)
S1BA S 0.55881(6) -0.14190(4) -0.18783(5)
C3PA C 0.5207(2) -0.33542(18) 0.0034(2)
H1PA H 0.5126 -0.3354 0.0283
C4PA C 0.5330(3) -0.3683(2) -0.0121(3)
H2PA H 0.5337 -0.3901 0.0024
C5PA C 0.5441(3) -0.3692(2) -0.0479(3)
H3PA H 0.5520 -0.3916 -0.0589
C6PA C 0.5434(2) -0.3367(2) -0.0678(2)
H4PA H 0.5515 -0.3362 -0.0927
C7PA C 0.53100(18) -0.30523(17) -0.05103(19)
C8PA C 0.52866(15) -0.27010(16) -0.07046(17)
H5PA H 0.5364 -0.2682 -0.0954
C9PA C 0.51408(13) -0.20824(15) -0.07422(16)
C10PA C 0.53423(15) -0.17854(15) -0.06200(14)
H6PA H 0.5485 -0.1806 -0.0402
C11PA C 0.53379(15) -0.14549(14) -0.08143(16)
C12PA C 0.51354(16) -0.14231(17) -0.11366(19)
C13PA C 0.49250(19) -0.1721(2) -0.1245(2)
H7PA H 0.4775 -0.1699 -0.1458
C14PA C 0.49271(17) -0.20538(19) -0.1050(2)
H8PA H 0.4782 -0.2256 -0.1131
N1PA N 0.51992(14) -0.30423(13) -0.01553(14)
N2PA N 0.51612(12) -0.24200(12) -0.05357(13)
O1PA O 0.5293(2) -0.08322(16) -0.0500(2)
O2PA O 0.57988(14) -0.09097(12) -0.09007(13)
O3PA O 0.5798(2) -0.12354(14) -0.03339(15)
S1PA S 0.55881(6) -0.10810(4) -0.06217(5)
Ni1KA Ni 0.501994(15) -0.251994(15) 0.001994(15)
C3N C 0.2466(2) -0.2707(2) -0.33542(18)
H1N H 0.2217 -0.2626 -0.3354
C4N C 0.2621(3) -0.2830(3) -0.3683(2)
H2N H 0.2476 -0.2837 -0.3901
C5N C 0.2979(3) -0.2941(3) -0.3692(2)
H3N H 0.3089 -0.3020 -0.3916
C6N C 0.3178(2) -0.2934(2) -0.3367(2)
H4N H 0.3427 -0.3015 -0.3362
C7N C 0.30103(19) -0.28100(18) -0.30523(17)
C8N C 0.32046(17) -0.27866(15) -0.27010(16)
H5N H 0.3454 -0.2864 -0.2682
C9N C 0.32422(16) -0.26408(13) -0.20824(15)
C10N C 0.31200(14) -0.28423(15) -0.17854(15)
H6N H 0.2902 -0.2985 -0.1806
C11N C 0.33143(16) -0.28379(15) -0.14549(14)
C12N C 0.36366(19) -0.26354(16) -0.14231(17)
C13N C 0.3745(2) -0.24250(19) -0.1721(2)
H7N H 0.3958 -0.2275 -0.1699
C14N C 0.3550(2) -0.24271(17) -0.20538(19)
H8N H 0.3631 -0.2282 -0.2256
N1N N 0.26553(14) -0.26992(14) -0.30423(13)
N2N N 0.30357(13) -0.26612(12) -0.24200(12)
O1N O 0.3000(2) -0.2793(2) -0.08322(16)
O2N O 0.34007(13) -0.32988(14) -0.09097(12)
O3N O 0.28339(15) -0.3298(2) -0.12354(14)
S1N S 0.31217(5) -0.30881(6) -0.10810(4)
C3KA C 0.5034(2) -0.2707(2) 0.08542(18)
H1KA H 0.5283 -0.2626 0.0854
C4KA C 0.4879(3) -0.2830(3) 0.1183(2)
H2KA H 0.5024 -0.2837 0.1401
C5KA C 0.4521(3) -0.2941(3) 0.1192(2)
H3KA H 0.4411 -0.3020 0.1416
C6KA C 0.4322(2) -0.2934(2) 0.0867(2)
H4KA H 0.4073 -0.3015 0.0862
C7KA C 0.44897(19) -0.28100(18) 0.05523(17)
C8KA C 0.42954(17) -0.27866(15) 0.02010(16)
H5KA H 0.4046 -0.2864 0.0182
C9KA C 0.42578(16) -0.26408(13) -0.04176(15)
C10KA C 0.43800(14) -0.28423(15) -0.07146(15)
H6KA H 0.4598 -0.2985 -0.0694
C11KA C 0.41857(16) -0.28379(15) -0.10451(14)
C12KA C 0.38634(19) -0.26354(16) -0.10769(17)
C13KA C 0.3755(2) -0.24250(19) -0.0779(2)
H7KA H 0.3542 -0.2275 -0.0801
C14KA C 0.3950(2) -0.24271(17) -0.04462(19)
H8KA H 0.3869 -0.2282 -0.0244
N1KA N 0.48447(14) -0.26992(14) 0.05423(13)
N2KA N 0.44643(13) -0.26612(12) -0.00800(12)
O1KA O 0.4500(2) -0.2793(2) -0.16678(16)
O2KA O 0.40993(13) -0.32988(14) -0.15903(12)
O3KA O 0.46661(15) -0.3298(2) -0.12646(14)
S1KA S 0.43783(5) -0.30881(6) -0.14190(4)
Ni2 Ni 0.5000 0.0000 0.0000
O4 O 0.4858(7) -0.0142(5) 0.0532(3)
O4BA O 0.4858(5) 0.0532(3) -0.0142(7)
O4RA O 0.5532(3) -0.0142(7) -0.0142(5)
O4VA O 0.5142(7) 0.0142(5) -0.0532(3)
O4XB O 0.5142(5) -0.0532(3) 0.0142(7)
O4NC O 0.4468(3) 0.0142(7) 0.0142(5)
O5 O 0.1882(2) 0.0618(2) 0.1882(2)
O6 O 0.3776(3) 0.0849(2) -0.02078(18)
O7 O 0.1620(2) 0.0204(2) 0.1295(2)
O8 O 0.1750(3) 0.0750(3) 0.0750(3)
O9 O 0.1851(5) -0.0433(5) 0.1250(5)
O10 O 0.3166(4) 0.1429(4) -0.0916(5)
O11 O 0.3061(8) 0.1099(8) -0.0113(9)
O12 O 0.2163(10) -0.0561(10) 0.2122(10)
O13 O 0.2194(13) -0.0050(13) 0.2082(14)
C1 C 0.4006(5) -0.0994(5) -0.0994(5)
C2 C 0.4004(8) -0.0886(8) -0.1340(7)
C1G C 0.3494(5) -0.0994(5) -0.1506(5)
C2U C 0.3840(7) -0.0996(8) -0.1614(8)
C2BA C 0.4114(8) -0.1340(7) -0.0996(8)
C1N C 0.4006(5) -0.1506(5) -0.1506(5)
C2PA C 0.4114(8) -0.1160(7) -0.1504(8)
C2RA C 0.3660(7) -0.0996(8) -0.0886(8)
C2G C 0.3386(8) -0.1340(7) -0.1504(8)
C1J C 0.3494(5) -0.1506(5) -0.0994(5)
C2J C 0.3840(7) -0.1504(8) -0.0886(8)
C2N C 0.4004(8) -0.1614(8) -0.1160(7)
C2Q C 0.3386(8) -0.1160(7) -0.0996(8)
C2AA C 0.3496(8) -0.0886(8) -0.1160(7)
C2IA C 0.3660(7) -0.1504(8) -0.1614(8)
C2KA C 0.3496(8) -0.1614(8) -0.1340(7)
O14? O 0.4438(3) 0.0062(7) -0.0068(8)
O15? O 0.3121(6) 0.1174(6) -0.0299(7)
O16? O 0.4733(4) 0.0045(8) 0.0501(3)
O17? O 0.5474(3) 0.0197(4) 0.0245(4)
O18? O 0.4049(5) 0.0688(5) -0.0133(5)
O19? O 0.3528(3) 0.1228(4) 0.1117(3)
O20? O 0.3300(8) 0.1111(7) -0.0178(7)
O21? O 0.3025(14) 0.1262(13) -0.0531(16)
O22? O 0.2083(5) -0.0432(4) 0.1487(5)
loop_
_geom_bond_atom_site_label_1
_geom_bond_atom_site_label_2
_geom_bond_site_symmetry_1
_geom_bond_site_symmetry_2
C1 C2 1_555 1_555
C2 C2U 1_555 1_555
Ni1 N1 1_555 1_555
C3 H1 1_555 1_555
C4 C3 1_555 1_555
H2 C4 1_555 1_555
C5 C4 1_555 1_555
H3 C5 1_555 1_555
C6 C5 1_555 1_555
H4 C6 1_555 1_555
C7 C6 1_555 1_555
C8 C7 1_555 1_555
H5 C8 1_555 1_555
C9 C10 1_555 1_555
C10 H6 1_555 1_555
C11 C10 1_555 1_555
C12 C11 1_555 1_555
C13 C12 1_555 1_555
H7 C13 1_555 1_555
C14 C9 1_555 1_555
H8 C14 1_555 1_555
N1 C3 1_555 1_555
N2 Ni1 1_555 1_555
O1 S1 1_555 1_555
O2 S1 1_555 1_555
O3 S1 1_555 1_555
S1 C11 1_555 1_555
Ni2 O4 1_555 1_555
C1G C2U 1_555 1_555
C2U C2PA 1_555 1_555
C2BA C1 1_555 1_555
C1N C2PA 1_555 1_555
C2PA C2 1_555 1_555
C2RA C1 1_555 1_555
C2G C1G 1_555 1_555
C1J C2J 1_555 1_555
C2J C2BA 1_555 1_555
C2N C2BA 1_555 1_555
C2Q C2RA 1_555 1_555
C2AA C1G 1_555 1_555
C2IA C1N 1_555 1_555
C2KA C2G 1_555 1_555
C3AA H1AA 1_555 1_555
C4AA C3AA 1_555 1_555
H2AA C4AA 1_555 1_555
C5AA C4AA 1_555 1_555
H3AA C5AA 1_555 1_555
C6AA C5AA 1_555 1_555
H4AA C6AA 1_555 1_555
C7AA C6AA 1_555 1_555
C8AA C7AA 1_555 1_555
H5AA C8AA 1_555 1_555
C9AA C10AA 1_555 1_555
C10AA H6AA 1_555 1_555
C11AA C10AA 1_555 1_555
C12AA C12 1_555 1_555
C13AA C12AA 1_555 1_555
H7AA C13AA 1_555 1_555
C14AA C9AA 1_555 1_555
H8AA C14AA 1_555 1_555
N1AA C3AA 1_555 1_555
N2AA C8AA 1_555 1_555
O1AA S1AA 1_555 1_555
O2AA S1AA 1_555 1_555
O3AA S1AA 1_555 1_555
S1AA C11AA 1_555 1_555
C3G H1G 1_555 1_555
C4G C3G 1_555 1_555
H2G C4G 1_555 1_555
C5G C4G 1_555 1_555
H3G C5G 1_555 1_555
C6G C5G 1_555 1_555
H4G C6G 1_555 1_555
C7G C6G 1_555 1_555
C8G C7G 1_555 1_555
H5G C8G 1_555 1_555
C9G C10G 1_555 1_555
C10G H6G 1_555 1_555
C11G C10G 1_555 1_555
C12G C11G 1_555 1_555
C13G C12G 1_555 1_555
H7G C13G 1_555 1_555
C14G C9G 1_555 1_555
H8G C14G 1_555 1_555
N1G Ni1 1_555 1_555
N2G Ni1 1_555 1_555
O1G S1G 1_555 1_555
O2G S1G 1_555 1_555
O3G S1G 1_555 1_555
S1G C11G 1_555 1_555
C3Q H1Q 1_555 1_555
C4Q C3Q 1_555 1_555
H2Q C4Q 1_555 1_555
C5Q C4Q 1_555 1_555
H3Q C5Q 1_555 1_555
C6Q C5Q 1_555 1_555
H4Q C6Q 1_555 1_555
C7Q C6Q 1_555 1_555
C8Q C7Q 1_555 1_555
H5Q C8Q 1_555 1_555
C9Q C10Q 1_555 1_555
C10Q H6Q 1_555 1_555
C11Q C10Q 1_555 1_555
C12Q C12G 1_555 1_555
C13Q C12Q 1_555 1_555
H7Q C13Q 1_555 1_555
C14Q C9Q 1_555 1_555
H8Q C14Q 1_555 1_555
N1Q C3Q 1_555 1_555
N2Q C8Q 1_555 1_555
O1Q S1Q 1_555 1_555
O2Q S1Q 1_555 1_555
O3Q S1Q 1_555 1_555
S1Q C11Q 1_555 1_555
C3J H1J 1_555 1_555
C4J C3J 1_555 1_555
H2J C4J 1_555 1_555
C5J C4J 1_555 1_555
H3J C5J 1_555 1_555
C6J C5J 1_555 1_555
H4J C6J 1_555 1_555
C7J C6J 1_555 1_555
C8J C7J 1_555 1_555
H5J C8J 1_555 1_555
C9J C10J 1_555 1_555
C10J H6J 1_555 1_555
C11J C10J 1_555 1_555
C12J C11J 1_555 1_555
C13J C12J 1_555 1_555
H7J C13J 1_555 1_555
C14J C9J 1_555 1_555
H8J C14J 1_555 1_555
N1J Ni1 1_555 1_555
N2J Ni1 1_555 1_555
O1J S1J 1_555 1_555
O2J S1J 1_555 1_555
O3J S1J 1_555 1_555
S1J C11J 1_555 1_555
C3RA H1RA 1_555 1_555
C4RA C3RA 1_555 1_555
H2RA C4RA 1_555 1_555
C5RA C4RA 1_555 1_555
H3RA C5RA 1_555 1_555
C6RA C5RA 1_555 1_555
H4RA C6RA 1_555 1_555
C7RA C6RA 1_555 1_555
C8RA C7RA 1_555 1_555
H5RA C8RA 1_555 1_555
C9RA C10RA 1_555 1_555
C10RA H6RA 1_555 1_555
C11RA C10RA 1_555 1_555
C12RA C12J 1_555 1_555
C13RA C12RA 1_555 1_555
H7RA C13RA 1_555 1_555
C14RA C9RA 1_555 1_555
H8RA C14RA 1_555 1_555
N1RA C3RA 1_555 1_555
N2RA C8RA 1_555 1_555
O1RA S1RA 1_555 1_555
O2RA S1RA 1_555 1_555
O3RA S1RA 1_555 1_555
S1RA C11RA 1_555 1_555
Ni1N N1Q 1_555 1_555
C3U H1U 1_555 1_555
C4U C3U 1_555 1_555
H2U C4U 1_555 1_555
C5U C4U 1_555 1_555
H3U C5U 1_555 1_555
C6U C5U 1_555 1_555
H4U C6U 1_555 1_555
C7U C6U 1_555 1_555
C8U C7U 1_555 1_555
H5U C8U 1_555 1_555
C9U C10U 1_555 1_555
C10U H6U 1_555 1_555
C11U C10U 1_555 1_555
C12U C11U 1_555 1_555
C13U C12U 1_555 1_555
H7U C13U 1_555 1_555
C14U C9U 1_555 1_555
H8U C14U 1_555 1_555
N1U Ni1N 1_555 1_555
N2U Ni1N 1_555 1_555
O1U S1U 1_555 1_555
O2U S1U 1_555 1_555
O3U S1U 1_555 1_555
S1U C11U 1_555 1_555
C3IA H1IA 1_555 1_555
C4IA C3IA 1_555 1_555
H2IA C4IA 1_555 1_555
C5IA C4IA 1_555 1_555
H3IA C5IA 1_555 1_555
C6IA C5IA 1_555 1_555
H4IA C6IA 1_555 1_555
C7IA C6IA 1_555 1_555
C8IA C7IA 1_555 1_555
H5IA C8IA 1_555 1_555
C9IA C10IA 1_555 1_555
C10IA H6IA 1_555 1_555
C11IA C10IA 1_555 1_555
C12IA C12U 1_555 1_555
C13IA C12IA 1_555 1_555
H7IA C13IA 1_555 1_555
C14IA C9IA 1_555 1_555
H8IA C14IA 1_555 1_555
N1IA C3IA 1_555 1_555
N2IA C8IA 1_555 1_555
O1IA S1IA 1_555 1_555
O2IA S1IA 1_555 1_555
O3IA S1IA 1_555 1_555
S1IA C11IA 1_555 1_555
Ni1AA N1AA 1_555 1_555
C3BA H1BA 1_555 1_555
C4BA C3BA 1_555 1_555
H2BA C4BA 1_555 1_555
C5BA C4BA 1_555 1_555
H3BA C5BA 1_555 1_555
C6BA C5BA 1_555 1_555
H4BA C6BA 1_555 1_555
C7BA C6BA 1_555 1_555
C8BA C7BA 1_555 1_555
H5BA C8BA 1_555 1_555
C9BA C10BA 1_555 1_555
C10BA H6BA 1_555 1_555
C11BA C10BA 1_555 1_555
C12BA C11BA 1_555 1_555
C13BA C12BA 1_555 1_555
H7BA C13BA 1_555 1_555
C14BA C9BA 1_555 1_555
H8BA C14BA 1_555 1_555
N1BA Ni1AA 1_555 1_555
N2BA Ni1AA 1_555 1_555
O1BA S1BA 1_555 1_555
O2BA S1BA 1_555 1_555
O3BA S1BA 1_555 1_555
S1BA C11BA 1_555 1_555
C3PA H1PA 1_555 1_555
C4PA C3PA 1_555 1_555
H2PA C4PA 1_555 1_555
C5PA C4PA 1_555 1_555
H3PA C5PA 1_555 1_555
C6PA C5PA 1_555 1_555
H4PA C6PA 1_555 1_555
C7PA C6PA 1_555 1_555
C8PA C7PA 1_555 1_555
H5PA C8PA 1_555 1_555
C9PA C10PA 1_555 1_555
C10PA H6PA 1_555 1_555
C11PA C10PA 1_555 1_555
C12PA C12BA 1_555 1_555
C13PA C12PA 1_555 1_555
H7PA C13PA 1_555 1_555
C14PA C9PA 1_555 1_555
H8PA C14PA 1_555 1_555
N1PA C3PA 1_555 1_555
N2PA C8PA 1_555 1_555
O1PA S1PA 1_555 1_555
O2PA S1PA 1_555 1_555
O3PA S1PA 1_555 1_555
S1PA C11PA 1_555 1_555
Ni1KA N1RA 1_555 1_555
C3N H1N 1_555 1_555
C4N C3N 1_555 1_555
H2N C4N 1_555 1_555
C5N C4N 1_555 1_555
H3N C5N 1_555 1_555
C6N C5N 1_555 1_555
H4N C6N 1_555 1_555
C7N C6N 1_555 1_555
C8N C7N 1_555 1_555
H5N C8N 1_555 1_555
C9N C10N 1_555 1_555
C10N H6N 1_555 1_555
C11N C10N 1_555 1_555
C12N C11N 1_555 1_555
C13N C12N 1_555 1_555
H7N C13N 1_555 1_555
C14N C9N 1_555 1_555
H8N C14N 1_555 1_555
N1N Ni1N 1_555 1_555
N2N Ni1N 1_555 1_555
O1N S1N 1_555 1_555
O2N S1N 1_555 1_555
O3N S1N 1_555 1_555
S1N C11N 1_555 1_555
C3KA H1KA 1_555 1_555
C4KA C3KA 1_555 1_555
H2KA C4KA 1_555 1_555
C5KA C4KA 1_555 1_555
H3KA C5KA 1_555 1_555
C6KA C5KA 1_555 1_555
H4KA C6KA 1_555 1_555
C7KA C6KA 1_555 1_555
C8KA C7KA 1_555 1_555
H5KA C8KA 1_555 1_555
C9KA C10KA 1_555 1_555
C10KA H6KA 1_555 1_555
C11KA C10KA 1_555 1_555
C12KA C12N 1_555 1_555
C13KA C12KA 1_555 1_555
H7KA C13KA 1_555 1_555
C14KA C9KA 1_555 1_555
H8KA C14KA 1_555 1_555
N1KA Ni1KA 1_555 1_555
N2KA Ni1KA 1_555 1_555
O1KA S1KA 1_555 1_555
O2KA S1KA 1_555 1_555
O3KA S1KA 1_555 1_555
S1KA C11KA 1_555 1_555
O4BA Ni2 1_555 1_555
O4RA Ni2 1_555 1_555
O4VA Ni2 1_555 1_555
O4XB Ni2 1_555 1_555
O4NC Ni2 1_555 1_555
C7 N1 1_555 1_555
C8 N2 1_555 1_555
C9 N2 1_555 1_555
C13 C14 1_555 1_555
C1N C2N 1_555 1_555
C2RA C2AA 1_555 1_555
C2G C2IA 1_555 1_555
C1J C2Q 1_555 1_555
C1J C2KA 1_555 1_555
C2J C2N 1_555 1_555
C2Q C2AA 1_555 1_555
C2IA C2KA 1_555 1_555
C7AA N1AA 1_555 1_555
C9AA N2AA 1_555 1_555
C11AA C12AA 1_555 1_555
C13AA C14AA 1_555 1_555
N2AA Ni1AA 1_555 1_555
C3G N1G 1_555 1_555
C7G N1G 1_555 1_555
C8G N2G 1_555 1_555
C9G N2G 1_555 1_555
C13G C14G 1_555 1_555
C7Q N1Q 1_555 1_555
C9Q N2Q 1_555 1_555
C11Q C12Q 1_555 1_555
C13Q C14Q 1_555 1_555
N2Q Ni1N 1_555 1_555
C3J N1J 1_555 1_555
C7J N1J 1_555 1_555
C8J N2J 1_555 1_555
C9J N2J 1_555 1_555
C13J C14J 1_555 1_555
C7RA N1RA 1_555 1_555
C9RA N2RA 1_555 1_555
C11RA C12RA 1_555 1_555
C13RA C14RA 1_555 1_555
N2RA Ni1KA 1_555 1_555
C3U N1U 1_555 1_555
C7U N1U 1_555 1_555
C8U N2U 1_555 1_555
C9U N2U 1_555 1_555
C13U C14U 1_555 1_555
C7IA N1IA 1_555 1_555
C9IA N2IA 1_555 1_555
C11IA C12IA 1_555 1_555
C13IA C14IA 1_555 1_555
N1IA Ni1AA 1_555 1_555
N2IA Ni1AA 1_555 1_555
C3BA N1BA 1_555 1_555
C7BA N1BA 1_555 1_555
C8BA N2BA 1_555 1_555
C9BA N2BA 1_555 1_555
C13BA C14BA 1_555 1_555
C7PA N1PA 1_555 1_555
C9PA N2PA 1_555 1_555
C11PA C12PA 1_555 1_555
C13PA C14PA 1_555 1_555
N1PA Ni1KA 1_555 1_555
N2PA Ni1KA 1_555 1_555
C3N N1N 1_555 1_555
C7N N1N 1_555 1_555
C8N N2N 1_555 1_555
C9N N2N 1_555 1_555
C13N C14N 1_555 1_555
C3KA N1KA 1_555 1_555
C7KA N1KA 1_555 1_555
C8KA N2KA 1_555 1_555
C9KA N2KA 1_555 1_555
C11KA C12KA 1_555 1_555
C13KA C14KA 1_555 1_555

#END
