# generated using pymatgen
data_Ni6H96C148S12Br16N24O215
_symmetry_space_group_name_H-M   'P 1'
_cell_length_a   25.62470000
_cell_length_b   25.63785346
_cell_length_c   25.63785346
_cell_angle_alpha   90.00758520
_cell_angle_beta   119.99272980
_cell_angle_gamma   119.99272980
_symmetry_Int_Tables_number   1
_chemical_formula_structural   Ni6H96C148S12Br16N24O215
_chemical_formula_sum   'Ni12 H192 C296 S24 Br32 N48 O430'
_cell_volume   11911.70152084
_cell_formula_units_Z   2
loop_
 _symmetry_equiv_pos_site_id
 _symmetry_equiv_pos_as_xyz
  1  'x, y, z'
loop_
 _atom_site_type_symbol
 _atom_site_label
 _atom_site_symmetry_multiplicity
 _atom_site_fract_x
 _atom_site_fract_y
 _atom_site_fract_z
 _atom_site_occupancy
  Br  Br1  1  0.321500  0.160900  0.839300  1
  Br  Br2  1  0.178500  0.160700  0.839100  1
  Br  Br3  1  0.678500  0.839100  0.160700  1
  Br  Br4  1  0.821500  0.839300  0.160900  1
  Br  Br5  1  0.306200  0.194560  0.946060  1
  Br  Br6  1  0.193800  0.053940  0.805440  1
  Br  Br7  1  0.693800  0.805440  0.053940  1
  Br  Br8  1  0.806200  0.946060  0.194560  1
  Br  Br9  1  0.165600  0.111670  0.805530  1
  Br  Br10  1  0.334400  0.194470  0.888330  1
  Br  Br11  1  0.834400  0.888330  0.194470  1
  Br  Br12  1  0.665600  0.805530  0.111670  1
  Br  Br13  1  0.248500  0.054070  0.888330  1
  Br  Br14  1  0.251500  0.111670  0.945930  1
  Br  Br15  1  0.751500  0.945930  0.111670  1
  Br  Br16  1  0.748500  0.888330  0.054070  1
  Br  Br17  1  0.178500  0.017720  0.839320  1.0
  Br  Br18  1  0.321500  0.160680  0.982280  1.0
  Br  Br19  1  0.821500  0.982280  0.160680  1.0
  Br  Br20  1  0.678500  0.839320  0.017720  1.0
  Br  Br21  1  0.251500  0.139780  0.805420  1.0
  Br  Br22  1  0.248500  0.194580  0.860220  1.0
  Br  Br23  1  0.748500  0.860220  0.194580  1.0
  Br  Br24  1  0.751500  0.805420  0.139780  1.0
  Br  Br25  1  0.193800  0.139710  0.888330  1.0
  Br  Br26  1  0.306200  0.111670  0.860290  1.0
  Br  Br27  1  0.806200  0.860290  0.111670  1.0
  Br  Br28  1  0.693800  0.888330  0.139710  1.0
  Br  Br29  1  0.334300  0.139750  0.946090  1.0
  Br  Br30  1  0.165700  0.053910  0.860250  1.0
  Br  Br31  1  0.665700  0.860250  0.053910  1.0
  Br  Br32  1  0.834300  0.946090  0.139750  1.0
  C  C33  1  0.260400  0.130300  0.869900  1
  C  C34  1  0.239600  0.130100  0.869700  1
  C  C35  1  0.739600  0.869700  0.130100  1
  C  C36  1  0.760400  0.869900  0.130300  1
  C  C37  1  0.671400  0.318800  0.810000  1.0
  C  C38  1  0.828600  0.190000  0.681200  1.0
  C  C39  1  0.328600  0.681200  0.190000  1.0
  C  C40  1  0.171400  0.810000  0.318800  1.0
  C  C41  1  0.737100  0.323500  0.846100  1.0
  C  C42  1  0.762900  0.153900  0.676500  1.0
  C  C43  1  0.262900  0.676500  0.153900  1.0
  C  C44  1  0.237100  0.846100  0.323500  1.0
  C  C45  1  0.737500  0.275400  0.871600  1.0
  C  C46  1  0.762500  0.128400  0.724600  1.0
  C  C47  1  0.262500  0.724600  0.128400  1.0
  C  C48  1  0.237500  0.871600  0.275400  1.0
  C  C49  1  0.673700  0.224900  0.859900  1.0
  C  C50  1  0.826300  0.140100  0.775100  1.0
  C  C51  1  0.326300  0.775100  0.140100  1.0
  C  C52  1  0.173700  0.859900  0.224900  1.0
  C  C53  1  0.610400  0.222400  0.824400  1.0
  C  C54  1  0.889600  0.175600  0.777600  1.0
  C  C55  1  0.389600  0.777600  0.175600  1.0
  C  C56  1  0.110400  0.824400  0.222400  1.0
  C  C57  1  0.540200  0.170800  0.810800  1.0
  C  C58  1  0.959800  0.189200  0.829200  1.0
  C  C59  1  0.459800  0.829200  0.189200  1.0
  C  C60  1  0.040200  0.810800  0.170800  1.0
  C  C61  1  0.416500  0.120200  0.767400  1.0
  C  C62  1  0.083500  0.232600  0.879800  1.0
  C  C63  1  0.583500  0.879800  0.232600  1.0
  C  C64  1  0.916500  0.767400  0.120200  1.0
  C  C65  1  0.357000  0.081700  0.705700  1.0
  C  C66  1  0.143000  0.294300  0.918300  1.0
  C  C67  1  0.643000  0.918300  0.294300  1.0
  C  C68  1  0.857000  0.705700  0.081700  1.0
  C  C69  1  0.291300  0.030400  0.692400  1.0
  C  C70  1  0.208700  0.307600  0.969600  1.0
  C  C71  1  0.708700  0.969600  0.307600  1.0
  C  C72  1  0.791300  0.692400  0.030400  1.0
  C  C73  1  0.284900  0.015100  0.742500  1.0
  C  C74  1  0.215100  0.257500  0.984900  1.0
  C  C75  1  0.715100  0.984900  0.257500  1.0
  C  C76  1  0.784900  0.742500  0.015100  1.0
  C  C77  1  0.343400  0.055600  0.802600  1.0
  C  C78  1  0.156600  0.197400  0.944400  1.0
  C  C79  1  0.656600  0.944400  0.197400  1.0
  C  C80  1  0.843400  0.802600  0.055600  1.0
  C  C81  1  0.410400  0.105800  0.817600  1.0
  C  C82  1  0.089600  0.182400  0.894200  1.0
  C  C83  1  0.589600  0.894200  0.182400  1.0
  C  C84  1  0.910400  0.817600  0.105800  1.0
  C  C85  1  0.828600  0.639200  0.646400  1.0
  C  C86  1  0.671400  0.353600  0.360800  1.0
  C  C87  1  0.171400  0.360800  0.353600  1.0
  C  C88  1  0.328600  0.646400  0.639200  1.0
  C  C89  1  0.762500  0.609900  0.587100  1.0
  C  C90  1  0.737500  0.412900  0.390100  1.0
  C  C91  1  0.237500  0.390100  0.412900  1.0
  C  C92  1  0.262500  0.587100  0.609900  1.0
  C  C93  1  0.762900  0.633000  0.538400  1.0
  C  C94  1  0.737100  0.461600  0.367000  1.0
  C  C95  1  0.237100  0.367000  0.461600  1.0
  C  C96  1  0.262900  0.538400  0.633000  1.0
  C  C97  1  0.825900  0.685900  0.550100  1.0
  C  C98  1  0.674100  0.449900  0.314100  1.0
  C  C99  1  0.174100  0.314100  0.449900  1.0
  C  C100  1  0.325900  0.550100  0.685900  1.0
  C  C101  1  0.889700  0.713800  0.612200  1.0
  C  C102  1  0.610300  0.387800  0.286200  1.0
  C  C103  1  0.110300  0.286200  0.387800  1.0
  C  C104  1  0.389700  0.612200  0.713800  1.0
  C  C105  1  0.959200  0.770000  0.630400  1.0
  C  C106  1  0.540800  0.369600  0.230000  1.0
  C  C107  1  0.040800  0.230000  0.369600  1.0
  C  C108  1  0.459200  0.630400  0.770000  1.0
  C  C109  1  0.083200  0.851200  0.703400  1.0
  C  C110  1  0.416800  0.296600  0.148800  1.0
  C  C111  1  0.916800  0.148800  0.296600  1.0
  C  C112  1  0.583200  0.703400  0.851200  1.0
  C  C113  1  0.142600  0.848300  0.724900  1.0
  C  C114  1  0.357400  0.275100  0.151700  1.0
  C  C115  1  0.857400  0.151700  0.275100  1.0
  C  C116  1  0.642600  0.724900  0.848300  1.0
  C  C117  1  0.209200  0.901900  0.739100  1.0
  C  C118  1  0.290800  0.260900  0.098100  1.0
  C  C119  1  0.790800  0.098100  0.260900  1.0
  C  C120  1  0.709200  0.739100  0.901900  1.0
  C  C121  1  0.215200  0.957500  0.730100  1.0
  C  C122  1  0.284800  0.269900  0.042500  1.0
  C  C123  1  0.784800  0.042500  0.269900  1.0
  C  C124  1  0.715200  0.730100  0.957500  1.0
  C  C125  1  0.156800  0.960100  0.711500  1.0
  C  C126  1  0.343200  0.288500  0.039900  1.0
  C  C127  1  0.843200  0.039900  0.288500  1.0
  C  C128  1  0.656800  0.711500  0.960100  1.0
  C  C129  1  0.089700  0.907000  0.696600  1.0
  C  C130  1  0.410300  0.303400  0.093000  1.0
  C  C131  1  0.910300  0.093000  0.303400  1.0
  C  C132  1  0.589700  0.696600  0.907000  1.0
  C  C133  1  0.542700  0.353100  0.681500  1.0
  C  C134  1  0.957300  0.318500  0.646900  1.0
  C  C135  1  0.457300  0.646900  0.318500  1.0
  C  C136  1  0.042700  0.681500  0.353100  1.0
  C  C137  1  0.566700  0.413500  0.676500  1.0
  C  C138  1  0.933300  0.323500  0.586500  1.0
  C  C139  1  0.433300  0.586500  0.323500  1.0
  C  C140  1  0.066700  0.676500  0.413500  1.0
  C  C141  1  0.591900  0.462300  0.725700  1.0
  C  C142  1  0.908100  0.274300  0.537700  1.0
  C  C143  1  0.408100  0.537700  0.274300  1.0
  C  C144  1  0.091900  0.725700  0.462300  1.0
  C  C145  1  0.589500  0.449500  0.775300  1.0
  C  C146  1  0.910500  0.224700  0.550500  1.0
  C  C147  1  0.410500  0.550500  0.224700  1.0
  C  C148  1  0.089500  0.775300  0.449500  1.0
  C  C149  1  0.564500  0.388300  0.777700  1.0
  C  C150  1  0.935500  0.222300  0.611700  1.0
  C  C151  1  0.435500  0.611700  0.222300  1.0
  C  C152  1  0.064500  0.777700  0.388300  1.0
  C  C153  1  0.558600  0.369500  0.828900  1.0
  C  C154  1  0.941400  0.171100  0.630500  1.0
  C  C155  1  0.441400  0.630500  0.171100  1.0
  C  C156  1  0.058600  0.828900  0.369500  1.0
  C  C157  1  0.529200  0.296900  0.880100  1.0
  C  C158  1  0.970800  0.119900  0.703100  1.0
  C  C159  1  0.470800  0.703100  0.119900  1.0
  C  C160  1  0.029200  0.880100  0.296900  1.0
  C  C161  1  0.569600  0.275200  0.918200  1.0
  C  C162  1  0.930400  0.081800  0.724800  1.0
  C  C163  1  0.430400  0.724800  0.081800  1.0
  C  C164  1  0.069600  0.918200  0.275200  1.0
  C  C165  1  0.568600  0.261300  0.970100  1.0
  C  C166  1  0.931400  0.029900  0.738700  1.0
  C  C167  1  0.431400  0.738700  0.029900  1.0
  C  C168  1  0.068600  0.970100  0.261300  1.0
  C  C169  1  0.527500  0.269900  0.985300  1.0
  C  C170  1  0.972500  0.014700  0.730100  1.0
  C  C171  1  0.472500  0.730100  0.014700  1.0
  C  C172  1  0.027500  0.985300  0.269900  1.0
  C  C173  1  0.484900  0.287900  0.944900  1.0
  C  C174  1  0.015100  0.055100  0.712100  1.0
  C  C175  1  0.515100  0.712100  0.055100  1.0
  C  C176  1  0.984900  0.944900  0.287900  1.0
  C  C177  1  0.485500  0.302300  0.892700  1.0
  C  C178  1  0.014500  0.107300  0.697700  1.0
  C  C179  1  0.514500  0.697700  0.107300  1.0
  C  C180  1  0.985500  0.892700  0.302300  1.0
  C  C181  1  0.543100  0.189600  0.360800  1.0
  C  C182  1  0.956900  0.639200  0.810400  1.0
  C  C183  1  0.456900  0.810400  0.639200  1.0
  C  C184  1  0.043100  0.360800  0.189600  1.0
  C  C185  1  0.566800  0.153100  0.390700  1.0
  C  C186  1  0.933200  0.609300  0.846900  1.0
  C  C187  1  0.433200  0.846900  0.609300  1.0
  C  C188  1  0.066800  0.390700  0.153100  1.0
  C  C189  1  0.591200  0.129200  0.367000  1.0
  C  C190  1  0.908800  0.633000  0.870800  1.0
  C  C191  1  0.408800  0.870800  0.633000  1.0
  C  C192  1  0.091200  0.367000  0.129200  1.0
  C  C193  1  0.589900  0.140800  0.314000  1.0
  C  C194  1  0.910100  0.686000  0.859200  1.0
  C  C195  1  0.410100  0.859200  0.686000  1.0
  C  C196  1  0.089900  0.314000  0.140800  1.0
  C  C197  1  0.563800  0.175500  0.286300  1.0
  C  C198  1  0.936200  0.713700  0.824500  1.0
  C  C199  1  0.436200  0.824500  0.713700  1.0
  C  C200  1  0.063800  0.286300  0.175500  1.0
  C  C201  1  0.559100  0.189700  0.229700  1.0
  C  C202  1  0.940900  0.770300  0.810300  1.0
  C  C203  1  0.440900  0.810300  0.770300  1.0
  C  C204  1  0.059100  0.229700  0.189700  1.0
  C  C205  1  0.528900  0.232500  0.148900  1.0
  C  C206  1  0.971100  0.851100  0.767500  1.0
  C  C207  1  0.471100  0.767500  0.851100  1.0
  C  C208  1  0.028900  0.148900  0.232500  1.0
  C  C209  1  0.569200  0.293700  0.151300  1.0
  C  C210  1  0.930800  0.848700  0.706300  1.0
  C  C211  1  0.430800  0.706300  0.848700  1.0
  C  C212  1  0.069200  0.151300  0.293700  1.0
  C  C213  1  0.568700  0.307400  0.098800  1.0
  C  C214  1  0.931300  0.901200  0.692600  1.0
  C  C215  1  0.431300  0.692600  0.901200  1.0
  C  C216  1  0.068700  0.098800  0.307400  1.0
  C  C217  1  0.527200  0.257400  0.042200  1.0
  C  C218  1  0.972800  0.957800  0.742600  1.0
  C  C219  1  0.472800  0.742600  0.957800  1.0
  C  C220  1  0.027200  0.042200  0.257400  1.0
  C  C221  1  0.485600  0.197000  0.040600  1.0
  C  C222  1  0.014400  0.959400  0.803000  1.0
  C  C223  1  0.514400  0.803000  0.959400  1.0
  C  C224  1  0.985600  0.040600  0.197000  1.0
  C  C225  1  0.486500  0.182900  0.092900  1.0
  C  C226  1  0.013500  0.907100  0.817100  1.0
  C  C227  1  0.513500  0.817100  0.907100  1.0
  C  C228  1  0.986500  0.092900  0.182900  1.0
  C  C229  1  0.508800  0.190200  0.647200  1.0
  C  C230  1  0.991200  0.352800  0.809800  1.0
  C  C231  1  0.491200  0.809800  0.352800  1.0
  C  C232  1  0.008800  0.647200  0.190200  1.0
  C  C233  1  0.475800  0.152400  0.586000  1.0
  C  C234  1  0.024200  0.414000  0.847600  1.0
  C  C235  1  0.524200  0.847600  0.414000  1.0
  C  C236  1  0.975800  0.586000  0.152400  1.0
  C  C237  1  0.404100  0.128100  0.538100  1.0
  C  C238  1  0.095900  0.461900  0.871900  1.0
  C  C239  1  0.595900  0.871900  0.461900  1.0
  C  C240  1  0.904100  0.538100  0.128100  1.0
  C  C241  1  0.364400  0.139500  0.550500  1.0
  C  C242  1  0.135600  0.449500  0.860500  1.0
  C  C243  1  0.635600  0.860500  0.449500  1.0
  C  C244  1  0.864400  0.550500  0.139500  1.0
  C  C245  1  0.398100  0.176000  0.612000  1.0
  C  C246  1  0.101900  0.388000  0.824000  1.0
  C  C247  1  0.601900  0.824000  0.388000  1.0
  C  C248  1  0.898100  0.612000  0.176000  1.0
  C  C249  1  0.360300  0.188700  0.630700  1.0
  C  C250  1  0.139700  0.369300  0.811300  1.0
  C  C251  1  0.639700  0.811300  0.369300  1.0
  C  C252  1  0.860300  0.630700  0.188700  1.0
  C  C253  1  0.352600  0.232700  0.703700  1.0
  C  C254  1  0.147400  0.296300  0.767300  1.0
  C  C255  1  0.647400  0.767300  0.296300  1.0
  C  C256  1  0.852600  0.703700  0.232700  1.0
  C  C257  1  0.376800  0.294200  0.725200  1.0
  C  C258  1  0.123200  0.274800  0.705800  1.0
  C  C259  1  0.623200  0.705800  0.274800  1.0
  C  C260  1  0.876800  0.725200  0.294200  1.0
  C  C261  1  0.337500  0.307300  0.739100  1.0
  C  C262  1  0.162500  0.260900  0.692700  1.0
  C  C263  1  0.662500  0.692700  0.260900  1.0
  C  C264  1  0.837500  0.739100  0.307300  1.0
  C  C265  1  0.272900  0.258400  0.730200  1.0
  C  C266  1  0.227100  0.269800  0.741600  1.0
  C  C267  1  0.727100  0.741600  0.269800  1.0
  C  C268  1  0.772900  0.730200  0.258400  1.0
  C  C269  1  0.251500  0.195900  0.711700  1.0
  C  C270  1  0.248500  0.288300  0.804100  1.0
  C  C271  1  0.748500  0.804100  0.288300  1.0
  C  C272  1  0.751500  0.711700  0.195900  1.0
  C  C273  1  0.289700  0.182700  0.697300  1.0
  C  C274  1  0.210300  0.302700  0.817300  1.0
  C  C275  1  0.710300  0.817300  0.302700  1.0
  C  C276  1  0.789700  0.697300  0.182700  1.0
  C  C277  1  0.992600  0.638900  0.682100  1.0
  C  C278  1  0.507400  0.317900  0.361100  1.0
  C  C279  1  0.007400  0.361100  0.317900  1.0
  C  C280  1  0.492600  0.682100  0.638900  1.0
  C  C281  1  0.022300  0.609400  0.675800  1.0
  C  C282  1  0.477700  0.324200  0.390600  1.0
  C  C283  1  0.977700  0.390600  0.324200  1.0
  C  C284  1  0.522300  0.675800  0.609400  1.0
  C  C285  1  0.095700  0.632700  0.725700  1.0
  C  C286  1  0.404300  0.274300  0.367300  1.0
  C  C287  1  0.904300  0.367300  0.274300  1.0
  C  C288  1  0.595700  0.725700  0.632700  1.0
  C  C289  1  0.135300  0.685800  0.775400  1.0
  C  C290  1  0.364700  0.224600  0.314200  1.0
  C  C291  1  0.864700  0.314200  0.224600  1.0
  C  C292  1  0.635300  0.775400  0.685800  1.0
  C  C293  1  0.101600  0.713800  0.777600  1.0
  C  C294  1  0.398400  0.222400  0.286200  1.0
  C  C295  1  0.898400  0.286200  0.222400  1.0
  C  C296  1  0.601600  0.777600  0.713800  1.0
  C  C297  1  0.139600  0.770200  0.829200  1.0
  C  C298  1  0.360400  0.170800  0.229800  1.0
  C  C299  1  0.860400  0.229800  0.170800  1.0
  C  C300  1  0.639600  0.829200  0.770200  1.0
  C  C301  1  0.147700  0.851100  0.879700  1.0
  C  C302  1  0.352300  0.120300  0.148900  1.0
  C  C303  1  0.852300  0.148900  0.120300  1.0
  C  C304  1  0.647700  0.879700  0.851100  1.0
  C  C305  1  0.123900  0.848600  0.918600  1.0
  C  C306  1  0.376100  0.081400  0.151400  1.0
  C  C307  1  0.876100  0.151400  0.081400  1.0
  C  C308  1  0.623900  0.918600  0.848600  1.0
  C  C309  1  0.162800  0.901400  0.970200  1.0
  C  C310  1  0.337200  0.029800  0.098600  1.0
  C  C311  1  0.837200  0.098600  0.029800  1.0
  C  C312  1  0.662800  0.970200  0.901400  1.0
  C  C313  1  0.228100  0.958400  0.985000  1.0
  C  C314  1  0.271900  0.015000  0.041600  1.0
  C  C315  1  0.771900  0.041600  0.015000  1.0
  C  C316  1  0.728100  0.985000  0.958400  1.0
  C  C317  1  0.247800  0.960000  0.945400  1.0
  C  C318  1  0.252200  0.054600  0.040000  1.0
  C  C319  1  0.752200  0.040000  0.054600  1.0
  C  C320  1  0.747800  0.945400  0.960000  1.0
  C  C321  1  0.209900  0.906500  0.893300  1.0
  C  C322  1  0.290100  0.106700  0.093500  1.0
  C  C323  1  0.790100  0.093500  0.106700  1.0
  C  C324  1  0.709900  0.893300  0.906500  1.0
  C  C325  1  0.239700  0.109420  0.869780  1.0
  C  C326  1  0.260300  0.130220  0.890580  1.0
  C  C327  1  0.760300  0.890580  0.130220  1.0
  C  C328  1  0.739700  0.869780  0.109420  1.0
  H  H329  1  0.670900  0.351100  0.792300  1.0
  H  H330  1  0.829100  0.207700  0.648900  1.0
  H  H331  1  0.329100  0.648900  0.207700  1.0
  H  H332  1  0.170900  0.792300  0.351100  1.0
  H  H333  1  0.781200  0.359100  0.853500  1.0
  H  H334  1  0.718800  0.146500  0.640900  1.0
  H  H335  1  0.218800  0.640900  0.146500  1.0
  H  H336  1  0.281200  0.853500  0.359100  1.0
  H  H337  1  0.781900  0.278100  0.896700  1.0
  H  H338  1  0.718100  0.103300  0.721900  1.0
  H  H339  1  0.218100  0.721900  0.103300  1.0
  H  H340  1  0.281900  0.896700  0.278100  1.0
  H  H341  1  0.672700  0.191400  0.876000  1.0
  H  H342  1  0.827300  0.124000  0.808600  1.0
  H  H343  1  0.327300  0.808600  0.124000  1.0
  H  H344  1  0.172700  0.876000  0.191400  1.0
  H  H345  1  0.536200  0.136000  0.825600  1.0
  H  H346  1  0.963800  0.174400  0.864000  1.0
  H  H347  1  0.463800  0.864000  0.174400  1.0
  H  H348  1  0.036200  0.825600  0.136000  1.0
  H  H349  1  0.361200  0.090800  0.671600  1.0
  H  H350  1  0.138800  0.328400  0.909200  1.0
  H  H351  1  0.638800  0.909200  0.328400  1.0
  H  H352  1  0.861200  0.671600  0.090800  1.0
  H  H353  1  0.337700  0.048800  0.836400  1.0
  H  H354  1  0.162300  0.163600  0.951200  1.0
  H  H355  1  0.662300  0.951200  0.163600  1.0
  H  H356  1  0.837700  0.836400  0.048800  1.0
  H  H357  1  0.451500  0.130200  0.860800  1.0
  H  H358  1  0.048500  0.139200  0.869800  1.0
  H  H359  1  0.548500  0.869800  0.139200  1.0
  H  H360  1  0.951500  0.860800  0.130200  1.0
  H  H361  1  0.829500  0.621700  0.679300  1.0
  H  H362  1  0.670500  0.320700  0.378300  1.0
  H  H363  1  0.170500  0.378300  0.320700  1.0
  H  H364  1  0.329500  0.679300  0.621700  1.0
  H  H365  1  0.718100  0.574800  0.579800  1.0
  H  H366  1  0.781900  0.420200  0.425200  1.0
  H  H367  1  0.281900  0.425200  0.420200  1.0
  H  H368  1  0.218100  0.579800  0.574800  1.0
  H  H369  1  0.718700  0.612000  0.496400  1.0
  H  H370  1  0.781300  0.503600  0.388000  1.0
  H  H371  1  0.281300  0.388000  0.503600  1.0
  H  H372  1  0.218700  0.496400  0.612000  1.0
  H  H373  1  0.826400  0.702900  0.517300  1.0
  H  H374  1  0.673600  0.482700  0.297100  1.0
  H  H375  1  0.173600  0.297100  0.482700  1.0
  H  H376  1  0.326400  0.517300  0.702900  1.0
  H  H377  1  0.963000  0.788900  0.599500  1.0
  H  H378  1  0.537000  0.400500  0.211100  1.0
  H  H379  1  0.037000  0.211100  0.400500  1.0
  H  H380  1  0.463000  0.599500  0.788900  1.0
  H  H381  1  0.138400  0.810000  0.730000  1.0
  H  H382  1  0.361600  0.270000  0.190000  1.0
  H  H383  1  0.861600  0.190000  0.270000  1.0
  H  H384  1  0.638400  0.730000  0.810000  1.0
  H  H385  1  0.161700  0.999100  0.708500  1.0
  H  H386  1  0.338300  0.291500  0.000900  1.0
  H  H387  1  0.838300  0.000900  0.291500  1.0
  H  H388  1  0.661700  0.708500  0.999100  1.0
  H  H389  1  0.049000  0.909300  0.681900  1.0
  H  H390  1  0.451000  0.318100  0.090700  1.0
  H  H391  1  0.951000  0.090700  0.318100  1.0
  H  H392  1  0.549000  0.681900  0.909300  1.0
  H  H393  1  0.527400  0.320200  0.649000  1.0
  H  H394  1  0.972600  0.351000  0.679800  1.0
  H  H395  1  0.472600  0.679800  0.351000  1.0
  H  H396  1  0.027400  0.649000  0.320200  1.0
  H  H397  1  0.565900  0.421600  0.640200  1.0
  H  H398  1  0.934100  0.359800  0.578400  1.0
  H  H399  1  0.434100  0.578400  0.359800  1.0
  H  H400  1  0.065900  0.640200  0.421600  1.0
  H  H401  1  0.610600  0.504400  0.723800  1.0
  H  H402  1  0.889400  0.276200  0.495600  1.0
  H  H403  1  0.389400  0.495600  0.276200  1.0
  H  H404  1  0.110600  0.723800  0.504400  1.0
  H  H405  1  0.604800  0.481900  0.808300  1.0
  H  H406  1  0.895200  0.191700  0.518100  1.0
  H  H407  1  0.395200  0.518100  0.191700  1.0
  H  H408  1  0.104800  0.808300  0.481900  1.0
  H  H409  1  0.574000  0.400400  0.863400  1.0
  H  H410  1  0.926000  0.136600  0.599600  1.0
  H  H411  1  0.426000  0.599600  0.136600  1.0
  H  H412  1  0.074000  0.863400  0.400400  1.0
  H  H413  1  0.598300  0.269700  0.908700  1.0
  H  H414  1  0.901700  0.091300  0.730300  1.0
  H  H415  1  0.401700  0.730300  0.091300  1.0
  H  H416  1  0.098300  0.908700  0.269700  1.0
  H  H417  1  0.453700  0.290600  0.952600  1.0
  H  H418  1  0.046300  0.047400  0.709400  1.0
  H  H419  1  0.546300  0.709400  0.047400  1.0
  H  H420  1  0.953700  0.952600  0.290600  1.0
  H  H421  1  0.455900  0.315600  0.866000  1.0
  H  H422  1  0.044100  0.134000  0.684400  1.0
  H  H423  1  0.544100  0.684400  0.134000  1.0
  H  H424  1  0.955900  0.866000  0.315600  1.0
  H  H425  1  0.528300  0.207700  0.378300  1.0
  H  H426  1  0.971700  0.621700  0.792300  1.0
  H  H427  1  0.471700  0.792300  0.621700  1.0
  H  H428  1  0.028300  0.378300  0.207700  1.0
  H  H429  1  0.566200  0.144800  0.426600  1.0
  H  H430  1  0.933800  0.573400  0.855200  1.0
  H  H431  1  0.433800  0.855200  0.573400  1.0
  H  H432  1  0.066200  0.426600  0.144800  1.0
  H  H433  1  0.608700  0.104900  0.386900  1.0
  H  H434  1  0.891300  0.613100  0.895100  1.0
  H  H435  1  0.391300  0.895100  0.613100  1.0
  H  H436  1  0.108700  0.386900  0.104900  1.0
  H  H437  1  0.606900  0.125100  0.297100  1.0
  H  H438  1  0.893100  0.702900  0.874900  1.0
  H  H439  1  0.393100  0.874900  0.702900  1.0
  H  H440  1  0.106900  0.297100  0.125100  1.0
  H  H441  1  0.575700  0.175300  0.211100  1.0
  H  H442  1  0.924300  0.788900  0.824700  1.0
  H  H443  1  0.424300  0.824700  0.788900  1.0
  H  H444  1  0.075700  0.211100  0.175300  1.0
  H  H445  1  0.598300  0.327800  0.189600  1.0
  H  H446  1  0.901700  0.810400  0.672200  1.0
  H  H447  1  0.401700  0.672200  0.810400  1.0
  H  H448  1  0.098300  0.189600  0.327800  1.0
  H  H449  1  0.454500  0.162900  0.001700  1.0
  H  H450  1  0.045500  0.998300  0.837100  1.0
  H  H451  1  0.545500  0.837100  0.998300  1.0
  H  H452  1  0.954500  0.001700  0.162900  1.0
  H  H453  1  0.458500  0.139800  0.090400  1.0
  H  H454  1  0.041500  0.909600  0.860200  1.0
  H  H455  1  0.541500  0.860200  0.909600  1.0
  H  H456  1  0.958500  0.090400  0.139800  1.0
  H  H457  1  0.559300  0.208800  0.679600  1.0
  H  H458  1  0.940700  0.320400  0.791200  1.0
  H  H459  1  0.440700  0.791200  0.320400  1.0
  H  H460  1  0.059300  0.679600  0.208800  1.0
  H  H461  1  0.503400  0.143700  0.577700  1.0
  H  H462  1  0.996600  0.422300  0.856300  1.0
  H  H463  1  0.496600  0.856300  0.422300  1.0
  H  H464  1  0.003400  0.577700  0.143700  1.0
  H  H465  1  0.382200  0.103400  0.496400  1.0
  H  H466  1  0.117800  0.503600  0.896600  1.0
  H  H467  1  0.617800  0.896600  0.503600  1.0
  H  H468  1  0.882200  0.496400  0.103400  1.0
  H  H469  1  0.314500  0.122900  0.517900  1.0
  H  H470  1  0.185500  0.482100  0.877100  1.0
  H  H471  1  0.685500  0.877100  0.482100  1.0
  H  H472  1  0.814500  0.517900  0.122900  1.0
  H  H473  1  0.310300  0.173400  0.600000  1.0
  H  H474  1  0.189700  0.400000  0.826600  1.0
  H  H475  1  0.689700  0.826600  0.400000  1.0
  H  H476  1  0.810300  0.600000  0.173400  1.0
  H  H477  1  0.420500  0.328400  0.730800  1.0
  H  H478  1  0.079500  0.269200  0.671600  1.0
  H  H479  1  0.579500  0.671600  0.269200  1.0
  H  H480  1  0.920500  0.730800  0.328400  1.0
  H  H481  1  0.209700  0.161700  0.708900  1.0
  H  H482  1  0.290300  0.291100  0.838300  1.0
  H  H483  1  0.790300  0.838300  0.291100  1.0
  H  H484  1  0.709700  0.708900  0.161700  1.0
  H  H485  1  0.273300  0.139800  0.683200  1.0
  H  H486  1  0.226700  0.316800  0.860200  1.0
  H  H487  1  0.726700  0.860200  0.316800  1.0
  H  H488  1  0.773300  0.683200  0.139800  1.0
  H  H489  1  0.942400  0.621900  0.649900  1.0
  H  H490  1  0.557600  0.350100  0.378100  1.0
  H  H491  1  0.057600  0.378100  0.350100  1.0
  H  H492  1  0.442400  0.649900  0.621900  1.0
  H  H493  1  0.994300  0.574100  0.638700  1.0
  H  H494  1  0.505700  0.361300  0.425900  1.0
  H  H495  1  0.005700  0.425900  0.361300  1.0
  H  H496  1  0.494300  0.638700  0.574100  1.0
  H  H497  1  0.116800  0.611400  0.724400  1.0
  H  H498  1  0.383200  0.275600  0.388600  1.0
  H  H499  1  0.883200  0.388600  0.275600  1.0
  H  H500  1  0.616800  0.724400  0.611400  1.0
  H  H501  1  0.185500  0.703700  0.808300  1.0
  H  H502  1  0.314500  0.191700  0.296300  1.0
  H  H503  1  0.814500  0.296300  0.191700  1.0
  H  H504  1  0.685500  0.808300  0.703700  1.0
  H  H505  1  0.189400  0.789300  0.863900  1.0
  H  H506  1  0.310600  0.136100  0.210700  1.0
  H  H507  1  0.810600  0.210700  0.136100  1.0
  H  H508  1  0.689400  0.863900  0.789300  1.0
  H  H509  1  0.080600  0.810400  0.909600  1.0
  H  H510  1  0.419400  0.090400  0.189600  1.0
  H  H511  1  0.919400  0.189600  0.090400  1.0
  H  H512  1  0.580600  0.909600  0.810400  1.0
  H  H513  1  0.289300  0.998900  0.952700  1.0
  H  H514  1  0.210700  0.047300  0.001100  1.0
  H  H515  1  0.710700  0.001100  0.047300  1.0
  H  H516  1  0.789300  0.952700  0.998900  1.0
  H  H517  1  0.227500  0.909000  0.867800  1.0
  H  H518  1  0.272500  0.132200  0.091000  1.0
  H  H519  1  0.772500  0.091000  0.132200  1.0
  H  H520  1  0.727500  0.867800  0.909000  1.0
  N  N521  1  0.608700  0.268600  0.799800  1.0
  N  N522  1  0.891300  0.200200  0.731400  1.0
  N  N523  1  0.391300  0.731400  0.200200  1.0
  N  N524  1  0.108700  0.799800  0.268600  1.0
  N  N525  1  0.484100  0.172100  0.779100  1.0
  N  N526  1  0.015900  0.220900  0.827900  1.0
  N  N527  1  0.515900  0.827900  0.220900  1.0
  N  N528  1  0.984100  0.779100  0.172100  1.0
  N  N529  1  0.891600  0.691000  0.659800  1.0
  N  N530  1  0.608400  0.340200  0.309000  1.0
  N  N531  1  0.108400  0.309000  0.340200  1.0
  N  N532  1  0.391600  0.659800  0.691000  1.0
  N  N533  1  0.016000  0.794600  0.688200  1.0
  N  N534  1  0.484000  0.311800  0.205400  1.0
  N  N535  1  0.984000  0.205400  0.311800  1.0
  N  N536  1  0.516000  0.688200  0.794600  1.0
  N  N537  1  0.540700  0.340300  0.731700  1.0
  N  N538  1  0.959300  0.268300  0.659700  1.0
  N  N539  1  0.459300  0.659700  0.268300  1.0
  N  N540  1  0.040700  0.731700  0.340300  1.0
  N  N541  1  0.532800  0.311900  0.827700  1.0
  N  N542  1  0.967200  0.172300  0.688100  1.0
  N  N543  1  0.467200  0.688100  0.172300  1.0
  N  N544  1  0.032800  0.827700  0.311900  1.0
  N  N545  1  0.540100  0.200400  0.308800  1.0
  N  N546  1  0.959900  0.691200  0.799600  1.0
  N  N547  1  0.459900  0.799600  0.691200  1.0
  N  N548  1  0.040100  0.308800  0.200400  1.0
  N  N549  1  0.533000  0.221300  0.205300  1.0
  N  N550  1  0.967000  0.794700  0.778700  1.0
  N  N551  1  0.467000  0.778700  0.794700  1.0
  N  N552  1  0.033000  0.205300  0.221300  1.0
  N  N553  1  0.469000  0.200200  0.660000  1.0
  N  N554  1  0.031000  0.340000  0.799800  1.0
  N  N555  1  0.531000  0.799800  0.340000  1.0
  N  N556  1  0.969000  0.660000  0.200200  1.0
  N  N557  1  0.393100  0.220300  0.688300  1.0
  N  N558  1  0.106900  0.311700  0.779700  1.0
  N  N559  1  0.606900  0.779700  0.311700  1.0
  N  N560  1  0.893100  0.688300  0.220300  1.0
  N  N561  1  0.031100  0.690900  0.731900  1.0
  N  N562  1  0.468900  0.268100  0.309100  1.0
  N  N563  1  0.968900  0.309100  0.268100  1.0
  N  N564  1  0.531100  0.731900  0.690900  1.0
  N  N565  1  0.106000  0.794340  0.827660  1.0
  N  N566  1  0.394000  0.172340  0.205660  1.0
  N  N567  1  0.894000  0.205660  0.172340  1.0
  N  N568  1  0.606000  0.827660  0.794340  1.0
  Ni  Ni569  1  0.500000  0.500000  0.000000  1
  Ni  Ni570  1  0.000000  1.000000  0.500000  1
  Ni  Ni571  1  0.500000  0.000000  0.000000  1
  Ni  Ni572  1  0.000000  0.000000  0.000000  1
  Ni  Ni573  1  0.504640  0.252340  0.747640  1.0
  Ni  Ni574  1  0.995360  0.252360  0.747660  1.0
  Ni  Ni575  1  0.495360  0.747660  0.252360  1.0
  Ni  Ni576  1  0.004640  0.747640  0.252340  1.0
  Ni  Ni577  1  0.995360  0.743050  0.747650  1.0
  Ni  Ni578  1  0.504640  0.252350  0.256950  1.0
  Ni  Ni579  1  0.004640  0.256950  0.252350  1.0
  Ni  Ni580  1  0.495360  0.747650  0.743050  1.0
  O  O581  1  0.622700  0.183700  0.561300  1
  O  O582  1  0.877300  0.438700  0.816300  1
  O  O583  1  0.377300  0.816300  0.438700  1
  O  O584  1  0.122700  0.561300  0.183700  1
  O  O585  1  0.097100  0.605400  0.868400  1
  O  O586  1  0.402900  0.131600  0.394600  1
  O  O587  1  0.902900  0.394600  0.131600  1
  O  O588  1  0.597100  0.868400  0.605400  1
  O  O589  1  0.798600  0.320600  0.398800  1
  O  O590  1  0.701400  0.601200  0.679400  1
  O  O591  1  0.201400  0.679400  0.601200  1
  O  O592  1  0.298600  0.398800  0.320600  1
  O  O593  1  0.816300  0.578800  0.948800  1
  O  O594  1  0.683700  0.051200  0.421200  1
  O  O595  1  0.183700  0.421200  0.051200  1
  O  O596  1  0.316300  0.948800  0.578800  1
  O  O597  1  0.580600  0.102300  0.680700  1
  O  O598  1  0.919400  0.319300  0.897700  1
  O  O599  1  0.419400  0.897700  0.319300  1
  O  O600  1  0.080600  0.680700  0.102300  1
  O  O601  1  0.079400  0.478200  0.681400  1
  O  O602  1  0.420600  0.318600  0.521800  1
  O  O603  1  0.920600  0.521800  0.318600  1
  O  O604  1  0.579400  0.681400  0.478200  1
  O  O605  1  0.212100  0.579700  0.761900  1
  O  O606  1  0.287900  0.238100  0.420300  1
  O  O607  1  0.787900  0.420300  0.238100  1
  O  O608  1  0.712100  0.761900  0.579700  1
  O  O609  1  0.203000  0.617700  0.861100  1
  O  O610  1  0.297000  0.138900  0.382300  1
  O  O611  1  0.797000  0.382300  0.138900  1
  O  O612  1  0.703000  0.861100  0.617700  1
  O  O613  1  0.117800  0.554400  0.632000  1
  O  O614  1  0.382200  0.368000  0.445600  1
  O  O615  1  0.882200  0.445600  0.368000  1
  O  O616  1  0.617800  0.632000  0.554400  1
  O  O617  1  0.621200  0.491600  0.394000  1
  O  O618  1  0.878800  0.606000  0.508400  1
  O  O619  1  0.378800  0.508400  0.606000  1
  O  O620  1  0.121200  0.394000  0.491600  1
  O  O621  1  0.109000  0.382800  0.637200  1
  O  O622  1  0.391000  0.362800  0.617200  1
  O  O623  1  0.891000  0.617200  0.362800  1
  O  O624  1  0.609000  0.637200  0.382800  1
  O  O625  1  0.113000  0.560600  0.986000  1
  O  O626  1  0.387000  0.014000  0.439400  1
  O  O627  1  0.887000  0.439400  0.014000  1
  O  O628  1  0.613000  0.986000  0.560600  1
  O  O629  1  0.542000  0.060200  0.515800  1
  O  O630  1  0.958000  0.484200  0.939800  1
  O  O631  1  0.458000  0.939800  0.484200  1
  O  O632  1  0.042000  0.515800  0.060200  1
  O  O633  1  0.761900  0.490600  0.867000  1
  O  O634  1  0.738100  0.133000  0.509400  1
  O  O635  1  0.238100  0.509400  0.133000  1
  O  O636  1  0.261900  0.867000  0.490600  1
  O  O637  1  0.923500  0.370000  0.440200  1
  O  O638  1  0.576500  0.559800  0.630000  1
  O  O639  1  0.076500  0.630000  0.559800  1
  O  O640  1  0.423500  0.440200  0.370000  1
  O  O641  1  0.818700  0.238400  0.368400  1
  O  O642  1  0.681300  0.631600  0.761600  1
  O  O643  1  0.181300  0.761600  0.631600  1
  O  O644  1  0.318700  0.368400  0.238400  1
  O  O645  1  0.786800  0.368000  0.049200  1
  O  O646  1  0.713200  0.950800  0.632000  1
  O  O647  1  0.213200  0.632000  0.950800  1
  O  O648  1  0.286800  0.049200  0.368000  1
  O  O649  1  0.730400  0.409000  0.949200  1
  O  O650  1  0.769600  0.050800  0.591000  1
  O  O651  1  0.269600  0.591000  0.050800  1
  O  O652  1  0.230400  0.949200  0.409000  1
  O  O653  1  0.569400  0.014500  0.630900  1
  O  O654  1  0.930600  0.369100  0.985500  1
  O  O655  1  0.430600  0.985500  0.369100  1
  O  O656  1  0.069400  0.630900  0.014500  1
  O  O657  1  0.629000  0.048900  0.760900  1
  O  O658  1  0.871000  0.239100  0.951100  1
  O  O659  1  0.371000  0.951100  0.239100  1
  O  O660  1  0.129000  0.760900  0.048900  1
  O  O661  1  0.674100  0.442300  0.984500  1
  O  O662  1  0.825900  0.015500  0.557700  1
  O  O663  1  0.325900  0.557700  0.015500  1
  O  O664  1  0.174100  0.984500  0.442300  1
  O  O665  1  0.328300  0.771700  0.812900  1
  O  O666  1  0.171700  0.187100  0.228300  1
  O  O667  1  0.671700  0.228300  0.187100  1
  O  O668  1  0.828300  0.812900  0.771700  1
  O  O669  1  0.309000  0.457000  0.818600  1
  O  O670  1  0.191000  0.181400  0.543000  1
  O  O671  1  0.691000  0.543000  0.181400  1
  O  O672  1  0.809000  0.818600  0.457000  1
  O  O673  1  0.528000  0.543000  0.851200  1
  O  O674  1  0.972000  0.148800  0.457000  1
  O  O675  1  0.472000  0.457000  0.148800  1
  O  O676  1  0.028000  0.851200  0.543000  1
  O  O677  1  0.622400  0.438600  0.561400  1
  O  O678  1  0.877600  0.438600  0.561400  1
  O  O679  1  0.377600  0.561400  0.438600  1
  O  O680  1  0.122400  0.561400  0.438600  1
  O  O681  1  0.458400  0.015300  0.768900  1
  O  O682  1  0.041600  0.231100  0.984700  1
  O  O683  1  0.541600  0.984700  0.231100  1
  O  O684  1  0.958400  0.768900  0.015300  1
  O  O685  1  0.761000  0.314500  0.489900  1
  O  O686  1  0.739000  0.510100  0.685500  1
  O  O687  1  0.239000  0.685500  0.510100  1
  O  O688  1  0.261000  0.489900  0.314500  1
  O  O689  1  0.543500  0.228600  0.489600  1
  O  O690  1  0.956500  0.510400  0.771400  1
  O  O691  1  0.456500  0.771400  0.510400  1
  O  O692  1  0.043500  0.489600  0.228600  1
  O  O693  1  0.674600  0.228600  0.684600  1
  O  O694  1  0.825400  0.315400  0.771400  1
  O  O695  1  0.325400  0.771400  0.315400  1
  O  O696  1  0.174600  0.684600  0.228600  1
  O  O697  1  0.738500  0.228500  0.553700  1
  O  O698  1  0.761500  0.446300  0.771500  1
  O  O699  1  0.261500  0.771500  0.446300  1
  O  O700  1  0.238500  0.553700  0.228500  1
  O  O701  1  0.674700  0.446600  0.490000  1
  O  O702  1  0.825300  0.510000  0.553400  1
  O  O703  1  0.325300  0.553400  0.510000  1
  O  O704  1  0.174700  0.490000  0.446600  1
  O  O705  1  0.542800  0.314100  0.553500  1
  O  O706  1  0.957200  0.446500  0.685900  1
  O  O707  1  0.457200  0.685900  0.446500  1
  O  O708  1  0.042800  0.553500  0.314100  1
  O  O709  1  0.650100  0.324900  0.475900  1
  O  O710  1  0.849900  0.524100  0.675100  1
  O  O711  1  0.349900  0.675100  0.524100  1
  O  O712  1  0.150100  0.475900  0.324900  1
  O  O713  1  0.250000  0.398900  0.601100  1
  O  O714  1  0.750000  0.601100  0.398900  1
  O  O715  1  0.256000  0.811600  0.984600  1
  O  O716  1  0.244000  0.015400  0.188400  1
  O  O717  1  0.744000  0.188400  0.015400  1
  O  O718  1  0.756000  0.984600  0.811600  1
  O  O719  1  0.650900  0.324900  0.675100  1
  O  O720  1  0.849100  0.324900  0.675100  1
  O  O721  1  0.349100  0.675100  0.324900  1
  O  O722  1  0.150900  0.675100  0.324900  1
  O  O723  1  0.747100  0.590800  0.857600  1
  O  O724  1  0.752900  0.142400  0.409200  1
  O  O725  1  0.252900  0.409200  0.142400  1
  O  O726  1  0.247100  0.857600  0.590800  1
  O  O727  1  0.461800  0.051200  0.680400  1
  O  O728  1  0.038200  0.319600  0.948800  1
  O  O729  1  0.538200  0.948800  0.319600  1
  O  O730  1  0.961800  0.680400  0.051200  1
  O  O731  1  0.130900  0.720300  0.947900  1
  O  O732  1  0.369100  0.052100  0.279700  1
  O  O733  1  0.869100  0.279700  0.052100  1
  O  O734  1  0.630900  0.947900  0.720300  1
  O  O735  1  0.956300  0.279200  0.408600  1
  O  O736  1  0.543700  0.591400  0.720800  1
  O  O737  1  0.043700  0.720800  0.591400  1
  O  O738  1  0.456300  0.408600  0.279200  1
  O  O739  1  0.254000  0.646500  0.721100  1
  O  O740  1  0.246000  0.278900  0.353500  1
  O  O741  1  0.746000  0.353500  0.278900  1
  O  O742  1  0.754000  0.721100  0.646500  1
  O  O743  1  0.630400  0.582700  0.368700  1
  O  O744  1  0.869600  0.631300  0.417300  1
  O  O745  1  0.369600  0.417300  0.631300  1
  O  O746  1  0.130400  0.368700  0.582700  1
  O  O747  1  0.570100  0.555100  0.438700  1
  O  O748  1  0.929900  0.561300  0.444900  1
  O  O749  1  0.429900  0.444900  0.561300  1
  O  O750  1  0.070100  0.438700  0.555100  1
  O  O751  1  0.924400  0.556700  0.986300  1
  O  O752  1  0.575600  0.013700  0.443300  1
  O  O753  1  0.075600  0.443300  0.013700  1
  O  O754  1  0.424400  0.986300  0.556700  1
  O  O755  1  0.932000  0.434900  0.492500  1
  O  O756  1  0.568000  0.507500  0.565100  1
  O  O757  1  0.068000  0.565100  0.507500  1
  O  O758  1  0.432000  0.492500  0.434900  1
  O  O759  1  0.007000  0.500900  0.569100  1
  O  O760  1  0.493000  0.430900  0.499100  1
  O  O761  1  0.993000  0.499100  0.430900  1
  O  O762  1  0.507000  0.569100  0.500900  1
  O  O763  1  0.393200  0.472700  0.943100  1
  O  O764  1  0.106800  0.056900  0.527300  1
  O  O765  1  0.606800  0.527300  0.056900  1
  O  O766  1  0.893200  0.943100  0.472700  1
  O  O767  1  0.512400  0.529700  0.930100  1
  O  O768  1  0.987600  0.069900  0.470300  1
  O  O769  1  0.487600  0.470300  0.069900  1
  O  O770  1  0.012400  0.930100  0.529700  1
  O  O771  1  0.464000  0.409200  0.958200  1
  O  O772  1  0.036000  0.041800  0.590800  1
  O  O773  1  0.536000  0.590800  0.041800  1
  O  O774  1  0.964000  0.958200  0.409200  1
  O  O775  1  0.451700  0.409200  0.006200  1
  O  O776  1  0.048300  0.993800  0.590800  1
  O  O777  1  0.548300  0.590800  0.993800  1
  O  O778  1  0.951700  0.006200  0.409200  1
  O  O779  1  0.399700  0.468700  0.917900  1
  O  O780  1  0.100300  0.082100  0.531300  1
  O  O781  1  0.600300  0.531300  0.082100  1
  O  O782  1  0.899700  0.917900  0.468700  1
  O  O783  1  0.468200  0.525600  0.048800  1
  O  O784  1  0.031800  0.951200  0.474400  1
  O  O785  1  0.531800  0.474400  0.951200  1
  O  O786  1  0.968200  0.048800  0.525600  1
  O  O787  1  0.402800  0.409700  0.944500  1
  O  O788  1  0.097200  0.055500  0.590300  1
  O  O789  1  0.597200  0.590300  0.055500  1
  O  O790  1  0.902800  0.944500  0.409700  1
  O  O791  1  0.449100  0.530900  0.018300  1
  O  O792  1  0.050900  0.981700  0.469100  1
  O  O793  1  0.550900  0.469100  0.981700  1
  O  O794  1  0.949100  0.018300  0.530900  1
  O  O795  1  0.477700  0.527700  0.920700  1
  O  O796  1  0.022300  0.079300  0.472300  1
  O  O797  1  0.522300  0.472300  0.079300  1
  O  O798  1  0.977700  0.920700  0.527700  1
  O  O799  1  0.470200  0.942300  0.920900  1
  O  O800  1  0.029800  0.079100  0.057700  1
  O  O801  1  0.529800  0.057700  0.079100  1
  O  O802  1  0.970200  0.920900  0.942300  1
  O  O803  1  0.400300  0.930500  0.983100  1
  O  O804  1  0.099700  0.016900  0.069500  1
  O  O805  1  0.599700  0.069500  0.016900  1
  O  O806  1  0.900300  0.983100  0.930500  1
  O  O807  1  0.450300  0.041000  0.944600  1
  O  O808  1  0.049700  0.055400  0.959000  1
  O  O809  1  0.549700  0.959000  0.055400  1
  O  O810  1  0.950300  0.944600  0.041000  1
  O  O811  1  0.404100  0.995500  0.958500  1
  O  O812  1  0.095900  0.041500  0.004500  1
  O  O813  1  0.595900  0.004500  0.041500  1
  O  O814  1  0.904100  0.958500  0.995500  1
  O  O815  1  0.447400  0.917700  0.930500  1
  O  O816  1  0.052600  0.069500  0.082300  1
  O  O817  1  0.552600  0.082300  0.069500  1
  O  O818  1  0.947400  0.930500  0.917700  1
  O  O819  1  0.477400  0.951500  0.057500  1
  O  O820  1  0.022600  0.942500  0.048500  1
  O  O821  1  0.522600  0.048500  0.942500  1
  O  O822  1  0.977400  0.057500  0.951500  1
  O  O823  1  0.464700  0.055500  0.005700  1
  O  O824  1  0.035300  0.994300  0.944500  1
  O  O825  1  0.535300  0.944500  0.994300  1
  O  O826  1  0.964700  0.005700  0.055500  1
  O  O827  1  0.514200  0.983300  0.082900  1
  O  O828  1  0.985800  0.917100  0.016700  1
  O  O829  1  0.485800  0.016700  0.917100  1
  O  O830  1  0.014200  0.082900  0.983300  1
  O  O831  1  0.393700  0.920500  0.952900  1
  O  O832  1  0.106300  0.047100  0.079500  1
  O  O833  1  0.606300  0.079500  0.047100  1
  O  O834  1  0.893700  0.952900  0.920500  1
  O  O835  1  0.220000  0.599000  0.829000  1
  O  O836  1  0.280000  0.171000  0.401000  1
  O  O837  1  0.780000  0.401000  0.171000  1
  O  O838  1  0.720000  0.829000  0.599000  1
  O  O839  1  0.272600  0.686900  0.719900  1
  O  O840  1  0.227400  0.280100  0.313100  1
  O  O841  1  0.727400  0.313100  0.280100  1
  O  O842  1  0.772600  0.719900  0.686900  1
  O  O843  1  0.200500  0.587500  0.845300  1
  O  O844  1  0.299500  0.154700  0.412500  1
  O  O845  1  0.799500  0.412500  0.154700  1
  O  O846  1  0.700500  0.845300  0.587500  1
  O  O847  1  0.078800  0.599200  0.899600  1
  O  O848  1  0.421200  0.100400  0.400800  1
  O  O849  1  0.921200  0.400800  0.100400  1
  O  O850  1  0.578800  0.899600  0.599200  1
  O  O851  1  0.252800  0.441900  0.767700  1
  O  O852  1  0.247200  0.232300  0.558100  1
  O  O853  1  0.747200  0.558100  0.232300  1
  O  O854  1  0.752800  0.767700  0.441900  1
  O  O855  1  0.128800  0.410400  0.681200  1
  O  O856  1  0.371200  0.318800  0.589600  1
  O  O857  1  0.871200  0.589600  0.318800  1
  O  O858  1  0.628800  0.681200  0.410400  1
  O  O859  1  0.110000  0.728100  0.971900  1
  O  O860  1  0.390000  0.028100  0.271900  1
  O  O861  1  0.890000  0.271900  0.028100  1
  O  O862  1  0.610000  0.971900  0.728100  1
  O  O863  1  0.097400  0.491300  0.729500  1
  O  O864  1  0.402600  0.270500  0.508700  1
  O  O865  1  0.902600  0.508700  0.270500  1
  O  O866  1  0.597400  0.729500  0.491300  1
  O  O867  1  0.763900  0.271900  0.394500  1
  O  O868  1  0.736100  0.605500  0.728100  1
  O  O869  1  0.236100  0.728100  0.605500  1
  O  O870  1  0.263900  0.394500  0.271900  1
  O  O871  1  0.726800  0.139500  0.840700  1
  O  O872  1  0.773200  0.159300  0.860500  1
  O  O873  1  0.273200  0.860500  0.159300  1
  O  O874  1  0.226800  0.840700  0.139500  1
  O  O875  1  0.938000  0.505400  0.496600  1
  O  O876  1  0.562000  0.503400  0.494600  1
  O  O877  1  0.062000  0.494600  0.503400  1
  O  O878  1  0.438000  0.496600  0.505400  1
  O  O879  1  0.798000  0.479500  0.898100  1
  O  O880  1  0.702000  0.101900  0.520500  1
  O  O881  1  0.202000  0.520500  0.101900  1
  O  O882  1  0.298000  0.898100  0.479500  1
  O  O883  1  0.579100  0.479400  0.400000  1
  O  O884  1  0.920900  0.600000  0.520600  1
  O  O885  1  0.420900  0.520600  0.600000  1
  O  O886  1  0.079100  0.400000  0.479400  1
  O  O887  1  0.542300  0.557500  0.810900  1
  O  O888  1  0.957700  0.189100  0.442500  1
  O  O889  1  0.457700  0.442500  0.189100  1
  O  O890  1  0.042300  0.810900  0.557500  1
  O  O891  1  0.746000  0.376600  0.977000  1
  O  O892  1  0.754000  0.023000  0.623400  1
  O  O893  1  0.254000  0.623400  0.023000  1
  O  O894  1  0.246000  0.977000  0.376600  1
  O  O895  1  0.638000  0.457800  0.986200  1
  O  O896  1  0.862000  0.013800  0.542200  1
  O  O897  1  0.362000  0.542200  0.013800  1
  O  O898  1  0.138000  0.986200  0.457800  1
  O  O899  1  0.467000  0.008700  0.821300  1
  O  O900  1  0.033000  0.178700  0.991300  1
  O  O901  1  0.533000  0.991300  0.178700  1
  O  O902  1  0.967000  0.821300  0.008700  1
  O  O903  1  0.404000  0.027700  0.632300  1
  O  O904  1  0.096000  0.367700  0.972300  1
  O  O905  1  0.596000  0.972300  0.367700  1
  O  O906  1  0.904000  0.632300  0.027700  1
  O  O907  1  0.624000  0.133300  0.729700  1
  O  O908  1  0.876000  0.270300  0.866700  1
  O  O909  1  0.376000  0.866700  0.270300  1
  O  O910  1  0.124000  0.729700  0.133300  1
  O  O911  1  0.753000  0.620400  0.838400  1
  O  O912  1  0.747000  0.161600  0.379600  1
  O  O913  1  0.247000  0.379600  0.161600  1
  O  O914  1  0.253000  0.838400  0.620400  1
  O  O915  1  0.182100  0.920500  0.601100  1.0
  O  O916  1  0.317900  0.398900  0.079500  1.0
  O  O917  1  0.817900  0.079500  0.398900  1.0
  O  O918  1  0.682100  0.601100  0.920500  1.0
  O  O919  1  0.246900  0.010200  0.576600  1.0
  O  O920  1  0.253100  0.423400  0.989800  1.0
  O  O921  1  0.753100  0.989800  0.423400  1.0
  O  O922  1  0.746900  0.576600  0.010200  1.0
  O  O923  1  0.167300  0.005500  0.604100  1.0
  O  O924  1  0.332700  0.395900  0.994500  1.0
  O  O925  1  0.832700  0.994500  0.395900  1.0
  O  O926  1  0.667300  0.604100  0.005500  1.0
  O  O927  1  0.317800  0.918600  0.738600  1.0
  O  O928  1  0.182200  0.261400  0.081400  1.0
  O  O929  1  0.682200  0.081400  0.261400  1.0
  O  O930  1  0.817800  0.738600  0.918600  1.0
  O  O931  1  0.252500  0.828300  0.762300  1.0
  O  O932  1  0.247500  0.237700  0.171700  1.0
  O  O933  1  0.747500  0.171700  0.237700  1.0
  O  O934  1  0.752500  0.762300  0.828300  1.0
  O  O935  1  0.332100  0.936200  0.838200  1.0
  O  O936  1  0.167900  0.161800  0.063800  1.0
  O  O937  1  0.667900  0.063800  0.161800  1.0
  O  O938  1  0.832100  0.838200  0.936200  1.0
  O  O939  1  0.660400  0.261700  0.079100  1.0
  O  O940  1  0.839600  0.920900  0.738300  1.0
  O  O941  1  0.339600  0.738300  0.920900  1.0
  O  O942  1  0.160400  0.079100  0.261700  1.0
  O  O943  1  0.661600  0.237300  0.990700  1.0
  O  O944  1  0.838400  0.009300  0.762700  1.0
  O  O945  1  0.338400  0.762700  0.009300  1.0
  O  O946  1  0.161600  0.990700  0.237300  1.0
  O  O947  1  0.557900  0.161200  0.994000  1.0
  O  O948  1  0.942100  0.006000  0.838800  1.0
  O  O949  1  0.442100  0.838800  0.006000  1.0
  O  O950  1  0.057900  0.994000  0.161200  1.0
  O  O951  1  0.660700  0.399300  0.081100  1.0
  O  O952  1  0.839300  0.918900  0.600700  1.0
  O  O953  1  0.339300  0.600700  0.918900  1.0
  O  O954  1  0.160700  0.081100  0.399300  1.0
  O  O955  1  0.661800  0.423800  0.172400  1.0
  O  O956  1  0.838200  0.827600  0.576200  1.0
  O  O957  1  0.338200  0.576200  0.827600  1.0
  O  O958  1  0.161800  0.172400  0.423800  1.0
  O  O959  1  0.557000  0.395400  0.062600  1.0
  O  O960  1  0.943000  0.937400  0.604600  1.0
  O  O961  1  0.443000  0.604600  0.937400  1.0
  O  O962  1  0.057000  0.062600  0.395400  1.0
  O  O963  1  0.320200  0.399300  0.738700  1.0
  O  O964  1  0.179800  0.261300  0.600700  1.0
  O  O965  1  0.679800  0.600700  0.261300  1.0
  O  O966  1  0.820200  0.738700  0.399300  1.0
  O  O967  1  0.433500  0.423800  0.762000  1.0
  O  O968  1  0.066500  0.238000  0.576200  1.0
  O  O969  1  0.566500  0.576200  0.238000  1.0
  O  O970  1  0.933500  0.762000  0.423800  1.0
  O  O971  1  0.401900  0.396000  0.838600  1.0
  O  O972  1  0.098100  0.161400  0.604000  1.0
  O  O973  1  0.598100  0.604000  0.161400  1.0
  O  O974  1  0.901900  0.838600  0.396000  1.0
  O  O975  1  0.180400  0.918800  0.079400  1.0
  O  O976  1  0.319600  0.920600  0.081200  1.0
  O  O977  1  0.819600  0.081200  0.920600  1.0
  O  O978  1  0.680400  0.079400  0.918800  1.0
  O  O979  1  0.066100  0.828600  0.990400  1.0
  O  O980  1  0.433900  0.009600  0.171400  1.0
  O  O981  1  0.933900  0.171400  0.009600  1.0
  O  O982  1  0.566100  0.990400  0.828600  1.0
  O  O983  1  0.098400  0.937000  0.994400  1.0
  O  O984  1  0.401600  0.005600  0.063000  1.0
  O  O985  1  0.901600  0.063000  0.005600  1.0
  O  O986  1  0.598400  0.994400  0.937000  1.0
  O  O987  1  0.388400  0.444900  0.928700  1.0
  O  O988  1  0.111600  0.071300  0.555100  1.0
  O  O989  1  0.611600  0.555100  0.071300  1.0
  O  O990  1  0.888400  0.928700  0.444900  1.0
  O  O991  1  0.514200  0.554200  0.942600  1.0
  O  O992  1  0.985800  0.057400  0.445800  1.0
  O  O993  1  0.485800  0.445800  0.057400  1.0
  O  O994  1  0.014200  0.942600  0.554200  1.0
  O  O995  1  0.483900  0.555000  0.040400  1.0
  O  O996  1  0.016100  0.959600  0.445000  1.0
  O  O997  1  0.516100  0.445000  0.959600  1.0
  O  O998  1  0.983900  0.040400  0.555000  1.0
  O  O999  1  0.389100  0.943500  0.961100  1.0
  O  O1000  1  0.110900  0.038900  0.056500  1.0
  O  O1001  1  0.610900  0.056500  0.038900  1.0
  O  O1002  1  0.889100  0.961100  0.943500  1.0
  O  O1003  1  0.515000  0.960900  0.071900  1.0
  O  O1004  1  0.985000  0.928100  0.039100  1.0
  O  O1005  1  0.485000  0.039100  0.928100  1.0
  O  O1006  1  0.015000  0.071900  0.960900  1.0
  O  O1007  1  0.482200  0.928200  0.943000  1.0
  O  O1008  1  0.017800  0.057000  0.071800  1.0
  O  O1009  1  0.517800  0.071800  0.057000  1.0
  O  O1010  1  0.982200  0.943000  0.928200  1.0
  S  S1011  1  0.215940  0.987260  0.610780  1.0
  S  S1012  1  0.284060  0.389220  0.012740  1.0
  S  S1013  1  0.784060  0.012740  0.389220  1.0
  S  S1014  1  0.715940  0.610780  0.987260  1.0
  S  S1015  1  0.283940  0.894770  0.771210  1.0
  S  S1016  1  0.216060  0.228790  0.105230  1.0
  S  S1017  1  0.716060  0.105230  0.228790  1.0
  S  S1018  1  0.783940  0.771210  0.894770  1.0
  S  S1019  1  0.618100  0.228750  0.012750  1.0
  S  S1020  1  0.881900  0.987250  0.771250  1.0
  S  S1021  1  0.381900  0.771250  0.987250  1.0
  S  S1022  1  0.118100  0.012750  0.228750  1.0
  S  S1023  1  0.617700  0.389000  0.105100  1.0
  S  S1024  1  0.882300  0.894900  0.611000  1.0
  S  S1025  1  0.382300  0.611000  0.894900  1.0
  S  S1026  1  0.117700  0.105100  0.389000  1.0
  S  S1027  1  0.376540  0.389260  0.771240  1.0
  S  S1028  1  0.123460  0.228760  0.610740  1.0
  S  S1029  1  0.623460  0.610740  0.228760  1.0
  S  S1030  1  0.876540  0.771240  0.389260  1.0
  S  S1031  1  0.123530  0.894870  0.012870  1.0
  S  S1032  1  0.376470  0.987130  0.105130  1.0
  S  S1033  1  0.876470  0.105130  0.987130  1.0
  S  S1034  1  0.623530  0.012870  0.894870  1.0
