# generated using pymatgen
data_Ni6H96C152S12Br16N24Cl16O203
_symmetry_space_group_name_H-M   'P 1'
_cell_length_a   25.60150000
_cell_length_b   25.61455654
_cell_length_c   36.15920000
_cell_angle_alpha   90.00000000
_cell_angle_beta   90.00000000
_cell_angle_gamma   90.09996197
_symmetry_Int_Tables_number   1
_chemical_formula_structural   Ni6H96C152S12Br16N24Cl16O203
_chemical_formula_sum   'Ni24 H384 C608 S48 Br64 N96 Cl64 O812'
_cell_volume   23712.12115971
_cell_formula_units_Z   4
loop_
 _symmetry_equiv_pos_site_id
 _symmetry_equiv_pos_as_xyz
  1  'x, y, z'
loop_
 _atom_site_type_symbol
 _atom_site_label
 _atom_site_symmetry_multiplicity
 _atom_site_fract_x
 _atom_site_fract_y
 _atom_site_fract_z
 _atom_site_occupancy
  Ni  Ni1  1  0.250000  0.250000  0.250000  1
  Ni  Ni2  1  0.250000  0.750000  0.250000  1
  Ni  Ni3  1  0.750000  0.750000  0.750000  1
  Ni  Ni4  1  0.750000  0.250000  0.750000  1
  Ni  Ni5  1  0.000000  0.500000  0.500000  1
  Ni  Ni6  1  0.500000  0.500000  0.500000  1
  Ni  Ni7  1  0.500000  0.000000  0.000000  1
  Ni  Ni8  1  0.000000  0.000000  0.000000  1
  Ni  Ni9  1  0.995380  0.499670  0.247630  1.0
  Ni  Ni10  1  0.504620  0.500330  0.247630  1.0
  Ni  Ni11  1  0.495380  0.999670  0.747630  1.0
  Ni  Ni12  1  0.004620  0.000330  0.747630  1.0
  Ni  Ni13  1  0.004620  0.500330  0.752370  1.0
  Ni  Ni14  1  0.495380  0.499670  0.752370  1.0
  Ni  Ni15  1  0.504620  0.000330  0.252370  1.0
  Ni  Ni16  1  0.995380  0.999670  0.252370  1.0
  Ni  Ni17  1  0.250290  0.754620  0.502360  1.0
  Ni  Ni18  1  0.249710  0.245380  0.502360  1.0
  Ni  Ni19  1  0.750290  0.254620  0.002360  1.0
  Ni  Ni20  1  0.749710  0.745380  0.002360  1.0
  Ni  Ni21  1  0.749710  0.245380  0.497640  1.0
  Ni  Ni22  1  0.750290  0.754620  0.497640  1.0
  Ni  Ni23  1  0.249710  0.745380  0.997640  1.0
  Ni  Ni24  1  0.250290  0.254620  0.997640  1.0
  H  H25  1  0.900900  0.427900  0.221100  1.0
  H  H26  1  0.599100  0.572100  0.221100  1.0
  H  H27  1  0.400900  0.927900  0.721100  1.0
  H  H28  1  0.099100  0.072100  0.721100  1.0
  H  H29  1  0.099100  0.572100  0.778900  1.0
  H  H30  1  0.400900  0.427900  0.778900  1.0
  H  H31  1  0.599100  0.072100  0.278900  1.0
  H  H32  1  0.900900  0.927900  0.278900  1.0
  H  H33  1  0.825300  0.392900  0.246900  1.0
  H  H34  1  0.674700  0.607100  0.246900  1.0
  H  H35  1  0.325300  0.892900  0.746900  1.0
  H  H36  1  0.174700  0.107100  0.746900  1.0
  H  H37  1  0.174700  0.607100  0.753100  1.0
  H  H38  1  0.325300  0.392900  0.753100  1.0
  H  H39  1  0.674700  0.107100  0.253100  1.0
  H  H40  1  0.825300  0.892900  0.253100  1.0
  H  H41  1  0.806400  0.410400  0.308200  1.0
  H  H42  1  0.693600  0.589600  0.308200  1.0
  H  H43  1  0.306400  0.910400  0.808200  1.0
  H  H44  1  0.193600  0.089600  0.808200  1.0
  H  H45  1  0.193600  0.589600  0.691800  1.0
  H  H46  1  0.306400  0.410400  0.691800  1.0
  H  H47  1  0.693600  0.089600  0.191800  1.0
  H  H48  1  0.806400  0.910400  0.191800  1.0
  H  H49  1  0.861000  0.464100  0.342900  1.0
  H  H50  1  0.639000  0.535900  0.342900  1.0
  H  H51  1  0.361000  0.964100  0.842900  1.0
  H  H52  1  0.139000  0.035900  0.842900  1.0
  H  H53  1  0.139000  0.535900  0.657100  1.0
  H  H54  1  0.361000  0.464100  0.657100  1.0
  H  H55  1  0.639000  0.035900  0.157100  1.0
  H  H56  1  0.861000  0.964100  0.157100  1.0
  H  H57  1  0.946000  0.516800  0.345600  1.0
  H  H58  1  0.554000  0.483200  0.345600  1.0
  H  H59  1  0.446000  0.016800  0.845600  1.0
  H  H60  1  0.054000  0.983200  0.845600  1.0
  H  H61  1  0.054000  0.483200  0.654400  1.0
  H  H62  1  0.446000  0.516800  0.654400  1.0
  H  H63  1  0.554000  0.983200  0.154400  1.0
  H  H64  1  0.946000  0.016800  0.154400  1.0
  H  H65  1  0.019300  0.618200  0.290600  1.0
  H  H66  1  0.480700  0.381800  0.290600  1.0
  H  H67  1  0.519300  0.118200  0.790600  1.0
  H  H68  1  0.980700  0.881800  0.790600  1.0
  H  H69  1  0.980700  0.381800  0.709400  1.0
  H  H70  1  0.519300  0.618200  0.709400  1.0
  H  H71  1  0.480700  0.881800  0.209400  1.0
  H  H72  1  0.019300  0.118200  0.209400  1.0
  H  H73  1  0.102800  0.556400  0.395700  1.0
  H  H74  1  0.397200  0.443600  0.395700  1.0
  H  H75  1  0.602800  0.056400  0.895700  1.0
  H  H76  1  0.897200  0.943600  0.895700  1.0
  H  H77  1  0.897200  0.443600  0.604300  1.0
  H  H78  1  0.602800  0.556400  0.604300  1.0
  H  H79  1  0.397200  0.943600  0.104300  1.0
  H  H80  1  0.102800  0.056400  0.104300  1.0
  H  H81  1  0.048200  0.501000  0.362100  1.0
  H  H82  1  0.451800  0.499000  0.362100  1.0
  H  H83  1  0.548200  0.001000  0.862100  1.0
  H  H84  1  0.951800  0.999000  0.862100  1.0
  H  H85  1  0.951800  0.499000  0.637900  1.0
  H  H86  1  0.548200  0.501000  0.637900  1.0
  H  H87  1  0.451800  0.999000  0.137900  1.0
  H  H88  1  0.048200  0.001000  0.137900  1.0
  H  H89  1  0.322000  0.849900  0.529100  1.0
  H  H90  1  0.178000  0.150100  0.529100  1.0
  H  H91  1  0.822000  0.349900  0.029100  1.0
  H  H92  1  0.678000  0.650100  0.029100  1.0
  H  H93  1  0.678000  0.150100  0.470900  1.0
  H  H94  1  0.822000  0.849900  0.470900  1.0
  H  H95  1  0.178000  0.650100  0.970900  1.0
  H  H96  1  0.322000  0.349900  0.970900  1.0
  H  H97  1  0.356600  0.925300  0.502300  1.0
  H  H98  1  0.143400  0.074700  0.502300  1.0
  H  H99  1  0.856600  0.425300  0.002300  1.0
  H  H100  1  0.643400  0.574700  0.002300  1.0
  H  H101  1  0.643400  0.074700  0.497700  1.0
  H  H102  1  0.856600  0.925300  0.497700  1.0
  H  H103  1  0.143400  0.574700  0.997700  1.0
  H  H104  1  0.356600  0.425300  0.997700  1.0
  H  H105  1  0.341500  0.943400  0.441300  1.0
  H  H106  1  0.158500  0.056600  0.441300  1.0
  H  H107  1  0.841500  0.443400  0.941300  1.0
  H  H108  1  0.658500  0.556600  0.941300  1.0
  H  H109  1  0.658500  0.056600  0.558700  1.0
  H  H110  1  0.841500  0.943400  0.558700  1.0
  H  H111  1  0.158500  0.556600  0.058700  1.0
  H  H112  1  0.341500  0.443400  0.058700  1.0
  H  H113  1  0.285700  0.889000  0.407200  1.0
  H  H114  1  0.214300  0.111000  0.407200  1.0
  H  H115  1  0.785700  0.389000  0.907200  1.0
  H  H116  1  0.714300  0.611000  0.907200  1.0
  H  H117  1  0.714300  0.111000  0.592800  1.0
  H  H118  1  0.785700  0.889000  0.592800  1.0
  H  H119  1  0.214300  0.611000  0.092800  1.0
  H  H120  1  0.285700  0.389000  0.092800  1.0
  H  H121  1  0.233700  0.804200  0.404000  1.0
  H  H122  1  0.266300  0.195800  0.404000  1.0
  H  H123  1  0.733700  0.304200  0.904000  1.0
  H  H124  1  0.766300  0.695800  0.904000  1.0
  H  H125  1  0.766300  0.195800  0.596000  1.0
  H  H126  1  0.733700  0.804200  0.596000  1.0
  H  H127  1  0.266300  0.695800  0.096000  1.0
  H  H128  1  0.233700  0.304200  0.096000  1.0
  H  H129  1  0.132000  0.730600  0.459400  1.0
  H  H130  1  0.368000  0.269400  0.459400  1.0
  H  H131  1  0.632000  0.230600  0.959400  1.0
  H  H132  1  0.868000  0.769400  0.959400  1.0
  H  H133  1  0.868000  0.269400  0.540600  1.0
  H  H134  1  0.632000  0.730600  0.540600  1.0
  H  H135  1  0.368000  0.769400  0.040600  1.0
  H  H136  1  0.132000  0.230600  0.040600  1.0
  H  H137  1  0.193800  0.645100  0.355000  1.0
  H  H138  1  0.306200  0.354900  0.355000  1.0
  H  H139  1  0.693800  0.145100  0.855000  1.0
  H  H140  1  0.806200  0.854900  0.855000  1.0
  H  H141  1  0.806200  0.354900  0.645000  1.0
  H  H142  1  0.693800  0.645100  0.645000  1.0
  H  H143  1  0.306200  0.854900  0.145000  1.0
  H  H144  1  0.193800  0.145100  0.145000  1.0
  H  H145  1  0.248200  0.702300  0.386800  1.0
  H  H146  1  0.251800  0.297700  0.386800  1.0
  H  H147  1  0.748200  0.202300  0.886800  1.0
  H  H148  1  0.751800  0.797700  0.886800  1.0
  H  H149  1  0.751800  0.297700  0.613200  1.0
  H  H150  1  0.748200  0.702300  0.613200  1.0
  H  H151  1  0.251800  0.797700  0.113200  1.0
  H  H152  1  0.248200  0.202300  0.113200  1.0
  H  H153  1  0.957100  0.514300  0.164600  1.0
  H  H154  1  0.542900  0.485700  0.164600  1.0
  H  H155  1  0.457100  0.014300  0.664600  1.0
  H  H156  1  0.042900  0.985700  0.664600  1.0
  H  H157  1  0.042900  0.485700  0.835400  1.0
  H  H158  1  0.457100  0.514300  0.835400  1.0
  H  H159  1  0.542900  0.985700  0.335400  1.0
  H  H160  1  0.957100  0.014300  0.335400  1.0
  H  H161  1  0.964200  0.468800  0.108900  1.0
  H  H162  1  0.535800  0.531200  0.108900  1.0
  H  H163  1  0.464200  0.968800  0.608900  1.0
  H  H164  1  0.035800  0.031200  0.608900  1.0
  H  H165  1  0.035800  0.531200  0.891100  1.0
  H  H166  1  0.464200  0.468800  0.891100  1.0
  H  H167  1  0.535800  0.031200  0.391100  1.0
  H  H168  1  0.964200  0.968800  0.391100  1.0
  H  H169  1  0.005600  0.389400  0.108000  1.0
  H  H170  1  0.494400  0.610600  0.108000  1.0
  H  H171  1  0.505600  0.889400  0.608000  1.0
  H  H172  1  0.994400  0.110600  0.608000  1.0
  H  H173  1  0.994400  0.610600  0.892000  1.0
  H  H174  1  0.505600  0.389400  0.892000  1.0
  H  H175  1  0.494400  0.110600  0.392000  1.0
  H  H176  1  0.005600  0.889400  0.392000  1.0
  H  H177  1  0.040800  0.355200  0.162200  1.0
  H  H178  1  0.459200  0.644800  0.162200  1.0
  H  H179  1  0.540800  0.855200  0.662200  1.0
  H  H180  1  0.959200  0.144800  0.662200  1.0
  H  H181  1  0.959200  0.644800  0.837800  1.0
  H  H182  1  0.540800  0.355200  0.837800  1.0
  H  H183  1  0.459200  0.144800  0.337800  1.0
  H  H184  1  0.040800  0.855200  0.337800  1.0
  H  H185  1  0.058400  0.368000  0.231600  1.0
  H  H186  1  0.441600  0.632000  0.231600  1.0
  H  H187  1  0.558400  0.868000  0.731600  1.0
  H  H188  1  0.941600  0.132000  0.731600  1.0
  H  H189  1  0.941600  0.632000  0.768400  1.0
  H  H190  1  0.558400  0.368000  0.768400  1.0
  H  H191  1  0.441600  0.132000  0.268400  1.0
  H  H192  1  0.058400  0.868000  0.268400  1.0
  H  H193  1  0.991300  0.410500  0.319100  1.0
  H  H194  1  0.508700  0.589500  0.319100  1.0
  H  H195  1  0.491300  0.910500  0.819100  1.0
  H  H196  1  0.008700  0.089500  0.819100  1.0
  H  H197  1  0.008700  0.589500  0.680900  1.0
  H  H198  1  0.491300  0.410500  0.680900  1.0
  H  H199  1  0.508700  0.089500  0.180900  1.0
  H  H200  1  0.991300  0.910500  0.180900  1.0
  H  H201  1  0.168900  0.378000  0.330100  1.0
  H  H202  1  0.331100  0.622000  0.330100  1.0
  H  H203  1  0.668900  0.878000  0.830100  1.0
  H  H204  1  0.831100  0.122000  0.830100  1.0
  H  H205  1  0.831100  0.622000  0.669900  1.0
  H  H206  1  0.668900  0.378000  0.669900  1.0
  H  H207  1  0.331100  0.122000  0.169900  1.0
  H  H208  1  0.168900  0.878000  0.169900  1.0
  H  H209  1  0.135400  0.410600  0.274900  1.0
  H  H210  1  0.364600  0.589400  0.274900  1.0
  H  H211  1  0.635400  0.910600  0.774900  1.0
  H  H212  1  0.864600  0.089400  0.774900  1.0
  H  H213  1  0.864600  0.589400  0.725100  1.0
  H  H214  1  0.635400  0.410600  0.725100  1.0
  H  H215  1  0.364600  0.089400  0.225100  1.0
  H  H216  1  0.135400  0.910600  0.225100  1.0
  H  H217  1  0.264600  0.207000  0.585600  1.0
  H  H218  1  0.235400  0.793000  0.585600  1.0
  H  H219  1  0.764600  0.707000  0.085600  1.0
  H  H220  1  0.735400  0.293000  0.085600  1.0
  H  H221  1  0.735400  0.793000  0.414400  1.0
  H  H222  1  0.764600  0.207000  0.414400  1.0
  H  H223  1  0.235400  0.293000  0.914400  1.0
  H  H224  1  0.264600  0.707000  0.914400  1.0
  H  H225  1  0.219200  0.213500  0.640600  1.0
  H  H226  1  0.280800  0.786500  0.640600  1.0
  H  H227  1  0.719200  0.713500  0.140600  1.0
  H  H228  1  0.780800  0.286500  0.140600  1.0
  H  H229  1  0.780800  0.786500  0.359400  1.0
  H  H230  1  0.719200  0.213500  0.359400  1.0
  H  H231  1  0.280800  0.286500  0.859400  1.0
  H  H232  1  0.219200  0.713500  0.859400  1.0
  H  H233  1  0.138700  0.255000  0.642000  1.0
  H  H234  1  0.361300  0.745000  0.642000  1.0
  H  H235  1  0.638700  0.755000  0.142000  1.0
  H  H236  1  0.861300  0.245000  0.142000  1.0
  H  H237  1  0.861300  0.745000  0.358000  1.0
  H  H238  1  0.638700  0.255000  0.358000  1.0
  H  H239  1  0.361300  0.245000  0.858000  1.0
  H  H240  1  0.138700  0.755000  0.858000  1.0
  H  H241  1  0.105300  0.291500  0.587300  1.0
  H  H242  1  0.394700  0.708500  0.587300  1.0
  H  H243  1  0.605300  0.791500  0.087300  1.0
  H  H244  1  0.894700  0.208500  0.087300  1.0
  H  H245  1  0.894700  0.708500  0.412700  1.0
  H  H246  1  0.605300  0.291500  0.412700  1.0
  H  H247  1  0.394700  0.208500  0.912700  1.0
  H  H248  1  0.105300  0.791500  0.912700  1.0
  H  H249  1  0.118200  0.309500  0.519100  1.0
  H  H250  1  0.381800  0.690500  0.519100  1.0
  H  H251  1  0.618200  0.809500  0.019100  1.0
  H  H252  1  0.881800  0.190500  0.019100  1.0
  H  H253  1  0.881800  0.690500  0.480900  1.0
  H  H254  1  0.618200  0.309500  0.480900  1.0
  H  H255  1  0.381800  0.190500  0.980900  1.0
  H  H256  1  0.118200  0.809500  0.980900  1.0
  H  H257  1  0.160500  0.241000  0.430800  1.0
  H  H258  1  0.339500  0.759000  0.430800  1.0
  H  H259  1  0.660500  0.741000  0.930800  1.0
  H  H260  1  0.839500  0.259000  0.930800  1.0
  H  H261  1  0.839500  0.759000  0.569200  1.0
  H  H262  1  0.660500  0.241000  0.569200  1.0
  H  H263  1  0.339500  0.259000  0.069200  1.0
  H  H264  1  0.160500  0.741000  0.069200  1.0
  H  H265  1  0.127000  0.418700  0.419600  1.0
  H  H266  1  0.373000  0.581300  0.419600  1.0
  H  H267  1  0.627000  0.918700  0.919600  1.0
  H  H268  1  0.873000  0.081300  0.919600  1.0
  H  H269  1  0.873000  0.581300  0.580400  1.0
  H  H270  1  0.627000  0.418700  0.580400  1.0
  H  H271  1  0.373000  0.081300  0.080400  1.0
  H  H272  1  0.127000  0.918700  0.080400  1.0
  H  H273  1  0.160300  0.386000  0.475500  1.0
  H  H274  1  0.339700  0.614000  0.475500  1.0
  H  H275  1  0.660300  0.886000  0.975500  1.0
  H  H276  1  0.839700  0.114000  0.975500  1.0
  H  H277  1  0.839700  0.614000  0.524500  1.0
  H  H278  1  0.660300  0.386000  0.524500  1.0
  H  H279  1  0.339700  0.114000  0.024500  1.0
  H  H280  1  0.160300  0.886000  0.024500  1.0
  H  H281  1  0.885600  0.555500  0.235900  1.0
  H  H282  1  0.614400  0.444500  0.235900  1.0
  H  H283  1  0.385600  0.055500  0.735900  1.0
  H  H284  1  0.114400  0.944500  0.735900  1.0
  H  H285  1  0.114400  0.444500  0.764100  1.0
  H  H286  1  0.385600  0.555500  0.764100  1.0
  H  H287  1  0.614400  0.944500  0.264100  1.0
  H  H288  1  0.885600  0.055500  0.264100  1.0
  H  H289  1  0.856900  0.637900  0.217200  1.0
  H  H290  1  0.643100  0.362100  0.217200  1.0
  H  H291  1  0.356900  0.137900  0.717200  1.0
  H  H292  1  0.143100  0.862100  0.717200  1.0
  H  H293  1  0.143100  0.362100  0.782800  1.0
  H  H294  1  0.356900  0.637900  0.782800  1.0
  H  H295  1  0.643100  0.862100  0.282800  1.0
  H  H296  1  0.856900  0.137900  0.282800  1.0
  H  H297  1  0.917300  0.699900  0.196800  1.0
  H  H298  1  0.582700  0.300100  0.196800  1.0
  H  H299  1  0.417300  0.199900  0.696800  1.0
  H  H300  1  0.082700  0.800100  0.696800  1.0
  H  H301  1  0.082700  0.300100  0.803200  1.0
  H  H302  1  0.417300  0.699900  0.803200  1.0
  H  H303  1  0.582700  0.800100  0.303200  1.0
  H  H304  1  0.917300  0.199900  0.303200  1.0
  H  H305  1  0.006100  0.680300  0.199100  1.0
  H  H306  1  0.493900  0.319700  0.199100  1.0
  H  H307  1  0.506100  0.180300  0.699100  1.0
  H  H308  1  0.993900  0.819700  0.699100  1.0
  H  H309  1  0.993900  0.319700  0.800900  1.0
  H  H310  1  0.506100  0.680300  0.800900  1.0
  H  H311  1  0.493900  0.819700  0.300900  1.0
  H  H312  1  0.006100  0.180300  0.300900  1.0
  H  H313  1  0.077200  0.613900  0.214100  1.0
  H  H314  1  0.422800  0.386100  0.214100  1.0
  H  H315  1  0.577200  0.113900  0.714100  1.0
  H  H316  1  0.922800  0.886100  0.714100  1.0
  H  H317  1  0.922800  0.386100  0.785900  1.0
  H  H318  1  0.577200  0.613900  0.785900  1.0
  H  H319  1  0.422800  0.886100  0.285900  1.0
  H  H320  1  0.077200  0.113900  0.285900  1.0
  H  H321  1  0.109100  0.471100  0.201000  1.0
  H  H322  1  0.390900  0.528900  0.201000  1.0
  H  H323  1  0.609100  0.971100  0.701000  1.0
  H  H324  1  0.890900  0.028900  0.701000  1.0
  H  H325  1  0.890900  0.528900  0.799000  1.0
  H  H326  1  0.609100  0.471100  0.799000  1.0
  H  H327  1  0.390900  0.028900  0.299000  1.0
  H  H328  1  0.109100  0.971100  0.299000  1.0
  H  H329  1  0.225300  0.565000  0.273700  1.0
  H  H330  1  0.274700  0.435000  0.273700  1.0
  H  H331  1  0.725300  0.065000  0.773700  1.0
  H  H332  1  0.774700  0.935000  0.773700  1.0
  H  H333  1  0.774700  0.435000  0.726300  1.0
  H  H334  1  0.725300  0.565000  0.726300  1.0
  H  H335  1  0.274700  0.935000  0.226300  1.0
  H  H336  1  0.225300  0.065000  0.226300  1.0
  H  H337  1  0.137800  0.587700  0.273300  1.0
  H  H338  1  0.362200  0.412300  0.273300  1.0
  H  H339  1  0.637800  0.087700  0.773300  1.0
  H  H340  1  0.862200  0.912300  0.773300  1.0
  H  H341  1  0.862200  0.412300  0.726700  1.0
  H  H342  1  0.637800  0.587700  0.726700  1.0
  H  H343  1  0.362200  0.912300  0.226700  1.0
  H  H344  1  0.137800  0.087700  0.226700  1.0
  H  H345  1  0.193500  0.864400  0.513100  1.0
  H  H346  1  0.306500  0.135600  0.513100  1.0
  H  H347  1  0.693500  0.364400  0.013100  1.0
  H  H348  1  0.806500  0.635600  0.013100  1.0
  H  H349  1  0.806500  0.135600  0.486900  1.0
  H  H350  1  0.693500  0.864400  0.486900  1.0
  H  H351  1  0.306500  0.635600  0.986900  1.0
  H  H352  1  0.193500  0.364400  0.986900  1.0
  H  H353  1  0.112600  0.893400  0.534000  1.0
  H  H354  1  0.387400  0.106600  0.534000  1.0
  H  H355  1  0.612600  0.393400  0.034000  1.0
  H  H356  1  0.887400  0.606600  0.034000  1.0
  H  H357  1  0.887400  0.106600  0.466000  1.0
  H  H358  1  0.612600  0.893400  0.466000  1.0
  H  H359  1  0.387400  0.606600  0.966000  1.0
  H  H360  1  0.112600  0.393400  0.966000  1.0
  H  H361  1  0.049800  0.833200  0.552100  1.0
  H  H362  1  0.450200  0.166800  0.552100  1.0
  H  H363  1  0.549800  0.333200  0.052100  1.0
  H  H364  1  0.950200  0.666800  0.052100  1.0
  H  H365  1  0.950200  0.166800  0.447900  1.0
  H  H366  1  0.549800  0.833200  0.447900  1.0
  H  H367  1  0.450200  0.666800  0.947900  1.0
  H  H368  1  0.049800  0.333200  0.947900  1.0
  H  H369  1  0.070600  0.743700  0.551800  1.0
  H  H370  1  0.429400  0.256300  0.551800  1.0
  H  H371  1  0.570600  0.243700  0.051800  1.0
  H  H372  1  0.929400  0.756300  0.051800  1.0
  H  H373  1  0.929400  0.256300  0.448200  1.0
  H  H374  1  0.570600  0.743700  0.448200  1.0
  H  H375  1  0.429400  0.756300  0.948200  1.0
  H  H376  1  0.070600  0.243700  0.948200  1.0
  H  H377  1  0.136100  0.673200  0.535700  1.0
  H  H378  1  0.363900  0.326800  0.535700  1.0
  H  H379  1  0.636100  0.173200  0.035700  1.0
  H  H380  1  0.863900  0.826800  0.035700  1.0
  H  H381  1  0.863900  0.326800  0.464300  1.0
  H  H382  1  0.636100  0.673200  0.464300  1.0
  H  H383  1  0.363900  0.826800  0.964300  1.0
  H  H384  1  0.136100  0.173200  0.964300  1.0
  H  H385  1  0.278700  0.640500  0.549300  1.0
  H  H386  1  0.221300  0.359500  0.549300  1.0
  H  H387  1  0.778700  0.140500  0.049300  1.0
  H  H388  1  0.721300  0.859500  0.049300  1.0
  H  H389  1  0.721300  0.359500  0.450700  1.0
  H  H390  1  0.778700  0.640500  0.450700  1.0
  H  H391  1  0.221300  0.859500  0.950700  1.0
  H  H392  1  0.278700  0.140500  0.950700  1.0
  H  H393  1  0.185200  0.524500  0.476100  1.0
  H  H394  1  0.314800  0.475500  0.476100  1.0
  H  H395  1  0.685200  0.024500  0.976100  1.0
  H  H396  1  0.814800  0.975500  0.976100  1.0
  H  H397  1  0.814800  0.475500  0.523900  1.0
  H  H398  1  0.685200  0.524500  0.523900  1.0
  H  H399  1  0.314800  0.975500  0.023900  1.0
  H  H400  1  0.185200  0.024500  0.023900  1.0
  H  H401  1  0.162500  0.613000  0.476900  1.0
  H  H402  1  0.337500  0.387000  0.476900  1.0
  H  H403  1  0.662500  0.113000  0.976900  1.0
  H  H404  1  0.837500  0.887000  0.976900  1.0
  H  H405  1  0.837500  0.387000  0.523100  1.0
  H  H406  1  0.662500  0.613000  0.523100  1.0
  H  H407  1  0.337500  0.887000  0.023100  1.0
  H  H408  1  0.162500  0.113000  0.023100  1.0
  C  C409  1  0.250200  0.489100  0.380900  1
  C  C410  1  0.249800  0.510900  0.380900  1
  C  C411  1  0.750200  0.989100  0.880900  1
  C  C412  1  0.749800  0.010900  0.880900  1
  C  C413  1  0.749800  0.510900  0.619100  1
  C  C414  1  0.750200  0.489100  0.619100  1
  C  C415  1  0.249800  0.010900  0.119100  1
  C  C416  1  0.250200  0.989100  0.119100  1
  C  C417  1  0.250600  0.492300  0.378600  1
  C  C418  1  0.249400  0.507700  0.378600  1
  C  C419  1  0.750600  0.992300  0.878600  1
  C  C420  1  0.749400  0.007700  0.878600  1
  C  C421  1  0.749400  0.507700  0.621400  1
  C  C422  1  0.750600  0.492300  0.621400  1
  C  C423  1  0.249400  0.007700  0.121400  1
  C  C424  1  0.250600  0.992300  0.121400  1
  C  C425  1  0.238200  0.500200  0.368800  1
  C  C426  1  0.261800  0.499800  0.368800  1
  C  C427  1  0.738200  0.000200  0.868800  1
  C  C428  1  0.761800  0.999800  0.868800  1
  C  C429  1  0.761800  0.499800  0.631200  1
  C  C430  1  0.738200  0.500200  0.631200  1
  C  C431  1  0.261800  0.999800  0.131200  1
  C  C432  1  0.238200  0.000200  0.131200  1
  C  C433  1  0.893000  0.435300  0.246200  1.0
  C  C434  1  0.607000  0.564700  0.246200  1.0
  C  C435  1  0.393000  0.935300  0.746200  1.0
  C  C436  1  0.107000  0.064700  0.746200  1.0
  C  C437  1  0.107000  0.564700  0.753800  1.0
  C  C438  1  0.393000  0.435300  0.753800  1.0
  C  C439  1  0.607000  0.064700  0.253800  1.0
  C  C440  1  0.893000  0.935300  0.253800  1.0
  C  C441  1  0.847900  0.414200  0.261300  1.0
  C  C442  1  0.652100  0.585800  0.261300  1.0
  C  C443  1  0.347900  0.914200  0.761300  1.0
  C  C444  1  0.152100  0.085800  0.761300  1.0
  C  C445  1  0.152100  0.585800  0.738700  1.0
  C  C446  1  0.347900  0.414200  0.738700  1.0
  C  C447  1  0.652100  0.085800  0.238700  1.0
  C  C448  1  0.847900  0.914200  0.238700  1.0
  C  C449  1  0.836900  0.424800  0.297200  1.0
  C  C450  1  0.663100  0.575200  0.297200  1.0
  C  C451  1  0.336900  0.924800  0.797200  1.0
  C  C452  1  0.163100  0.075200  0.797200  1.0
  C  C453  1  0.163100  0.575200  0.702800  1.0
  C  C454  1  0.336900  0.424800  0.702800  1.0
  C  C455  1  0.663100  0.075200  0.202800  1.0
  C  C456  1  0.836900  0.924800  0.202800  1.0
  C  C457  1  0.869100  0.456000  0.317900  1.0
  C  C458  1  0.630900  0.544000  0.317900  1.0
  C  C459  1  0.369100  0.956000  0.817900  1.0
  C  C460  1  0.130900  0.044000  0.817900  1.0
  C  C461  1  0.130900  0.544000  0.682100  1.0
  C  C462  1  0.369100  0.456000  0.682100  1.0
  C  C463  1  0.630900  0.044000  0.182100  1.0
  C  C464  1  0.869100  0.956000  0.182100  1.0
  C  C465  1  0.913300  0.475000  0.301500  1.0
  C  C466  1  0.586700  0.525000  0.301500  1.0
  C  C467  1  0.413300  0.975000  0.801500  1.0
  C  C468  1  0.086700  0.025000  0.801500  1.0
  C  C469  1  0.086700  0.525000  0.698500  1.0
  C  C470  1  0.413300  0.475000  0.698500  1.0
  C  C471  1  0.586700  0.025000  0.198500  1.0
  C  C472  1  0.913300  0.975000  0.198500  1.0
  C  C473  1  0.951300  0.507500  0.320400  1.0
  C  C474  1  0.548700  0.492500  0.320400  1.0
  C  C475  1  0.451300  0.007500  0.820400  1.0
  C  C476  1  0.048700  0.992500  0.820400  1.0
  C  C477  1  0.048700  0.492500  0.679600  1.0
  C  C478  1  0.451300  0.507500  0.679600  1.0
  C  C479  1  0.548700  0.992500  0.179600  1.0
  C  C480  1  0.951300  0.007500  0.179600  1.0
  C  C481  1  0.027400  0.555000  0.323800  1.0
  C  C482  1  0.472600  0.445000  0.323800  1.0
  C  C483  1  0.527400  0.055000  0.823800  1.0
  C  C484  1  0.972600  0.945000  0.823800  1.0
  C  C485  1  0.972600  0.445000  0.676200  1.0
  C  C486  1  0.527400  0.555000  0.676200  1.0
  C  C487  1  0.472600  0.945000  0.176200  1.0
  C  C488  1  0.027400  0.055000  0.176200  1.0
  C  C489  1  0.036400  0.605500  0.312100  1.0
  C  C490  1  0.463600  0.394500  0.312100  1.0
  C  C491  1  0.536400  0.105500  0.812100  1.0
  C  C492  1  0.963600  0.894500  0.812100  1.0
  C  C493  1  0.963600  0.394500  0.687900  1.0
  C  C494  1  0.536400  0.605500  0.687900  1.0
  C  C495  1  0.463600  0.894500  0.187900  1.0
  C  C496  1  0.036400  0.105500  0.187900  1.0
  C  C497  1  0.070600  0.638200  0.331600  1.0
  C  C498  1  0.429400  0.361800  0.331600  1.0
  C  C499  1  0.570600  0.138200  0.831600  1.0
  C  C500  1  0.929400  0.861800  0.831600  1.0
  C  C501  1  0.929400  0.361800  0.668400  1.0
  C  C502  1  0.570600  0.638200  0.668400  1.0
  C  C503  1  0.429400  0.861800  0.168400  1.0
  C  C504  1  0.070600  0.138200  0.168400  1.0
  C  C505  1  0.095100  0.620700  0.363800  1.0
  C  C506  1  0.404900  0.379300  0.363800  1.0
  C  C507  1  0.595100  0.120700  0.863800  1.0
  C  C508  1  0.904900  0.879300  0.863800  1.0
  C  C509  1  0.904900  0.379300  0.636200  1.0
  C  C510  1  0.595100  0.620700  0.636200  1.0
  C  C511  1  0.404900  0.879300  0.136200  1.0
  C  C512  1  0.095100  0.120700  0.136200  1.0
  C  C513  1  0.085900  0.569500  0.374200  1.0
  C  C514  1  0.414100  0.430500  0.374200  1.0
  C  C515  1  0.585900  0.069500  0.874200  1.0
  C  C516  1  0.914100  0.930500  0.874200  1.0
  C  C517  1  0.914100  0.430500  0.625800  1.0
  C  C518  1  0.585900  0.569500  0.625800  1.0
  C  C519  1  0.414100  0.930500  0.125800  1.0
  C  C520  1  0.085900  0.069500  0.125800  1.0
  C  C521  1  0.052900  0.536200  0.354500  1.0
  C  C522  1  0.447100  0.463800  0.354500  1.0
  C  C523  1  0.552900  0.036200  0.854500  1.0
  C  C524  1  0.947100  0.963800  0.854500  1.0
  C  C525  1  0.947100  0.463800  0.645500  1.0
  C  C526  1  0.552900  0.536200  0.645500  1.0
  C  C527  1  0.447100  0.963800  0.145500  1.0
  C  C528  1  0.052900  0.036200  0.145500  1.0
  C  C529  1  0.314600  0.857300  0.503900  1.0
  C  C530  1  0.185400  0.142700  0.503900  1.0
  C  C531  1  0.814600  0.357300  0.003900  1.0
  C  C532  1  0.685400  0.642700  0.003900  1.0
  C  C533  1  0.685400  0.142700  0.496100  1.0
  C  C534  1  0.814600  0.857300  0.496100  1.0
  C  C535  1  0.185400  0.642700  0.996100  1.0
  C  C536  1  0.314600  0.357300  0.996100  1.0
  C  C537  1  0.335500  0.902500  0.487900  1.0
  C  C538  1  0.164500  0.097500  0.487900  1.0
  C  C539  1  0.835500  0.402500  0.987900  1.0
  C  C540  1  0.664500  0.597500  0.987900  1.0
  C  C541  1  0.664500  0.097500  0.512100  1.0
  C  C542  1  0.835500  0.902500  0.512100  1.0
  C  C543  1  0.164500  0.597500  0.012100  1.0
  C  C544  1  0.335500  0.402500  0.012100  1.0
  C  C545  1  0.326200  0.913500  0.452400  1.0
  C  C546  1  0.173800  0.086500  0.452400  1.0
  C  C547  1  0.826200  0.413500  0.952400  1.0
  C  C548  1  0.673800  0.586500  0.952400  1.0
  C  C549  1  0.673800  0.086500  0.547600  1.0
  C  C550  1  0.826200  0.913500  0.547600  1.0
  C  C551  1  0.173800  0.586500  0.047600  1.0
  C  C552  1  0.326200  0.413500  0.047600  1.0
  C  C553  1  0.294100  0.881100  0.432100  1.0
  C  C554  1  0.205900  0.118900  0.432100  1.0
  C  C555  1  0.794100  0.381100  0.932100  1.0
  C  C556  1  0.705900  0.618900  0.932100  1.0
  C  C557  1  0.705900  0.118900  0.567900  1.0
  C  C558  1  0.794100  0.881100  0.567900  1.0
  C  C559  1  0.205900  0.618900  0.067900  1.0
  C  C560  1  0.294100  0.381100  0.067900  1.0
  C  C561  1  0.274600  0.836600  0.449000  1.0
  C  C562  1  0.225400  0.163400  0.449000  1.0
  C  C563  1  0.774600  0.336600  0.949000  1.0
  C  C564  1  0.725400  0.663400  0.949000  1.0
  C  C565  1  0.725400  0.163400  0.551000  1.0
  C  C566  1  0.774600  0.836600  0.551000  1.0
  C  C567  1  0.225400  0.663400  0.051000  1.0
  C  C568  1  0.274600  0.336600  0.051000  1.0
  C  C569  1  0.242500  0.799000  0.429300  1.0
  C  C570  1  0.257500  0.201000  0.429300  1.0
  C  C571  1  0.742500  0.299000  0.929300  1.0
  C  C572  1  0.757500  0.701000  0.929300  1.0
  C  C573  1  0.757500  0.201000  0.570700  1.0
  C  C574  1  0.742500  0.799000  0.570700  1.0
  C  C575  1  0.257500  0.701000  0.070700  1.0
  C  C576  1  0.242500  0.299000  0.070700  1.0
  C  C577  1  0.195100  0.722300  0.426100  1.0
  C  C578  1  0.304900  0.277700  0.426100  1.0
  C  C579  1  0.695100  0.222300  0.926100  1.0
  C  C580  1  0.804900  0.777700  0.926100  1.0
  C  C581  1  0.804900  0.277700  0.573900  1.0
  C  C582  1  0.695100  0.722300  0.573900  1.0
  C  C583  1  0.304900  0.777700  0.073900  1.0
  C  C584  1  0.195100  0.222300  0.073900  1.0
  C  C585  1  0.144500  0.713500  0.437900  1.0
  C  C586  1  0.355500  0.286500  0.437900  1.0
  C  C587  1  0.644500  0.213500  0.937900  1.0
  C  C588  1  0.855500  0.786500  0.937900  1.0
  C  C589  1  0.855500  0.286500  0.562100  1.0
  C  C590  1  0.644500  0.713500  0.562100  1.0
  C  C591  1  0.355500  0.786500  0.062100  1.0
  C  C592  1  0.144500  0.213500  0.062100  1.0
  C  C593  1  0.111900  0.679900  0.418400  1.0
  C  C594  1  0.388100  0.320100  0.418400  1.0
  C  C595  1  0.611900  0.179900  0.918400  1.0
  C  C596  1  0.888100  0.820100  0.918400  1.0
  C  C597  1  0.888100  0.320100  0.581600  1.0
  C  C598  1  0.611900  0.679900  0.581600  1.0
  C  C599  1  0.388100  0.820100  0.081600  1.0
  C  C600  1  0.111900  0.179900  0.081600  1.0
  C  C601  1  0.129400  0.655000  0.386500  1.0
  C  C602  1  0.370600  0.345000  0.386500  1.0
  C  C603  1  0.629400  0.155000  0.886500  1.0
  C  C604  1  0.870600  0.845000  0.886500  1.0
  C  C605  1  0.870600  0.345000  0.613500  1.0
  C  C606  1  0.629400  0.655000  0.613500  1.0
  C  C607  1  0.370600  0.845000  0.113500  1.0
  C  C608  1  0.129400  0.155000  0.113500  1.0
  C  C609  1  0.180700  0.663100  0.376000  1.0
  C  C610  1  0.319300  0.336900  0.376000  1.0
  C  C611  1  0.680700  0.163100  0.876000  1.0
  C  C612  1  0.819300  0.836900  0.876000  1.0
  C  C613  1  0.819300  0.336900  0.624000  1.0
  C  C614  1  0.680700  0.663100  0.624000  1.0
  C  C615  1  0.319300  0.836900  0.124000  1.0
  C  C616  1  0.180700  0.163100  0.124000  1.0
  C  C617  1  0.213400  0.696800  0.395000  1.0
  C  C618  1  0.286600  0.303200  0.395000  1.0
  C  C619  1  0.713400  0.196800  0.895000  1.0
  C  C620  1  0.786600  0.803200  0.895000  1.0
  C  C621  1  0.786600  0.303200  0.605000  1.0
  C  C622  1  0.713400  0.696800  0.605000  1.0
  C  C623  1  0.286600  0.803200  0.105000  1.0
  C  C624  1  0.213400  0.196800  0.105000  1.0
  C  C625  1  0.975000  0.481900  0.164400  1.0
  C  C626  1  0.525000  0.518100  0.164400  1.0
  C  C627  1  0.475000  0.981900  0.664400  1.0
  C  C628  1  0.025000  0.018100  0.664400  1.0
  C  C629  1  0.025000  0.518100  0.835600  1.0
  C  C630  1  0.475000  0.481900  0.835600  1.0
  C  C631  1  0.525000  0.018100  0.335600  1.0
  C  C632  1  0.975000  0.981900  0.335600  1.0
  C  C633  1  0.978700  0.454700  0.130900  1.0
  C  C634  1  0.521300  0.545300  0.130900  1.0
  C  C635  1  0.478700  0.954700  0.630900  1.0
  C  C636  1  0.021300  0.045300  0.630900  1.0
  C  C637  1  0.021300  0.545300  0.869100  1.0
  C  C638  1  0.478700  0.454700  0.869100  1.0
  C  C639  1  0.521300  0.045300  0.369100  1.0
  C  C640  1  0.978700  0.954700  0.369100  1.0
  C  C641  1  0.002900  0.408400  0.130500  1.0
  C  C642  1  0.497100  0.591600  0.130500  1.0
  C  C643  1  0.502900  0.908400  0.630500  1.0
  C  C644  1  0.997100  0.091600  0.630500  1.0
  C  C645  1  0.997100  0.591600  0.869500  1.0
  C  C646  1  0.502900  0.408400  0.869500  1.0
  C  C647  1  0.497100  0.091600  0.369500  1.0
  C  C648  1  0.002900  0.908400  0.369500  1.0
  C  C649  1  0.023900  0.388300  0.162200  1.0
  C  C650  1  0.476100  0.611700  0.162200  1.0
  C  C651  1  0.523900  0.888300  0.662200  1.0
  C  C652  1  0.976100  0.111700  0.662200  1.0
  C  C653  1  0.976100  0.611700  0.837800  1.0
  C  C654  1  0.523900  0.388300  0.837800  1.0
  C  C655  1  0.476100  0.111700  0.337800  1.0
  C  C656  1  0.023900  0.888300  0.337800  1.0
  C  C657  1  0.019900  0.417500  0.194100  1.0
  C  C658  1  0.480100  0.582500  0.194100  1.0
  C  C659  1  0.519900  0.917500  0.694100  1.0
  C  C660  1  0.980100  0.082500  0.694100  1.0
  C  C661  1  0.980100  0.582500  0.805900  1.0
  C  C662  1  0.519900  0.417500  0.805900  1.0
  C  C663  1  0.480100  0.082500  0.305900  1.0
  C  C664  1  0.019900  0.917500  0.305900  1.0
  C  C665  1  0.041300  0.400800  0.229500  1.0
  C  C666  1  0.458700  0.599200  0.229500  1.0
  C  C667  1  0.541300  0.900800  0.729500  1.0
  C  C668  1  0.958700  0.099200  0.729500  1.0
  C  C669  1  0.958700  0.599200  0.770500  1.0
  C  C670  1  0.541300  0.400800  0.770500  1.0
  C  C671  1  0.458700  0.099200  0.270500  1.0
  C  C672  1  0.041300  0.900800  0.270500  1.0
  C  C673  1  0.059900  0.411600  0.291400  1.0
  C  C674  1  0.440100  0.588400  0.291400  1.0
  C  C675  1  0.559900  0.911600  0.791400  1.0
  C  C676  1  0.940100  0.088400  0.791400  1.0
  C  C677  1  0.940100  0.588400  0.708600  1.0
  C  C678  1  0.559900  0.411600  0.708600  1.0
  C  C679  1  0.440100  0.088400  0.208600  1.0
  C  C680  1  0.059900  0.911600  0.208600  1.0
  C  C681  1  0.027500  0.403200  0.321100  1.0
  C  C682  1  0.472500  0.596800  0.321100  1.0
  C  C683  1  0.527500  0.903200  0.821100  1.0
  C  C684  1  0.972500  0.096800  0.821100  1.0
  C  C685  1  0.972500  0.596800  0.678900  1.0
  C  C686  1  0.527500  0.403200  0.678900  1.0
  C  C687  1  0.472500  0.096800  0.178900  1.0
  C  C688  1  0.027500  0.903200  0.178900  1.0
  C  C689  1  0.047800  0.383900  0.354300  1.0
  C  C690  1  0.452200  0.616100  0.354300  1.0
  C  C691  1  0.547800  0.883900  0.854300  1.0
  C  C692  1  0.952200  0.116100  0.854300  1.0
  C  C693  1  0.952200  0.616100  0.645700  1.0
  C  C694  1  0.547800  0.383900  0.645700  1.0
  C  C695  1  0.452200  0.116100  0.145700  1.0
  C  C696  1  0.047800  0.883900  0.145700  1.0
  C  C697  1  0.100600  0.373300  0.357700  1.0
  C  C698  1  0.399400  0.626700  0.357700  1.0
  C  C699  1  0.600600  0.873300  0.857700  1.0
  C  C700  1  0.899400  0.126700  0.857700  1.0
  C  C701  1  0.899400  0.626700  0.642300  1.0
  C  C702  1  0.600600  0.373300  0.642300  1.0
  C  C703  1  0.399400  0.126700  0.142300  1.0
  C  C704  1  0.100600  0.873300  0.142300  1.0
  C  C705  1  0.132400  0.384000  0.328000  1.0
  C  C706  1  0.367600  0.616000  0.328000  1.0
  C  C707  1  0.632400  0.884000  0.828000  1.0
  C  C708  1  0.867600  0.116000  0.828000  1.0
  C  C709  1  0.867600  0.616000  0.672000  1.0
  C  C710  1  0.632400  0.384000  0.672000  1.0
  C  C711  1  0.367600  0.116000  0.172000  1.0
  C  C712  1  0.132400  0.884000  0.172000  1.0
  C  C713  1  0.112600  0.403200  0.294900  1.0
  C  C714  1  0.387400  0.596800  0.294900  1.0
  C  C715  1  0.612600  0.903200  0.794900  1.0
  C  C716  1  0.887400  0.096800  0.794900  1.0
  C  C717  1  0.887400  0.596800  0.705100  1.0
  C  C718  1  0.612600  0.403200  0.705100  1.0
  C  C719  1  0.387400  0.096800  0.205100  1.0
  C  C720  1  0.112600  0.903200  0.205100  1.0
  C  C721  1  0.232100  0.224700  0.585700  1.0
  C  C722  1  0.267900  0.775300  0.585700  1.0
  C  C723  1  0.732100  0.724700  0.085700  1.0
  C  C724  1  0.767900  0.275300  0.085700  1.0
  C  C725  1  0.767900  0.775300  0.414300  1.0
  C  C726  1  0.732100  0.224700  0.414300  1.0
  C  C727  1  0.267900  0.275300  0.914300  1.0
  C  C728  1  0.232100  0.724700  0.914300  1.0
  C  C729  1  0.205100  0.228100  0.618700  1.0
  C  C730  1  0.294900  0.771900  0.618700  1.0
  C  C731  1  0.705100  0.728100  0.118700  1.0
  C  C732  1  0.794900  0.271900  0.118700  1.0
  C  C733  1  0.794900  0.771900  0.381300  1.0
  C  C734  1  0.705100  0.228100  0.381300  1.0
  C  C735  1  0.294900  0.271900  0.881300  1.0
  C  C736  1  0.205100  0.728100  0.881300  1.0
  C  C737  1  0.157800  0.252700  0.619500  1.0
  C  C738  1  0.342200  0.747300  0.619500  1.0
  C  C739  1  0.657800  0.752700  0.119500  1.0
  C  C740  1  0.842200  0.247300  0.119500  1.0
  C  C741  1  0.842200  0.747300  0.380500  1.0
  C  C742  1  0.657800  0.252700  0.380500  1.0
  C  C743  1  0.342200  0.247300  0.880500  1.0
  C  C744  1  0.157800  0.752700  0.880500  1.0
  C  C745  1  0.138100  0.274100  0.587500  1.0
  C  C746  1  0.361900  0.725900  0.587500  1.0
  C  C747  1  0.638100  0.774100  0.087500  1.0
  C  C748  1  0.861900  0.225900  0.087500  1.0
  C  C749  1  0.861900  0.725900  0.412500  1.0
  C  C750  1  0.638100  0.274100  0.412500  1.0
  C  C751  1  0.361900  0.225900  0.912500  1.0
  C  C752  1  0.138100  0.774100  0.912500  1.0
  C  C753  1  0.167400  0.269500  0.555500  1.0
  C  C754  1  0.332600  0.730500  0.555500  1.0
  C  C755  1  0.667400  0.769500  0.055500  1.0
  C  C756  1  0.832600  0.230500  0.055500  1.0
  C  C757  1  0.832600  0.730500  0.444500  1.0
  C  C758  1  0.667400  0.269500  0.444500  1.0
  C  C759  1  0.332600  0.230500  0.944500  1.0
  C  C760  1  0.167400  0.769500  0.944500  1.0
  C  C761  1  0.150500  0.291700  0.520800  1.0
  C  C762  1  0.349500  0.708300  0.520800  1.0
  C  C763  1  0.650500  0.791700  0.020800  1.0
  C  C764  1  0.849500  0.208300  0.020800  1.0
  C  C765  1  0.849500  0.708300  0.479200  1.0
  C  C766  1  0.650500  0.291700  0.479200  1.0
  C  C767  1  0.349500  0.208300  0.979200  1.0
  C  C768  1  0.150500  0.791700  0.979200  1.0
  C  C769  1  0.161800  0.309400  0.458700  1.0
  C  C770  1  0.338200  0.690600  0.458700  1.0
  C  C771  1  0.661800  0.809400  0.958700  1.0
  C  C772  1  0.838200  0.190600  0.958700  1.0
  C  C773  1  0.838200  0.690600  0.541300  1.0
  C  C774  1  0.661800  0.309400  0.541300  1.0
  C  C775  1  0.338200  0.190600  0.041300  1.0
  C  C776  1  0.161800  0.809400  0.041300  1.0
  C  C777  1  0.153300  0.277200  0.428900  1.0
  C  C778  1  0.346700  0.722800  0.428900  1.0
  C  C779  1  0.653300  0.777200  0.928900  1.0
  C  C780  1  0.846700  0.222800  0.928900  1.0
  C  C781  1  0.846700  0.722800  0.571100  1.0
  C  C782  1  0.653300  0.277200  0.571100  1.0
  C  C783  1  0.346700  0.222800  0.071100  1.0
  C  C784  1  0.153300  0.777200  0.071100  1.0
  C  C785  1  0.134000  0.297500  0.395800  1.0
  C  C786  1  0.366000  0.702500  0.395800  1.0
  C  C787  1  0.634000  0.797500  0.895800  1.0
  C  C788  1  0.866000  0.202500  0.895800  1.0
  C  C789  1  0.866000  0.702500  0.604200  1.0
  C  C790  1  0.634000  0.297500  0.604200  1.0
  C  C791  1  0.366000  0.202500  0.104200  1.0
  C  C792  1  0.134000  0.797500  0.104200  1.0
  C  C793  1  0.123100  0.351000  0.392500  1.0
  C  C794  1  0.376900  0.649000  0.392500  1.0
  C  C795  1  0.623100  0.851000  0.892500  1.0
  C  C796  1  0.876900  0.149000  0.892500  1.0
  C  C797  1  0.876900  0.649000  0.607500  1.0
  C  C798  1  0.623100  0.351000  0.607500  1.0
  C  C799  1  0.376900  0.149000  0.107500  1.0
  C  C800  1  0.123100  0.851000  0.107500  1.0
  C  C801  1  0.133400  0.382300  0.421800  1.0
  C  C802  1  0.366600  0.617700  0.421800  1.0
  C  C803  1  0.633400  0.882300  0.921800  1.0
  C  C804  1  0.866600  0.117700  0.921800  1.0
  C  C805  1  0.866600  0.617700  0.578200  1.0
  C  C806  1  0.633400  0.382300  0.578200  1.0
  C  C807  1  0.366600  0.117700  0.078200  1.0
  C  C808  1  0.133400  0.882300  0.078200  1.0
  C  C809  1  0.153100  0.363100  0.455500  1.0
  C  C810  1  0.346900  0.636900  0.455500  1.0
  C  C811  1  0.653100  0.863100  0.955500  1.0
  C  C812  1  0.846900  0.136900  0.955500  1.0
  C  C813  1  0.846900  0.636900  0.544500  1.0
  C  C814  1  0.653100  0.363100  0.544500  1.0
  C  C815  1  0.346900  0.136900  0.044500  1.0
  C  C816  1  0.153100  0.863100  0.044500  1.0
  C  C817  1  0.910500  0.581100  0.228700  1.0
  C  C818  1  0.589500  0.418900  0.228700  1.0
  C  C819  1  0.410500  0.081100  0.728700  1.0
  C  C820  1  0.089500  0.918900  0.728700  1.0
  C  C821  1  0.089500  0.418900  0.771300  1.0
  C  C822  1  0.410500  0.581100  0.771300  1.0
  C  C823  1  0.589500  0.918900  0.271300  1.0
  C  C824  1  0.910500  0.081100  0.271300  1.0
  C  C825  1  0.893200  0.630000  0.217100  1.0
  C  C826  1  0.606800  0.370000  0.217100  1.0
  C  C827  1  0.393200  0.130000  0.717100  1.0
  C  C828  1  0.106800  0.870000  0.717100  1.0
  C  C829  1  0.106800  0.370000  0.782900  1.0
  C  C830  1  0.393200  0.630000  0.782900  1.0
  C  C831  1  0.606800  0.870000  0.282900  1.0
  C  C832  1  0.893200  0.130000  0.282900  1.0
  C  C833  1  0.928900  0.666800  0.205400  1.0
  C  C834  1  0.571100  0.333200  0.205400  1.0
  C  C835  1  0.428900  0.166800  0.705400  1.0
  C  C836  1  0.071100  0.833200  0.705400  1.0
  C  C837  1  0.071100  0.333200  0.794600  1.0
  C  C838  1  0.428900  0.666800  0.794600  1.0
  C  C839  1  0.571100  0.833200  0.294600  1.0
  C  C840  1  0.928900  0.166800  0.294600  1.0
  C  C841  1  0.980700  0.655300  0.206500  1.0
  C  C842  1  0.519300  0.344700  0.206500  1.0
  C  C843  1  0.480700  0.155300  0.706500  1.0
  C  C844  1  0.019300  0.844700  0.706500  1.0
  C  C845  1  0.019300  0.344700  0.793500  1.0
  C  C846  1  0.480700  0.655300  0.793500  1.0
  C  C847  1  0.519300  0.844700  0.293500  1.0
  C  C848  1  0.980700  0.155300  0.293500  1.0
  C  C849  1  0.995700  0.606600  0.218400  1.0
  C  C850  1  0.504300  0.393400  0.218400  1.0
  C  C851  1  0.495700  0.106600  0.718400  1.0
  C  C852  1  0.004300  0.893400  0.718400  1.0
  C  C853  1  0.004300  0.393400  0.781600  1.0
  C  C854  1  0.495700  0.606600  0.781600  1.0
  C  C855  1  0.504300  0.893400  0.281600  1.0
  C  C856  1  0.995700  0.106600  0.281600  1.0
  C  C857  1  0.050200  0.590700  0.221400  1.0
  C  C858  1  0.449800  0.409300  0.221400  1.0
  C  C859  1  0.550200  0.090700  0.721400  1.0
  C  C860  1  0.949800  0.909300  0.721400  1.0
  C  C861  1  0.949800  0.409300  0.778600  1.0
  C  C862  1  0.550200  0.590700  0.778600  1.0
  C  C863  1  0.449800  0.909300  0.278600  1.0
  C  C864  1  0.050200  0.090700  0.278600  1.0
  C  C865  1  0.115700  0.532700  0.236000  1.0
  C  C866  1  0.384300  0.467300  0.236000  1.0
  C  C867  1  0.615700  0.032700  0.736000  1.0
  C  C868  1  0.884300  0.967300  0.736000  1.0
  C  C869  1  0.884300  0.467300  0.764000  1.0
  C  C870  1  0.615700  0.532700  0.764000  1.0
  C  C871  1  0.384300  0.967300  0.264000  1.0
  C  C872  1  0.115700  0.032700  0.264000  1.0
  C  C873  1  0.133100  0.490800  0.215500  1.0
  C  C874  1  0.366900  0.509200  0.215500  1.0
  C  C875  1  0.633100  0.990800  0.715500  1.0
  C  C876  1  0.866900  0.009200  0.715500  1.0
  C  C877  1  0.866900  0.509200  0.784500  1.0
  C  C878  1  0.633100  0.490800  0.784500  1.0
  C  C879  1  0.366900  0.009200  0.284500  1.0
  C  C880  1  0.133100  0.990800  0.284500  1.0
  C  C881  1  0.186200  0.477300  0.215900  1.0
  C  C882  1  0.313800  0.522700  0.215900  1.0
  C  C883  1  0.686200  0.977300  0.715900  1.0
  C  C884  1  0.813800  0.022700  0.715900  1.0
  C  C885  1  0.813800  0.522700  0.784100  1.0
  C  C886  1  0.686200  0.477300  0.784100  1.0
  C  C887  1  0.313800  0.022700  0.284100  1.0
  C  C888  1  0.186200  0.977300  0.284100  1.0
  C  C889  1  0.221300  0.505500  0.237400  1.0
  C  C890  1  0.278700  0.494500  0.237400  1.0
  C  C891  1  0.721300  0.005500  0.737400  1.0
  C  C892  1  0.778700  0.994500  0.737400  1.0
  C  C893  1  0.778700  0.494500  0.762600  1.0
  C  C894  1  0.721300  0.505500  0.762600  1.0
  C  C895  1  0.278700  0.994500  0.262600  1.0
  C  C896  1  0.221300  0.005500  0.262600  1.0
  C  C897  1  0.201900  0.545900  0.258500  1.0
  C  C898  1  0.298100  0.454100  0.258500  1.0
  C  C899  1  0.701900  0.045900  0.758500  1.0
  C  C900  1  0.798100  0.954100  0.758500  1.0
  C  C901  1  0.798100  0.454100  0.741500  1.0
  C  C902  1  0.701900  0.545900  0.741500  1.0
  C  C903  1  0.298100  0.954100  0.241500  1.0
  C  C904  1  0.201900  0.045900  0.241500  1.0
  C  C905  1  0.149900  0.559800  0.258300  1.0
  C  C906  1  0.350100  0.440200  0.258300  1.0
  C  C907  1  0.649900  0.059800  0.758300  1.0
  C  C908  1  0.850100  0.940200  0.758300  1.0
  C  C909  1  0.850100  0.440200  0.741700  1.0
  C  C910  1  0.649900  0.559800  0.741700  1.0
  C  C911  1  0.350100  0.940200  0.241700  1.0
  C  C912  1  0.149900  0.059800  0.241700  1.0
  C  C913  1  0.168300  0.839500  0.521100  1.0
  C  C914  1  0.331700  0.160500  0.521100  1.0
  C  C915  1  0.668300  0.339500  0.021100  1.0
  C  C916  1  0.831700  0.660500  0.021100  1.0
  C  C917  1  0.831700  0.160500  0.478900  1.0
  C  C918  1  0.668300  0.839500  0.478900  1.0
  C  C919  1  0.331700  0.660500  0.978900  1.0
  C  C920  1  0.168300  0.339500  0.978900  1.0
  C  C921  1  0.120000  0.857100  0.533300  1.0
  C  C922  1  0.380000  0.142900  0.533300  1.0
  C  C923  1  0.620000  0.357100  0.033300  1.0
  C  C924  1  0.880000  0.642900  0.033300  1.0
  C  C925  1  0.880000  0.142900  0.466700  1.0
  C  C926  1  0.620000  0.857100  0.466700  1.0
  C  C927  1  0.380000  0.642900  0.966700  1.0
  C  C928  1  0.120000  0.357100  0.966700  1.0
  C  C929  1  0.083300  0.821800  0.544200  1.0
  C  C930  1  0.416700  0.178200  0.544200  1.0
  C  C931  1  0.583300  0.321800  0.044200  1.0
  C  C932  1  0.916700  0.678200  0.044200  1.0
  C  C933  1  0.916700  0.178200  0.455800  1.0
  C  C934  1  0.583300  0.821800  0.455800  1.0
  C  C935  1  0.416700  0.678200  0.955800  1.0
  C  C936  1  0.083300  0.321800  0.955800  1.0
  C  C937  1  0.095300  0.769000  0.543800  1.0
  C  C938  1  0.404700  0.231000  0.543800  1.0
  C  C939  1  0.595300  0.269000  0.043800  1.0
  C  C940  1  0.904700  0.731000  0.043800  1.0
  C  C941  1  0.904700  0.231000  0.456200  1.0
  C  C942  1  0.595300  0.769000  0.456200  1.0
  C  C943  1  0.404700  0.731000  0.956200  1.0
  C  C944  1  0.095300  0.269000  0.956200  1.0
  C  C945  1  0.143600  0.754100  0.531400  1.0
  C  C946  1  0.356400  0.245900  0.531400  1.0
  C  C947  1  0.643600  0.254100  0.031400  1.0
  C  C948  1  0.856400  0.745900  0.031400  1.0
  C  C949  1  0.856400  0.245900  0.468600  1.0
  C  C950  1  0.643600  0.754100  0.468600  1.0
  C  C951  1  0.356400  0.745900  0.968600  1.0
  C  C952  1  0.143600  0.254100  0.968600  1.0
  C  C953  1  0.159300  0.700300  0.528600  1.0
  C  C954  1  0.340700  0.299700  0.528600  1.0
  C  C955  1  0.659300  0.200300  0.028600  1.0
  C  C956  1  0.840700  0.799700  0.028600  1.0
  C  C957  1  0.840700  0.299700  0.471400  1.0
  C  C958  1  0.659300  0.700300  0.471400  1.0
  C  C959  1  0.340700  0.799700  0.971400  1.0
  C  C960  1  0.159300  0.200300  0.971400  1.0
  C  C961  1  0.217800  0.634300  0.514200  1.0
  C  C962  1  0.282200  0.365700  0.514200  1.0
  C  C963  1  0.717800  0.134300  0.014200  1.0
  C  C964  1  0.782200  0.865700  0.014200  1.0
  C  C965  1  0.782200  0.365700  0.485800  1.0
  C  C966  1  0.717800  0.634300  0.485800  1.0
  C  C967  1  0.282200  0.865700  0.985800  1.0
  C  C968  1  0.217800  0.134300  0.985800  1.0
  C  C969  1  0.259000  0.616800  0.534600  1.0
  C  C970  1  0.241000  0.383200  0.534600  1.0
  C  C971  1  0.759000  0.116800  0.034600  1.0
  C  C972  1  0.741000  0.883200  0.034600  1.0
  C  C973  1  0.741000  0.383200  0.465400  1.0
  C  C974  1  0.759000  0.616800  0.465400  1.0
  C  C975  1  0.241000  0.883200  0.965400  1.0
  C  C976  1  0.259000  0.116800  0.965400  1.0
  C  C977  1  0.272400  0.563600  0.533900  1.0
  C  C978  1  0.227600  0.436400  0.533900  1.0
  C  C979  1  0.772400  0.063600  0.033900  1.0
  C  C980  1  0.727600  0.936400  0.033900  1.0
  C  C981  1  0.727600  0.436400  0.466100  1.0
  C  C982  1  0.772400  0.563600  0.466100  1.0
  C  C983  1  0.227600  0.936400  0.966100  1.0
  C  C984  1  0.272400  0.063600  0.966100  1.0
  C  C985  1  0.244800  0.528400  0.512700  1.0
  C  C986  1  0.255200  0.471600  0.512700  1.0
  C  C987  1  0.744800  0.028400  0.012700  1.0
  C  C988  1  0.755200  0.971600  0.012700  1.0
  C  C989  1  0.755200  0.471600  0.487300  1.0
  C  C990  1  0.744800  0.528400  0.487300  1.0
  C  C991  1  0.255200  0.971600  0.987300  1.0
  C  C992  1  0.244800  0.028400  0.987300  1.0
  C  C993  1  0.204300  0.547800  0.491500  1.0
  C  C994  1  0.295700  0.452200  0.491500  1.0
  C  C995  1  0.704300  0.047800  0.991500  1.0
  C  C996  1  0.795700  0.952200  0.991500  1.0
  C  C997  1  0.795700  0.452200  0.508500  1.0
  C  C998  1  0.704300  0.547800  0.508500  1.0
  C  C999  1  0.295700  0.952200  0.008500  1.0
  C  C1000  1  0.204300  0.047800  0.008500  1.0
  C  C1001  1  0.190400  0.600600  0.491800  1.0
  C  C1002  1  0.309600  0.399400  0.491800  1.0
  C  C1003  1  0.690400  0.100600  0.991800  1.0
  C  C1004  1  0.809600  0.899400  0.991800  1.0
  C  C1005  1  0.809600  0.399400  0.508200  1.0
  C  C1006  1  0.690400  0.600600  0.508200  1.0
  C  C1007  1  0.309600  0.899400  0.008200  1.0
  C  C1008  1  0.190400  0.100600  0.008200  1.0
  C  C1009  1  0.243000  0.500700  0.371600  1.0
  C  C1010  1  0.257000  0.499300  0.371600  1.0
  C  C1011  1  0.743000  0.000700  0.871600  1.0
  C  C1012  1  0.757000  0.999300  0.871600  1.0
  C  C1013  1  0.757000  0.499300  0.628400  1.0
  C  C1014  1  0.743000  0.500700  0.628400  1.0
  C  C1015  1  0.257000  0.999300  0.128400  1.0
  C  C1016  1  0.243000  0.000700  0.128400  1.0
  S  S1017  1  0.082720  0.700760  0.312450  1.0
  S  S1018  1  0.417280  0.299240  0.312450  1.0
  S  S1019  1  0.582720  0.200760  0.812450  1.0
  S  S1020  1  0.917280  0.799240  0.812450  1.0
  S  S1021  1  0.917280  0.299240  0.687550  1.0
  S  S1022  1  0.582720  0.700760  0.687550  1.0
  S  S1023  1  0.417280  0.799240  0.187550  1.0
  S  S1024  1  0.082720  0.200760  0.187550  1.0
  S  S1025  1  0.049240  0.667290  0.437550  1.0
  S  S1026  1  0.450760  0.332710  0.437550  1.0
  S  S1027  1  0.549240  0.167290  0.937550  1.0
  S  S1028  1  0.950760  0.832710  0.937550  1.0
  S  S1029  1  0.950760  0.332710  0.562450  1.0
  S  S1030  1  0.549240  0.667290  0.562450  1.0
  S  S1031  1  0.450760  0.832710  0.062450  1.0
  S  S1032  1  0.049240  0.167290  0.062450  1.0
  S  S1033  1  0.003460  0.378070  0.391870  1.0
  S  S1034  1  0.496540  0.621930  0.391870  1.0
  S  S1035  1  0.503460  0.878070  0.891870  1.0
  S  S1036  1  0.996540  0.121930  0.891870  1.0
  S  S1037  1  0.996540  0.621930  0.608130  1.0
  S  S1038  1  0.503460  0.378070  0.608130  1.0
  S  S1039  1  0.496540  0.121930  0.108130  1.0
  S  S1040  1  0.003460  0.878070  0.108130  1.0
  S  S1041  1  0.128010  0.253530  0.358130  1.0
  S  S1042  1  0.371990  0.746470  0.358130  1.0
  S  S1043  1  0.628010  0.753530  0.858130  1.0
  S  S1044  1  0.871990  0.246470  0.858130  1.0
  S  S1045  1  0.871990  0.746470  0.641870  1.0
  S  S1046  1  0.628010  0.253530  0.641870  1.0
  S  S1047  1  0.371990  0.246470  0.141870  1.0
  S  S1048  1  0.128010  0.753530  0.141870  1.0
  S  S1049  1  0.204250  0.420810  0.190920  1.0
  S  S1050  1  0.295750  0.579190  0.190920  1.0
  S  S1051  1  0.704250  0.920810  0.690920  1.0
  S  S1052  1  0.795750  0.079190  0.690920  1.0
  S  S1053  1  0.795750  0.579190  0.809080  1.0
  S  S1054  1  0.704250  0.420810  0.809080  1.0
  S  S1055  1  0.295750  0.079190  0.309080  1.0
  S  S1056  1  0.204250  0.920810  0.309080  1.0
  S  S1057  1  0.329150  0.545810  0.559170  1.0
  S  S1058  1  0.170850  0.454190  0.559170  1.0
  S  S1059  1  0.829150  0.045810  0.059170  1.0
  S  S1060  1  0.670850  0.954190  0.059170  1.0
  S  S1061  1  0.670850  0.454190  0.440830  1.0
  S  S1062  1  0.829150  0.545810  0.440830  1.0
  S  S1063  1  0.170850  0.954190  0.940830  1.0
  S  S1064  1  0.329150  0.045810  0.940830  1.0
  Br  Br1065  1  0.291300  0.542500  0.404400  1
  Br  Br1066  1  0.208700  0.457500  0.404400  1
  Br  Br1067  1  0.791300  0.042500  0.904400  1
  Br  Br1068  1  0.708700  0.957500  0.904400  1
  Br  Br1069  1  0.708700  0.457500  0.595600  1
  Br  Br1070  1  0.791300  0.542500  0.595600  1
  Br  Br1071  1  0.208700  0.957500  0.095600  1
  Br  Br1072  1  0.291300  0.042500  0.095600  1
  Br  Br1073  1  0.280000  0.472000  0.333700  1
  Br  Br1074  1  0.220000  0.528000  0.333700  1
  Br  Br1075  1  0.780000  0.972000  0.833700  1
  Br  Br1076  1  0.720000  0.028000  0.833700  1
  Br  Br1077  1  0.720000  0.528000  0.666300  1
  Br  Br1078  1  0.780000  0.472000  0.666300  1
  Br  Br1079  1  0.220000  0.028000  0.166300  1
  Br  Br1080  1  0.280000  0.972000  0.166300  1
  Br  Br1081  1  0.249300  0.427700  0.411600  1
  Br  Br1082  1  0.250700  0.572300  0.411600  1
  Br  Br1083  1  0.749300  0.927700  0.911600  1
  Br  Br1084  1  0.750700  0.072300  0.911600  1
  Br  Br1085  1  0.750700  0.572300  0.588400  1
  Br  Br1086  1  0.749300  0.427700  0.588400  1
  Br  Br1087  1  0.250700  0.072300  0.088400  1
  Br  Br1088  1  0.249300  0.927700  0.088400  1
  Br  Br1089  1  0.179400  0.513600  0.374300  1
  Br  Br1090  1  0.320600  0.486400  0.374300  1
  Br  Br1091  1  0.679400  0.013600  0.874300  1
  Br  Br1092  1  0.820600  0.986400  0.874300  1
  Br  Br1093  1  0.820600  0.486400  0.625700  1
  Br  Br1094  1  0.679400  0.513600  0.625700  1
  Br  Br1095  1  0.320600  0.986400  0.125700  1
  Br  Br1096  1  0.179400  0.013600  0.125700  1
  Br  Br1097  1  0.279600  0.471400  0.416400  1
  Br  Br1098  1  0.220400  0.528600  0.416400  1
  Br  Br1099  1  0.779600  0.971400  0.916400  1
  Br  Br1100  1  0.720400  0.028600  0.916400  1
  Br  Br1101  1  0.720400  0.528600  0.583600  1
  Br  Br1102  1  0.779600  0.471400  0.583600  1
  Br  Br1103  1  0.220400  0.028600  0.083600  1
  Br  Br1104  1  0.279600  0.971400  0.083600  1
  Br  Br1105  1  0.208300  0.457700  0.346200  1
  Br  Br1106  1  0.291700  0.542300  0.346200  1
  Br  Br1107  1  0.708300  0.957700  0.846200  1
  Br  Br1108  1  0.791700  0.042300  0.846200  1
  Br  Br1109  1  0.791700  0.542300  0.653800  1
  Br  Br1110  1  0.708300  0.457700  0.653800  1
  Br  Br1111  1  0.291700  0.042300  0.153800  1
  Br  Br1112  1  0.208300  0.957700  0.153800  1
  Br  Br1113  1  0.263200  0.429800  0.374500  1
  Br  Br1114  1  0.236800  0.570200  0.374500  1
  Br  Br1115  1  0.763200  0.929800  0.874500  1
  Br  Br1116  1  0.736800  0.070200  0.874500  1
  Br  Br1117  1  0.736800  0.570200  0.625500  1
  Br  Br1118  1  0.763200  0.429800  0.625500  1
  Br  Br1119  1  0.236800  0.070200  0.125500  1
  Br  Br1120  1  0.263200  0.929800  0.125500  1
  Br  Br1121  1  0.176900  0.500100  0.337800  1
  Br  Br1122  1  0.323100  0.499900  0.337800  1
  Br  Br1123  1  0.676900  0.000100  0.837800  1
  Br  Br1124  1  0.823100  0.999900  0.837800  1
  Br  Br1125  1  0.823100  0.499900  0.662200  1
  Br  Br1126  1  0.676900  0.500100  0.662200  1
  Br  Br1127  1  0.323100  0.999900  0.162200  1
  Br  Br1128  1  0.176900  0.000100  0.162200  1
  N  N1129  1  0.925600  0.465300  0.265200  1.0
  N  N1130  1  0.574400  0.534700  0.265200  1.0
  N  N1131  1  0.425600  0.965300  0.765200  1.0
  N  N1132  1  0.074400  0.034700  0.765200  1.0
  N  N1133  1  0.074400  0.534700  0.734800  1.0
  N  N1134  1  0.425600  0.465300  0.734800  1.0
  N  N1135  1  0.574400  0.034700  0.234800  1.0
  N  N1136  1  0.925600  0.965300  0.234800  1.0
  N  N1137  1  0.991500  0.523700  0.303390  1.0
  N  N1138  1  0.508500  0.476300  0.303390  1.0
  N  N1139  1  0.491500  0.023700  0.803390  1.0
  N  N1140  1  0.008500  0.976300  0.803390  1.0
  N  N1141  1  0.008500  0.476300  0.696610  1.0
  N  N1142  1  0.491500  0.523700  0.696610  1.0
  N  N1143  1  0.508500  0.976300  0.196610  1.0
  N  N1144  1  0.991500  0.023700  0.196610  1.0
  N  N1145  1  0.284500  0.824600  0.484840  1.0
  N  N1146  1  0.215500  0.175400  0.484840  1.0
  N  N1147  1  0.784500  0.324600  0.984840  1.0
  N  N1148  1  0.715500  0.675400  0.984840  1.0
  N  N1149  1  0.715500  0.175400  0.515160  1.0
  N  N1150  1  0.784500  0.824600  0.515160  1.0
  N  N1151  1  0.215500  0.675400  0.015160  1.0
  N  N1152  1  0.284500  0.324600  0.015160  1.0
  N  N1153  1  0.226400  0.758600  0.446720  1.0
  N  N1154  1  0.273600  0.241400  0.446720  1.0
  N  N1155  1  0.726400  0.258600  0.946720  1.0
  N  N1156  1  0.773600  0.741400  0.946720  1.0
  N  N1157  1  0.773600  0.241400  0.553280  1.0
  N  N1158  1  0.726400  0.758600  0.553280  1.0
  N  N1159  1  0.273600  0.741400  0.053280  1.0
  N  N1160  1  0.226400  0.258600  0.053280  1.0
  N  N1161  1  0.995100  0.464800  0.195330  1.0
  N  N1162  1  0.504900  0.535200  0.195330  1.0
  N  N1163  1  0.495100  0.964800  0.695330  1.0
  N  N1164  1  0.004900  0.035200  0.695330  1.0
  N  N1165  1  0.004900  0.535200  0.804670  1.0
  N  N1166  1  0.495100  0.464800  0.804670  1.0
  N  N1167  1  0.504900  0.035200  0.304670  1.0
  N  N1168  1  0.995100  0.964800  0.304670  1.0
  N  N1169  1  0.037000  0.430300  0.257480  1.0
  N  N1170  1  0.463000  0.569700  0.257480  1.0
  N  N1171  1  0.537000  0.930300  0.757480  1.0
  N  N1172  1  0.963000  0.069700  0.757480  1.0
  N  N1173  1  0.963000  0.569700  0.742520  1.0
  N  N1174  1  0.537000  0.430300  0.742520  1.0
  N  N1175  1  0.463000  0.069700  0.242520  1.0
  N  N1176  1  0.037000  0.930300  0.242520  1.0
  N  N1177  1  0.214800  0.245000  0.554280  1.0
  N  N1178  1  0.285200  0.755000  0.554280  1.0
  N  N1179  1  0.714800  0.745000  0.054280  1.0
  N  N1180  1  0.785200  0.255000  0.054280  1.0
  N  N1181  1  0.785200  0.755000  0.445720  1.0
  N  N1182  1  0.714800  0.245000  0.445720  1.0
  N  N1183  1  0.285200  0.255000  0.945720  1.0
  N  N1184  1  0.214800  0.745000  0.945720  1.0
  N  N1185  1  0.180000  0.286900  0.492390  1.0
  N  N1186  1  0.320000  0.713100  0.492390  1.0
  N  N1187  1  0.680000  0.786900  0.992390  1.0
  N  N1188  1  0.820000  0.213100  0.992390  1.0
  N  N1189  1  0.820000  0.713100  0.507610  1.0
  N  N1190  1  0.680000  0.286900  0.507610  1.0
  N  N1191  1  0.320000  0.213100  0.007610  1.0
  N  N1192  1  0.180000  0.786900  0.007610  1.0
  N  N1193  1  0.961000  0.569300  0.229860  1.0
  N  N1194  1  0.539000  0.430700  0.229860  1.0
  N  N1195  1  0.461000  0.069300  0.729860  1.0
  N  N1196  1  0.039000  0.930700  0.729860  1.0
  N  N1197  1  0.039000  0.430700  0.770140  1.0
  N  N1198  1  0.461000  0.569300  0.770140  1.0
  N  N1199  1  0.539000  0.930700  0.270140  1.0
  N  N1200  1  0.961000  0.069300  0.270140  1.0
  N  N1201  1  0.061200  0.545900  0.233830  1.0
  N  N1202  1  0.438800  0.454100  0.233830  1.0
  N  N1203  1  0.561200  0.045900  0.733830  1.0
  N  N1204  1  0.938800  0.954100  0.733830  1.0
  N  N1205  1  0.938800  0.454100  0.766170  1.0
  N  N1206  1  0.561200  0.545900  0.766170  1.0
  N  N1207  1  0.438800  0.954100  0.266170  1.0
  N  N1208  1  0.061200  0.045900  0.266170  1.0
  N  N1209  1  0.180800  0.789000  0.520050  1.0
  N  N1210  1  0.319200  0.211000  0.520050  1.0
  N  N1211  1  0.680800  0.289000  0.020050  1.0
  N  N1212  1  0.819200  0.711000  0.020050  1.0
  N  N1213  1  0.819200  0.211000  0.479950  1.0
  N  N1214  1  0.680800  0.789000  0.479950  1.0
  N  N1215  1  0.319200  0.711000  0.979950  1.0
  N  N1216  1  0.180800  0.289000  0.979950  1.0
  N  N1217  1  0.204700  0.689100  0.516440  1.0
  N  N1218  1  0.295300  0.310900  0.516440  1.0
  N  N1219  1  0.704700  0.189100  0.016440  1.0
  N  N1220  1  0.795300  0.810900  0.016440  1.0
  N  N1221  1  0.795300  0.310900  0.483560  1.0
  N  N1222  1  0.704700  0.689100  0.483560  1.0
  N  N1223  1  0.295300  0.810900  0.983560  1.0
  N  N1224  1  0.204700  0.189100  0.983560  1.0
  Cl  Cl1225  1  0.285900  0.541900  0.400200  1
  Cl  Cl1226  1  0.214100  0.458100  0.400200  1
  Cl  Cl1227  1  0.785900  0.041900  0.900200  1
  Cl  Cl1228  1  0.714100  0.958100  0.900200  1
  Cl  Cl1229  1  0.714100  0.458100  0.599800  1
  Cl  Cl1230  1  0.785900  0.541900  0.599800  1
  Cl  Cl1231  1  0.214100  0.958100  0.099800  1
  Cl  Cl1232  1  0.285900  0.041900  0.099800  1
  Cl  Cl1233  1  0.279700  0.476300  0.336700  1
  Cl  Cl1234  1  0.220300  0.523700  0.336700  1
  Cl  Cl1235  1  0.779700  0.976300  0.836700  1
  Cl  Cl1236  1  0.720300  0.023700  0.836700  1
  Cl  Cl1237  1  0.720300  0.523700  0.663300  1
  Cl  Cl1238  1  0.779700  0.476300  0.663300  1
  Cl  Cl1239  1  0.220300  0.023700  0.163300  1
  Cl  Cl1240  1  0.279700  0.976300  0.163300  1
  Cl  Cl1241  1  0.249700  0.437300  0.407100  1
  Cl  Cl1242  1  0.250300  0.562700  0.407100  1
  Cl  Cl1243  1  0.749700  0.937300  0.907100  1
  Cl  Cl1244  1  0.750300  0.062700  0.907100  1
  Cl  Cl1245  1  0.750300  0.562700  0.592900  1
  Cl  Cl1246  1  0.749700  0.437300  0.592900  1
  Cl  Cl1247  1  0.250300  0.062700  0.092900  1
  Cl  Cl1248  1  0.249700  0.937300  0.092900  1
  Cl  Cl1249  1  0.186300  0.512700  0.371000  1
  Cl  Cl1250  1  0.313700  0.487300  0.371000  1
  Cl  Cl1251  1  0.686300  0.012700  0.871000  1
  Cl  Cl1252  1  0.813700  0.987300  0.871000  1
  Cl  Cl1253  1  0.813700  0.487300  0.629000  1
  Cl  Cl1254  1  0.686300  0.512700  0.629000  1
  Cl  Cl1255  1  0.313700  0.987300  0.129000  1
  Cl  Cl1256  1  0.186300  0.012700  0.129000  1
  Cl  Cl1257  1  0.272100  0.468900  0.413400  1.0
  Cl  Cl1258  1  0.227900  0.531100  0.413400  1.0
  Cl  Cl1259  1  0.772100  0.968900  0.913400  1.0
  Cl  Cl1260  1  0.727900  0.031100  0.913400  1.0
  Cl  Cl1261  1  0.727900  0.531100  0.586600  1.0
  Cl  Cl1262  1  0.772100  0.468900  0.586600  1.0
  Cl  Cl1263  1  0.227900  0.031100  0.086600  1.0
  Cl  Cl1264  1  0.272100  0.968900  0.086600  1.0
  Cl  Cl1265  1  0.207500  0.464900  0.349200  1.0
  Cl  Cl1266  1  0.292500  0.535100  0.349200  1.0
  Cl  Cl1267  1  0.707500  0.964900  0.849200  1.0
  Cl  Cl1268  1  0.792500  0.035100  0.849200  1.0
  Cl  Cl1269  1  0.792500  0.535100  0.650800  1.0
  Cl  Cl1270  1  0.707500  0.464900  0.650800  1.0
  Cl  Cl1271  1  0.292500  0.035100  0.150800  1.0
  Cl  Cl1272  1  0.207500  0.964900  0.150800  1.0
  Cl  Cl1273  1  0.262900  0.436700  0.379600  1.0
  Cl  Cl1274  1  0.237100  0.563300  0.379600  1.0
  Cl  Cl1275  1  0.762900  0.936700  0.879600  1.0
  Cl  Cl1276  1  0.737100  0.063300  0.879600  1.0
  Cl  Cl1277  1  0.737100  0.563300  0.620400  1.0
  Cl  Cl1278  1  0.762900  0.436700  0.620400  1.0
  Cl  Cl1279  1  0.237100  0.063300  0.120400  1.0
  Cl  Cl1280  1  0.262900  0.936700  0.120400  1.0
  Cl  Cl1281  1  0.187500  0.500100  0.343700  1.0
  Cl  Cl1282  1  0.312500  0.499900  0.343700  1.0
  Cl  Cl1283  1  0.687500  0.000100  0.843700  1.0
  Cl  Cl1284  1  0.812500  0.999900  0.843700  1.0
  Cl  Cl1285  1  0.812500  0.499900  0.656300  1.0
  Cl  Cl1286  1  0.687500  0.500100  0.656300  1.0
  Cl  Cl1287  1  0.312500  0.999900  0.156300  1.0
  Cl  Cl1288  1  0.187500  0.000100  0.156300  1.0
  O  O1289  1  0.749200  0.627000  0.188100  1
  O  O1290  1  0.750800  0.373000  0.188100  1
  O  O1291  1  0.249200  0.127000  0.688100  1
  O  O1292  1  0.250800  0.873000  0.688100  1
  O  O1293  1  0.250800  0.373000  0.811900  1
  O  O1294  1  0.249200  0.627000  0.811900  1
  O  O1295  1  0.750800  0.873000  0.311900  1
  O  O1296  1  0.749200  0.127000  0.311900  1
  O  O1297  1  0.047400  0.286100  0.270300  1
  O  O1298  1  0.452600  0.713900  0.270300  1
  O  O1299  1  0.547400  0.786100  0.770300  1
  O  O1300  1  0.952600  0.213900  0.770300  1
  O  O1301  1  0.952600  0.713900  0.729700  1
  O  O1302  1  0.547400  0.286100  0.729700  1
  O  O1303  1  0.452600  0.213900  0.229700  1
  O  O1304  1  0.047400  0.786100  0.229700  1
  O  O1305  1  0.964000  0.703100  0.520100  1
  O  O1306  1  0.536000  0.296900  0.520100  1
  O  O1307  1  0.464000  0.203100  0.020100  1
  O  O1308  1  0.036000  0.796900  0.020100  1
  O  O1309  1  0.036000  0.296900  0.479900  1
  O  O1310  1  0.464000  0.703100  0.479900  1
  O  O1311  1  0.536000  0.796900  0.979900  1
  O  O1312  1  0.964000  0.203100  0.979900  1
  O  O1313  1  0.348900  0.388600  0.167500  1
  O  O1314  1  0.151100  0.611400  0.167500  1
  O  O1315  1  0.848900  0.888600  0.667500  1
  O  O1316  1  0.651100  0.111400  0.667500  1
  O  O1317  1  0.651100  0.611400  0.832500  1
  O  O1318  1  0.848900  0.388600  0.832500  1
  O  O1319  1  0.151100  0.111400  0.332500  1
  O  O1320  1  0.348900  0.888600  0.332500  1
  O  O1321  1  0.148500  0.312500  0.132000  1
  O  O1322  1  0.351500  0.687500  0.132000  1
  O  O1323  1  0.648500  0.812500  0.632000  1
  O  O1324  1  0.851500  0.187500  0.632000  1
  O  O1325  1  0.851500  0.687500  0.868000  1
  O  O1326  1  0.648500  0.312500  0.868000  1
  O  O1327  1  0.351500  0.187500  0.368000  1
  O  O1328  1  0.148500  0.812500  0.368000  1
  O  O1329  1  0.123300  0.000400  0.561700  1
  O  O1330  1  0.376700  0.999600  0.561700  1
  O  O1331  1  0.623300  0.500400  0.061700  1
  O  O1332  1  0.876700  0.499600  0.061700  1
  O  O1333  1  0.876700  0.999600  0.438300  1
  O  O1334  1  0.623300  0.000400  0.438300  1
  O  O1335  1  0.376700  0.499600  0.938300  1
  O  O1336  1  0.123300  0.500400  0.938300  1
  O  O1337  1  0.937500  0.601600  0.381800  1
  O  O1338  1  0.562500  0.398400  0.381800  1
  O  O1339  1  0.437500  0.101600  0.881800  1
  O  O1340  1  0.062500  0.898400  0.881800  1
  O  O1341  1  0.062500  0.398400  0.618200  1
  O  O1342  1  0.437500  0.601600  0.618200  1
  O  O1343  1  0.562500  0.898400  0.118200  1
  O  O1344  1  0.937500  0.101600  0.118200  1
  O  O1345  1  0.360200  0.899600  0.588200  1
  O  O1346  1  0.139800  0.100400  0.588200  1
  O  O1347  1  0.860200  0.399600  0.088200  1
  O  O1348  1  0.639800  0.600400  0.088200  1
  O  O1349  1  0.639800  0.100400  0.411800  1
  O  O1350  1  0.860200  0.899600  0.411800  1
  O  O1351  1  0.139800  0.600400  0.911800  1
  O  O1352  1  0.360200  0.399600  0.911800  1
  O  O1353  1  0.182700  0.858100  0.630000  1
  O  O1354  1  0.317300  0.141900  0.630000  1
  O  O1355  1  0.682700  0.358100  0.130000  1
  O  O1356  1  0.817300  0.641900  0.130000  1
  O  O1357  1  0.817300  0.141900  0.370000  1
  O  O1358  1  0.682700  0.858100  0.370000  1
  O  O1359  1  0.317300  0.641900  0.870000  1
  O  O1360  1  0.182700  0.358100  0.870000  1
  O  O1361  1  0.782100  0.541800  0.228600  1
  O  O1362  1  0.717900  0.458200  0.228600  1
  O  O1363  1  0.282100  0.041800  0.728600  1
  O  O1364  1  0.217900  0.958200  0.728600  1
  O  O1365  1  0.217900  0.458200  0.771400  1
  O  O1366  1  0.282100  0.541800  0.771400  1
  O  O1367  1  0.717900  0.958200  0.271400  1
  O  O1368  1  0.782100  0.041800  0.271400  1
  O  O1369  1  0.649900  0.610300  0.162200  1
  O  O1370  1  0.850100  0.389700  0.162200  1
  O  O1371  1  0.149900  0.110300  0.662200  1
  O  O1372  1  0.350100  0.889700  0.662200  1
  O  O1373  1  0.350100  0.389700  0.837800  1
  O  O1374  1  0.149900  0.610300  0.837800  1
  O  O1375  1  0.850100  0.889700  0.337800  1
  O  O1376  1  0.649900  0.110300  0.337800  1
  O  O1377  1  0.208700  0.968000  0.521300  1
  O  O1378  1  0.291300  0.032000  0.521300  1
  O  O1379  1  0.708700  0.468000  0.021300  1
  O  O1380  1  0.791300  0.532000  0.021300  1
  O  O1381  1  0.791300  0.032000  0.478700  1
  O  O1382  1  0.708700  0.968000  0.478700  1
  O  O1383  1  0.291300  0.532000  0.978700  1
  O  O1384  1  0.208700  0.468000  0.978700  1
  O  O1385  1  0.108800  0.933000  0.619900  1
  O  O1386  1  0.391200  0.067000  0.619900  1
  O  O1387  1  0.608800  0.433000  0.119900  1
  O  O1388  1  0.891200  0.567000  0.119900  1
  O  O1389  1  0.891200  0.067000  0.380100  1
  O  O1390  1  0.608800  0.933000  0.380100  1
  O  O1391  1  0.391200  0.567000  0.880100  1
  O  O1392  1  0.108800  0.433000  0.880100  1
  O  O1393  1  0.250700  0.901900  0.578200  1
  O  O1394  1  0.249300  0.098100  0.578200  1
  O  O1395  1  0.750700  0.401900  0.078200  1
  O  O1396  1  0.749300  0.598100  0.078200  1
  O  O1397  1  0.749300  0.098100  0.421800  1
  O  O1398  1  0.750700  0.901900  0.421800  1
  O  O1399  1  0.249300  0.598100  0.921800  1
  O  O1400  1  0.250700  0.401900  0.921800  1
  O  O1401  1  0.138400  0.598600  0.582500  1
  O  O1402  1  0.361600  0.401400  0.582500  1
  O  O1403  1  0.638400  0.098600  0.082500  1
  O  O1404  1  0.861600  0.901400  0.082500  1
  O  O1405  1  0.861600  0.401400  0.417500  1
  O  O1406  1  0.638400  0.598600  0.417500  1
  O  O1407  1  0.361600  0.901400  0.917500  1
  O  O1408  1  0.138400  0.098600  0.917500  1
  O  O1409  1  0.847400  0.498800  0.172500  1
  O  O1410  1  0.652600  0.501200  0.172500  1
  O  O1411  1  0.347400  0.998800  0.672500  1
  O  O1412  1  0.152600  0.001200  0.672500  1
  O  O1413  1  0.152600  0.501200  0.827500  1
  O  O1414  1  0.347400  0.498800  0.827500  1
  O  O1415  1  0.652600  0.001200  0.327500  1
  O  O1416  1  0.847400  0.998800  0.327500  1
  O  O1417  1  0.975800  0.274100  0.125000  1
  O  O1418  1  0.524200  0.725900  0.125000  1
  O  O1419  1  0.475800  0.774100  0.625000  1
  O  O1420  1  0.024200  0.225900  0.625000  1
  O  O1421  1  0.024200  0.725900  0.875000  1
  O  O1422  1  0.475800  0.274100  0.875000  1
  O  O1423  1  0.524200  0.225900  0.375000  1
  O  O1424  1  0.975800  0.774100  0.375000  1
  O  O1425  1  0.250000  0.500000  0.100000  1
  O  O1426  1  0.750000  0.000000  0.600000  1
  O  O1427  1  0.750000  0.500000  0.900000  1
  O  O1428  1  0.250000  0.000000  0.400000  1
  O  O1429  1  0.977000  0.730000  0.121800  1
  O  O1430  1  0.523000  0.270000  0.121800  1
  O  O1431  1  0.477000  0.230000  0.621800  1
  O  O1432  1  0.023000  0.770000  0.621800  1
  O  O1433  1  0.023000  0.270000  0.878200  1
  O  O1434  1  0.477000  0.730000  0.878200  1
  O  O1435  1  0.523000  0.770000  0.378200  1
  O  O1436  1  0.977000  0.230000  0.378200  1
  O  O1437  1  0.950900  0.318500  0.274200  1
  O  O1438  1  0.549100  0.681500  0.274200  1
  O  O1439  1  0.450900  0.818500  0.774200  1
  O  O1440  1  0.049100  0.181500  0.774200  1
  O  O1441  1  0.049100  0.681500  0.725800  1
  O  O1442  1  0.450900  0.318500  0.725800  1
  O  O1443  1  0.549100  0.181500  0.225800  1
  O  O1444  1  0.950900  0.818500  0.225800  1
  O  O1445  1  0.208500  0.661900  0.615800  1
  O  O1446  1  0.291500  0.338100  0.615800  1
  O  O1447  1  0.708500  0.161900  0.115800  1
  O  O1448  1  0.791500  0.838100  0.115800  1
  O  O1449  1  0.791500  0.338100  0.384200  1
  O  O1450  1  0.708500  0.661900  0.384200  1
  O  O1451  1  0.291500  0.838100  0.884200  1
  O  O1452  1  0.208500  0.161900  0.884200  1
  O  O1453  1  0.608300  0.696400  0.212300  1
  O  O1454  1  0.891700  0.303600  0.212300  1
  O  O1455  1  0.108300  0.196400  0.712300  1
  O  O1456  1  0.391700  0.803600  0.712300  1
  O  O1457  1  0.391700  0.303600  0.787700  1
  O  O1458  1  0.108300  0.696400  0.787700  1
  O  O1459  1  0.891700  0.803600  0.287700  1
  O  O1460  1  0.608300  0.196400  0.287700  1
  O  O1461  1  0.413900  0.452400  0.136500  1
  O  O1462  1  0.086100  0.547600  0.136500  1
  O  O1463  1  0.913900  0.952400  0.636500  1
  O  O1464  1  0.586100  0.047600  0.636500  1
  O  O1465  1  0.586100  0.547600  0.863500  1
  O  O1466  1  0.913900  0.452400  0.863500  1
  O  O1467  1  0.086100  0.047600  0.363500  1
  O  O1468  1  0.413900  0.952400  0.363500  1
  O  O1469  1  0.112700  0.342200  0.066900  1
  O  O1470  1  0.387300  0.657800  0.066900  1
  O  O1471  1  0.612700  0.842200  0.566900  1
  O  O1472  1  0.887300  0.157800  0.566900  1
  O  O1473  1  0.887300  0.657800  0.933100  1
  O  O1474  1  0.612700  0.342200  0.933100  1
  O  O1475  1  0.387300  0.157800  0.433100  1
  O  O1476  1  0.112700  0.842200  0.433100  1
  O  O1477  1  0.446800  0.859300  0.536100  1
  O  O1478  1  0.053200  0.140700  0.536100  1
  O  O1479  1  0.946800  0.359300  0.036100  1
  O  O1480  1  0.553200  0.640700  0.036100  1
  O  O1481  1  0.553200  0.140700  0.463900  1
  O  O1482  1  0.946800  0.859300  0.463900  1
  O  O1483  1  0.053200  0.640700  0.963900  1
  O  O1484  1  0.446800  0.359300  0.963900  1
  O  O1485  1  0.908400  0.638900  0.316800  1
  O  O1486  1  0.591600  0.361100  0.316800  1
  O  O1487  1  0.408400  0.138900  0.816800  1
  O  O1488  1  0.091600  0.861100  0.816800  1
  O  O1489  1  0.091600  0.361100  0.683200  1
  O  O1490  1  0.408400  0.638900  0.683200  1
  O  O1491  1  0.591600  0.861100  0.183200  1
  O  O1492  1  0.908400  0.138900  0.183200  1
  O  O1493  1  0.162800  0.747200  0.649700  1
  O  O1494  1  0.337200  0.252800  0.649700  1
  O  O1495  1  0.662800  0.247200  0.149700  1
  O  O1496  1  0.837200  0.752800  0.149700  1
  O  O1497  1  0.837200  0.252800  0.350300  1
  O  O1498  1  0.662800  0.747200  0.350300  1
  O  O1499  1  0.337200  0.752800  0.850300  1
  O  O1500  1  0.162800  0.247200  0.850300  1
  O  O1501  1  0.932500  0.799800  0.523800  1
  O  O1502  1  0.567500  0.200200  0.523800  1
  O  O1503  1  0.432500  0.299800  0.023800  1
  O  O1504  1  0.067500  0.700200  0.023800  1
  O  O1505  1  0.067500  0.200200  0.476200  1
  O  O1506  1  0.432500  0.799800  0.476200  1
  O  O1507  1  0.567500  0.700200  0.976200  1
  O  O1508  1  0.932500  0.299800  0.976200  1
  O  O1509  1  0.995400  0.922700  0.598200  1
  O  O1510  1  0.504600  0.077300  0.598200  1
  O  O1511  1  0.495400  0.422700  0.098200  1
  O  O1512  1  0.004600  0.577300  0.098200  1
  O  O1513  1  0.004600  0.077300  0.401800  1
  O  O1514  1  0.495400  0.922700  0.401800  1
  O  O1515  1  0.504600  0.577300  0.901800  1
  O  O1516  1  0.995400  0.422700  0.901800  1
  O  O1517  1  0.162000  0.940800  0.455700  1
  O  O1518  1  0.338000  0.059200  0.455700  1
  O  O1519  1  0.662000  0.440800  0.955700  1
  O  O1520  1  0.838000  0.559200  0.955700  1
  O  O1521  1  0.838000  0.059200  0.544300  1
  O  O1522  1  0.662000  0.940800  0.544300  1
  O  O1523  1  0.338000  0.559200  0.044300  1
  O  O1524  1  0.162000  0.440800  0.044300  1
  O  O1525  1  0.959600  0.829300  0.592400  1
  O  O1526  1  0.540400  0.170700  0.592400  1
  O  O1527  1  0.459600  0.329300  0.092400  1
  O  O1528  1  0.040400  0.670700  0.092400  1
  O  O1529  1  0.040400  0.170700  0.407600  1
  O  O1530  1  0.459600  0.829300  0.407600  1
  O  O1531  1  0.540400  0.670700  0.907600  1
  O  O1532  1  0.959600  0.329300  0.907600  1
  O  O1533  1  0.948600  0.232200  0.184700  1
  O  O1534  1  0.551400  0.767800  0.184700  1
  O  O1535  1  0.448600  0.732200  0.684700  1
  O  O1536  1  0.051400  0.267800  0.684700  1
  O  O1537  1  0.051400  0.767800  0.815300  1
  O  O1538  1  0.448600  0.232200  0.815300  1
  O  O1539  1  0.551400  0.267800  0.315300  1
  O  O1540  1  0.948600  0.732200  0.315300  1
  O  O1541  1  0.991000  0.933000  0.523700  1
  O  O1542  1  0.509000  0.067000  0.523700  1
  O  O1543  1  0.491000  0.433000  0.023700  1
  O  O1544  1  0.009000  0.567000  0.023700  1
  O  O1545  1  0.009000  0.067000  0.476300  1
  O  O1546  1  0.491000  0.933000  0.476300  1
  O  O1547  1  0.509000  0.567000  0.976300  1
  O  O1548  1  0.991000  0.433000  0.976300  1
  O  O1549  1  0.987000  0.056000  0.529400  1
  O  O1550  1  0.513000  0.944000  0.529400  1
  O  O1551  1  0.487000  0.556000  0.029400  1
  O  O1552  1  0.013000  0.444000  0.029400  1
  O  O1553  1  0.013000  0.944000  0.470600  1
  O  O1554  1  0.487000  0.056000  0.470600  1
  O  O1555  1  0.513000  0.444000  0.970600  1
  O  O1556  1  0.987000  0.556000  0.970600  1
  O  O1557  1  0.066000  0.992000  0.498200  1
  O  O1558  1  0.434000  0.008000  0.498200  1
  O  O1559  1  0.566000  0.492000  0.998200  1
  O  O1560  1  0.934000  0.508000  0.998200  1
  O  O1561  1  0.934000  0.008000  0.501800  1
  O  O1562  1  0.566000  0.992000  0.501800  1
  O  O1563  1  0.434000  0.508000  0.001800  1
  O  O1564  1  0.066000  0.492000  0.001800  1
  O  O1565  1  0.159900  0.727100  0.710800  1
  O  O1566  1  0.340100  0.272900  0.710800  1
  O  O1567  1  0.659900  0.227100  0.210800  1
  O  O1568  1  0.840100  0.772900  0.210800  1
  O  O1569  1  0.840100  0.272900  0.289200  1
  O  O1570  1  0.659900  0.727100  0.289200  1
  O  O1571  1  0.340100  0.772900  0.789200  1
  O  O1572  1  0.159900  0.227100  0.789200  1
  O  O1573  1  0.518900  0.801100  0.566500  1
  O  O1574  1  0.981100  0.198900  0.566500  1
  O  O1575  1  0.018900  0.301100  0.066500  1
  O  O1576  1  0.481100  0.698900  0.066500  1
  O  O1577  1  0.481100  0.198900  0.433500  1
  O  O1578  1  0.018900  0.801100  0.433500  1
  O  O1579  1  0.981100  0.698900  0.933500  1
  O  O1580  1  0.518900  0.301100  0.933500  1
  O  O1581  1  0.806600  0.582400  0.298000  1
  O  O1582  1  0.693400  0.417600  0.298000  1
  O  O1583  1  0.306600  0.082400  0.798000  1
  O  O1584  1  0.193400  0.917600  0.798000  1
  O  O1585  1  0.193400  0.417600  0.702000  1
  O  O1586  1  0.306600  0.582400  0.702000  1
  O  O1587  1  0.693400  0.917600  0.202000  1
  O  O1588  1  0.806600  0.082400  0.202000  1
  O  O1589  1  0.774500  0.594400  0.357200  1
  O  O1590  1  0.725500  0.405600  0.357200  1
  O  O1591  1  0.274500  0.094400  0.857200  1
  O  O1592  1  0.225500  0.905600  0.857200  1
  O  O1593  1  0.225500  0.405600  0.642800  1
  O  O1594  1  0.274500  0.594400  0.642800  1
  O  O1595  1  0.725500  0.905600  0.142800  1
  O  O1596  1  0.774500  0.094400  0.142800  1
  O  O1597  1  0.078700  0.710800  0.656700  1
  O  O1598  1  0.421300  0.289200  0.656700  1
  O  O1599  1  0.578700  0.210800  0.156700  1
  O  O1600  1  0.921300  0.789200  0.156700  1
  O  O1601  1  0.921300  0.289200  0.343300  1
  O  O1602  1  0.578700  0.710800  0.343300  1
  O  O1603  1  0.421300  0.789200  0.843300  1
  O  O1604  1  0.078700  0.210800  0.843300  1
  O  O1605  1  0.155200  0.975100  0.393300  1
  O  O1606  1  0.344800  0.024900  0.393300  1
  O  O1607  1  0.655200  0.475100  0.893300  1
  O  O1608  1  0.844800  0.524900  0.893300  1
  O  O1609  1  0.844800  0.024900  0.606700  1
  O  O1610  1  0.655200  0.975100  0.606700  1
  O  O1611  1  0.344800  0.524900  0.106700  1
  O  O1612  1  0.155200  0.475100  0.106700  1
  O  O1613  1  0.427600  0.004400  0.444200  1
  O  O1614  1  0.072400  0.995600  0.444200  1
  O  O1615  1  0.927600  0.504400  0.944200  1
  O  O1616  1  0.572400  0.495600  0.944200  1
  O  O1617  1  0.572400  0.995600  0.555800  1
  O  O1618  1  0.927600  0.004400  0.555800  1
  O  O1619  1  0.072400  0.495600  0.055800  1
  O  O1620  1  0.427600  0.504400  0.055800  1
  O  O1621  1  0.755700  0.677300  0.304600  1
  O  O1622  1  0.744300  0.322700  0.304600  1
  O  O1623  1  0.255700  0.177300  0.804600  1
  O  O1624  1  0.244300  0.822700  0.804600  1
  O  O1625  1  0.244300  0.322700  0.695400  1
  O  O1626  1  0.255700  0.677300  0.695400  1
  O  O1627  1  0.744300  0.822700  0.195400  1
  O  O1628  1  0.755700  0.177300  0.195400  1
  O  O1629  1  0.662000  0.766000  0.219800  1
  O  O1630  1  0.838000  0.234000  0.219800  1
  O  O1631  1  0.162000  0.266000  0.719800  1
  O  O1632  1  0.338000  0.734000  0.719800  1
  O  O1633  1  0.338000  0.234000  0.780200  1
  O  O1634  1  0.162000  0.766000  0.780200  1
  O  O1635  1  0.838000  0.734000  0.280200  1
  O  O1636  1  0.662000  0.266000  0.280200  1
  O  O1637  1  0.242000  0.814000  0.752800  1
  O  O1638  1  0.258000  0.186000  0.752800  1
  O  O1639  1  0.742000  0.314000  0.252800  1
  O  O1640  1  0.758000  0.686000  0.252800  1
  O  O1641  1  0.758000  0.186000  0.247200  1
  O  O1642  1  0.742000  0.814000  0.247200  1
  O  O1643  1  0.258000  0.686000  0.747200  1
  O  O1644  1  0.242000  0.314000  0.747200  1
  O  O1645  1  0.316400  0.292400  0.237100  1
  O  O1646  1  0.183600  0.707600  0.237100  1
  O  O1647  1  0.816400  0.792400  0.737100  1
  O  O1648  1  0.683600  0.207600  0.737100  1
  O  O1649  1  0.683600  0.707600  0.762900  1
  O  O1650  1  0.816400  0.292400  0.762900  1
  O  O1651  1  0.183600  0.207600  0.262900  1
  O  O1652  1  0.316400  0.792400  0.262900  1
  O  O1653  1  0.219800  0.270200  0.199300  1
  O  O1654  1  0.280200  0.729800  0.199300  1
  O  O1655  1  0.719800  0.770200  0.699300  1
  O  O1656  1  0.780200  0.229800  0.699300  1
  O  O1657  1  0.780200  0.729800  0.800700  1
  O  O1658  1  0.719800  0.270200  0.800700  1
  O  O1659  1  0.280200  0.229800  0.300700  1
  O  O1660  1  0.219800  0.770200  0.300700  1
  O  O1661  1  0.281100  0.183500  0.225200  1
  O  O1662  1  0.218900  0.816500  0.225200  1
  O  O1663  1  0.781100  0.683500  0.725200  1
  O  O1664  1  0.718900  0.316500  0.725200  1
  O  O1665  1  0.718900  0.816500  0.774800  1
  O  O1666  1  0.781100  0.183500  0.774800  1
  O  O1667  1  0.218900  0.316500  0.274800  1
  O  O1668  1  0.281100  0.683500  0.274800  1
  O  O1669  1  0.272700  0.323000  0.268900  1
  O  O1670  1  0.227300  0.677000  0.268900  1
  O  O1671  1  0.772700  0.823000  0.768900  1
  O  O1672  1  0.727300  0.177000  0.768900  1
  O  O1673  1  0.727300  0.677000  0.731100  1
  O  O1674  1  0.772700  0.323000  0.731100  1
  O  O1675  1  0.227300  0.177000  0.231100  1
  O  O1676  1  0.272700  0.823000  0.231100  1
  O  O1677  1  0.248700  0.276200  0.195800  1
  O  O1678  1  0.251300  0.723800  0.195800  1
  O  O1679  1  0.748700  0.776200  0.695800  1
  O  O1680  1  0.751300  0.223800  0.695800  1
  O  O1681  1  0.751300  0.723800  0.804200  1
  O  O1682  1  0.748700  0.276200  0.804200  1
  O  O1683  1  0.251300  0.223800  0.304200  1
  O  O1684  1  0.248700  0.776200  0.304200  1
  O  O1685  1  0.326600  0.225500  0.245100  1
  O  O1686  1  0.173400  0.774500  0.245100  1
  O  O1687  1  0.826600  0.725500  0.745100  1
  O  O1688  1  0.673400  0.274500  0.745100  1
  O  O1689  1  0.673400  0.774500  0.754900  1
  O  O1690  1  0.826600  0.225500  0.754900  1
  O  O1691  1  0.173400  0.274500  0.254900  1
  O  O1692  1  0.326600  0.725500  0.254900  1
  O  O1693  1  0.955300  0.493800  0.547600  1
  O  O1694  1  0.544700  0.506200  0.547600  1
  O  O1695  1  0.455300  0.993800  0.047600  1
  O  O1696  1  0.044700  0.006200  0.047600  1
  O  O1697  1  0.044700  0.506200  0.452400  1
  O  O1698  1  0.455300  0.493800  0.452400  1
  O  O1699  1  0.544700  0.006200  0.952400  1
  O  O1700  1  0.955300  0.993800  0.952400  1
  O  O1701  1  0.055100  0.545200  0.526900  1
  O  O1702  1  0.444900  0.454800  0.526900  1
  O  O1703  1  0.555100  0.045200  0.026900  1
  O  O1704  1  0.944900  0.954800  0.026900  1
  O  O1705  1  0.944900  0.454800  0.473100  1
  O  O1706  1  0.555100  0.545200  0.473100  1
  O  O1707  1  0.444900  0.954800  0.973100  1
  O  O1708  1  0.055100  0.045200  0.973100  1
  O  O1709  1  0.960800  0.568400  0.486700  1
  O  O1710  1  0.539200  0.431600  0.486700  1
  O  O1711  1  0.460800  0.068400  0.986700  1
  O  O1712  1  0.039200  0.931600  0.986700  1
  O  O1713  1  0.039200  0.431600  0.513300  1
  O  O1714  1  0.460800  0.568400  0.513300  1
  O  O1715  1  0.539200  0.931600  0.013300  1
  O  O1716  1  0.960800  0.068400  0.013300  1
  O  O1717  1  0.933500  0.530700  0.524700  1
  O  O1718  1  0.566500  0.469300  0.524700  1
  O  O1719  1  0.433500  0.030700  0.024700  1
  O  O1720  1  0.066500  0.969300  0.024700  1
  O  O1721  1  0.066500  0.469300  0.475300  1
  O  O1722  1  0.433500  0.530700  0.475300  1
  O  O1723  1  0.566500  0.969300  0.975300  1
  O  O1724  1  0.933500  0.030700  0.975300  1
  O  O1725  1  0.042000  0.566700  0.512700  1
  O  O1726  1  0.458000  0.433300  0.512700  1
  O  O1727  1  0.542000  0.066700  0.012700  1
  O  O1728  1  0.958000  0.933300  0.012700  1
  O  O1729  1  0.958000  0.433300  0.487300  1
  O  O1730  1  0.542000  0.566700  0.487300  1
  O  O1731  1  0.458000  0.933300  0.987300  1
  O  O1732  1  0.042000  0.066700  0.987300  1
  O  O1733  1  0.020300  0.470300  0.551200  1
  O  O1734  1  0.479700  0.529700  0.551200  1
  O  O1735  1  0.520300  0.970300  0.051200  1
  O  O1736  1  0.979700  0.029700  0.051200  1
  O  O1737  1  0.979700  0.529700  0.448800  1
  O  O1738  1  0.520300  0.470300  0.448800  1
  O  O1739  1  0.479700  0.029700  0.948800  1
  O  O1740  1  0.020300  0.970300  0.948800  1
  O  O1741  1  0.990100  0.712900  0.128100  1
  O  O1742  1  0.509900  0.287100  0.128100  1
  O  O1743  1  0.490100  0.212900  0.628100  1
  O  O1744  1  0.009900  0.787100  0.628100  1
  O  O1745  1  0.009900  0.287100  0.871900  1
  O  O1746  1  0.490100  0.712900  0.871900  1
  O  O1747  1  0.509900  0.787100  0.371900  1
  O  O1748  1  0.990100  0.212900  0.371900  1
  O  O1749  1  0.960800  0.734200  0.123500  1
  O  O1750  1  0.539200  0.265800  0.123500  1
  O  O1751  1  0.460800  0.234200  0.623500  1
  O  O1752  1  0.039200  0.765800  0.623500  1
  O  O1753  1  0.039200  0.265800  0.876500  1
  O  O1754  1  0.460800  0.734200  0.876500  1
  O  O1755  1  0.539200  0.765800  0.376500  1
  O  O1756  1  0.960800  0.234200  0.376500  1
  O  O1757  1  0.582200  0.674400  0.187400  1
  O  O1758  1  0.917800  0.325600  0.187400  1
  O  O1759  1  0.082200  0.174400  0.687400  1
  O  O1760  1  0.417800  0.825600  0.687400  1
  O  O1761  1  0.417800  0.325600  0.812600  1
  O  O1762  1  0.082200  0.674400  0.812600  1
  O  O1763  1  0.917800  0.825600  0.312600  1
  O  O1764  1  0.582200  0.174400  0.312600  1
  O  O1765  1  0.425700  0.833500  0.562300  1
  O  O1766  1  0.074300  0.166500  0.562300  1
  O  O1767  1  0.925700  0.333500  0.062300  1
  O  O1768  1  0.574300  0.666500  0.062300  1
  O  O1769  1  0.574300  0.166500  0.437700  1
  O  O1770  1  0.925700  0.833500  0.437700  1
  O  O1771  1  0.074300  0.666500  0.937700  1
  O  O1772  1  0.425700  0.333500  0.937700  1
  O  O1773  1  0.983500  0.096500  0.532800  1
  O  O1774  1  0.516500  0.903500  0.532800  1
  O  O1775  1  0.483500  0.596500  0.032800  1
  O  O1776  1  0.016500  0.403500  0.032800  1
  O  O1777  1  0.016500  0.903500  0.467200  1
  O  O1778  1  0.483500  0.096500  0.467200  1
  O  O1779  1  0.516500  0.403500  0.967200  1
  O  O1780  1  0.983500  0.596500  0.967200  1
  O  O1781  1  0.073500  0.522600  0.481500  1
  O  O1782  1  0.426500  0.477400  0.481500  1
  O  O1783  1  0.573500  0.022600  0.981500  1
  O  O1784  1  0.926500  0.977400  0.981500  1
  O  O1785  1  0.926500  0.477400  0.518500  1
  O  O1786  1  0.573500  0.522600  0.518500  1
  O  O1787  1  0.426500  0.977400  0.018500  1
  O  O1788  1  0.073500  0.022600  0.018500  1
  O  O1789  1  0.975200  0.576300  0.504900  1
  O  O1790  1  0.524800  0.423700  0.504900  1
  O  O1791  1  0.475200  0.076300  0.004900  1
  O  O1792  1  0.024800  0.923700  0.004900  1
  O  O1793  1  0.024800  0.423700  0.495100  1
  O  O1794  1  0.475200  0.576300  0.495100  1
  O  O1795  1  0.524800  0.923700  0.995100  1
  O  O1796  1  0.975200  0.076300  0.995100  1
  O  O1797  1  0.025500  0.499100  0.554600  1
  O  O1798  1  0.474500  0.500900  0.554600  1
  O  O1799  1  0.525500  0.999100  0.054600  1
  O  O1800  1  0.974500  0.000900  0.054600  1
  O  O1801  1  0.974500  0.500900  0.445400  1
  O  O1802  1  0.525500  0.499100  0.445400  1
  O  O1803  1  0.474500  0.000900  0.945400  1
  O  O1804  1  0.025500  0.999100  0.945400  1
  O  O1805  1  0.762800  0.511200  0.351500  1
  O  O1806  1  0.737200  0.488800  0.351500  1
  O  O1807  1  0.262800  0.011200  0.851500  1
  O  O1808  1  0.237200  0.988800  0.851500  1
  O  O1809  1  0.237200  0.488800  0.648500  1
  O  O1810  1  0.262800  0.511200  0.648500  1
  O  O1811  1  0.737200  0.988800  0.148500  1
  O  O1812  1  0.762800  0.011200  0.148500  1
  O  O1813  1  0.243200  0.207000  0.201400  1
  O  O1814  1  0.256800  0.793000  0.201400  1
  O  O1815  1  0.743200  0.707000  0.701400  1
  O  O1816  1  0.756800  0.293000  0.701400  1
  O  O1817  1  0.756800  0.793000  0.798600  1
  O  O1818  1  0.743200  0.207000  0.798600  1
  O  O1819  1  0.256800  0.293000  0.298600  1
  O  O1820  1  0.243200  0.707000  0.298600  1
  O  O1821  1  0.317300  0.208800  0.262300  1
  O  O1822  1  0.182700  0.791200  0.262300  1
  O  O1823  1  0.817300  0.708800  0.762300  1
  O  O1824  1  0.682700  0.291200  0.762300  1
  O  O1825  1  0.682700  0.791200  0.737700  1
  O  O1826  1  0.817300  0.208800  0.737700  1
  O  O1827  1  0.182700  0.291200  0.237700  1
  O  O1828  1  0.317300  0.708800  0.237700  1
  O  O1829  1  0.295200  0.306400  0.224400  1
  O  O1830  1  0.204800  0.693600  0.224400  1
  O  O1831  1  0.795200  0.806400  0.724400  1
  O  O1832  1  0.704800  0.193600  0.724400  1
  O  O1833  1  0.704800  0.693600  0.775600  1
  O  O1834  1  0.795200  0.306400  0.775600  1
  O  O1835  1  0.204800  0.193600  0.275600  1
  O  O1836  1  0.295200  0.806400  0.275600  1
  O  O1837  1  0.142700  0.766200  0.628300  1
  O  O1838  1  0.357300  0.233800  0.628300  1
  O  O1839  1  0.642700  0.266200  0.128300  1
  O  O1840  1  0.857300  0.733800  0.128300  1
  O  O1841  1  0.857300  0.233800  0.371700  1
  O  O1842  1  0.642700  0.766200  0.371700  1
  O  O1843  1  0.357300  0.733800  0.871700  1
  O  O1844  1  0.142700  0.266200  0.871700  1
  O  O1845  1  0.224000  0.778000  0.714700  1
  O  O1846  1  0.276000  0.222000  0.714700  1
  O  O1847  1  0.724000  0.278000  0.214700  1
  O  O1848  1  0.776000  0.722000  0.214700  1
  O  O1849  1  0.776000  0.222000  0.285300  1
  O  O1850  1  0.724000  0.778000  0.285300  1
  O  O1851  1  0.276000  0.722000  0.785300  1
  O  O1852  1  0.224000  0.278000  0.785300  1
  O  O1853  1  0.010900  0.893800  0.615600  1
  O  O1854  1  0.489100  0.106200  0.615600  1
  O  O1855  1  0.510900  0.393800  0.115600  1
  O  O1856  1  0.989100  0.606200  0.115600  1
  O  O1857  1  0.989100  0.106200  0.384400  1
  O  O1858  1  0.510900  0.893800  0.384400  1
  O  O1859  1  0.489100  0.606200  0.884400  1
  O  O1860  1  0.010900  0.393800  0.884400  1
  O  O1861  1  0.400000  0.485000  0.125000  1
  O  O1862  1  0.100000  0.515000  0.125000  1
  O  O1863  1  0.900000  0.985000  0.625000  1
  O  O1864  1  0.600000  0.015000  0.625000  1
  O  O1865  1  0.600000  0.515000  0.875000  1
  O  O1866  1  0.900000  0.485000  0.875000  1
  O  O1867  1  0.100000  0.015000  0.375000  1
  O  O1868  1  0.400000  0.985000  0.375000  1
  O  O1869  1  0.810300  0.617600  0.292500  1
  O  O1870  1  0.689700  0.382400  0.292500  1
  O  O1871  1  0.310300  0.117600  0.792500  1
  O  O1872  1  0.189700  0.882400  0.792500  1
  O  O1873  1  0.189700  0.382400  0.707500  1
  O  O1874  1  0.310300  0.617600  0.707500  1
  O  O1875  1  0.689700  0.882400  0.207500  1
  O  O1876  1  0.810300  0.117600  0.207500  1
  O  O1877  1  0.809800  0.552800  0.290600  1
  O  O1878  1  0.690200  0.447200  0.290600  1
  O  O1879  1  0.309800  0.052800  0.790600  1
  O  O1880  1  0.190200  0.947200  0.790600  1
  O  O1881  1  0.190200  0.447200  0.709400  1
  O  O1882  1  0.309800  0.552800  0.709400  1
  O  O1883  1  0.690200  0.947200  0.209400  1
  O  O1884  1  0.809800  0.052800  0.209400  1
  O  O1885  1  0.027000  0.971000  0.536700  1
  O  O1886  1  0.473000  0.029000  0.536700  1
  O  O1887  1  0.527000  0.471000  0.036700  1
  O  O1888  1  0.973000  0.529000  0.036700  1
  O  O1889  1  0.973000  0.029000  0.463300  1
  O  O1890  1  0.527000  0.971000  0.463300  1
  O  O1891  1  0.473000  0.529000  0.963300  1
  O  O1892  1  0.027000  0.471000  0.963300  1
  O  O1893  1  0.976700  0.906800  0.540200  1
  O  O1894  1  0.523300  0.093200  0.540200  1
  O  O1895  1  0.476700  0.406800  0.040200  1
  O  O1896  1  0.023300  0.593200  0.040200  1
  O  O1897  1  0.023300  0.093200  0.459800  1
  O  O1898  1  0.476700  0.906800  0.459800  1
  O  O1899  1  0.523300  0.593200  0.959800  1
  O  O1900  1  0.976700  0.406800  0.959800  1
  O  O1901  1  0.035000  0.032000  0.529800  1
  O  O1902  1  0.465000  0.968000  0.529800  1
  O  O1903  1  0.535000  0.532000  0.029800  1
  O  O1904  1  0.965000  0.468000  0.029800  1
  O  O1905  1  0.965000  0.968000  0.470200  1
  O  O1906  1  0.535000  0.032000  0.470200  1
  O  O1907  1  0.465000  0.468000  0.970200  1
  O  O1908  1  0.035000  0.532000  0.970200  1
  O  O1909  1  0.078800  0.738900  0.340720  1.0
  O  O1910  1  0.421200  0.261100  0.340720  1.0
  O  O1911  1  0.578800  0.238900  0.840720  1.0
  O  O1912  1  0.921200  0.761100  0.840720  1.0
  O  O1913  1  0.921200  0.261100  0.659280  1.0
  O  O1914  1  0.578800  0.738900  0.659280  1.0
  O  O1915  1  0.421200  0.761100  0.159280  1.0
  O  O1916  1  0.078800  0.238900  0.159280  1.0
  O  O1917  1  0.047500  0.705800  0.283000  1.0
  O  O1918  1  0.452500  0.294200  0.283000  1.0
  O  O1919  1  0.547500  0.205800  0.783000  1.0
  O  O1920  1  0.952500  0.794200  0.783000  1.0
  O  O1921  1  0.952500  0.294200  0.717000  1.0
  O  O1922  1  0.547500  0.705800  0.717000  1.0
  O  O1923  1  0.452500  0.794200  0.217000  1.0
  O  O1924  1  0.047500  0.205800  0.217000  1.0
  O  O1925  1  0.137600  0.695600  0.299800  1.0
  O  O1926  1  0.362400  0.304400  0.299800  1.0
  O  O1927  1  0.637600  0.195600  0.799800  1.0
  O  O1928  1  0.862400  0.804400  0.799800  1.0
  O  O1929  1  0.862400  0.304400  0.700200  1.0
  O  O1930  1  0.637600  0.695600  0.700200  1.0
  O  O1931  1  0.362400  0.804400  0.200200  1.0
  O  O1932  1  0.137600  0.195600  0.200200  1.0
  O  O1933  1  0.010900  0.671100  0.409490  1.0
  O  O1934  1  0.489100  0.328900  0.409490  1.0
  O  O1935  1  0.510900  0.171100  0.909490  1.0
  O  O1936  1  0.989100  0.828900  0.909490  1.0
  O  O1937  1  0.989100  0.328900  0.590510  1.0
  O  O1938  1  0.510900  0.671100  0.590510  1.0
  O  O1939  1  0.489100  0.828900  0.090510  1.0
  O  O1940  1  0.010900  0.171100  0.090510  1.0
  O  O1941  1  0.044500  0.702500  0.467200  1.0
  O  O1942  1  0.455500  0.297500  0.467200  1.0
  O  O1943  1  0.544500  0.202500  0.967200  1.0
  O  O1944  1  0.955500  0.797500  0.967200  1.0
  O  O1945  1  0.955500  0.297500  0.532800  1.0
  O  O1946  1  0.544500  0.702500  0.532800  1.0
  O  O1947  1  0.455500  0.797500  0.032800  1.0
  O  O1948  1  0.044500  0.202500  0.032800  1.0
  O  O1949  1  0.054200  0.612900  0.450600  1.0
  O  O1950  1  0.445800  0.387100  0.450600  1.0
  O  O1951  1  0.554200  0.112900  0.950600  1.0
  O  O1952  1  0.945800  0.887100  0.950600  1.0
  O  O1953  1  0.945800  0.387100  0.549400  1.0
  O  O1954  1  0.554200  0.612900  0.549400  1.0
  O  O1955  1  0.445800  0.887100  0.049400  1.0
  O  O1956  1  0.054200  0.112900  0.049400  1.0
  O  O1957  1  0.010100  0.328600  0.408830  1.0
  O  O1958  1  0.489900  0.671400  0.408830  1.0
  O  O1959  1  0.510100  0.828600  0.908830  1.0
  O  O1960  1  0.989900  0.171400  0.908830  1.0
  O  O1961  1  0.989900  0.671400  0.591170  1.0
  O  O1962  1  0.510100  0.328600  0.591170  1.0
  O  O1963  1  0.489900  0.171400  0.091170  1.0
  O  O1964  1  0.010100  0.828600  0.091170  1.0
  O  O1965  1  0.953600  0.388500  0.377200  1.0
  O  O1966  1  0.546400  0.611500  0.377200  1.0
  O  O1967  1  0.453600  0.888500  0.877200  1.0
  O  O1968  1  0.046400  0.111500  0.877200  1.0
  O  O1969  1  0.046400  0.611500  0.622800  1.0
  O  O1970  1  0.453600  0.388500  0.622800  1.0
  O  O1971  1  0.546400  0.111500  0.122800  1.0
  O  O1972  1  0.953600  0.888500  0.122800  1.0
  O  O1973  1  0.021300  0.420200  0.417100  1.0
  O  O1974  1  0.478700  0.579800  0.417100  1.0
  O  O1975  1  0.521300  0.920200  0.917100  1.0
  O  O1976  1  0.978700  0.079800  0.917100  1.0
  O  O1977  1  0.978700  0.579800  0.582900  1.0
  O  O1978  1  0.521300  0.420200  0.582900  1.0
  O  O1979  1  0.478700  0.079800  0.082900  1.0
  O  O1980  1  0.021300  0.920200  0.082900  1.0
  O  O1981  1  0.078600  0.260000  0.340840  1.0
  O  O1982  1  0.421400  0.740000  0.340840  1.0
  O  O1983  1  0.578600  0.760000  0.840840  1.0
  O  O1984  1  0.921400  0.240000  0.840840  1.0
  O  O1985  1  0.921400  0.740000  0.659160  1.0
  O  O1986  1  0.578600  0.260000  0.659160  1.0
  O  O1987  1  0.421400  0.240000  0.159160  1.0
  O  O1988  1  0.078600  0.760000  0.159160  1.0
  O  O1989  1  0.138300  0.203900  0.372900  1.0
  O  O1990  1  0.361700  0.796100  0.372900  1.0
  O  O1991  1  0.638300  0.703900  0.872900  1.0
  O  O1992  1  0.861700  0.296100  0.872900  1.0
  O  O1993  1  0.861700  0.796100  0.627100  1.0
  O  O1994  1  0.638300  0.203900  0.627100  1.0
  O  O1995  1  0.361700  0.296100  0.127100  1.0
  O  O1996  1  0.138300  0.703900  0.127100  1.0
  O  O1997  1  0.170600  0.270700  0.333500  1.0
  O  O1998  1  0.329400  0.729300  0.333500  1.0
  O  O1999  1  0.670600  0.770700  0.833500  1.0
  O  O2000  1  0.829400  0.229300  0.833500  1.0
  O  O2001  1  0.829400  0.729300  0.666500  1.0
  O  O2002  1  0.670600  0.270700  0.666500  1.0
  O  O2003  1  0.329400  0.229300  0.166500  1.0
  O  O2004  1  0.170600  0.770700  0.166500  1.0
  O  O2005  1  0.249400  0.431700  0.169440  1.0
  O  O2006  1  0.250600  0.568300  0.169440  1.0
  O  O2007  1  0.749400  0.931700  0.669440  1.0
  O  O2008  1  0.750600  0.068300  0.669440  1.0
  O  O2009  1  0.750600  0.568300  0.830560  1.0
  O  O2010  1  0.749400  0.431700  0.830560  1.0
  O  O2011  1  0.250600  0.068300  0.330560  1.0
  O  O2012  1  0.249400  0.931700  0.330560  1.0
  O  O2013  1  0.159800  0.406500  0.171000  1.0
  O  O2014  1  0.340200  0.593500  0.171000  1.0
  O  O2015  1  0.659800  0.906500  0.671000  1.0
  O  O2016  1  0.840200  0.093500  0.671000  1.0
  O  O2017  1  0.840200  0.593500  0.829000  1.0
  O  O2018  1  0.659800  0.406500  0.829000  1.0
  O  O2019  1  0.340200  0.093500  0.329000  1.0
  O  O2020  1  0.159800  0.906500  0.329000  1.0
  O  O2021  1  0.215800  0.383000  0.220200  1.0
  O  O2022  1  0.284200  0.617000  0.220200  1.0
  O  O2023  1  0.715800  0.883000  0.720200  1.0
  O  O2024  1  0.784200  0.117000  0.720200  1.0
  O  O2025  1  0.784200  0.617000  0.779800  1.0
  O  O2026  1  0.715800  0.383000  0.779800  1.0
  O  O2027  1  0.284200  0.117000  0.279800  1.0
  O  O2028  1  0.215800  0.883000  0.279800  1.0
  O  O2029  1  0.318100  0.500200  0.580430  1.0
  O  O2030  1  0.181900  0.499800  0.580430  1.0
  O  O2031  1  0.818100  0.000200  0.080430  1.0
  O  O2032  1  0.681900  0.999800  0.080430  1.0
  O  O2033  1  0.681900  0.499800  0.419570  1.0
  O  O2034  1  0.818100  0.500200  0.419570  1.0
  O  O2035  1  0.181900  0.999800  0.919570  1.0
  O  O2036  1  0.318100  0.000200  0.919570  1.0
  O  O2037  1  0.343400  0.590700  0.579900  1.0
  O  O2038  1  0.156600  0.409300  0.579900  1.0
  O  O2039  1  0.843400  0.090700  0.079900  1.0
  O  O2040  1  0.656600  0.909300  0.079900  1.0
  O  O2041  1  0.656600  0.409300  0.420100  1.0
  O  O2042  1  0.843400  0.590700  0.420100  1.0
  O  O2043  1  0.156600  0.909300  0.920100  1.0
  O  O2044  1  0.343400  0.090700  0.920100  1.0
  O  O2045  1  0.366700  0.534000  0.528900  1.0
  O  O2046  1  0.133300  0.466000  0.528900  1.0
  O  O2047  1  0.866700  0.034000  0.028900  1.0
  O  O2048  1  0.633300  0.966000  0.028900  1.0
  O  O2049  1  0.633300  0.466000  0.471100  1.0
  O  O2050  1  0.866700  0.534000  0.471100  1.0
  O  O2051  1  0.133300  0.966000  0.971100  1.0
  O  O2052  1  0.366700  0.034000  0.971100  1.0
  O  O2053  1  0.237500  0.249900  0.193300  1.0
  O  O2054  1  0.262500  0.750100  0.193300  1.0
  O  O2055  1  0.737500  0.749900  0.693300  1.0
  O  O2056  1  0.762500  0.250100  0.693300  1.0
  O  O2057  1  0.762500  0.750100  0.806700  1.0
  O  O2058  1  0.737500  0.249900  0.806700  1.0
  O  O2059  1  0.262500  0.250100  0.306700  1.0
  O  O2060  1  0.237500  0.749900  0.306700  1.0
  O  O2061  1  0.314000  0.201300  0.243600  1.0
  O  O2062  1  0.186000  0.798700  0.243600  1.0
  O  O2063  1  0.814000  0.701300  0.743600  1.0
  O  O2064  1  0.686000  0.298700  0.743600  1.0
  O  O2065  1  0.686000  0.798700  0.756400  1.0
  O  O2066  1  0.814000  0.201300  0.756400  1.0
  O  O2067  1  0.186000  0.298700  0.256400  1.0
  O  O2068  1  0.314000  0.701300  0.256400  1.0
  O  O2069  1  0.299800  0.312600  0.243000  1.0
  O  O2070  1  0.200200  0.687400  0.243000  1.0
  O  O2071  1  0.799800  0.812600  0.743000  1.0
  O  O2072  1  0.700200  0.187400  0.743000  1.0
  O  O2073  1  0.700200  0.687400  0.757000  1.0
  O  O2074  1  0.799800  0.312600  0.757000  1.0
  O  O2075  1  0.200200  0.187400  0.257000  1.0
  O  O2076  1  0.299800  0.812600  0.257000  1.0
  O  O2077  1  0.999300  0.486800  0.556600  1.0
  O  O2078  1  0.500700  0.513200  0.556600  1.0
  O  O2079  1  0.499300  0.986800  0.056600  1.0
  O  O2080  1  0.000700  0.013200  0.056600  1.0
  O  O2081  1  0.000700  0.513200  0.443400  1.0
  O  O2082  1  0.499300  0.486800  0.443400  1.0
  O  O2083  1  0.500700  0.013200  0.943400  1.0
  O  O2084  1  0.999300  0.986800  0.943400  1.0
  O  O2085  1  0.952100  0.564300  0.506200  1.0
  O  O2086  1  0.547900  0.435700  0.506200  1.0
  O  O2087  1  0.452100  0.064300  0.006200  1.0
  O  O2088  1  0.047900  0.935700  0.006200  1.0
  O  O2089  1  0.047900  0.435700  0.493800  1.0
  O  O2090  1  0.452100  0.564300  0.493800  1.0
  O  O2091  1  0.547900  0.935700  0.993800  1.0
  O  O2092  1  0.952100  0.064300  0.993800  1.0
  O  O2093  1  0.063100  0.549100  0.507600  1.0
  O  O2094  1  0.436900  0.450900  0.507600  1.0
  O  O2095  1  0.563100  0.049100  0.007600  1.0
  O  O2096  1  0.936900  0.950900  0.007600  1.0
  O  O2097  1  0.936900  0.450900  0.492400  1.0
  O  O2098  1  0.563100  0.549100  0.492400  1.0
  O  O2099  1  0.436900  0.950900  0.992400  1.0
  O  O2100  1  0.063100  0.049100  0.992400  1.0
