
#######################################################################
#
#                 Cambridge Crystallographic Data Centre
#                                CCDC 
#
#######################################################################
#
# If this CIF has been generated from an entry in the Cambridge 
# Structural Database, then it will include bibliographic, chemical, 
# crystal, experimental, refinement or atomic coordinate data resulting 
# from the CCDC's data processing and validation procedures.
#
#######################################################################

data_GIDFIK
_chemical_formula_moiety         
'C144 H96 N24 Ni4 O36 S12 4-,2(H12 Ni1 O6 2+),0.76(C1 Cl4),0.24(C1 Br4),61.82(H2 O1)'
_chemical_name_systematic        
"hexakis(\m~2~-4,4'-bis((Pyridin-2-ylmethylene)amino)biphenyl-2,2'-disulfonate)-tetra-nickel bis(hexa-aqua-nickel) tetrachloromethane tetrabromomethane clathrate hydrate"
_symmetry_cell_setting           monoclinic
_symmetry_space_group_name_H-M   'C 2/c'
_symmetry_Int_Tables_number      15
_space_group_name_Hall           '-C 2yn'
loop_
_symmetry_equiv_pos_site_id
_symmetry_equiv_pos_as_xyz
1 x,y,z
2 -x,y,1/2-z
3 1/2+x,1/2+y,z
4 1/2-x,1/2+y,1/2-z
5 -x,-y,-z
6 x,-y,1/2+z
7 1/2-x,1/2-y,-z
8 1/2+x,1/2-y,1/2+z
_cell_length_a                   36.2468(10)
_cell_length_b                   36.1592(10)
_cell_length_c                   25.6015(7)
_cell_angle_alpha                90
_cell_angle_beta                 135.0354(8)
_cell_angle_gamma                90
_cell_volume                     23712.1
_exptl_crystal_colour            orange
_exptl_crystal_description       block
_cell_formula_units_Z            4
loop_
_atom_site_label
_atom_site_type_symbol
_atom_site_fract_x
_atom_site_fract_y
_atom_site_fract_z
Ni1 Ni 0.49967(4) 0.24763(3) 0.49505(6)
Ni2 Ni 0.75462(4) 0.50236(3) 1.00491(5)
S1 S 0.70076(11) 0.31245(7) 0.78348(13)
O1 O 0.7389(2) 0.34072(19) 0.8177(4)
O2 O 0.7058(3) 0.2830(2) 0.7533(5)
O3 O 0.6956(4) 0.2998(3) 0.8332(5)
N1 N 0.4653(3) 0.2652(2) 0.3909(4)
N2 N 0.5237(2) 0.30339(17) 0.5152(3)
C2 C 0.4353(4) 0.2462(3) 0.3283(5)
H1 H 0.4279 0.2211 0.3288
C3 C 0.4142(5) 0.2613(3) 0.2621(6)
H2 H 0.3929 0.2469 0.2182
C4 C 0.4248(6) 0.2972(4) 0.2617(6)
H3 H 0.4104 0.3082 0.2168
C5 C 0.4560(5) 0.3179(3) 0.3251(6)
H4 H 0.4641 0.3429 0.3251
C6 C 0.4750(4) 0.3015(2) 0.3883(5)
C7 C 0.5075(3) 0.3204(2) 0.4588(5)
H5 H 0.5168 0.3456 0.4628
C8 C 0.5550(3) 0.3238(2) 0.5824(4)
C9 C 0.6055(3) 0.3121(2) 0.6419(4)
H6 H 0.6182 0.2906 0.6375
C10 C 0.6382(3) 0.3316(2) 0.7088(4)
C11 C 0.6207(3) 0.3638(3) 0.7158(5)
C12 C 0.5695(4) 0.3742(3) 0.6554(6)
H7 H 0.5564 0.3957 0.6592
C13 C 0.5362(3) 0.3545(3) 0.5891(6)
H8 H 0.5010 0.3621 0.5492
S2 S 0.66729(11) 0.43755(7) 0.71653(13)
O4 O 0.6711(3) 0.40949(19) 0.6820(4)
O5 O 0.7025(4) 0.4672(2) 0.7470(4)
O6 O 0.6129(4) 0.4506(3) 0.6671(5)
N3 N 0.8246(2) 0.48484(19) 1.1091(4)
N4 N 0.7586(2) 0.44672(17) 0.9850(3)
C14 C 0.8573(4) 0.5039(3) 1.1719(5)
H9 H 0.8499 0.5291 1.1719
C15 C 0.9025(4) 0.4879(3) 1.2380(5)
H10 H 0.9253 0.5023 1.2819
C16 C 0.9135(4) 0.4524(4) 1.2397(6)
H11 H 0.9434 0.4413 1.2849
C17 C 0.8811(4) 0.4321(3) 1.1752(6)
H12 H 0.8890 0.4072 1.1747
C18 C 0.8366(3) 0.4490(2) 1.1112(5)
C19 C 0.7990(3) 0.4293(2) 1.0415(5)
H13 H 0.8042 0.4040 1.0379
C20 C 0.7223(3) 0.4261(2) 0.9174(4)
C21 C 0.7135(3) 0.4379(2) 0.8580(4)
H14 H 0.7306 0.4594 0.8626
C22 C 0.6799(3) 0.4184(2) 0.7918(4)
C23 C 0.6550(3) 0.3865(3) 0.7844(5)
C24 C 0.6631(4) 0.3760(3) 0.8438(6)
H15 H 0.6451 0.3550 0.8389
C25 C 0.6968(4) 0.3950(3) 0.9102(5)
H16 H 0.7023 0.3868 0.9505
S3 S 0.37807(11) 0.39187(7) 0.38153(18)
O7 O 0.3286(3) 0.40883(18) 0.3387(4)
O8 O 0.3885(4) 0.3772(2) 0.3421(6)
O9 O 0.4202(4) 0.4171(3) 0.4415(7)
N5 N 0.4648(3) 0.19533(18) 0.4599(4)
N6 N 0.4303(2) 0.25748(17) 0.4673(3)
C26 C 0.4819(4) 0.1644(2) 0.4569(6)
H17 H 0.5143 0.1646 0.4714
C27 C 0.4547(5) 0.1309(3) 0.4334(7)
H18 H 0.4688 0.1089 0.4330
C28 C 0.4084(5) 0.1305(3) 0.4113(8)
H19 H 0.3894 0.1080 0.3950
C29 C 0.3883(4) 0.1622(3) 0.4122(6)
H20 H 0.3552 0.1622 0.3960
C30 C 0.4175(4) 0.1941(2) 0.4374(5)
C31 C 0.4008(3) 0.2295(2) 0.4421(4)
H21 H 0.3680 0.2316 0.4264
C32 C 0.4116(3) 0.2914(2) 0.4715(4)
C33 C 0.4032(3) 0.3211(2) 0.4307(4)
H22 H 0.4105 0.3191 0.4018
C34 C 0.3839(3) 0.3543(2) 0.4317(4)
C35 C 0.3733(4) 0.3577(2) 0.4739(4)
C36 C 0.3840(5) 0.3280(3) 0.5164(6)
H23 H 0.3780 0.3301 0.5469
C37 C 0.4032(4) 0.2949(3) 0.5158(5)
H24 H 0.4106 0.2749 0.5460
S4 S 0.25353(12) 0.35813(7) 0.38154(18)
O10 O 0.2600(3) 0.34084(18) 0.3386(4)
O11 O 0.2039(4) 0.3729(2) 0.3422(6)
O12 O 0.2707(6) 0.3335(3) 0.4413(7)
N7 N 0.2450(3) 0.55428(18) 0.4598(4)
N8 N 0.2869(2) 0.49239(17) 0.4669(3)
C38 C 0.2247(3) 0.5857(2) 0.4568(6)
H25 H 0.2070 0.5856 0.4716
C39 C 0.2281(4) 0.6187(3) 0.4332(7)
H26 H 0.2135 0.6406 0.4327
C40 C 0.2527(5) 0.6195(3) 0.4105(8)
H27 H 0.2550 0.6420 0.3937
C41 C 0.2741(4) 0.5875(3) 0.4122(6)
H28 H 0.2915 0.5873 0.3968
C42 C 0.2695(3) 0.5555(2) 0.4369(5)
C43 C 0.2917(3) 0.5208(2) 0.4422(4)
H29 H 0.3095 0.5191 0.4277
C44 C 0.3094(3) 0.4587(2) 0.4712(4)
C45 C 0.2772(3) 0.4289(2) 0.4305(4)
H30 H 0.2410 0.4308 0.4015
C46 C 0.2975(3) 0.3958(2) 0.4315(4)
C47 C 0.3510(3) 0.3925(2) 0.4741(4)
C48 C 0.3823(4) 0.4218(3) 0.5157(5)
H31 H 0.4187 0.4196 0.5457
C49 C 0.3631(3) 0.4555(3) 0.5162(5)
H32 H 0.3860 0.4755 0.5463
S5 S 0.42081(9) 0.19092(9) 0.62506(14)
O13 O 0.4317(3) 0.16944(19) 0.6811(4)
O14 O 0.4065(3) 0.1710(3) 0.5663(5)
O15 O 0.3830(4) 0.2202(3) 0.5988(7)
N9 N 0.5693(3) 0.22986(19) 0.5303(4)
N10 N 0.5459(3) 0.23383(17) 0.6071(4)
C50 C 0.5811(4) 0.2287(3) 0.4916(5)
H33 H 0.5555 0.2359 0.4411
C51 C 0.6300(4) 0.2171(4) 0.5232(6)
H34 H 0.6379 0.2172 0.4948
C52 C 0.6668(5) 0.2054(4) 0.5957(7)
H35 H 0.6999 0.1968 0.6172
C53 C 0.6553(4) 0.2065(3) 0.6360(6)
H36 H 0.6803 0.1991 0.6864
C54 C 0.6066(4) 0.2184(2) 0.6023(5)
C55 C 0.5907(4) 0.2214(2) 0.6409(5)
H37 H 0.6139 0.2141 0.6911
C56 C 0.5327(4) 0.2360(2) 0.6484(5)
C57 C 0.4908(3) 0.2155(2) 0.6239(5)
H38 H 0.4711 0.2010 0.5802
C58 C 0.4773(3) 0.2159(2) 0.6635(5)
C59 C 0.5055(4) 0.2374(2) 0.7268(5)
C60 C 0.5459(5) 0.2585(3) 0.7478(7)
H39 H 0.5650 0.2737 0.7903
C61 C 0.5598(5) 0.2583(3) 0.7097(6)
H40 H 0.5877 0.2733 0.7255
S6 S 0.54581(10) 0.55917(9) 0.87496(14)
O16 O 0.5002(3) 0.58043(19) 0.8183(4)
O17 O 0.5907(3) 0.5799(3) 0.9341(5)
O18 O 0.5340(4) 0.5289(3) 0.9007(6)
N11 N 0.7890(2) 0.52005(19) 0.9698(4)
N12 N 0.6891(2) 0.51644(16) 0.8938(4)
C62 C 0.8395(3) 0.5211(3) 1.0078(5)
H41 H 0.8644 0.5131 1.0579
C63 C 0.8571(4) 0.5333(3) 0.9771(7)
H42 H 0.8934 0.5340 1.0060
C64 C 0.8218(4) 0.5442(4) 0.9051(7)
H43 H 0.8332 0.5521 0.8830
C65 C 0.7690(4) 0.5438(3) 0.8643(6)
H44 H 0.7437 0.5518 0.8143
C66 C 0.7541(3) 0.5314(2) 0.8977(5)
C67 C 0.7003(3) 0.5286(2) 0.8596(5)
H45 H 0.6732 0.5357 0.8093
C68 C 0.6343(3) 0.5142(2) 0.8521(5)
C69 C 0.6168(3) 0.5346(2) 0.8758(4)
H46 H 0.6405 0.5493 0.9192
C70 C 0.5636(3) 0.5339(2) 0.8360(5)
C71 C 0.5284(3) 0.5127(2) 0.7732(6)
C72 C 0.5478(3) 0.4915(3) 0.7521(7)
H47 H 0.5245 0.4761 0.7097
C73 C 0.6006(3) 0.4918(3) 0.7910(6)
H48 H 0.6130 0.4769 0.7755
S5A S 0.57919(9) 0.19092(9) 0.87494(14)
O13A O 0.5683(3) 0.16944(19) 0.8189(4)
O14A O 0.5935(3) 0.1710(3) 0.9337(5)
O15A O 0.6170(4) 0.2202(3) 0.9012(7)
N9A N 0.4307(3) 0.22986(19) 0.9697(4)
N10A N 0.4541(3) 0.23383(17) 0.8929(4)
C50A C 0.4189(4) 0.2287(3) 1.0084(5)
H33A H 0.4445 0.2359 1.0589
C51A C 0.3700(4) 0.2171(4) 0.9768(6)
H34A H 0.3621 0.2172 1.0052
C52A C 0.3332(5) 0.2054(4) 0.9043(7)
H35A H 0.3001 0.1968 0.8828
C53A C 0.3447(4) 0.2065(3) 0.8640(6)
H36A H 0.3197 0.1991 0.8136
C54A C 0.3934(4) 0.2184(2) 0.8977(5)
C55A C 0.4093(4) 0.2214(2) 0.8591(5)
H37A H 0.3861 0.2141 0.8089
C56A C 0.4673(4) 0.2360(2) 0.8516(5)
C57A C 0.5092(3) 0.2155(2) 0.8761(5)
H38A H 0.5289 0.2010 0.9198
C58A C 0.5227(3) 0.2159(2) 0.8365(5)
C59A C 0.4945(4) 0.2374(2) 0.7732(5)
C60A C 0.4541(5) 0.2585(3) 0.7522(7)
H39A H 0.4350 0.2737 0.7097
C61A C 0.4402(5) 0.2583(3) 0.7903(6)
H40A H 0.4123 0.2733 0.7745
S6A S 0.45419(10) 0.55917(9) 0.62504(14)
O16A O 0.4998(3) 0.58043(19) 0.6817(4)
O17A O 0.4093(3) 0.5799(3) 0.5659(5)
O18A O 0.4660(4) 0.5289(3) 0.5993(6)
N11A N 0.2110(2) 0.52005(19) 0.5302(4)
N12A N 0.3109(2) 0.51644(16) 0.6062(4)
C62A C 0.1605(3) 0.5211(3) 0.4922(5)
H41A H 0.1356 0.5131 0.4421
C63A C 0.1429(4) 0.5333(3) 0.5229(7)
H42A H 0.1066 0.5340 0.4940
C64A C 0.1782(4) 0.5442(4) 0.5949(7)
H43A H 0.1668 0.5521 0.6170
C65A C 0.2310(4) 0.5438(3) 0.6357(6)
H44A H 0.2563 0.5518 0.6857
C66A C 0.2459(3) 0.5314(2) 0.6023(5)
C67A C 0.2997(3) 0.5286(2) 0.6404(5)
H45A H 0.3268 0.5357 0.6907
C68A C 0.3657(3) 0.5142(2) 0.6479(5)
C69A C 0.3832(3) 0.5346(2) 0.6242(4)
H46A H 0.3595 0.5493 0.5808
C70A C 0.4364(3) 0.5339(2) 0.6640(5)
C71A C 0.4716(3) 0.5127(2) 0.7268(6)
C72A C 0.4522(3) 0.4915(3) 0.7479(7)
H47A H 0.4755 0.4761 0.7903
C73A C 0.3994(3) 0.4918(3) 0.7090(6)
H48A H 0.3870 0.4769 0.7245
Ni1A Ni 0.50033(4) 0.24763(3) 1.00495(6)
Ni2A Ni 0.24538(4) 0.50236(3) 0.49509(5)
S1A S 0.29924(11) 0.31245(7) 0.71652(13)
O1A O 0.2611(2) 0.34072(19) 0.6823(4)
O2A O 0.2942(3) 0.2830(2) 0.7467(5)
O3A O 0.3044(4) 0.2998(3) 0.6668(5)
N1A N 0.5347(3) 0.2652(2) 1.1091(4)
N2A N 0.4763(2) 0.30339(17) 0.9848(3)
C2A C 0.5647(4) 0.2462(3) 1.1717(5)
H1A H 0.5721 0.2211 1.1712
C3A C 0.5858(5) 0.2613(3) 1.2379(6)
H2A H 0.6071 0.2469 1.2818
C4A C 0.5752(6) 0.2972(4) 1.2383(6)
H3A H 0.5896 0.3082 1.2832
C5A C 0.5440(5) 0.3179(3) 1.1749(6)
H4A H 0.5359 0.3429 1.1749
C6A C 0.5250(4) 0.3015(2) 1.1117(5)
C7A C 0.4925(3) 0.3204(2) 1.0412(5)
H5A H 0.4832 0.3456 1.0372
C8A C 0.4450(3) 0.3238(2) 0.9176(4)
C9A C 0.3945(3) 0.3121(2) 0.8581(4)
H6A H 0.3818 0.2906 0.8625
C10A C 0.3618(3) 0.3316(2) 0.7912(4)
C11A C 0.3793(3) 0.3638(3) 0.7842(5)
C12A C 0.4305(4) 0.3742(3) 0.8446(6)
H7A H 0.4436 0.3957 0.8408
C13A C 0.4638(3) 0.3545(3) 0.9109(6)
H8A H 0.4990 0.3621 0.9508
S2A S 0.33271(11) 0.43755(7) 0.78347(13)
O4A O 0.3289(3) 0.40949(19) 0.8180(4)
O5A O 0.2975(4) 0.4672(2) 0.7530(4)
O6A O 0.3871(4) 0.4506(3) 0.8329(5)
N3A N 0.1754(2) 0.48484(19) 0.3909(4)
N4A N 0.2414(2) 0.44672(17) 0.5150(3)
C14A C 0.1427(4) 0.5039(3) 0.3281(5)
H9A H 0.1501 0.5291 0.3281
C15A C 0.0975(4) 0.4879(3) 0.2620(5)
H10A H 0.0747 0.5023 0.2181
C16A C 0.0865(4) 0.4524(4) 0.2603(6)
H11A H 0.0566 0.4413 0.2151
C17A C 0.1189(4) 0.4321(3) 0.3248(6)
H12A H 0.1110 0.4072 0.3253
C18A C 0.1634(3) 0.4490(2) 0.3888(5)
C19A C 0.2010(3) 0.4293(2) 0.4585(5)
H13A H 0.1958 0.4040 0.4621
C20A C 0.2777(3) 0.4261(2) 0.5826(4)
C21A C 0.2865(3) 0.4379(2) 0.6420(4)
H14A H 0.2694 0.4594 0.6374
C22A C 0.3201(3) 0.4184(2) 0.7082(4)
C23A C 0.3450(3) 0.3865(3) 0.7156(5)
C24A C 0.3369(4) 0.3760(3) 0.6562(6)
H15A H 0.3549 0.3550 0.6611
C25A C 0.3032(4) 0.3950(3) 0.5898(5)
H16A H 0.2977 0.3868 0.5495
S3A S 0.62193(11) 0.39187(7) 1.11847(18)
O7A O 0.6714(3) 0.40883(18) 1.1613(4)
O8A O 0.6115(4) 0.3772(2) 1.1579(6)
O9A O 0.5798(4) 0.4171(3) 1.0585(7)
N5A N 0.5352(3) 0.19533(18) 1.0401(4)
N6A N 0.5697(2) 0.25748(17) 1.0327(3)
C26A C 0.5181(4) 0.1644(2) 1.0431(6)
H17A H 0.4857 0.1646 1.0286
C27A C 0.5453(5) 0.1309(3) 1.0666(7)
H18A H 0.5312 0.1089 1.0670
C28A C 0.5916(5) 0.1305(3) 1.0887(8)
H19A H 0.6106 0.1080 1.1050
C29A C 0.6117(4) 0.1622(3) 1.0878(6)
H20A H 0.6448 0.1622 1.1040
C30A C 0.5825(4) 0.1941(2) 1.0626(5)
C31A C 0.5992(3) 0.2295(2) 1.0579(4)
H21A H 0.6320 0.2316 1.0736
C32A C 0.5884(3) 0.2914(2) 1.0285(4)
C33A C 0.5968(3) 0.3211(2) 1.0693(4)
H22A H 0.5895 0.3191 1.0982
C34A C 0.6161(3) 0.3543(2) 1.0683(4)
C35A C 0.6267(4) 0.3577(2) 1.0261(4)
C36A C 0.6160(5) 0.3280(3) 0.9836(6)
H23A H 0.6220 0.3301 0.9531
C37A C 0.5968(4) 0.2949(3) 0.9842(5)
H24A H 0.5894 0.2749 0.9540
S4A S 0.74647(12) 0.35813(7) 1.11846(18)
O10A O 0.7400(3) 0.34084(18) 1.1614(4)
O11A O 0.7961(4) 0.3729(2) 1.1578(6)
O12A O 0.7293(6) 0.3335(3) 1.0587(7)
N7A N 0.7550(3) 0.55428(18) 1.0402(4)
N8A N 0.7131(2) 0.49239(17) 1.0331(3)
C38A C 0.7753(3) 0.5857(2) 1.0432(6)
H25A H 0.7930 0.5856 1.0284
C39A C 0.7719(4) 0.6187(3) 1.0668(7)
H26A H 0.7865 0.6406 1.0673
C40A C 0.7473(5) 0.6195(3) 1.0895(8)
H27A H 0.7450 0.6420 1.1063
C41A C 0.7259(4) 0.5875(3) 1.0878(6)
H28A H 0.7085 0.5873 1.1032
C42A C 0.7305(3) 0.5555(2) 1.0631(5)
C43A C 0.7083(3) 0.5208(2) 1.0578(4)
H29A H 0.6905 0.5191 1.0723
C44A C 0.6906(3) 0.4587(2) 1.0288(4)
C45A C 0.7228(3) 0.4289(2) 1.0695(4)
H30A H 0.7590 0.4308 1.0985
C46A C 0.7025(3) 0.3958(2) 1.0685(4)
C47A C 0.6490(3) 0.3925(2) 1.0259(4)
C48A C 0.6177(4) 0.4218(3) 0.9843(5)
H31A H 0.5813 0.4196 0.9543
C49A C 0.6369(3) 0.4555(3) 0.9838(5)
H32A H 0.6140 0.4755 0.9537
Ni3 Ni 0.2500 0.2500 0.5000
O19 O 0.2499(8) 0.1933(3) 0.4874(10)
O20 O 0.2013(6) 0.2436(5) 0.5153(10)
O21 O 0.3126(6) 0.2430(5) 0.6124(7)
O19F O 0.2501(8) 0.3067(3) 0.5126(10)
O20F O 0.2987(6) 0.2564(5) 0.4847(10)
O21F O 0.1874(6) 0.2570(5) 0.3876(7)
Ni4 Ni 0.5000 0.5000 0.5000
O22 O 0.4868(7) 0.5566(4) 0.4861(11)
O23 O 0.5643(6) 0.5062(5) 0.5164(10)
O24 O 0.5491(6) 0.5076(5) 0.6122(7)
O22D O 0.5132(7) 0.4434(4) 0.5139(11)
O23D O 0.4357(6) 0.4938(5) 0.4836(10)
O24D O 0.4509(6) 0.4924(5) 0.3878(7)
O25 O 0.6270(4) 0.1881(3) 0.3762(5)
O26 O 0.2861(4) 0.2703(3) 0.3335(7)
O27 O 0.7031(7) 0.5201(2) 0.6671(7)
O28 O 0.3886(5) 0.1675(4) 0.7375(8)
O29 O 0.3125(4) 0.1320(5) 0.4610(5)
O30 O 1.0004(3) 0.5617(3) 1.1237(5)
O31 O 0.6016(5) 0.3818(5) 0.5391(5)
O32 O 0.8996(4) 0.5882(3) 1.2598(6)
O33 O 0.8581(5) 0.6300(3) 1.0408(6)
O34 O 0.5418(5) 0.2286(3) 0.3239(7)
O35 O 0.6103(4) 0.1622(3) 0.2602(6)
O36 O 0.9680(4) 0.5213(3) 1.1767(7)
O37 O 0.9330(4) 0.6199(3) 1.0418(6)
O38 O 0.9019(6) 0.5782(5) 1.1526(9)
O39 O 0.5986(4) 0.5825(4) 0.7370(8)
O40 O 0.4988(6) 0.1725(5) 0.3462(9)
O41 O 0.2741(4) 0.1250(5) 0.2499(6)
O42 O 0.5000 0.1000(4) 0.7500
O43 O 0.730(2) 0.1218(15) 0.707(2)
O44 O 0.3185(6) 0.2742(6) 0.2694(8)
O45 O 0.6619(8) 0.6158(5) 0.8704(12)
O46 O 0.6964(11) 0.2123(7) 0.3047(14)
O47 O 0.4524(10) 0.1365(5) 0.8663(13)
O48 O 0.3422(6) 0.0669(7) 0.4549(14)
O49 O 0.8593(9) 0.5361(6) 1.3061(13)
O50 O 0.6389(10) 0.3168(6) 0.5473(13)
O51 O 0.7472(9) 0.6497(6) 0.9100(15)
O52 O 0.7998(8) 0.5238(6) 0.7323(9)
O53 O 0.9227(13) 0.5982(8) 0.9181(18)
O54 O 0.9408(6) 0.4557(5) 1.1028(18)
O55 O 0.8293(12) 0.5924(8) 0.7889(17)
O56 O 0.2322(11) 0.1847(8) 0.1808(15)
O57 O 0.933(2) 0.5237(14) 0.924(3)
O58 O 1.056(2) 0.5294(15) 1.043(3)
O59 O 0.992(2) 0.4982(15) 1.058(3)
O60 O 0.7271(14) 0.7108(10) 0.887(2)
O61 O 0.8011(11) 0.5665(8) 1.3200(15)
O62 O 0.5824(17) 0.2980(10) 0.389(2)
O63 O 0.5944(10) 0.3572(7) 0.3689(15)
O64 O 0.7108(11) 0.6567(8) 0.7895(15)
O65 O 0.9751(12) 0.3933(8) 1.1303(17)
O66 O 1.0044(14) 0.4442(10) 1.432(2)
O67 O 0.6773(15) 0.3046(10) 0.433(2)
O68 O 0.7660(16) 0.2198(12) 0.428(2)
O69 O 0.814(2) 0.7528(17) 1.056(3)
Cl1 Cl 0.4689(13) 0.4134(7) 0.741(2)
Cl2 Cl 0.4649(14) 0.3492(10) 0.6724(14)
Cl3 Cl 0.4367(8) 0.3796(10) 0.6996(19)
Cl4 Cl 0.5001(14) 0.3437(9) 0.6876(18)
C1 C 0.5007(8) 0.3716(5) 0.7437(11)
Cl1A Cl 0.5311(13) 0.4134(7) 0.759(2)
Cl2A Cl 0.5351(14) 0.3492(10) 0.8276(14)
Cl3A Cl 0.5633(8) 0.3796(10) 0.8004(19)
Cl4A Cl 0.4999(14) 0.3437(9) 0.8124(18)
C1A C 0.4993(8) 0.3716(5) 0.7563(11)
loop_
_geom_bond_atom_site_label_1
_geom_bond_atom_site_label_2
_geom_bond_site_symmetry_1
_geom_bond_site_symmetry_2
Cl1 Cl3 1_555 1_555
Cl2 Cl3 1_555 1_555
Cl3 C1 1_555 1_555
Cl4 Cl2 1_555 1_555
C1 Cl1 1_555 1_555
Ni1 N1 1_555 1_555
Ni2 N3 1_555 1_555
S1 O1 1_555 1_555
O2 S1 1_555 1_555
O3 S1 1_555 1_555
N1 C2 1_555 1_555
N2 Ni1 1_555 1_555
C2 H1 1_555 1_555
C3 C2 1_555 1_555
H2 C3 1_555 1_555
C4 C3 1_555 1_555
H3 C4 1_555 1_555
C5 C4 1_555 1_555
H4 C5 1_555 1_555
C6 N1 1_555 1_555
C7 N2 1_555 1_555
H5 C7 1_555 1_555
C8 N2 1_555 1_555
C9 C8 1_555 1_555
H6 C9 1_555 1_555
C10 S1 1_555 1_555
C11 C10 1_555 1_555
C12 C11 1_555 1_555
H7 C12 1_555 1_555
C13 C8 1_555 1_555
H8 C13 1_555 1_555
S2 O4 1_555 1_555
O5 S2 1_555 1_555
O6 S2 1_555 1_555
N3 C14 1_555 1_555
N4 Ni2 1_555 1_555
C14 H9 1_555 1_555
C15 C14 1_555 1_555
H10 C15 1_555 1_555
C16 C15 1_555 1_555
H11 C16 1_555 1_555
C17 C16 1_555 1_555
H12 C17 1_555 1_555
C18 N3 1_555 1_555
C19 N4 1_555 1_555
H13 C19 1_555 1_555
C20 N4 1_555 1_555
C21 C20 1_555 1_555
H14 C21 1_555 1_555
C22 S2 1_555 1_555
C23 C11 1_555 1_555
C24 C23 1_555 1_555
H15 C24 1_555 1_555
C25 C20 1_555 1_555
H16 C25 1_555 1_555
S3 O7 1_555 1_555
O8 S3 1_555 1_555
O9 S3 1_555 1_555
N5 Ni1 1_555 1_555
N6 Ni1 1_555 1_555
C26 N5 1_555 1_555
H17 C26 1_555 1_555
C27 C26 1_555 1_555
H18 C27 1_555 1_555
C28 C27 1_555 1_555
H19 C28 1_555 1_555
C29 C28 1_555 1_555
H20 C29 1_555 1_555
C30 N5 1_555 1_555
C31 N6 1_555 1_555
H21 C31 1_555 1_555
C32 N6 1_555 1_555
C33 C32 1_555 1_555
H22 C33 1_555 1_555
C34 S3 1_555 1_555
C35 C34 1_555 1_555
C36 C35 1_555 1_555
H23 C36 1_555 1_555
C37 C32 1_555 1_555
H24 C37 1_555 1_555
S4 O10 1_555 1_555
O11 S4 1_555 1_555
O12 S4 1_555 1_555
N7 C38 1_555 1_555
N8 C43 1_555 1_555
C38 H25 1_555 1_555
C39 C38 1_555 1_555
H26 C39 1_555 1_555
C40 C39 1_555 1_555
H27 C40 1_555 1_555
C41 C40 1_555 1_555
H28 C41 1_555 1_555
C42 N7 1_555 1_555
C43 C42 1_555 1_555
H29 C43 1_555 1_555
C44 N8 1_555 1_555
C45 C44 1_555 1_555
H30 C45 1_555 1_555
C46 S4 1_555 1_555
C47 C35 1_555 1_555
C48 C47 1_555 1_555
H31 C48 1_555 1_555
C49 C44 1_555 1_555
H32 C49 1_555 1_555
S5 O13 1_555 1_555
O14 S5 1_555 1_555
O15 S5 1_555 1_555
N9 Ni1 1_555 1_555
N10 Ni1 1_555 1_555
C50 N9 1_555 1_555
H33 C50 1_555 1_555
C51 C50 1_555 1_555
H34 C51 1_555 1_555
C52 C51 1_555 1_555
H35 C52 1_555 1_555
C53 C52 1_555 1_555
H36 C53 1_555 1_555
C54 N9 1_555 1_555
C55 N10 1_555 1_555
H37 C55 1_555 1_555
C56 N10 1_555 1_555
C57 C56 1_555 1_555
H38 C57 1_555 1_555
C58 S5 1_555 1_555
C59 C58 1_555 1_555
C60 C59 1_555 1_555
H39 C60 1_555 1_555
C61 C56 1_555 1_555
H40 C61 1_555 1_555
S6 O16 1_555 1_555
O17 S6 1_555 1_555
O18 S6 1_555 1_555
N11 Ni2 1_555 1_555
N12 Ni2 1_555 1_555
C62 N11 1_555 1_555
H41 C62 1_555 1_555
C63 C62 1_555 1_555
H42 C63 1_555 1_555
C64 C63 1_555 1_555
H43 C64 1_555 1_555
C65 C64 1_555 1_555
H44 C65 1_555 1_555
C66 N11 1_555 1_555
C67 N12 1_555 1_555
H45 C67 1_555 1_555
C68 N12 1_555 1_555
C69 C68 1_555 1_555
H46 C69 1_555 1_555
C70 S6 1_555 1_555
C71 C70 1_555 1_555
C72 C71 1_555 1_555
H47 C72 1_555 1_555
C73 C68 1_555 1_555
H48 C73 1_555 1_555
Ni3 O19 1_555 1_555
O20 Ni3 1_555 1_555
O21 Ni3 1_555 1_555
Ni4 O22 1_555 1_555
O23 Ni4 1_555 1_555
O24 Ni4 1_555 1_555
Cl1A Cl1 1_555 1_555
Cl2A C1 1_555 1_555
Cl3A C1 1_555 1_555
Cl4A C1 1_555 1_555
C1A Cl1 1_555 1_555
S5A O13A 1_555 1_555
O14A S5A 1_555 1_555
O15A S5A 1_555 1_555
N9A C50A 1_555 1_555
N10A C55A 1_555 1_555
C50A H33A 1_555 1_555
C51A C50A 1_555 1_555
H34A C51A 1_555 1_555
C52A C51A 1_555 1_555
H35A C52A 1_555 1_555
C53A C52A 1_555 1_555
H36A C53A 1_555 1_555
C54A N9A 1_555 1_555
C55A C54A 1_555 1_555
H37A C55A 1_555 1_555
C56A N10A 1_555 1_555
C57A C56A 1_555 1_555
H38A C57A 1_555 1_555
C58A S5A 1_555 1_555
C59A C59 1_555 1_555
C60A C59A 1_555 1_555
H39A C60A 1_555 1_555
C61A C56A 1_555 1_555
H40A C61A 1_555 1_555
S6A O16A 1_555 1_555
O17A S6A 1_555 1_555
O18A S6A 1_555 1_555
N11A C62A 1_555 1_555
N12A C67A 1_555 1_555
C62A H41A 1_555 1_555
C63A C62A 1_555 1_555
H42A C63A 1_555 1_555
C64A C63A 1_555 1_555
H43A C64A 1_555 1_555
C65A C64A 1_555 1_555
H44A C65A 1_555 1_555
C66A N11A 1_555 1_555
C67A C66A 1_555 1_555
H45A C67A 1_555 1_555
C68A N12A 1_555 1_555
C69A C68A 1_555 1_555
H46A C69A 1_555 1_555
C70A S6A 1_555 1_555
C71A C71 1_555 1_555
C72A C71A 1_555 1_555
H47A C72A 1_555 1_555
C73A C68A 1_555 1_555
H48A C73A 1_555 1_555
Ni1A N9A 1_555 1_555
Ni2A N7 1_555 1_555
S1A O1A 1_555 1_555
O2A S1A 1_555 1_555
O3A S1A 1_555 1_555
N1A Ni1A 1_555 1_555
N2A Ni1A 1_555 1_555
C2A N1A 1_555 1_555
H1A C2A 1_555 1_555
C3A C2A 1_555 1_555
H2A C3A 1_555 1_555
C4A C3A 1_555 1_555
H3A C4A 1_555 1_555
C5A C4A 1_555 1_555
H4A C5A 1_555 1_555
C6A N1A 1_555 1_555
C7A N2A 1_555 1_555
H5A C7A 1_555 1_555
C8A N2A 1_555 1_555
C9A C8A 1_555 1_555
H6A C9A 1_555 1_555
C10A S1A 1_555 1_555
C11A C10A 1_555 1_555
C12A C11A 1_555 1_555
H7A C12A 1_555 1_555
C13A C8A 1_555 1_555
H8A C13A 1_555 1_555
S2A O4A 1_555 1_555
O5A S2A 1_555 1_555
O6A S2A 1_555 1_555
N3A Ni2A 1_555 1_555
N4A Ni2A 1_555 1_555
C14A N3A 1_555 1_555
H9A C14A 1_555 1_555
C15A C14A 1_555 1_555
H10A C15A 1_555 1_555
C16A C15A 1_555 1_555
H11A C16A 1_555 1_555
C17A C16A 1_555 1_555
H12A C17A 1_555 1_555
C18A N3A 1_555 1_555
C19A N4A 1_555 1_555
H13A C19A 1_555 1_555
C20A N4A 1_555 1_555
C21A C20A 1_555 1_555
H14A C21A 1_555 1_555
C22A S2A 1_555 1_555
C23A C11A 1_555 1_555
C24A C23A 1_555 1_555
H15A C24A 1_555 1_555
C25A C20A 1_555 1_555
H16A C25A 1_555 1_555
S3A O7A 1_555 1_555
O8A S3A 1_555 1_555
O9A S3A 1_555 1_555
N5A Ni1A 1_555 1_555
N6A Ni1A 1_555 1_555
C26A N5A 1_555 1_555
H17A C26A 1_555 1_555
C27A C26A 1_555 1_555
H18A C27A 1_555 1_555
C28A C27A 1_555 1_555
H19A C28A 1_555 1_555
C29A C28A 1_555 1_555
H20A C29A 1_555 1_555
C30A N5A 1_555 1_555
C31A N6A 1_555 1_555
H21A C31A 1_555 1_555
C32A N6A 1_555 1_555
C33A C32A 1_555 1_555
H22A C33A 1_555 1_555
C34A S3A 1_555 1_555
C35A C34A 1_555 1_555
C36A C35A 1_555 1_555
H23A C36A 1_555 1_555
C37A C32A 1_555 1_555
H24A C37A 1_555 1_555
S4A O10A 1_555 1_555
O11A S4A 1_555 1_555
O12A S4A 1_555 1_555
N7A Ni2 1_555 1_555
N8A Ni2 1_555 1_555
C38A N7A 1_555 1_555
H25A C38A 1_555 1_555
C39A C38A 1_555 1_555
H26A C39A 1_555 1_555
C40A C39A 1_555 1_555
H27A C40A 1_555 1_555
C41A C40A 1_555 1_555
H28A C41A 1_555 1_555
C42A N7A 1_555 1_555
C43A N8A 1_555 1_555
H29A C43A 1_555 1_555
C44A N8A 1_555 1_555
C45A C44A 1_555 1_555
H30A C45A 1_555 1_555
C46A S4A 1_555 1_555
C47A C35A 1_555 1_555
C48A C47A 1_555 1_555
H31A C48A 1_555 1_555
C49A C44A 1_555 1_555
H32A C49A 1_555 1_555
O19F Ni3 1_555 1_555
O20F Ni3 1_555 1_555
O21F Ni3 1_555 1_555
O22D Ni4 1_555 1_555
O23D Ni4 1_555 1_555
O24D Ni4 1_555 1_555
Cl2 C1 1_555 1_555
Cl2 C1A 1_555 1_555
Cl3 C1A 1_555 1_555
Cl4 C1 1_555 1_555
Cl4 C1A 1_555 1_555
C1 Cl1A 1_555 1_555
C5 C6 1_555 1_555
C6 C7 1_555 1_555
C9 C10 1_555 1_555
C12 C13 1_555 1_555
C17 C18 1_555 1_555
C18 C19 1_555 1_555
C21 C22 1_555 1_555
C22 C23 1_555 1_555
C24 C25 1_555 1_555
C29 C30 1_555 1_555
C30 C31 1_555 1_555
C33 C34 1_555 1_555
C36 C37 1_555 1_555
N8 Ni2A 1_555 1_555
C41 C42 1_555 1_555
C45 C46 1_555 1_555
C46 C47 1_555 1_555
C48 C49 1_555 1_555
C53 C54 1_555 1_555
C54 C55 1_555 1_555
C57 C58 1_555 1_555
C60 C61 1_555 1_555
C65 C66 1_555 1_555
C66 C67 1_555 1_555
C69 C70 1_555 1_555
C72 C73 1_555 1_555
Cl1A Cl3A 1_555 1_555
Cl1A C1A 1_555 1_555
Cl2A Cl3A 1_555 1_555
Cl2A Cl4A 1_555 1_555
Cl2A C1A 1_555 1_555
Cl3A C1A 1_555 1_555
Cl4A C1A 1_555 1_555
N10A Ni1A 1_555 1_555
C53A C54A 1_555 1_555
C57A C58A 1_555 1_555
C58A C59A 1_555 1_555
C60A C61A 1_555 1_555
N11A Ni2A 1_555 1_555
N12A Ni2A 1_555 1_555
C65A C66A 1_555 1_555
C69A C70A 1_555 1_555
C70A C71A 1_555 1_555
C72A C73A 1_555 1_555
C5A C6A 1_555 1_555
C6A C7A 1_555 1_555
C9A C10A 1_555 1_555
C12A C13A 1_555 1_555
C17A C18A 1_555 1_555
C18A C19A 1_555 1_555
C21A C22A 1_555 1_555
C22A C23A 1_555 1_555
C24A C25A 1_555 1_555
C29A C30A 1_555 1_555
C30A C31A 1_555 1_555
C33A C34A 1_555 1_555
C36A C37A 1_555 1_555
C41A C42A 1_555 1_555
C42A C43A 1_555 1_555
C45A C46A 1_555 1_555
C46A C47A 1_555 1_555
C48A C49A 1_555 1_555

#END
