
#######################################################################
#
#                 Cambridge Crystallographic Data Centre
#                                CCDC 
#
#######################################################################
#
# If this CIF has been generated from an entry in the Cambridge 
# Structural Database, then it will include bibliographic, chemical, 
# crystal, experimental, refinement or atomic coordinate data resulting 
# from the CCDC's data processing and validation procedures.
#
#######################################################################

data_GIDGAD
_chemical_formula_moiety         
'C144 H96 N24 Ni4 O36 S12 4-,2(H12 Ni1 O6 2+),68.08(H2 O1)'
_chemical_name_systematic        
"hexakis(\m~2~-4,4'-bis((Pyridin-2-ylmethylene)amino)biphenyl-2,2'-disulfonate)-tetra-nickel bis(hexa-aqua-nickel) unknown clathrate hydrate"
_symmetry_cell_setting           cubic
_symmetry_space_group_name_H-M   'F d -3'
_symmetry_Int_Tables_number      203
_space_group_name_Hall           '-F 2uv 2vw 3'
loop_
_symmetry_equiv_pos_site_id
_symmetry_equiv_pos_as_xyz
1 x,y,z
2 1/4-x,1/4-y,z
3 x,1/4-y,1/4-z
4 1/4-x,y,1/4-z
5 z,x,y
6 y,z,x
7 1/4-z,1/4-x,y
8 1/4-y,z,1/4-x
9 z,1/4-x,1/4-y
10 1/4-y,1/4-z,x
11 1/4-z,x,1/4-y
12 y,1/4-z,1/4-x
13 x,1/2+y,1/2+z
14 1/4-x,3/4-y,1/2+z
15 x,3/4-y,3/4-z
16 1/4-x,1/2+y,3/4-z
17 z,1/2+x,1/2+y
18 y,1/2+z,1/2+x
19 1/4-z,3/4-x,1/2+y
20 1/4-y,1/2+z,3/4-x
21 z,3/4-x,3/4-y
22 1/4-y,3/4-z,1/2+x
23 1/4-z,1/2+x,3/4-y
24 y,3/4-z,3/4-x
25 1/2+x,y,1/2+z
26 3/4-x,1/4-y,1/2+z
27 1/2+x,1/4-y,3/4-z
28 3/4-x,y,3/4-z
29 1/2+z,x,1/2+y
30 1/2+y,z,1/2+x
31 3/4-z,1/4-x,1/2+y
32 3/4-y,z,3/4-x
33 1/2+z,1/4-x,3/4-y
34 3/4-y,1/4-z,1/2+x
35 3/4-z,x,3/4-y
36 1/2+y,1/4-z,3/4-x
37 1/2+x,1/2+y,z
38 3/4-x,3/4-y,z
39 1/2+x,3/4-y,1/4-z
40 3/4-x,1/2+y,1/4-z
41 1/2+z,1/2+x,y
42 1/2+y,1/2+z,x
43 3/4-z,3/4-x,y
44 3/4-y,1/2+z,1/4-x
45 1/2+z,3/4-x,1/4-y
46 3/4-y,3/4-z,x
47 3/4-z,1/2+x,1/4-y
48 1/2+y,3/4-z,1/4-x
49 -x,-y,-z
50 3/4+x,3/4+y,-z
51 -x,3/4+y,3/4+z
52 3/4+x,-y,3/4+z
53 -z,-x,-y
54 -y,-z,-x
55 3/4+z,3/4+x,-y
56 3/4+y,-z,3/4+x
57 -z,3/4+x,3/4+y
58 3/4+y,3/4+z,-x
59 3/4+z,-x,3/4+y
60 -y,3/4+z,3/4+x
61 -x,1/2-y,1/2-z
62 3/4+x,1/4+y,1/2-z
63 -x,1/4+y,1/4+z
64 3/4+x,1/2-y,1/4+z
65 -z,1/2-x,1/2-y
66 -y,1/2-z,1/2-x
67 3/4+z,1/4+x,1/2-y
68 3/4+y,1/2-z,1/4+x
69 -z,1/4+x,1/4+y
70 3/4+y,1/4+z,1/2-x
71 3/4+z,1/2-x,1/4+y
72 -y,1/4+z,1/4+x
73 1/2-x,-y,1/2-z
74 1/4+x,3/4+y,1/2-z
75 1/2-x,3/4+y,1/4+z
76 1/4+x,-y,1/4+z
77 1/2-z,-x,1/2-y
78 1/2-y,-z,1/2-x
79 1/4+z,3/4+x,1/2-y
80 1/4+y,-z,1/4+x
81 1/2-z,3/4+x,1/4+y
82 1/4+y,3/4+z,1/2-x
83 1/4+z,-x,1/4+y
84 1/2-y,3/4+z,1/4+x
85 1/2-x,1/2-y,-z
86 1/4+x,1/4+y,-z
87 1/2-x,1/4+y,3/4+z
88 1/4+x,1/2-y,3/4+z
89 1/2-z,1/2-x,-y
90 1/2-y,1/2-z,-x
91 1/4+z,1/4+x,-y
92 1/4+y,1/2-z,3/4+x
93 1/2-z,1/4+x,3/4+y
94 1/4+y,1/4+z,-x
95 1/4+z,1/2-x,3/4+y
96 1/2-y,1/4+z,3/4+x
_cell_length_a                   36.1344(5)
_cell_length_b                   36.1344(5)
_cell_length_c                   36.1344(5)
_cell_angle_alpha                90
_cell_angle_beta                 90
_cell_angle_gamma                90
_cell_volume                     47180.5
_exptl_crystal_colour            orange
_exptl_crystal_description       prism
_cell_formula_units_Z            8
loop_
_atom_site_label
_atom_site_type_symbol
_atom_site_fract_x
_atom_site_fract_y
_atom_site_fract_z
Ni1 Ni 0.25249(2) 0.25249(2) 0.25249(2)
S1 S 0.10829(6) 0.30945(9) 0.18678(7)
O1 O 0.09097(17) 0.32989(18) 0.15889(18)
O2 O 0.1236(2) 0.3300(3) 0.2168(2)
O3 O 0.0836(2) 0.2787(3) 0.1987(3)
N1 N 0.30445(17) 0.26996(19) 0.23513(17)
N2 N 0.24245(16) 0.26602(16) 0.19664(17)
C1 C 0.3362(2) 0.2711(3) 0.2542(3)
H1 H 0.3360 0.2635 0.2794
C2 C 0.3696(2) 0.2830(3) 0.2387(3)
H2 H 0.3917 0.2832 0.2530
C3 C 0.3701(3) 0.2941(4) 0.2027(3)
H3 H 0.3924 0.3024 0.1918
C4 C 0.3378(3) 0.2931(3) 0.1821(3)
H4 H 0.3377 0.3008 0.1570
C5 C 0.3062(2) 0.2809(2) 0.1986(2)
C6 C 0.2710(2) 0.2785(2) 0.1790(2)
H5 H 0.2690 0.2860 0.1538
C7 C 0.2086(2) 0.26353(19) 0.1762(2)
C8 C 0.1790(2) 0.2849(2) 0.1876(2)
H6 H 0.1812 0.3003 0.2088
C9 C 0.1459(2) 0.2838(2) 0.1679(2)
C10 C 0.1425(2) 0.2619(2) 0.1370(3)
C11 C 0.1722(3) 0.2408(2) 0.1260(3)
H7 H 0.1700 0.2259 0.1045
C12 C 0.2057(3) 0.2407(2) 0.1457(3)
H8 H 0.2258 0.2254 0.1383
S1C S 0.14171(6) 0.30945(9) 0.06322(7)
O1C O 0.15903(17) 0.32989(18) 0.09111(18)
O2C O 0.1264(2) 0.3300(3) 0.0332(2)
O3C O 0.1664(2) 0.2787(3) 0.0513(3)
N1C N -0.05445(17) 0.26996(19) 0.01487(17)
N2C N 0.00755(16) 0.26602(16) 0.05336(17)
C1C C -0.0862(2) 0.2711(3) -0.0042(3)
H1C H -0.0860 0.2635 -0.0294
C2C C -0.1196(2) 0.2830(3) 0.0113(3)
H2C H -0.1417 0.2832 -0.0030
C3C C -0.1201(3) 0.2941(4) 0.0473(3)
H3C H -0.1424 0.3024 0.0582
C4C C -0.0878(3) 0.2931(3) 0.0679(3)
H4C H -0.0877 0.3008 0.0930
C5C C -0.0562(2) 0.2809(2) 0.0514(2)
C6C C -0.0210(2) 0.2785(2) 0.0710(2)
H5C H -0.0190 0.2860 0.0962
C7C C 0.0414(2) 0.26353(19) 0.0738(2)
C8C C 0.0710(2) 0.2849(2) 0.0624(2)
H6C H 0.0688 0.3003 0.0412
C9C C 0.1041(2) 0.2838(2) 0.0821(2)
C10C C 0.1075(2) 0.2619(2) 0.1130(3)
C11C C 0.0778(3) 0.2408(2) 0.1240(3)
H7C H 0.0800 0.2259 0.1455
C12C C 0.0443(3) 0.2407(2) 0.1043(3)
H8C H 0.0242 0.2254 0.1117
Ni1C Ni -0.00249(2) 0.25249(2) -0.00249(2)
S1D S 0.18678(7) 0.10829(6) 0.30945(9)
O1D O 0.15889(18) 0.09097(17) 0.32989(18)
O2D O 0.2168(2) 0.1236(2) 0.3300(3)
O3D O 0.1987(3) 0.0836(2) 0.2787(3)
N1D N 0.23513(17) 0.30445(17) 0.26996(19)
N2D N 0.19664(17) 0.24245(16) 0.26602(16)
C1D C 0.2542(3) 0.3362(2) 0.2711(3)
H1D H 0.2794 0.3360 0.2635
C2D C 0.2387(3) 0.3696(2) 0.2830(3)
H2D H 0.2530 0.3917 0.2832
C3D C 0.2027(3) 0.3701(3) 0.2941(4)
H3D H 0.1918 0.3924 0.3024
C4D C 0.1821(3) 0.3378(3) 0.2931(3)
H4D H 0.1570 0.3377 0.3008
C5D C 0.1986(2) 0.3062(2) 0.2809(2)
C6D C 0.1790(2) 0.2710(2) 0.2785(2)
H5D H 0.1538 0.2690 0.2860
C7D C 0.1762(2) 0.2086(2) 0.26353(19)
C8D C 0.1876(2) 0.1790(2) 0.2849(2)
H6D H 0.2088 0.1812 0.3003
C9D C 0.1679(2) 0.1459(2) 0.2838(2)
C10D C 0.1370(3) 0.1425(2) 0.2619(2)
C11D C 0.1260(3) 0.1722(3) 0.2408(2)
H7D H 0.1045 0.1700 0.2259
C12D C 0.1457(3) 0.2057(3) 0.2407(2)
H8D H 0.1383 0.2258 0.2254
S1F S 0.06322(7) 0.14171(6) 0.30945(9)
O1F O 0.09111(18) 0.15903(17) 0.32989(18)
O2F O 0.0332(2) 0.1264(2) 0.3300(3)
O3F O 0.0513(3) 0.1664(2) 0.2787(3)
N1F N 0.01487(17) -0.05445(17) 0.26996(19)
N2F N 0.05336(17) 0.00755(16) 0.26602(16)
C1F C -0.0042(3) -0.0862(2) 0.2711(3)
H1F H -0.0294 -0.0860 0.2635
C2F C 0.0113(3) -0.1196(2) 0.2830(3)
H2F H -0.0030 -0.1417 0.2832
C3F C 0.0473(3) -0.1201(3) 0.2941(4)
H3F H 0.0582 -0.1424 0.3024
C4F C 0.0679(3) -0.0878(3) 0.2931(3)
H4F H 0.0930 -0.0877 0.3008
C5F C 0.0514(2) -0.0562(2) 0.2809(2)
C6F C 0.0710(2) -0.0210(2) 0.2785(2)
H5F H 0.0962 -0.0190 0.2860
C7F C 0.0738(2) 0.0414(2) 0.26353(19)
C8F C 0.0624(2) 0.0710(2) 0.2849(2)
H6F H 0.0412 0.0688 0.3003
C9F C 0.0821(2) 0.1041(2) 0.2838(2)
C10F C 0.1130(3) 0.1075(2) 0.2619(2)
C11F C 0.1240(3) 0.0778(3) 0.2408(2)
H7F H 0.1455 0.0800 0.2259
C12F C 0.1043(3) 0.0443(3) 0.2407(2)
H8F H 0.1117 0.0242 0.2254
S1E S 0.30945(9) 0.18678(7) 0.10829(6)
O1E O 0.32989(18) 0.15889(18) 0.09097(17)
O2E O 0.3300(3) 0.2168(2) 0.1236(2)
O3E O 0.2787(3) 0.1987(3) 0.0836(2)
N1E N 0.26996(19) 0.23513(17) 0.30445(17)
N2E N 0.26602(16) 0.19664(17) 0.24245(16)
C1E C 0.2711(3) 0.2542(3) 0.3362(2)
H1E H 0.2635 0.2794 0.3360
C2E C 0.2830(3) 0.2387(3) 0.3696(2)
H2E H 0.2832 0.2530 0.3917
C3E C 0.2941(4) 0.2027(3) 0.3701(3)
H3E H 0.3024 0.1918 0.3924
C4E C 0.2931(3) 0.1821(3) 0.3378(3)
H4E H 0.3008 0.1570 0.3377
C5E C 0.2809(2) 0.1986(2) 0.3062(2)
C6E C 0.2785(2) 0.1790(2) 0.2710(2)
H5E H 0.2860 0.1538 0.2690
C7E C 0.26353(19) 0.1762(2) 0.2086(2)
C8E C 0.2849(2) 0.1876(2) 0.1790(2)
H6E H 0.3003 0.2088 0.1812
C9E C 0.2838(2) 0.1679(2) 0.1459(2)
C10E C 0.2619(2) 0.1370(3) 0.1425(2)
C11E C 0.2408(2) 0.1260(3) 0.1722(3)
H7E H 0.2259 0.1045 0.1700
C12E C 0.2407(2) 0.1457(3) 0.2057(3)
H8E H 0.2254 0.1383 0.2258
S1K S 0.30945(9) 0.06322(7) 0.14171(6)
O1K O 0.32989(18) 0.09111(18) 0.15903(17)
O2K O 0.3300(3) 0.0332(2) 0.1264(2)
O3K O 0.2787(3) 0.0513(3) 0.1664(2)
N1K N 0.26996(19) 0.01487(17) -0.05445(17)
N2K N 0.26602(16) 0.05336(17) 0.00755(16)
C1K C 0.2711(3) -0.0042(3) -0.0862(2)
H1K H 0.2635 -0.0294 -0.0860
C2K C 0.2830(3) 0.0113(3) -0.1196(2)
H2K H 0.2832 -0.0030 -0.1417
C3K C 0.2941(4) 0.0473(3) -0.1201(3)
H3K H 0.3024 0.0582 -0.1424
C4K C 0.2931(3) 0.0679(3) -0.0878(3)
H4K H 0.3008 0.0930 -0.0877
C5K C 0.2809(2) 0.0514(2) -0.0562(2)
C6K C 0.2785(2) 0.0710(2) -0.0210(2)
H5K H 0.2860 0.0962 -0.0190
C7K C 0.26353(19) 0.0738(2) 0.0414(2)
C8K C 0.2849(2) 0.0624(2) 0.0710(2)
H6K H 0.3003 0.0412 0.0688
C9K C 0.2838(2) 0.0821(2) 0.1041(2)
C10K C 0.2619(2) 0.1130(3) 0.1075(2)
C11K C 0.2408(2) 0.1240(3) 0.0778(3)
H7K H 0.2259 0.1455 0.0800
C12K C 0.2407(2) 0.1043(3) 0.0443(3)
H8K H 0.2254 0.1117 0.0242
Ni1A Ni -0.00249(2) -0.00249(2) 0.25249(2)
S1G S -0.05945(9) 0.18678(7) 0.14171(6)
O1G O -0.07989(18) 0.15889(18) 0.15903(17)
O2G O -0.0800(3) 0.2168(2) 0.1264(2)
O3G O -0.0287(3) 0.1987(3) 0.1664(2)
N1G N -0.01996(19) 0.23513(17) -0.05445(17)
N2G N -0.01602(16) 0.19664(17) 0.00755(16)
C1G C -0.0211(3) 0.2542(3) -0.0862(2)
H1G H -0.0135 0.2794 -0.0860
C2G C -0.0330(3) 0.2387(3) -0.1196(2)
H2G H -0.0332 0.2530 -0.1417
C3G C -0.0441(4) 0.2027(3) -0.1201(3)
H3G H -0.0524 0.1918 -0.1424
C4G C -0.0431(3) 0.1821(3) -0.0878(3)
H4G H -0.0508 0.1570 -0.0877
C5G C -0.0309(2) 0.1986(2) -0.0562(2)
C6G C -0.0285(2) 0.1790(2) -0.0210(2)
H5G H -0.0360 0.1538 -0.0190
C7G C -0.01353(19) 0.1762(2) 0.0414(2)
C8G C -0.0349(2) 0.1876(2) 0.0710(2)
H6G H -0.0503 0.2088 0.0688
C9G C -0.0338(2) 0.1679(2) 0.1041(2)
C10G C -0.0119(2) 0.1370(3) 0.1075(2)
C11G C 0.0092(2) 0.1260(3) 0.0778(3)
H7G H 0.0241 0.1045 0.0800
C12G C 0.0093(2) 0.1457(3) 0.0443(3)
H8G H 0.0246 0.1383 0.0242
S1I S -0.05945(9) 0.06322(7) 0.10829(6)
O1I O -0.07989(18) 0.09111(18) 0.09097(17)
O2I O -0.0800(3) 0.0332(2) 0.1236(2)
O3I O -0.0287(3) 0.0513(3) 0.0836(2)
N1I N -0.01996(19) 0.01487(17) 0.30445(17)
N2I N -0.01602(16) 0.05336(17) 0.24245(16)
C1I C -0.0211(3) -0.0042(3) 0.3362(2)
H1I H -0.0135 -0.0294 0.3360
C2I C -0.0330(3) 0.0113(3) 0.3696(2)
H2I H -0.0332 -0.0030 0.3917
C3I C -0.0441(4) 0.0473(3) 0.3701(3)
H3I H -0.0524 0.0582 0.3924
C4I C -0.0431(3) 0.0679(3) 0.3378(3)
H4I H -0.0508 0.0930 0.3377
C5I C -0.0309(2) 0.0514(2) 0.3062(2)
C6I C -0.0285(2) 0.0710(2) 0.2710(2)
H5I H -0.0360 0.0962 0.2690
C7I C -0.01353(19) 0.0738(2) 0.2086(2)
C8I C -0.0349(2) 0.0624(2) 0.1790(2)
H6I H -0.0503 0.0412 0.1812
C9I C -0.0338(2) 0.0821(2) 0.1459(2)
C10I C -0.0119(2) 0.1130(3) 0.1425(2)
C11I C 0.0092(2) 0.1240(3) 0.1722(3)
H7I H 0.0241 0.1455 0.1700
C12I C 0.0093(2) 0.1043(3) 0.2057(3)
H8I H 0.0246 0.1117 0.2258
Ni1B Ni 0.25249(2) -0.00249(2) -0.00249(2)
S1H S 0.18678(7) 0.14171(6) -0.05945(9)
O1H O 0.15889(18) 0.15903(17) -0.07989(18)
O2H O 0.2168(2) 0.1264(2) -0.0800(3)
O3H O 0.1987(3) 0.1664(2) -0.0287(3)
N1H N 0.23513(17) -0.05445(17) -0.01996(19)
N2H N 0.19664(17) 0.00755(16) -0.01602(16)
C1H C 0.2542(3) -0.0862(2) -0.0211(3)
H1H H 0.2794 -0.0860 -0.0135
C2H C 0.2387(3) -0.1196(2) -0.0330(3)
H2H H 0.2530 -0.1417 -0.0332
C3H C 0.2027(3) -0.1201(3) -0.0441(4)
H3H H 0.1918 -0.1424 -0.0524
C4H C 0.1821(3) -0.0878(3) -0.0431(3)
H4H H 0.1570 -0.0877 -0.0508
C5H C 0.1986(2) -0.0562(2) -0.0309(2)
C6H C 0.1790(2) -0.0210(2) -0.0285(2)
H5H H 0.1538 -0.0190 -0.0360
C7H C 0.1762(2) 0.0414(2) -0.01353(19)
C8H C 0.1876(2) 0.0710(2) -0.0349(2)
H6H H 0.2088 0.0688 -0.0503
C9H C 0.1679(2) 0.1041(2) -0.0338(2)
C10H C 0.1370(3) 0.1075(2) -0.0119(2)
C11H C 0.1260(3) 0.0778(3) 0.0092(2)
H7H H 0.1045 0.0800 0.0241
C12H C 0.1457(3) 0.0443(3) 0.0093(2)
H8H H 0.1383 0.0242 0.0246
S1J S 0.06322(7) 0.10829(6) -0.05945(9)
O1J O 0.09111(18) 0.09097(17) -0.07989(18)
O2J O 0.0332(2) 0.1236(2) -0.0800(3)
O3J O 0.0513(3) 0.0836(2) -0.0287(3)
N1J N 0.01487(17) 0.30445(17) -0.01996(19)
N2J N 0.05336(17) 0.24245(16) -0.01602(16)
C1J C -0.0042(3) 0.3362(2) -0.0211(3)
H1J H -0.0294 0.3360 -0.0135
C2J C 0.0113(3) 0.3696(2) -0.0330(3)
H2J H -0.0030 0.3917 -0.0332
C3J C 0.0473(3) 0.3701(3) -0.0441(4)
H3J H 0.0582 0.3924 -0.0524
C4J C 0.0679(3) 0.3378(3) -0.0431(3)
H4J H 0.0930 0.3377 -0.0508
C5J C 0.0514(2) 0.3062(2) -0.0309(2)
C6J C 0.0710(2) 0.2710(2) -0.0285(2)
H5J H 0.0962 0.2690 -0.0360
C7J C 0.0738(2) 0.2086(2) -0.01353(19)
C8J C 0.0624(2) 0.1790(2) -0.0349(2)
H6J H 0.0412 0.1812 -0.0503
C9J C 0.0821(2) 0.1459(2) -0.0338(2)
C10J C 0.1130(3) 0.1425(2) -0.0119(2)
C11J C 0.1240(3) 0.1722(3) 0.0092(2)
H7J H 0.1455 0.1700 0.0241
C12J C 0.1043(3) 0.2057(3) 0.0093(2)
H8J H 0.1117 0.2258 0.0246
S1A S 0.14171(6) -0.05945(9) 0.18678(7)
O1A O 0.15903(17) -0.07989(18) 0.15889(18)
O2A O 0.1264(2) -0.0800(3) 0.2168(2)
O3A O 0.1664(2) -0.0287(3) 0.1987(3)
N1A N -0.05445(17) -0.01996(19) 0.23513(17)
N2A N 0.00755(16) -0.01602(16) 0.19664(17)
C1A C -0.0862(2) -0.0211(3) 0.2542(3)
H1A H -0.0860 -0.0135 0.2794
C2A C -0.1196(2) -0.0330(3) 0.2387(3)
H2A H -0.1417 -0.0332 0.2530
C3A C -0.1201(3) -0.0441(4) 0.2027(3)
H3A H -0.1424 -0.0524 0.1918
C4A C -0.0878(3) -0.0431(3) 0.1821(3)
H4A H -0.0877 -0.0508 0.1570
C5A C -0.0562(2) -0.0309(2) 0.1986(2)
C6A C -0.0210(2) -0.0285(2) 0.1790(2)
H5A H -0.0190 -0.0360 0.1538
C7A C 0.0414(2) -0.01353(19) 0.1762(2)
C8A C 0.0710(2) -0.0349(2) 0.1876(2)
H6A H 0.0688 -0.0503 0.2088
C9A C 0.1041(2) -0.0338(2) 0.1679(2)
C10A C 0.1075(2) -0.0119(2) 0.1370(3)
C11A C 0.0778(3) 0.0092(2) 0.1260(3)
H7A H 0.0800 0.0241 0.1045
C12A C 0.0443(3) 0.0093(2) 0.1457(3)
H8A H 0.0242 0.0246 0.1383
S1B S 0.10829(6) -0.05945(9) 0.06322(7)
O1B O 0.09097(17) -0.07989(18) 0.09111(18)
O2B O 0.1236(2) -0.0800(3) 0.0332(2)
O3B O 0.0836(2) -0.0287(3) 0.0513(3)
N1B N 0.30445(17) -0.01996(19) 0.01487(17)
N2B N 0.24245(16) -0.01602(16) 0.05336(17)
C1B C 0.3362(2) -0.0211(3) -0.0042(3)
H1B H 0.3360 -0.0135 -0.0294
C2B C 0.3696(2) -0.0330(3) 0.0113(3)
H2B H 0.3917 -0.0332 -0.0030
C3B C 0.3701(3) -0.0441(4) 0.0473(3)
H3B H 0.3924 -0.0524 0.0582
C4B C 0.3378(3) -0.0431(3) 0.0679(3)
H4B H 0.3377 -0.0508 0.0930
C5B C 0.3062(2) -0.0309(2) 0.0514(2)
C6B C 0.2710(2) -0.0285(2) 0.0710(2)
H5B H 0.2690 -0.0360 0.0962
C7B C 0.2086(2) -0.01353(19) 0.0738(2)
C8B C 0.1790(2) -0.0349(2) 0.0624(2)
H6B H 0.1812 -0.0503 0.0412
C9B C 0.1459(2) -0.0338(2) 0.0821(2)
C10B C 0.1425(2) -0.0119(2) 0.1130(3)
C11B C 0.1722(3) 0.0092(2) 0.1240(3)
H7B H 0.1700 0.0241 0.1455
C12B C 0.2057(3) 0.0093(2) 0.1043(3)
H8B H 0.2258 0.0246 0.1117
Ni2 Ni 0.2500 0.2500 0.0000
O4 O 0.2434(3) 0.2565(3) 0.0548(3)
O4J O 0.1952(3) 0.2434(3) -0.0065(3)
O4K O 0.2565(3) 0.1952(3) 0.0066(3)
O4FC O 0.2566(3) 0.2435(3) -0.0548(3)
O4PC O 0.3048(3) 0.2566(3) 0.0065(3)
O4QC O 0.2435(3) 0.3048(3) -0.0066(3)
O5 O 0.4388(3) 0.3112(3) 0.3112(3)
O6 O 0.3803(3) 0.2705(3) 0.3376(3)
O7 O 0.2303(3) 0.3338(4) 0.1200(5)
O8 O 0.3256(3) 0.3256(3) 0.3256(3)
O9 O 0.3750 0.3750 0.1527(8)
O10 O 0.3765(10) 0.5535(10) 0.2105(11)
O11 O 0.3863(6) 0.5665(6) 0.2317(6)
O12 O 0.4640(9) 0.3491(9) 0.2113(9)
O13 O 0.4331(7) 0.3403(7) 0.1427(7)
loop_
_geom_bond_atom_site_label_1
_geom_bond_atom_site_label_2
_geom_bond_site_symmetry_1
_geom_bond_site_symmetry_2
Ni1 N1 1_555 1_555
S1 O1 1_555 1_555
O2 S1 1_555 1_555
O3 S1 1_555 1_555
N1 C1 1_555 1_555
N2 Ni1 1_555 1_555
C1 H1 1_555 1_555
C2 C1 1_555 1_555
H2 C2 1_555 1_555
C3 C2 1_555 1_555
H3 C3 1_555 1_555
C4 C3 1_555 1_555
H4 C4 1_555 1_555
C5 N1 1_555 1_555
C6 N2 1_555 1_555
H5 C6 1_555 1_555
C7 N2 1_555 1_555
C8 C7 1_555 1_555
H6 C8 1_555 1_555
C9 S1 1_555 1_555
C10 C9 1_555 1_555
C11 C10 1_555 1_555
H7 C11 1_555 1_555
C12 C7 1_555 1_555
H8 C12 1_555 1_555
Ni2 O4 1_555 1_555
S1C O1C 1_555 1_555
O2C S1C 1_555 1_555
O3C S1C 1_555 1_555
N1C C1C 1_555 1_555
N2C C6C 1_555 1_555
C1C H1C 1_555 1_555
C2C C1C 1_555 1_555
H2C C2C 1_555 1_555
C3C C2C 1_555 1_555
H3C C3C 1_555 1_555
C4C C3C 1_555 1_555
H4C C4C 1_555 1_555
C5C N1C 1_555 1_555
C6C C5C 1_555 1_555
H5C C6C 1_555 1_555
C7C N2C 1_555 1_555
C8C C7C 1_555 1_555
H6C C8C 1_555 1_555
C9C S1C 1_555 1_555
C10C C10 1_555 1_555
C11C C10C 1_555 1_555
H7C C11C 1_555 1_555
C12C C7C 1_555 1_555
H8C C12C 1_555 1_555
Ni1C N1C 1_555 1_555
S1D O1D 1_555 1_555
O2D S1D 1_555 1_555
O3D S1D 1_555 1_555
N1D Ni1 1_555 1_555
N2D Ni1 1_555 1_555
C1D N1D 1_555 1_555
H1D C1D 1_555 1_555
C2D C1D 1_555 1_555
H2D C2D 1_555 1_555
C3D C2D 1_555 1_555
H3D C3D 1_555 1_555
C4D C3D 1_555 1_555
H4D C4D 1_555 1_555
C5D N1D 1_555 1_555
C6D N2D 1_555 1_555
H5D C6D 1_555 1_555
C7D N2D 1_555 1_555
C8D C7D 1_555 1_555
H6D C8D 1_555 1_555
C9D S1D 1_555 1_555
C10D C9D 1_555 1_555
C11D C10D 1_555 1_555
H7D C11D 1_555 1_555
C12D C7D 1_555 1_555
H8D C12D 1_555 1_555
S1F O1F 1_555 1_555
O2F S1F 1_555 1_555
O3F S1F 1_555 1_555
N1F C1F 1_555 1_555
N2F C6F 1_555 1_555
C1F H1F 1_555 1_555
C2F C1F 1_555 1_555
H2F C2F 1_555 1_555
C3F C2F 1_555 1_555
H3F C3F 1_555 1_555
C4F C3F 1_555 1_555
H4F C4F 1_555 1_555
C5F N1F 1_555 1_555
C6F C5F 1_555 1_555
H5F C6F 1_555 1_555
C7F N2F 1_555 1_555
C8F C7F 1_555 1_555
H6F C8F 1_555 1_555
C9F S1F 1_555 1_555
C10F C10D 1_555 1_555
C11F C10F 1_555 1_555
H7F C11F 1_555 1_555
C12F C7F 1_555 1_555
H8F C12F 1_555 1_555
S1E O1E 1_555 1_555
O2E S1E 1_555 1_555
O3E S1E 1_555 1_555
N1E Ni1 1_555 1_555
N2E Ni1 1_555 1_555
C1E N1E 1_555 1_555
H1E C1E 1_555 1_555
C2E C1E 1_555 1_555
H2E C2E 1_555 1_555
C3E C2E 1_555 1_555
H3E C3E 1_555 1_555
C4E C3E 1_555 1_555
H4E C4E 1_555 1_555
C5E N1E 1_555 1_555
C6E N2E 1_555 1_555
H5E C6E 1_555 1_555
C7E N2E 1_555 1_555
C8E C7E 1_555 1_555
H6E C8E 1_555 1_555
C9E S1E 1_555 1_555
C10E C9E 1_555 1_555
C11E C10E 1_555 1_555
H7E C11E 1_555 1_555
C12E C7E 1_555 1_555
H8E C12E 1_555 1_555
S1K O1K 1_555 1_555
O2K S1K 1_555 1_555
O3K S1K 1_555 1_555
N1K C1K 1_555 1_555
N2K C6K 1_555 1_555
C1K H1K 1_555 1_555
C2K C1K 1_555 1_555
H2K C2K 1_555 1_555
C3K C2K 1_555 1_555
H3K C3K 1_555 1_555
C4K C3K 1_555 1_555
H4K C4K 1_555 1_555
C5K N1K 1_555 1_555
C6K C5K 1_555 1_555
H5K C6K 1_555 1_555
C7K N2K 1_555 1_555
C8K C7K 1_555 1_555
H6K C8K 1_555 1_555
C9K S1K 1_555 1_555
C10K C10E 1_555 1_555
C11K C10K 1_555 1_555
H7K C11K 1_555 1_555
C12K C7K 1_555 1_555
H8K C12K 1_555 1_555
Ni1A N1F 1_555 1_555
S1G O1G 1_555 1_555
O2G S1G 1_555 1_555
O3G S1G 1_555 1_555
N1G Ni1C 1_555 1_555
N2G Ni1C 1_555 1_555
C1G N1G 1_555 1_555
H1G C1G 1_555 1_555
C2G C1G 1_555 1_555
H2G C2G 1_555 1_555
C3G C2G 1_555 1_555
H3G C3G 1_555 1_555
C4G C3G 1_555 1_555
H4G C4G 1_555 1_555
C5G N1G 1_555 1_555
C6G N2G 1_555 1_555
H5G C6G 1_555 1_555
C7G N2G 1_555 1_555
C8G C7G 1_555 1_555
H6G C8G 1_555 1_555
C9G S1G 1_555 1_555
C10G C9G 1_555 1_555
C11G C10G 1_555 1_555
H7G C11G 1_555 1_555
C12G C7G 1_555 1_555
H8G C12G 1_555 1_555
S1I O1I 1_555 1_555
O2I S1I 1_555 1_555
O3I S1I 1_555 1_555
N1I Ni1A 1_555 1_555
N2I Ni1A 1_555 1_555
C1I N1I 1_555 1_555
H1I C1I 1_555 1_555
C2I C1I 1_555 1_555
H2I C2I 1_555 1_555
C3I C2I 1_555 1_555
H3I C3I 1_555 1_555
C4I C3I 1_555 1_555
H4I C4I 1_555 1_555
C5I N1I 1_555 1_555
C6I N2I 1_555 1_555
H5I C6I 1_555 1_555
C7I N2I 1_555 1_555
C8I C7I 1_555 1_555
H6I C8I 1_555 1_555
C9I S1I 1_555 1_555
C10I C10G 1_555 1_555
C11I C10I 1_555 1_555
H7I C11I 1_555 1_555
C12I C7I 1_555 1_555
H8I C12I 1_555 1_555
Ni1B N1K 1_555 1_555
S1H O1H 1_555 1_555
O2H S1H 1_555 1_555
O3H S1H 1_555 1_555
N1H Ni1B 1_555 1_555
N2H Ni1B 1_555 1_555
C1H N1H 1_555 1_555
H1H C1H 1_555 1_555
C2H C1H 1_555 1_555
H2H C2H 1_555 1_555
C3H C2H 1_555 1_555
H3H C3H 1_555 1_555
C4H C3H 1_555 1_555
H4H C4H 1_555 1_555
C5H N1H 1_555 1_555
C6H N2H 1_555 1_555
H5H C6H 1_555 1_555
C7H N2H 1_555 1_555
C8H C7H 1_555 1_555
H6H C8H 1_555 1_555
C9H S1H 1_555 1_555
C10H C9H 1_555 1_555
C11H C10H 1_555 1_555
H7H C11H 1_555 1_555
C12H C7H 1_555 1_555
H8H C12H 1_555 1_555
S1J O1J 1_555 1_555
O2J S1J 1_555 1_555
O3J S1J 1_555 1_555
N1J Ni1C 1_555 1_555
N2J Ni1C 1_555 1_555
C1J N1J 1_555 1_555
H1J C1J 1_555 1_555
C2J C1J 1_555 1_555
H2J C2J 1_555 1_555
C3J C2J 1_555 1_555
H3J C3J 1_555 1_555
C4J C3J 1_555 1_555
H4J C4J 1_555 1_555
C5J N1J 1_555 1_555
C6J N2J 1_555 1_555
H5J C6J 1_555 1_555
C7J N2J 1_555 1_555
C8J C7J 1_555 1_555
H6J C8J 1_555 1_555
C9J S1J 1_555 1_555
C10J C10H 1_555 1_555
C11J C10J 1_555 1_555
H7J C11J 1_555 1_555
C12J C7J 1_555 1_555
H8J C12J 1_555 1_555
S1A O1A 1_555 1_555
O2A S1A 1_555 1_555
O3A S1A 1_555 1_555
N1A Ni1A 1_555 1_555
N2A Ni1A 1_555 1_555
C1A N1A 1_555 1_555
H1A C1A 1_555 1_555
C2A C1A 1_555 1_555
H2A C2A 1_555 1_555
C3A C2A 1_555 1_555
H3A C3A 1_555 1_555
C4A C3A 1_555 1_555
H4A C4A 1_555 1_555
C5A N1A 1_555 1_555
C6A N2A 1_555 1_555
H5A C6A 1_555 1_555
C7A N2A 1_555 1_555
C8A C7A 1_555 1_555
H6A C8A 1_555 1_555
C9A S1A 1_555 1_555
C10A C9A 1_555 1_555
C11A C10A 1_555 1_555
H7A C11A 1_555 1_555
C12A C7A 1_555 1_555
H8A C12A 1_555 1_555
S1B O1B 1_555 1_555
O2B S1B 1_555 1_555
O3B S1B 1_555 1_555
N1B Ni1B 1_555 1_555
N2B Ni1B 1_555 1_555
C1B N1B 1_555 1_555
H1B C1B 1_555 1_555
C2B C1B 1_555 1_555
H2B C2B 1_555 1_555
C3B C2B 1_555 1_555
H3B C3B 1_555 1_555
C4B C3B 1_555 1_555
H4B C4B 1_555 1_555
C5B N1B 1_555 1_555
C6B N2B 1_555 1_555
H5B C6B 1_555 1_555
C7B N2B 1_555 1_555
C8B C7B 1_555 1_555
H6B C8B 1_555 1_555
C9B S1B 1_555 1_555
C10B C10A 1_555 1_555
C11B C10B 1_555 1_555
H7B C11B 1_555 1_555
C12B C7B 1_555 1_555
H8B C12B 1_555 1_555
O4J Ni2 1_555 1_555
O4K Ni2 1_555 1_555
O4FC Ni2 1_555 1_555
O4PC Ni2 1_555 1_555
O4QC Ni2 1_555 1_555
C4 C5 1_555 1_555
C5 C6 1_555 1_555
C8 C9 1_555 1_555
C11 C12 1_555 1_555
N2C Ni1C 1_555 1_555
C4C C5C 1_555 1_555
C8C C9C 1_555 1_555
C9C C10C 1_555 1_555
C11C C12C 1_555 1_555
C4D C5D 1_555 1_555
C5D C6D 1_555 1_555
C8D C9D 1_555 1_555
C11D C12D 1_555 1_555
N2F Ni1A 1_555 1_555
C4F C5F 1_555 1_555
C8F C9F 1_555 1_555
C9F C10F 1_555 1_555
C11F C12F 1_555 1_555
C4E C5E 1_555 1_555
C5E C6E 1_555 1_555
C8E C9E 1_555 1_555
C11E C12E 1_555 1_555
N2K Ni1B 1_555 1_555
C4K C5K 1_555 1_555
C8K C9K 1_555 1_555
C9K C10K 1_555 1_555
C11K C12K 1_555 1_555
C4G C5G 1_555 1_555
C5G C6G 1_555 1_555
C8G C9G 1_555 1_555
C11G C12G 1_555 1_555
C4I C5I 1_555 1_555
C5I C6I 1_555 1_555
C8I C9I 1_555 1_555
C9I C10I 1_555 1_555
C11I C12I 1_555 1_555
C4H C5H 1_555 1_555
C5H C6H 1_555 1_555
C8H C9H 1_555 1_555
C11H C12H 1_555 1_555
C4J C5J 1_555 1_555
C5J C6J 1_555 1_555
C8J C9J 1_555 1_555
C9J C10J 1_555 1_555
C11J C12J 1_555 1_555
C4A C5A 1_555 1_555
C5A C6A 1_555 1_555
C8A C9A 1_555 1_555
C11A C12A 1_555 1_555
C4B C5B 1_555 1_555
C5B C6B 1_555 1_555
C8B C9B 1_555 1_555
C9B C10B 1_555 1_555
C11B C12B 1_555 1_555

#END
