# generated using pymatgen
data_Fe6H97C149S12N24Cl3O164
_symmetry_space_group_name_H-M   'P 1'
_cell_length_a   21.93810000
_cell_length_b   32.68600000
_cell_length_c   33.32670000
_cell_angle_alpha   90.00000000
_cell_angle_beta   90.00000000
_cell_angle_gamma   90.75310000
_symmetry_Int_Tables_number   1
_chemical_formula_structural   Fe6H97C149S12N24Cl3O164
_chemical_formula_sum   'Fe24 H388 C596 S48 N96 Cl12 O656'
_cell_volume   23895.47034470
_cell_formula_units_Z   4
loop_
 _symmetry_equiv_pos_site_id
 _symmetry_equiv_pos_as_xyz
  1  'x, y, z'
loop_
 _atom_site_type_symbol
 _atom_site_label
 _atom_site_symmetry_multiplicity
 _atom_site_fract_x
 _atom_site_fract_y
 _atom_site_fract_z
 _atom_site_occupancy
  Fe  Fe1  1  0.833560  0.941020  0.030270  1
  Fe  Fe2  1  0.666440  0.558980  0.530270  1
  Fe  Fe3  1  0.166440  0.058980  0.969730  1
  Fe  Fe4  1  0.333560  0.441020  0.469730  1
  Fe  Fe5  1  0.078120  0.674130  0.255760  1
  Fe  Fe6  1  0.421880  0.825870  0.755760  1
  Fe  Fe7  1  0.921880  0.325870  0.744240  1
  Fe  Fe8  1  0.578120  0.174130  0.244240  1
  Fe  Fe9  1  0.029340  0.040540  0.381560  1
  Fe  Fe10  1  0.470660  0.459460  0.881560  1
  Fe  Fe11  1  0.970660  0.959460  0.618440  1
  Fe  Fe12  1  0.529340  0.540540  0.118440  1
  Fe  Fe13  1  0.549720  0.813020  0.345930  1
  Fe  Fe14  1  0.950280  0.686980  0.845930  1
  Fe  Fe15  1  0.450280  0.186980  0.654070  1
  Fe  Fe16  1  0.049720  0.313020  0.154070  1
  Fe  Fe17  1  0.726990  0.784830  0.541450  1
  Fe  Fe18  1  0.773010  0.715170  0.041450  1
  Fe  Fe19  1  0.273010  0.215170  0.458550  1
  Fe  Fe20  1  0.226990  0.284830  0.958550  1
  Fe  Fe21  1  0.251370  0.967120  0.233900  1
  Fe  Fe22  1  0.248630  0.532880  0.733900  1
  Fe  Fe23  1  0.748630  0.032880  0.766100  1
  Fe  Fe24  1  0.751370  0.467120  0.266100  1
  H  H25  1  0.733700  0.974100  0.973600  1
  H  H26  1  0.766300  0.525900  0.473600  1
  H  H27  1  0.266300  0.025900  0.026400  1
  H  H28  1  0.233700  0.474100  0.526400  1
  H  H29  1  0.655100  0.945700  0.936200  1
  H  H30  1  0.844900  0.554300  0.436200  1
  H  H31  1  0.344900  0.054300  0.063800  1
  H  H32  1  0.155100  0.445700  0.563800  1
  H  H33  1  0.633400  0.876000  0.941300  1
  H  H34  1  0.866600  0.624000  0.441300  1
  H  H35  1  0.366600  0.124000  0.058700  1
  H  H36  1  0.133400  0.376000  0.558700  1
  H  H37  1  0.695000  0.836200  0.980600  1
  H  H38  1  0.805000  0.663800  0.480600  1
  H  H39  1  0.305000  0.163800  0.019400  1
  H  H40  1  0.195000  0.336200  0.519400  1
  H  H41  1  0.788100  0.832700  0.029800  1
  H  H42  1  0.711900  0.667300  0.529800  1
  H  H43  1  0.211900  0.167300  0.970200  1
  H  H44  1  0.288100  0.332700  0.470200  1
  H  H45  1  0.949000  0.874000  0.041100  1
  H  H46  1  0.551000  0.626000  0.541100  1
  H  H47  1  0.051000  0.126000  0.958900  1
  H  H48  1  0.449000  0.374000  0.458900  1
  H  H49  1  0.872000  0.802200  0.149700  1
  H  H50  1  0.628000  0.697800  0.649700  1
  H  H51  1  0.128000  0.197800  0.850300  1
  H  H52  1  0.372000  0.302200  0.350300  1
  H  H53  1  0.806200  0.840100  0.109500  1
  H  H54  1  0.693800  0.659900  0.609500  1
  H  H55  1  0.193800  0.159900  0.890500  1
  H  H56  1  0.306200  0.340100  0.390500  1
  H  H57  1  0.176200  0.632500  0.307700  1
  H  H58  1  0.323800  0.867500  0.807700  1
  H  H59  1  0.823800  0.367500  0.692300  1
  H  H60  1  0.676200  0.132500  0.192300  1
  H  H61  1  0.281300  0.642400  0.318900  1
  H  H62  1  0.218700  0.857600  0.818900  1
  H  H63  1  0.718700  0.357600  0.681100  1
  H  H64  1  0.781300  0.142400  0.181100  1
  H  H65  1  0.333300  0.690500  0.284300  1
  H  H66  1  0.166700  0.809500  0.784300  1
  H  H67  1  0.666700  0.309500  0.715700  1
  H  H68  1  0.833300  0.190500  0.215700  1
  H  H69  1  0.280200  0.733400  0.240700  1
  H  H70  1  0.219800  0.766600  0.740700  1
  H  H71  1  0.719800  0.266600  0.759300  1
  H  H72  1  0.780200  0.233400  0.259300  1
  H  H73  1  0.177000  0.750800  0.207000  1
  H  H74  1  0.323000  0.749200  0.707000  1
  H  H75  1  0.823000  0.249200  0.793000  1
  H  H76  1  0.677000  0.250800  0.293000  1
  H  H77  1  0.049700  0.702700  0.157800  1
  H  H78  1  0.450300  0.797300  0.657800  1
  H  H79  1  0.950300  0.297300  0.842200  1
  H  H80  1  0.549700  0.202700  0.342200  1
  H  H81  1  0.004300  0.834400  0.189000  1
  H  H82  1  0.495700  0.665600  0.689000  1
  H  H83  1  0.995700  0.165600  0.811000  1
  H  H84  1  0.504300  0.334400  0.311000  1
  H  H85  1  0.064900  0.797500  0.231300  1
  H  H86  1  0.435100  0.702500  0.731300  1
  H  H87  1  0.935100  0.202500  0.768700  1
  H  H88  1  0.564900  0.297500  0.268700  1
  H  H89  1  0.843700  0.909200  0.943000  1
  H  H90  1  0.656300  0.590800  0.443000  1
  H  H91  1  0.156300  0.090800  0.057000  1
  H  H92  1  0.343700  0.409200  0.557000  1
  H  H93  1  0.921300  0.902000  0.896600  1
  H  H94  1  0.578700  0.598000  0.396600  1
  H  H95  1  0.078700  0.098000  0.103400  1
  H  H96  1  0.421300  0.402000  0.603400  1
  H  H97  1  0.020200  0.917700  0.914600  1
  H  H98  1  0.479800  0.582300  0.414600  1
  H  H99  1  0.979800  0.082300  0.085400  1
  H  H100  1  0.520200  0.417700  0.585400  1
  H  H101  1  0.039800  0.942800  0.978700  1
  H  H102  1  0.460200  0.557200  0.478700  1
  H  H103  1  0.960200  0.057200  0.021300  1
  H  H104  1  0.539800  0.442800  0.521300  1
  H  H105  1  0.995200  0.961500  0.050200  1
  H  H106  1  0.504800  0.538500  0.550200  1
  H  H107  1  0.004800  0.038500  0.949800  1
  H  H108  1  0.495200  0.461500  0.449800  1
  H  H109  1  0.880800  0.023900  0.092300  1
  H  H110  1  0.619200  0.476100  0.592300  1
  H  H111  1  0.119200  0.976100  0.907700  1
  H  H112  1  0.380800  0.523900  0.407700  1
  H  H113  1  0.964000  0.940000  0.187200  1
  H  H114  1  0.536000  0.560000  0.687200  1
  H  H115  1  0.036000  0.060000  0.812800  1
  H  H116  1  0.464000  0.440000  0.312800  1
  H  H117  1  0.948600  0.915900  0.123300  1
  H  H118  1  0.551400  0.584100  0.623300  1
  H  H119  1  0.051400  0.084100  0.876700  1
  H  H120  1  0.448600  0.415900  0.376700  1
  H  H121  1  0.023900  0.084400  0.464100  1
  H  H122  1  0.476100  0.415600  0.964100  1
  H  H123  1  0.976100  0.915600  0.535900  1
  H  H124  1  0.523900  0.584400  0.035900  1
  H  H125  1  0.962800  0.132900  0.492700  1
  H  H126  1  0.537200  0.367100  0.992700  1
  H  H127  1  0.037200  0.867100  0.507300  1
  H  H128  1  0.462800  0.632900  0.007300  1
  H  H129  1  0.881000  0.158600  0.457600  1
  H  H130  1  0.619000  0.341400  0.957600  1
  H  H131  1  0.119000  0.841400  0.542400  1
  H  H132  1  0.381000  0.658600  0.042400  1
  H  H133  1  0.866500  0.138400  0.390400  1
  H  H134  1  0.633500  0.361600  0.890400  1
  H  H135  1  0.133500  0.861600  0.609600  1
  H  H136  1  0.366500  0.638400  0.109600  1
  H  H137  1  0.897400  0.089000  0.333200  1
  H  H138  1  0.602600  0.411000  0.833200  1
  H  H139  1  0.102600  0.911000  0.666800  1
  H  H140  1  0.397400  0.589000  0.166800  1
  H  H141  1  0.040700  0.054400  0.279800  1
  H  H142  1  0.459300  0.445600  0.779800  1
  H  H143  1  0.959300  0.945600  0.720200  1
  H  H144  1  0.540700  0.554400  0.220200  1
  H  H145  1  0.861800  0.990300  0.243700  1
  H  H146  1  0.638200  0.509700  0.743700  1
  H  H147  1  0.138200  0.009700  0.756300  1
  H  H148  1  0.361800  0.490300  0.256300  1
  H  H149  1  0.875200  0.012500  0.309600  1
  H  H150  1  0.624800  0.487500  0.809600  1
  H  H151  1  0.124800  0.987500  0.690400  1
  H  H152  1  0.375200  0.512500  0.190400  1
  H  H153  1  0.874100  0.004100  0.965300  1
  H  H154  1  0.625900  0.495900  0.465300  1
  H  H155  1  0.125900  0.995900  0.034700  1
  H  H156  1  0.374100  0.504100  0.534700  1
  H  H157  1  0.859500  0.073500  0.954800  1
  H  H158  1  0.640500  0.426500  0.454800  1
  H  H159  1  0.140500  0.926500  0.045200  1
  H  H160  1  0.359500  0.573500  0.545200  1
  H  H161  1  0.803200  0.110200  0.999900  1
  H  H162  1  0.696800  0.389800  0.499900  1
  H  H163  1  0.196800  0.889800  0.000100  1
  H  H164  1  0.303200  0.610200  0.500100  1
  H  H165  1  0.758200  0.077000  0.055000  1
  H  H166  1  0.741800  0.423000  0.555000  1
  H  H167  1  0.241800  0.923000  0.945000  1
  H  H168  1  0.258200  0.577000  0.445000  1
  H  H169  1  0.739900  0.009500  0.092600  1
  H  H170  1  0.760100  0.490500  0.592600  1
  H  H171  1  0.260100  0.990500  0.907400  1
  H  H172  1  0.239900  0.509500  0.407400  1
  H  H173  1  0.703800  0.897500  0.070600  1
  H  H174  1  0.796200  0.602500  0.570600  1
  H  H175  1  0.296200  0.102500  0.929400  1
  H  H176  1  0.203800  0.397500  0.429400  1
  H  H177  1  0.738900  0.931700  0.202200  1
  H  H178  1  0.761100  0.568300  0.702200  1
  H  H179  1  0.261100  0.068300  0.797800  1
  H  H180  1  0.238900  0.431700  0.297800  1
  H  H181  1  0.791900  0.965600  0.152500  1
  H  H182  1  0.708100  0.534400  0.652500  1
  H  H183  1  0.208100  0.034400  0.847500  1
  H  H184  1  0.291900  0.465600  0.347500  1
  H  H185  1  0.493700  0.743800  0.400100  1
  H  H186  1  0.006300  0.756200  0.900100  1
  H  H187  1  0.506300  0.256200  0.599900  1
  H  H188  1  0.993700  0.243800  0.099900  1
  H  H189  1  0.457800  0.678900  0.388800  1
  H  H190  1  0.042200  0.821100  0.888800  1
  H  H191  1  0.542200  0.321100  0.611200  1
  H  H192  1  0.957800  0.178900  0.111200  1
  H  H193  1  0.458700  0.651000  0.326400  1
  H  H194  1  0.041300  0.849000  0.826400  1
  H  H195  1  0.541300  0.349000  0.673600  1
  H  H196  1  0.958700  0.151000  0.173600  1
  H  H197  1  0.492000  0.690800  0.273500  1
  H  H198  1  0.008000  0.809200  0.773500  1
  H  H199  1  0.508000  0.309200  0.726500  1
  H  H200  1  0.992000  0.190800  0.226500  1
  H  H201  1  0.543200  0.759300  0.249100  1
  H  H202  1  0.956800  0.740700  0.749100  1
  H  H203  1  0.456800  0.240700  0.750900  1
  H  H204  1  0.043200  0.259300  0.250900  1
  H  H205  1  0.536700  0.869500  0.255300  1
  H  H206  1  0.963300  0.630500  0.755300  1
  H  H207  1  0.463300  0.130500  0.744700  1
  H  H208  1  0.036700  0.369500  0.244700  1
  H  H209  1  0.719100  0.825600  0.205400  1
  H  H210  1  0.780900  0.674400  0.705400  1
  H  H211  1  0.280900  0.174400  0.794600  1
  H  H212  1  0.219100  0.325600  0.294600  1
  H  H213  1  0.670000  0.788300  0.254400  1
  H  H214  1  0.830000  0.711700  0.754400  1
  H  H215  1  0.330000  0.211700  0.745600  1
  H  H216  1  0.170000  0.288300  0.245600  1
  H  H217  1  0.076500  0.578600  0.257600  1
  H  H218  1  0.423500  0.921400  0.757600  1
  H  H219  1  0.923500  0.421400  0.742400  1
  H  H220  1  0.576500  0.078600  0.242400  1
  H  H221  1  0.050200  0.529800  0.305500  1
  H  H222  1  0.449800  0.970200  0.805500  1
  H  H223  1  0.949800  0.470200  0.694500  1
  H  H224  1  0.550200  0.029800  0.194500  1
  H  H225  1  0.025800  0.548900  0.369800  1
  H  H226  1  0.474200  0.951100  0.869800  1
  H  H227  1  0.974200  0.451100  0.630200  1
  H  H228  1  0.525800  0.048900  0.130200  1
  H  H229  1  0.022400  0.617100  0.384400  1
  H  H230  1  0.477600  0.882900  0.884400  1
  H  H231  1  0.977600  0.382900  0.615600  1
  H  H232  1  0.522400  0.117100  0.115600  1
  H  H233  1  0.034900  0.692000  0.360600  1
  H  H234  1  0.465100  0.808000  0.860600  1
  H  H235  1  0.965100  0.308000  0.639400  1
  H  H236  1  0.534900  0.192000  0.139400  1
  H  H237  1  0.147700  0.755500  0.300300  1
  H  H238  1  0.352300  0.744500  0.800300  1
  H  H239  1  0.852300  0.244500  0.699700  1
  H  H240  1  0.647700  0.255500  0.199700  1
  H  H241  1  0.971600  0.823000  0.334100  1
  H  H242  1  0.528400  0.677000  0.834100  1
  H  H243  1  0.028400  0.177000  0.665900  1
  H  H244  1  0.471600  0.323000  0.165900  1
  H  H245  1  0.969200  0.753100  0.324100  1
  H  H246  1  0.530800  0.746900  0.824100  1
  H  H247  1  0.030800  0.246900  0.675900  1
  H  H248  1  0.469200  0.253100  0.175900  1
  H  H249  1  0.059700  0.132700  0.385200  1
  H  H250  1  0.440300  0.367300  0.885200  1
  H  H251  1  0.940300  0.867300  0.614800  1
  H  H252  1  0.559700  0.632700  0.114800  1
  H  H253  1  0.140700  0.173500  0.364500  1
  H  H254  1  0.359300  0.326500  0.864500  1
  H  H255  1  0.859300  0.826500  0.635500  1
  H  H256  1  0.640700  0.673500  0.135500  1
  H  H257  1  0.216200  0.146900  0.325300  1
  H  H258  1  0.283800  0.353100  0.825300  1
  H  H259  1  0.783800  0.853100  0.674700  1
  H  H260  1  0.716200  0.646900  0.174700  1
  H  H261  1  0.208700  0.079000  0.306000  1
  H  H262  1  0.291300  0.421000  0.806000  1
  H  H263  1  0.791300  0.921000  0.694000  1
  H  H264  1  0.708700  0.579000  0.194000  1
  H  H265  1  0.150600  0.009300  0.313100  1
  H  H266  1  0.349400  0.490700  0.813100  1
  H  H267  1  0.849400  0.990700  0.686900  1
  H  H268  1  0.650600  0.509300  0.186900  1
  H  H269  1  0.089500  0.946300  0.397300  1
  H  H270  1  0.410500  0.553700  0.897300  1
  H  H271  1  0.910500  0.053700  0.602700  1
  H  H272  1  0.589500  0.446300  0.102700  1
  H  H273  1  0.048700  0.893100  0.271700  1
  H  H274  1  0.451300  0.606900  0.771700  1
  H  H275  1  0.951300  0.106900  0.728300  1
  H  H276  1  0.548700  0.393100  0.228300  1
  H  H277  1  0.053900  0.963900  0.281500  1
  H  H278  1  0.446100  0.536100  0.781500  1
  H  H279  1  0.946100  0.036100  0.718500  1
  H  H280  1  0.553900  0.463900  0.218500  1
  H  H281  1  0.176000  0.630600  0.203900  1
  H  H282  1  0.324000  0.869400  0.703900  1
  H  H283  1  0.824000  0.369400  0.796100  1
  H  H284  1  0.676000  0.130600  0.296100  1
  H  H285  1  0.176900  0.594600  0.146000  1
  H  H286  1  0.323100  0.905400  0.646000  1
  H  H287  1  0.823100  0.405400  0.854000  1
  H  H288  1  0.676900  0.094600  0.354000  1
  H  H289  1  0.086500  0.576400  0.115100  1
  H  H290  1  0.413500  0.923600  0.615100  1
  H  H291  1  0.913500  0.423600  0.884900  1
  H  H292  1  0.586500  0.076400  0.384900  1
  H  H293  1  0.993700  0.600800  0.142000  1
  H  H294  1  0.506300  0.899200  0.642000  1
  H  H295  1  0.006300  0.399200  0.858000  1
  H  H296  1  0.493700  0.100800  0.358000  1
  H  H297  1  0.942900  0.643800  0.197900  1
  H  H298  1  0.557100  0.856200  0.697900  1
  H  H299  1  0.057100  0.356200  0.802100  1
  H  H300  1  0.442900  0.143800  0.302100  1
  H  H301  1  0.933600  0.650100  0.301600  1
  H  H302  1  0.566400  0.849900  0.801600  1
  H  H303  1  0.066400  0.349900  0.698400  1
  H  H304  1  0.433600  0.150100  0.198400  1
  H  H305  1  0.845100  0.762900  0.246800  1
  H  H306  1  0.654900  0.737100  0.746800  1
  H  H307  1  0.154900  0.237100  0.753200  1
  H  H308  1  0.345100  0.262900  0.253200  1
  H  H309  1  0.929600  0.735900  0.216300  1
  H  H310  1  0.570400  0.764100  0.716300  1
  H  H311  1  0.070400  0.264100  0.783700  1
  H  H312  1  0.429600  0.235900  0.283700  1
  H  H313  1  0.451800  0.845400  0.403700  1
  H  H314  1  0.048200  0.654600  0.903700  1
  H  H315  1  0.548200  0.154600  0.596300  1
  H  H316  1  0.951800  0.345400  0.096300  1
  H  H317  1  0.444000  0.848700  0.474800  1
  H  H318  1  0.056000  0.651300  0.974800  1
  H  H319  1  0.556000  0.151300  0.525200  1
  H  H320  1  0.944000  0.348700  0.025200  1
  H  H321  1  0.515700  0.820800  0.514400  1
  H  H322  1  0.984300  0.679200  0.014400  1
  H  H323  1  0.484300  0.179200  0.485600  1
  H  H324  1  0.015700  0.320800  0.985600  1
  H  H325  1  0.601300  0.792900  0.485200  1
  H  H326  1  0.898700  0.707100  0.985200  1
  H  H327  1  0.398700  0.207100  0.514800  1
  H  H328  1  0.101300  0.292900  0.014800  1
  H  H329  1  0.660100  0.775600  0.420200  1
  H  H330  1  0.839900  0.724400  0.920200  1
  H  H331  1  0.339900  0.224400  0.579800  1
  H  H332  1  0.160100  0.275600  0.079800  1
  H  H333  1  0.634100  0.733400  0.315000  1
  H  H334  1  0.865900  0.766600  0.815000  1
  H  H335  1  0.365900  0.266600  0.685000  1
  H  H336  1  0.134100  0.233400  0.185000  1
  H  H337  1  0.824300  0.785400  0.343600  1
  H  H338  1  0.675700  0.714600  0.843600  1
  H  H339  1  0.175700  0.214600  0.656400  1
  H  H340  1  0.324300  0.285400  0.156400  1
  H  H341  1  0.740300  0.813400  0.373800  1
  H  H342  1  0.759700  0.686600  0.873800  1
  H  H343  1  0.259700  0.186600  0.626200  1
  H  H344  1  0.240300  0.313400  0.126200  1
  H  H345  1  0.151100  0.065400  0.421500  1
  H  H346  1  0.348900  0.434600  0.921500  1
  H  H347  1  0.848900  0.934600  0.578500  1
  H  H348  1  0.651100  0.565400  0.078500  1
  H  H349  1  0.206500  0.045600  0.476900  1
  H  H350  1  0.293500  0.454400  0.976900  1
  H  H351  1  0.793500  0.954400  0.523100  1
  H  H352  1  0.706500  0.545600  0.023100  1
  H  H353  1  0.167600  0.994100  0.517800  1
  H  H354  1  0.332400  0.505900  0.017800  1
  H  H355  1  0.832400  0.005900  0.482200  1
  H  H356  1  0.667600  0.494100  0.982200  1
  H  H357  1  0.076000  0.962700  0.500800  1
  H  H358  1  0.424000  0.537300  0.000800  1
  H  H359  1  0.924000  0.037300  0.499200  1
  H  H360  1  0.576000  0.462700  0.999200  1
  H  H361  1  0.983000  0.960600  0.453200  1
  H  H362  1  0.517000  0.539400  0.953200  1
  H  H363  1  0.017000  0.039400  0.546800  1
  H  H364  1  0.483000  0.460600  0.046800  1
  H  H365  1  0.873800  0.028100  0.407300  1
  H  H366  1  0.626200  0.471900  0.907300  1
  H  H367  1  0.126200  0.971900  0.592700  1
  H  H368  1  0.373800  0.528100  0.092700  1
  H  H369  1  0.861900  0.896500  0.357300  1
  H  H370  1  0.638100  0.603500  0.857300  1
  H  H371  1  0.138100  0.103500  0.642700  1
  H  H372  1  0.361900  0.396500  0.142700  1
  H  H373  1  0.956000  0.924600  0.371700  1
  H  H374  1  0.544000  0.575400  0.871700  1
  H  H375  1  0.044000  0.075400  0.628300  1
  H  H376  1  0.456000  0.424600  0.128300  1
  H  H377  1  0.414300  0.791600  0.327100  1
  H  H378  1  0.085700  0.708400  0.827100  1
  H  H379  1  0.585700  0.208400  0.672900  1
  H  H380  1  0.914300  0.291600  0.172900  1
  H  H381  1  0.331700  0.827100  0.307200  1
  H  H382  1  0.168300  0.672900  0.807200  1
  H  H383  1  0.668300  0.172900  0.692800  1
  H  H384  1  0.831700  0.327100  0.192800  1
  H  H385  1  0.335700  0.895600  0.298700  1
  H  H386  1  0.164300  0.604400  0.798700  1
  H  H387  1  0.664300  0.104400  0.701300  1
  H  H388  1  0.835700  0.395600  0.201300  1
  H  H389  1  0.428100  0.930800  0.310700  1
  H  H390  1  0.071900  0.569200  0.810700  1
  H  H391  1  0.571900  0.069200  0.689300  1
  H  H392  1  0.928100  0.430800  0.189300  1
  H  H393  1  0.542300  0.923800  0.330400  1
  H  H394  1  0.957700  0.576200  0.830400  1
  H  H395  1  0.457700  0.076200  0.669600  1
  H  H396  1  0.042300  0.423800  0.169600  1
  H  H397  1  0.644100  0.869300  0.407000  1
  H  H398  1  0.855900  0.630700  0.907000  1
  H  H399  1  0.355900  0.130700  0.593000  1
  H  H400  1  0.144100  0.369300  0.093000  1
  H  H401  1  0.744200  0.941300  0.306800  1
  H  H402  1  0.755800  0.558700  0.806800  1
  H  H403  1  0.255800  0.058700  0.693200  1
  H  H404  1  0.244200  0.441300  0.193200  1
  H  H405  1  0.651200  0.910800  0.293100  1
  H  H406  1  0.848800  0.589200  0.793100  1
  H  H407  1  0.348800  0.089200  0.706900  1
  H  H408  1  0.151200  0.410800  0.206900  1
  H  H409  1  0.827200  0.905900  0.247100  1
  H  H410  1  0.672800  0.594100  0.747100  1
  H  H411  1  0.172800  0.094100  0.752900  1
  H  H412  1  0.327200  0.405900  0.252900  1
  C  C413  1  0.726700  0.946000  0.974800  1
  C  C414  1  0.773300  0.554000  0.474800  1
  C  C415  1  0.273300  0.054000  0.025200  1
  C  C416  1  0.226700  0.446000  0.525200  1
  C  C417  1  0.678600  0.929100  0.952600  1
  C  C418  1  0.821400  0.570900  0.452600  1
  C  C419  1  0.321400  0.070900  0.047400  1
  C  C420  1  0.178600  0.429100  0.547400  1
  C  C421  1  0.666000  0.887600  0.955200  1
  C  C422  1  0.834000  0.612400  0.455200  1
  C  C423  1  0.334000  0.112400  0.044800  1
  C  C424  1  0.166000  0.387600  0.544800  1
  C  C425  1  0.702400  0.864200  0.978600  1
  C  C426  1  0.797600  0.635800  0.478600  1
  C  C427  1  0.297600  0.135800  0.021400  1
  C  C428  1  0.202400  0.364200  0.521400  1
  C  C429  1  0.750400  0.881900  0.999400  1
  C  C430  1  0.749600  0.618100  0.499400  1
  C  C431  1  0.249600  0.118100  0.000600  1
  C  C432  1  0.250400  0.381900  0.500600  1
  C  C433  1  0.791200  0.860800  0.026000  1
  C  C434  1  0.708800  0.639200  0.526000  1
  C  C435  1  0.208800  0.139200  0.974000  1
  C  C436  1  0.291200  0.360800  0.474000  1
  C  C437  1  0.871200  0.859600  0.071000  1
  C  C438  1  0.628800  0.640400  0.571000  1
  C  C439  1  0.128800  0.140400  0.929000  1
  C  C440  1  0.371200  0.359600  0.429000  1
  C  C441  1  0.933600  0.859900  0.063300  1
  C  C442  1  0.566400  0.640100  0.563300  1
  C  C443  1  0.066400  0.140100  0.936700  1
  C  C444  1  0.433600  0.359900  0.436700  1
  C  C445  1  0.972100  0.839600  0.088000  1
  C  C446  1  0.527900  0.660400  0.588000  1
  C  C447  1  0.027900  0.160400  0.912000  1
  C  C448  1  0.472100  0.339600  0.412000  1
  C  C449  1  0.950100  0.817200  0.120300  1
  C  C450  1  0.549900  0.682800  0.620300  1
  C  C451  1  0.049900  0.182800  0.879700  1
  C  C452  1  0.450100  0.317200  0.379700  1
  C  C453  1  0.887400  0.817100  0.128100  1
  C  C454  1  0.612600  0.682900  0.628100  1
  C  C455  1  0.112600  0.182900  0.871900  1
  C  C456  1  0.387400  0.317100  0.371900  1
  C  C457  1  0.847600  0.839200  0.103700  1
  C  C458  1  0.652400  0.660800  0.603700  1
  C  C459  1  0.152400  0.160800  0.896300  1
  C  C460  1  0.347600  0.339200  0.396300  1
  C  C461  1  0.196900  0.653000  0.293800  1
  C  C462  1  0.303100  0.847000  0.793800  1
  C  C463  1  0.803100  0.347000  0.706200  1
  C  C464  1  0.696900  0.153000  0.206200  1
  C  C465  1  0.261200  0.658800  0.300500  1
  C  C466  1  0.238800  0.841200  0.800500  1
  C  C467  1  0.738800  0.341200  0.699500  1
  C  C468  1  0.761200  0.158800  0.199500  1
  C  C469  1  0.291500  0.687200  0.280800  1
  C  C470  1  0.208500  0.812800  0.780800  1
  C  C471  1  0.708500  0.312800  0.719200  1
  C  C472  1  0.791500  0.187200  0.219200  1
  C  C473  1  0.260000  0.712400  0.254300  1
  C  C474  1  0.240000  0.787600  0.754300  1
  C  C475  1  0.740000  0.287600  0.745700  1
  C  C476  1  0.760000  0.212400  0.245700  1
  C  C477  1  0.198600  0.705700  0.248800  1
  C  C478  1  0.301400  0.794300  0.748800  1
  C  C479  1  0.801400  0.294300  0.751200  1
  C  C480  1  0.698600  0.205700  0.251200  1
  C  C481  1  0.160600  0.730200  0.223100  1
  C  C482  1  0.339400  0.769800  0.723100  1
  C  C483  1  0.839400  0.269800  0.776900  1
  C  C484  1  0.660600  0.230200  0.276900  1
  C  C485  1  0.064300  0.747000  0.197700  1
  C  C486  1  0.435700  0.753000  0.697700  1
  C  C487  1  0.935700  0.253000  0.802300  1
  C  C488  1  0.564300  0.247000  0.302300  1
  C  C489  1  0.040700  0.729700  0.164100  1
  C  C490  1  0.459300  0.770300  0.664100  1
  C  C491  1  0.959300  0.270300  0.835900  1
  C  C492  1  0.540700  0.229700  0.335900  1
  C  C493  1  0.003900  0.751600  0.139500  1
  C  C494  1  0.496100  0.748400  0.639500  1
  C  C495  1  0.996100  0.248400  0.860500  1
  C  C496  1  0.503900  0.251600  0.360500  1
  C  C497  1  0.990500  0.792600  0.147200  1
  C  C498  1  0.509500  0.707400  0.647200  1
  C  C499  1  0.009500  0.207400  0.852800  1
  C  C500  1  0.490500  0.292600  0.352800  1
  C  C501  1  0.013600  0.807600  0.182000  1
  C  C502  1  0.486400  0.692400  0.682000  1
  C  C503  1  0.986400  0.192400  0.818000  1
  C  C504  1  0.513600  0.307600  0.318000  1
  C  C505  1  0.050200  0.785800  0.207700  1
  C  C506  1  0.449800  0.714200  0.707700  1
  C  C507  1  0.949800  0.214200  0.792300  1
  C  C508  1  0.550200  0.285800  0.292300  1
  C  C509  1  0.883300  0.916400  0.950500  1
  C  C510  1  0.616700  0.583600  0.450500  1
  C  C511  1  0.116700  0.083600  0.049500  1
  C  C512  1  0.383300  0.416400  0.549500  1
  C  C513  1  0.930100  0.911600  0.922300  1
  C  C514  1  0.569900  0.588400  0.422300  1
  C  C515  1  0.069900  0.088400  0.077700  1
  C  C516  1  0.430100  0.411600  0.577700  1
  C  C517  1  0.988600  0.921100  0.932800  1
  C  C518  1  0.511400  0.578900  0.432800  1
  C  C519  1  0.011400  0.078900  0.067200  1
  C  C520  1  0.488600  0.421100  0.567200  1
  C  C521  1  0.000300  0.935900  0.971000  1
  C  C522  1  0.499700  0.564100  0.471000  1
  C  C523  1  0.999700  0.064100  0.029000  1
  C  C524  1  0.500300  0.435900  0.529000  1
  C  C525  1  0.951800  0.940100  0.997700  1
  C  C526  1  0.548200  0.559900  0.497700  1
  C  C527  1  0.048200  0.059900  0.002300  1
  C  C528  1  0.451800  0.440100  0.502300  1
  C  C529  1  0.957700  0.954100  0.039300  1
  C  C530  1  0.542300  0.545900  0.539300  1
  C  C531  1  0.042300  0.045900  0.960700  1
  C  C532  1  0.457700  0.454100  0.460700  1
  C  C533  1  0.914900  0.968600  0.100900  1
  C  C534  1  0.585100  0.531400  0.600900  1
  C  C535  1  0.085100  0.031400  0.899100  1
  C  C536  1  0.414900  0.468600  0.399100  1
  C  C537  1  0.897600  0.006800  0.111700  1
  C  C538  1  0.602400  0.493200  0.611700  1
  C  C539  1  0.102400  0.993200  0.888300  1
  C  C540  1  0.397600  0.506800  0.388300  1
  C  C541  1  0.904100  0.021300  0.150700  1
  C  C542  1  0.595900  0.478700  0.650700  1
  C  C543  1  0.095900  0.978700  0.849300  1
  C  C544  1  0.404100  0.521300  0.349300  1
  C  C545  1  0.929900  0.996100  0.179400  1
  C  C546  1  0.570100  0.503900  0.679400  1
  C  C547  1  0.070100  0.003900  0.820600  1
  C  C548  1  0.429900  0.496100  0.320600  1
  C  C549  1  0.946600  0.957100  0.168200  1
  C  C550  1  0.553400  0.542900  0.668200  1
  C  C551  1  0.053400  0.042900  0.831800  1
  C  C552  1  0.446600  0.457100  0.331800  1
  C  C553  1  0.938500  0.942600  0.129800  1
  C  C554  1  0.561500  0.557400  0.629800  1
  C  C555  1  0.061500  0.057400  0.870200  1
  C  C556  1  0.438500  0.442600  0.370200  1
  C  C557  1  0.991700  0.094900  0.449400  1
  C  C558  1  0.508300  0.405100  0.949400  1
  C  C559  1  0.008300  0.905100  0.550600  1
  C  C560  1  0.491700  0.594900  0.050600  1
  C  C561  1  0.954900  0.124000  0.466700  1
  C  C562  1  0.545100  0.376000  0.966700  1
  C  C563  1  0.045100  0.876000  0.533300  1
  C  C564  1  0.454900  0.624000  0.033300  1
  C  C565  1  0.906700  0.139800  0.445700  1
  C  C566  1  0.593300  0.360200  0.945700  1
  C  C567  1  0.093300  0.860200  0.554300  1
  C  C568  1  0.406700  0.639800  0.054300  1
  C  C569  1  0.897200  0.127100  0.406000  1
  C  C570  1  0.602800  0.372900  0.906000  1
  C  C571  1  0.102800  0.872900  0.594000  1
  C  C572  1  0.397200  0.627100  0.094000  1
  C  C573  1  0.935000  0.097100  0.390500  1
  C  C574  1  0.565000  0.402900  0.890500  1
  C  C575  1  0.065000  0.902900  0.609500  1
  C  C576  1  0.435000  0.597100  0.109500  1
  C  C577  1  0.928100  0.080500  0.350500  1
  C  C578  1  0.571900  0.419500  0.850500  1
  C  C579  1  0.071900  0.919500  0.649500  1
  C  C580  1  0.428100  0.580500  0.149500  1
  C  C581  1  0.959400  0.036900  0.300400  1
  C  C582  1  0.540600  0.463100  0.800400  1
  C  C583  1  0.040600  0.963100  0.699600  1
  C  C584  1  0.459400  0.536900  0.199600  1
  C  C585  1  0.004100  0.041900  0.272500  1
  C  C586  1  0.495900  0.458100  0.772500  1
  C  C587  1  0.995900  0.958100  0.727500  1
  C  C588  1  0.504100  0.541900  0.227500  1
  C  C589  1  0.996400  0.028800  0.233800  1
  C  C590  1  0.503600  0.471200  0.733800  1
  C  C591  1  0.003600  0.971200  0.766200  1
  C  C592  1  0.496400  0.528800  0.266200  1
  C  C593  1  0.941600  0.010500  0.221700  1
  C  C594  1  0.558400  0.489500  0.721700  1
  C  C595  1  0.058400  0.989500  0.778300  1
  C  C596  1  0.441600  0.510500  0.278300  1
  C  C597  1  0.897700  0.003900  0.250700  1
  C  C598  1  0.602300  0.496100  0.750700  1
  C  C599  1  0.102300  0.996100  0.749300  1
  C  C600  1  0.397700  0.503900  0.249300  1
  C  C601  1  0.905400  0.017000  0.290400  1
  C  C602  1  0.594600  0.483000  0.790400  1
  C  C603  1  0.094600  0.983000  0.709600  1
  C  C604  1  0.405400  0.517000  0.209600  1
  C  C605  1  0.850700  0.018800  0.983400  1
  C  C606  1  0.649300  0.481200  0.483400  1
  C  C607  1  0.149300  0.981200  0.016600  1
  C  C608  1  0.350700  0.518800  0.516600  1
  C  C609  1  0.842200  0.060600  0.977000  1
  C  C610  1  0.657800  0.439400  0.477000  1
  C  C611  1  0.157800  0.939400  0.023000  1
  C  C612  1  0.342200  0.560600  0.523000  1
  C  C613  1  0.808400  0.082200  0.003600  1
  C  C614  1  0.691600  0.417800  0.503600  1
  C  C615  1  0.191600  0.917800  0.996400  1
  C  C616  1  0.308400  0.582200  0.496400  1
  C  C617  1  0.781400  0.062500  0.036600  1
  C  C618  1  0.718600  0.437500  0.536600  1
  C  C619  1  0.218600  0.937500  0.963400  1
  C  C620  1  0.281400  0.562500  0.463400  1
  C  C621  1  0.790300  0.021000  0.040900  1
  C  C622  1  0.709700  0.479000  0.540900  1
  C  C623  1  0.209700  0.979000  0.959100  1
  C  C624  1  0.290300  0.521000  0.459100  1
  C  C625  1  0.764800  0.997800  0.073300  1
  C  C626  1  0.735200  0.502200  0.573300  1
  C  C627  1  0.235200  0.002200  0.926700  1
  C  C628  1  0.264800  0.497800  0.426700  1
  C  C629  1  0.752100  0.935500  0.106000  1
  C  C630  1  0.747900  0.564500  0.606000  1
  C  C631  1  0.247900  0.064500  0.894000  1
  C  C632  1  0.252100  0.435500  0.394000  1
  C  C633  1  0.711400  0.904100  0.097200  1
  C  C634  1  0.788600  0.595900  0.597200  1
  C  C635  1  0.288600  0.095900  0.902800  1
  C  C636  1  0.211400  0.404100  0.402800  1
  C  C637  1  0.681800  0.882500  0.127100  1
  C  C638  1  0.818200  0.617500  0.627100  1
  C  C639  1  0.318200  0.117500  0.872900  1
  C  C640  1  0.181800  0.382500  0.372900  1
  C  C641  1  0.691200  0.893000  0.167900  1
  C  C642  1  0.808800  0.607000  0.667900  1
  C  C643  1  0.308800  0.107000  0.832100  1
  C  C644  1  0.191200  0.393000  0.332100  1
  C  C645  1  0.732100  0.924300  0.175700  1
  C  C646  1  0.767900  0.575700  0.675700  1
  C  C647  1  0.267900  0.075700  0.824300  1
  C  C648  1  0.232100  0.424300  0.324300  1
  C  C649  1  0.763500  0.945300  0.145900  1
  C  C650  1  0.736500  0.554700  0.645900  1
  C  C651  1  0.236500  0.054700  0.854100  1
  C  C652  1  0.263500  0.445300  0.354100  1
  C  C653  1  0.494000  0.733300  0.374100  1
  C  C654  1  0.006000  0.766700  0.874100  1
  C  C655  1  0.506000  0.266700  0.625900  1
  C  C656  1  0.994000  0.233300  0.125900  1
  C  C657  1  0.472600  0.694300  0.367300  1
  C  C658  1  0.027400  0.805700  0.867300  1
  C  C659  1  0.527400  0.305700  0.632700  1
  C  C660  1  0.972600  0.194300  0.132700  1
  C  C661  1  0.472500  0.677700  0.330600  1
  C  C662  1  0.027500  0.822300  0.830600  1
  C  C663  1  0.527500  0.322300  0.669400  1
  C  C664  1  0.972500  0.177700  0.169400  1
  C  C665  1  0.492900  0.701100  0.299500  1
  C  C666  1  0.007100  0.798900  0.799500  1
  C  C667  1  0.507100  0.298900  0.700500  1
  C  C668  1  0.992900  0.201100  0.200500  1
  C  C669  1  0.515000  0.739900  0.306700  1
  C  C670  1  0.985000  0.760100  0.806700  1
  C  C671  1  0.485000  0.260100  0.693300  1
  C  C672  1  0.015000  0.239900  0.193300  1
  C  C673  1  0.542600  0.766500  0.276100  1
  C  C674  1  0.957400  0.733500  0.776100  1
  C  C675  1  0.457400  0.233500  0.723900  1
  C  C676  1  0.042600  0.266500  0.223900  1
  C  C677  1  0.597700  0.825000  0.259400  1
  C  C678  1  0.902300  0.675000  0.759400  1
  C  C679  1  0.402300  0.175000  0.740600  1
  C  C680  1  0.097700  0.325000  0.240600  1
  C  C681  1  0.574000  0.860800  0.245500  1
  C  C682  1  0.926000  0.639200  0.745500  1
  C  C683  1  0.426000  0.139200  0.754500  1
  C  C684  1  0.074000  0.360800  0.254500  1
  C  C685  1  0.604400  0.884400  0.217000  1
  C  C686  1  0.895600  0.615600  0.717000  1
  C  C687  1  0.395600  0.115600  0.783000  1
  C  C688  1  0.104400  0.384400  0.283000  1
  C  C689  1  0.659000  0.871300  0.201000  1
  C  C690  1  0.841000  0.628700  0.701000  1
  C  C691  1  0.341000  0.128700  0.799000  1
  C  C692  1  0.159000  0.371300  0.299000  1
  C  C693  1  0.682400  0.834900  0.215600  1
  C  C694  1  0.817600  0.665100  0.715600  1
  C  C695  1  0.317600  0.165100  0.784400  1
  C  C696  1  0.182400  0.334900  0.284400  1
  C  C697  1  0.652800  0.812200  0.244700  1
  C  C698  1  0.847200  0.687800  0.744700  1
  C  C699  1  0.347200  0.187800  0.755300  1
  C  C700  1  0.152800  0.312200  0.255300  1
  C  C701  1  0.064400  0.586900  0.283000  1
  C  C702  1  0.435600  0.913100  0.783000  1
  C  C703  1  0.935600  0.413100  0.717000  1
  C  C704  1  0.564400  0.086900  0.217000  1
  C  C705  1  0.049600  0.557400  0.312200  1
  C  C706  1  0.450400  0.942600  0.812200  1
  C  C707  1  0.950400  0.442600  0.687800  1
  C  C708  1  0.549600  0.057400  0.187800  1
  C  C709  1  0.034500  0.568500  0.350300  1
  C  C710  1  0.465500  0.931500  0.850300  1
  C  C711  1  0.965500  0.431500  0.649700  1
  C  C712  1  0.534500  0.068500  0.149700  1
  C  C713  1  0.032500  0.608500  0.358700  1
  C  C714  1  0.467500  0.891500  0.858700  1
  C  C715  1  0.967500  0.391500  0.641300  1
  C  C716  1  0.532500  0.108500  0.141300  1
  C  C717  1  0.045200  0.636700  0.329500  1
  C  C718  1  0.454800  0.863300  0.829500  1
  C  C719  1  0.954800  0.363300  0.670500  1
  C  C720  1  0.545200  0.136700  0.170500  1
  C  C721  1  0.045100  0.680800  0.335800  1
  C  C722  1  0.454900  0.819200  0.835800  1
  C  C723  1  0.954900  0.319200  0.664200  1
  C  C724  1  0.545100  0.180800  0.164200  1
  C  C725  1  0.059300  0.747500  0.311600  1
  C  C726  1  0.440700  0.752500  0.811600  1
  C  C727  1  0.940700  0.252500  0.688400  1
  C  C728  1  0.559300  0.247500  0.188400  1
  C  C729  1  0.112300  0.769400  0.306600  1
  C  C730  1  0.387700  0.730600  0.806600  1
  C  C731  1  0.887700  0.230600  0.693400  1
  C  C732  1  0.612300  0.269400  0.193400  1
  C  C733  1  0.114600  0.811300  0.310800  1
  C  C734  1  0.385400  0.688700  0.810800  1
  C  C735  1  0.885400  0.188700  0.689200  1
  C  C736  1  0.614600  0.311300  0.189200  1
  C  C737  1  0.060800  0.832300  0.322200  1
  C  C738  1  0.439200  0.667700  0.822200  1
  C  C739  1  0.939200  0.167700  0.677800  1
  C  C740  1  0.560800  0.332300  0.177800  1
  C  C741  1  0.007200  0.809700  0.327000  1
  C  C742  1  0.492800  0.690300  0.827000  1
  C  C743  1  0.992800  0.190300  0.673000  1
  C  C744  1  0.507200  0.309700  0.173000  1
  C  C745  1  0.005700  0.767700  0.321400  1
  C  C746  1  0.494300  0.732300  0.821400  1
  C  C747  1  0.994300  0.232300  0.678600  1
  C  C748  1  0.505700  0.267700  0.178600  1
  C  C749  1  0.090600  0.121300  0.369900  1
  C  C750  1  0.409400  0.378700  0.869900  1
  C  C751  1  0.909400  0.878700  0.630100  1
  C  C752  1  0.590600  0.621300  0.130100  1
  C  C753  1  0.139000  0.146100  0.357000  1
  C  C754  1  0.361000  0.353900  0.857000  1
  C  C755  1  0.861000  0.853900  0.643000  1
  C  C756  1  0.639000  0.646100  0.143000  1
  C  C757  1  0.183600  0.130600  0.333700  1
  C  C758  1  0.316400  0.369400  0.833700  1
  C  C759  1  0.816400  0.869400  0.666300  1
  C  C760  1  0.683600  0.630600  0.166300  1
  C  C761  1  0.179700  0.090400  0.322900  1
  C  C762  1  0.320300  0.409600  0.822900  1
  C  C763  1  0.820300  0.909600  0.677100  1
  C  C764  1  0.679700  0.590400  0.177100  1
  C  C765  1  0.132300  0.067200  0.337200  1
  C  C766  1  0.367700  0.432800  0.837200  1
  C  C767  1  0.867700  0.932800  0.662800  1
  C  C768  1  0.632300  0.567200  0.162800  1
  C  C769  1  0.124100  0.023400  0.329800  1
  C  C770  1  0.375900  0.476600  0.829800  1
  C  C771  1  0.875900  0.976600  0.670200  1
  C  C772  1  0.624100  0.523400  0.170200  1
  C  C773  1  0.072600  0.961700  0.340800  1
  C  C774  1  0.427400  0.538300  0.840800  1
  C  C775  1  0.927400  0.038300  0.659200  1
  C  C776  1  0.572600  0.461700  0.159200  1
  C  C777  1  0.079700  0.935900  0.372100  1
  C  C778  1  0.420300  0.564100  0.872100  1
  C  C779  1  0.920300  0.064100  0.627900  1
  C  C780  1  0.579700  0.435900  0.127900  1
  C  C781  1  0.072400  0.893500  0.367000  1
  C  C782  1  0.427600  0.606500  0.867000  1
  C  C783  1  0.927600  0.106500  0.633000  1
  C  C784  1  0.572400  0.393500  0.133000  1
  C  C785  1  0.062900  0.877300  0.329600  1
  C  C786  1  0.437100  0.622700  0.829600  1
  C  C787  1  0.937100  0.122700  0.670400  1
  C  C788  1  0.562900  0.377300  0.170400  1
  C  C789  1  0.055900  0.903600  0.297200  1
  C  C790  1  0.444100  0.596400  0.797200  1
  C  C791  1  0.944100  0.096400  0.702800  1
  C  C792  1  0.555900  0.403600  0.202800  1
  C  C793  1  0.059900  0.946200  0.303000  1
  C  C794  1  0.440100  0.553800  0.803000  1
  C  C795  1  0.940100  0.053800  0.697000  1
  C  C796  1  0.559900  0.446200  0.197000  1
  C  C797  1  0.139100  0.625200  0.191100  1
  C  C798  1  0.360900  0.874800  0.691100  1
  C  C799  1  0.860900  0.374800  0.808900  1
  C  C800  1  0.639100  0.125200  0.308900  1
  C  C801  1  0.140000  0.602900  0.156800  1
  C  C802  1  0.360000  0.897100  0.656800  1
  C  C803  1  0.860000  0.397100  0.843200  1
  C  C804  1  0.640000  0.102900  0.343200  1
  C  C805  1  0.086400  0.592500  0.138100  1
  C  C806  1  0.413600  0.907500  0.638100  1
  C  C807  1  0.913600  0.407500  0.861900  1
  C  C808  1  0.586400  0.092500  0.361900  1
  C  C809  1  0.030800  0.606700  0.154300  1
  C  C810  1  0.469200  0.893300  0.654300  1
  C  C811  1  0.969200  0.393300  0.845700  1
  C  C812  1  0.530800  0.106700  0.345700  1
  C  C813  1  0.033900  0.629600  0.189200  1
  C  C814  1  0.466100  0.870400  0.689200  1
  C  C815  1  0.966100  0.370400  0.810800  1
  C  C816  1  0.533900  0.129600  0.310800  1
  C  C817  1  0.982200  0.648300  0.207500  1
  C  C818  1  0.517800  0.851700  0.707500  1
  C  C819  1  0.017800  0.351700  0.792500  1
  C  C820  1  0.482200  0.148300  0.292500  1
  C  C821  1  0.940100  0.690200  0.257300  1
  C  C822  1  0.559900  0.809800  0.757300  1
  C  C823  1  0.059900  0.309800  0.742700  1
  C  C824  1  0.440100  0.190200  0.242700  1
  C  C825  1  0.916300  0.673500  0.290800  1
  C  C826  1  0.583700  0.826500  0.790800  1
  C  C827  1  0.083700  0.326500  0.709200  1
  C  C828  1  0.416300  0.173500  0.209200  1
  C  C829  1  0.866600  0.690600  0.309300  1
  C  C830  1  0.633400  0.809400  0.809300  1
  C  C831  1  0.133400  0.309400  0.690700  1
  C  C832  1  0.366600  0.190600  0.190700  1
  C  C833  1  0.837200  0.724400  0.292700  1
  C  C834  1  0.662800  0.775600  0.792700  1
  C  C835  1  0.162800  0.275600  0.707300  1
  C  C836  1  0.337200  0.224400  0.207300  1
  C  C837  1  0.863000  0.740100  0.258300  1
  C  C838  1  0.637000  0.759900  0.758300  1
  C  C839  1  0.137000  0.259900  0.741700  1
  C  C840  1  0.363000  0.240100  0.241700  1
  C  C841  1  0.913700  0.724300  0.239700  1
  C  C842  1  0.586300  0.775700  0.739700  1
  C  C843  1  0.086300  0.275700  0.760300  1
  C  C844  1  0.413700  0.224300  0.260300  1
  C  C845  1  0.482800  0.835200  0.419800  1
  C  C846  1  0.017200  0.664800  0.919800  1
  C  C847  1  0.517200  0.164800  0.580200  1
  C  C848  1  0.982800  0.335200  0.080200  1
  C  C849  1  0.477800  0.836500  0.463200  1
  C  C850  1  0.022200  0.663500  0.963200  1
  C  C851  1  0.522200  0.163500  0.536800  1
  C  C852  1  0.977800  0.336500  0.036800  1
  C  C853  1  0.520200  0.820600  0.486700  1
  C  C854  1  0.979800  0.679400  0.986700  1
  C  C855  1  0.479800  0.179400  0.513300  1
  C  C856  1  0.020200  0.320600  0.013300  1
  C  C857  1  0.570600  0.803800  0.469300  1
  C  C858  1  0.929400  0.696200  0.969300  1
  C  C859  1  0.429400  0.196200  0.530700  1
  C  C860  1  0.070600  0.303800  0.030700  1
  C  C861  1  0.575500  0.803300  0.428100  1
  C  C862  1  0.924500  0.696700  0.928100  1
  C  C863  1  0.424500  0.196700  0.571900  1
  C  C864  1  0.075500  0.303300  0.071900  1
  C  C865  1  0.627700  0.787500  0.406800  1
  C  C866  1  0.872300  0.712500  0.906800  1
  C  C867  1  0.372300  0.212500  0.593200  1
  C  C868  1  0.127700  0.287500  0.093200  1
  C  C869  1  0.679500  0.776000  0.347800  1
  C  C870  1  0.820500  0.724000  0.847800  1
  C  C871  1  0.320500  0.224000  0.652200  1
  C  C872  1  0.179500  0.276000  0.152200  1
  C  C873  1  0.672800  0.744100  0.320400  1
  C  C874  1  0.827200  0.755900  0.820400  1
  C  C875  1  0.327200  0.255900  0.679600  1
  C  C876  1  0.172800  0.244100  0.179600  1
  C  C877  1  0.723200  0.728100  0.301200  1
  C  C878  1  0.776800  0.771900  0.801200  1
  C  C879  1  0.276800  0.271900  0.698800  1
  C  C880  1  0.223200  0.228100  0.198800  1
  C  C881  1  0.781900  0.742400  0.310500  1
  C  C882  1  0.718100  0.757600  0.810500  1
  C  C883  1  0.218100  0.257600  0.689500  1
  C  C884  1  0.281900  0.242400  0.189500  1
  C  C885  1  0.785900  0.774600  0.337600  1
  C  C886  1  0.714100  0.725400  0.837600  1
  C  C887  1  0.214100  0.225400  0.662400  1
  C  C888  1  0.285900  0.274600  0.162400  1
  C  C889  1  0.735600  0.791600  0.356000  1
  C  C890  1  0.764400  0.708400  0.856000  1
  C  C891  1  0.264400  0.208400  0.644000  1
  C  C892  1  0.235600  0.291600  0.144000  1
  C  C893  1  0.135400  0.044700  0.437800  1
  C  C894  1  0.364600  0.455300  0.937800  1
  C  C895  1  0.864600  0.955300  0.562200  1
  C  C896  1  0.635400  0.544700  0.062200  1
  C  C897  1  0.169300  0.033000  0.471100  1
  C  C898  1  0.330700  0.467000  0.971100  1
  C  C899  1  0.830700  0.967000  0.528900  1
  C  C900  1  0.669300  0.533000  0.028900  1
  C  C901  1  0.146300  0.002300  0.495100  1
  C  C902  1  0.353700  0.497700  0.995100  1
  C  C903  1  0.853700  0.997700  0.504900  1
  C  C904  1  0.646300  0.502300  0.004900  1
  C  C905  1  0.091700  0.984100  0.485300  1
  C  C906  1  0.408300  0.515900  0.985300  1
  C  C907  1  0.908300  0.015900  0.514700  1
  C  C908  1  0.591700  0.484100  0.014700  1
  C  C909  1  0.060100  0.997800  0.452100  1
  C  C910  1  0.439900  0.502200  0.952100  1
  C  C911  1  0.939900  0.002200  0.547900  1
  C  C912  1  0.560100  0.497800  0.047900  1
  C  C913  1  0.003000  0.981200  0.438900  1
  C  C914  1  0.497000  0.518800  0.938900  1
  C  C915  1  0.997000  0.018800  0.561100  1
  C  C916  1  0.503000  0.481200  0.061100  1
  C  C917  1  0.924200  0.979500  0.392500  1
  C  C918  1  0.575800  0.520500  0.892500  1
  C  C919  1  0.075800  0.020500  0.607500  1
  C  C920  1  0.424200  0.479500  0.107500  1
  C  C921  1  0.871400  0.001800  0.396900  1
  C  C922  1  0.628600  0.498200  0.896900  1
  C  C923  1  0.128600  0.998200  0.603100  1
  C  C924  1  0.371400  0.501800  0.103100  1
  C  C925  1  0.815400  0.985600  0.386200  1
  C  C926  1  0.684600  0.514400  0.886200  1
  C  C927  1  0.184600  0.014400  0.613800  1
  C  C928  1  0.315400  0.485600  0.113800  1
  C  C929  1  0.810300  0.944900  0.371900  1
  C  C930  1  0.689700  0.555100  0.871900  1
  C  C931  1  0.189700  0.055100  0.628100  1
  C  C932  1  0.310300  0.444900  0.128100  1
  C  C933  1  0.864300  0.923100  0.367100  1
  C  C934  1  0.635700  0.576900  0.867100  1
  C  C935  1  0.135700  0.076900  0.632900  1
  C  C936  1  0.364300  0.423100  0.132900  1
  C  C937  1  0.920800  0.939500  0.376200  1
  C  C938  1  0.579200  0.560500  0.876200  1
  C  C939  1  0.079200  0.060500  0.623800  1
  C  C940  1  0.420800  0.439500  0.123800  1
  C  C941  1  0.418000  0.819800  0.323600  1
  C  C942  1  0.082000  0.680200  0.823600  1
  C  C943  1  0.582000  0.180200  0.676400  1
  C  C944  1  0.918000  0.319800  0.176400  1
  C  C945  1  0.368200  0.841100  0.311800  1
  C  C946  1  0.131800  0.658900  0.811800  1
  C  C947  1  0.631800  0.158900  0.688200  1
  C  C948  1  0.868200  0.341100  0.188200  1
  C  C949  1  0.370200  0.881600  0.306700  1
  C  C950  1  0.129800  0.618400  0.806700  1
  C  C951  1  0.629800  0.118400  0.693300  1
  C  C952  1  0.870200  0.381600  0.193300  1
  C  C953  1  0.424900  0.902500  0.313500  1
  C  C954  1  0.075100  0.597500  0.813500  1
  C  C955  1  0.575100  0.097500  0.686500  1
  C  C956  1  0.924900  0.402500  0.186500  1
  C  C957  1  0.474800  0.879000  0.324900  1
  C  C958  1  0.025200  0.621000  0.824900  1
  C  C959  1  0.525200  0.121000  0.675100  1
  C  C960  1  0.974800  0.379000  0.175100  1
  C  C961  1  0.534600  0.895800  0.332400  1
  C  C962  1  0.965400  0.604200  0.832400  1
  C  C963  1  0.465400  0.104200  0.667600  1
  C  C964  1  0.034600  0.395800  0.167600  1
  C  C965  1  0.637000  0.887600  0.349000  1
  C  C966  1  0.863000  0.612400  0.849000  1
  C  C967  1  0.363000  0.112400  0.651000  1
  C  C968  1  0.137000  0.387600  0.151000  1
  C  C969  1  0.663800  0.884000  0.386800  1
  C  C970  1  0.836200  0.616000  0.886800  1
  C  C971  1  0.336200  0.116000  0.613200  1
  C  C972  1  0.163800  0.384000  0.113200  1
  C  C973  1  0.719400  0.902300  0.394000  1
  C  C974  1  0.780600  0.597700  0.894000  1
  C  C975  1  0.280600  0.097700  0.606000  1
  C  C976  1  0.219400  0.402300  0.106000  1
  C  C977  1  0.750400  0.924100  0.364600  1
  C  C978  1  0.749600  0.575900  0.864600  1
  C  C979  1  0.249600  0.075900  0.635400  1
  C  C980  1  0.250400  0.424100  0.135400  1
  C  C981  1  0.723900  0.926900  0.326900  1
  C  C982  1  0.776100  0.573100  0.826900  1
  C  C983  1  0.276100  0.073100  0.673100  1
  C  C984  1  0.223900  0.426900  0.173100  1
  C  C985  1  0.668000  0.908800  0.318600  1
  C  C986  1  0.832000  0.591200  0.818600  1
  C  C987  1  0.332000  0.091200  0.681400  1
  C  C988  1  0.168000  0.408800  0.181400  1
  C  C989  1  0.835000  0.876000  0.261000  1
  C  C990  1  0.665000  0.624000  0.761000  1
  C  C991  1  0.165000  0.124000  0.739000  1
  C  C992  1  0.335000  0.376000  0.239000  1
  C  C993  1  0.851900  0.881400  0.250700  1
  C  C994  1  0.648100  0.618600  0.750700  1
  C  C995  1  0.148100  0.118600  0.749300  1
  C  C996  1  0.351900  0.381400  0.249300  1
  C  C997  1  0.877000  0.888000  0.258000  1
  C  C998  1  0.623000  0.612000  0.758000  1
  C  C999  1  0.123000  0.112000  0.742000  1
  C  C1000  1  0.377000  0.388000  0.242000  1
  C  C1001  1  0.859000  0.871000  0.235000  1
  C  C1002  1  0.641000  0.629000  0.735000  1
  C  C1003  1  0.141000  0.129000  0.765000  1
  C  C1004  1  0.359000  0.371000  0.265000  1
  C  C1005  1  0.908000  0.861000  0.252000  1
  C  C1006  1  0.592000  0.639000  0.752000  1
  C  C1007  1  0.092000  0.139000  0.748000  1
  C  C1008  1  0.408000  0.361000  0.248000  1
  S  S1009  1  0.051410  0.849860  0.080440  1
  S  S1010  1  0.448590  0.650140  0.580440  1
  S  S1011  1  0.948590  0.150140  0.919560  1
  S  S1012  1  0.551410  0.349860  0.419560  1
  S  S1013  1  0.967500  0.723730  0.099570  1
  S  S1014  1  0.532500  0.776270  0.599570  1
  S  S1015  1  0.032500  0.276270  0.900430  1
  S  S1016  1  0.467500  0.223730  0.400430  1
  S  S1017  1  0.870900  0.069830  0.160560  1
  S  S1018  1  0.629100  0.430170  0.660560  1
  S  S1019  1  0.129100  0.930170  0.839440  1
  S  S1020  1  0.370900  0.569830  0.339440  1
  S  S1021  1  0.058160  0.037100  0.200250  1
  S  S1022  1  0.441840  0.462900  0.700250  1
  S  S1023  1  0.941840  0.962900  0.799750  1
  S  S1024  1  0.558160  0.537100  0.299750  1
  S  S1025  1  0.637030  0.839410  0.112100  1
  S  S1026  1  0.862970  0.660590  0.612100  1
  S  S1027  1  0.362970  0.160590  0.887900  1
  S  S1028  1  0.137030  0.339410  0.387900  1
  S  S1029  1  0.575700  0.933810  0.206560  1
  S  S1030  1  0.924300  0.566190  0.706560  1
  S  S1031  1  0.424300  0.066190  0.793440  1
  S  S1032  1  0.075700  0.433810  0.293440  1
  S  S1033  1  0.182060  0.837360  0.297660  1
  S  S1034  1  0.317940  0.662640  0.797660  1
  S  S1035  1  0.817940  0.162640  0.702340  1
  S  S1036  1  0.682060  0.337360  0.202340  1
  S  S1037  1  0.067130  0.864110  0.411920  1
  S  S1038  1  0.432870  0.635890  0.911920  1
  S  S1039  1  0.932870  0.135890  0.588080  1
  S  S1040  1  0.567130  0.364110  0.088080  1
  S  S1041  1  0.846110  0.665780  0.356430  1
  S  S1042  1  0.653890  0.834220  0.856430  1
  S  S1043  1  0.153890  0.334220  0.643570  1
  S  S1044  1  0.346110  0.165780  0.143570  1
  S  S1045  1  0.707750  0.692040  0.262000  1
  S  S1046  1  0.792250  0.807960  0.762000  1
  S  S1047  1  0.292250  0.307960  0.738000  1
  S  S1048  1  0.207750  0.192040  0.238000  1
  S  S1049  1  0.750900  0.017380  0.390590  1
  S  S1050  1  0.749100  0.482620  0.890590  1
  S  S1051  1  0.249100  0.982620  0.609410  1
  S  S1052  1  0.250900  0.517380  0.109410  1
  S  S1053  1  0.753310  0.889980  0.441480  1
  S  S1054  1  0.746690  0.610020  0.941480  1
  S  S1055  1  0.246690  0.110020  0.558520  1
  S  S1056  1  0.253310  0.389980  0.058520  1
  N  N1057  1  0.763200  0.923100  0.997700  1
  N  N1058  1  0.736800  0.576900  0.497700  1
  N  N1059  1  0.236800  0.076900  0.002300  1
  N  N1060  1  0.263200  0.423100  0.502300  1
  N  N1061  1  0.831300  0.882000  0.044000  1
  N  N1062  1  0.668700  0.618000  0.544000  1
  N  N1063  1  0.168700  0.118000  0.956000  1
  N  N1064  1  0.331300  0.382000  0.456000  1
  N  N1065  1  0.166200  0.676100  0.268100  1
  N  N1066  1  0.333800  0.823900  0.768100  1
  N  N1067  1  0.833800  0.323900  0.731900  1
  N  N1068  1  0.666200  0.176100  0.231900  1
  N  N1069  1  0.102300  0.722200  0.223600  1
  N  N1070  1  0.397700  0.777800  0.723600  1
  N  N1071  1  0.897700  0.277800  0.776400  1
  N  N1072  1  0.602300  0.222200  0.276400  1
  N  N1073  1  0.892700  0.930700  0.987300  1
  N  N1074  1  0.607300  0.569300  0.487300  1
  N  N1075  1  0.107300  0.069300  0.012700  1
  N  N1076  1  0.392700  0.430700  0.512700  1
  N  N1077  1  0.908700  0.955500  0.059700  1
  N  N1078  1  0.591300  0.544500  0.559700  1
  N  N1079  1  0.091300  0.044500  0.940300  1
  N  N1080  1  0.408700  0.455500  0.440300  1
  N  N1081  1  0.982200  0.081300  0.411700  1
  N  N1082  1  0.517800  0.418700  0.911700  1
  N  N1083  1  0.017800  0.918700  0.588300  1
  N  N1084  1  0.482200  0.581300  0.088300  1
  N  N1085  1  0.967200  0.053400  0.340400  1
  N  N1086  1  0.532800  0.446600  0.840400  1
  N  N1087  1  0.032800  0.946600  0.659600  1
  N  N1088  1  0.467200  0.553400  0.159600  1
  N  N1089  1  0.826000  0.999300  0.014900  1
  N  N1090  1  0.674000  0.500700  0.514900  1
  N  N1091  1  0.174000  0.000700  0.985100  1
  N  N1092  1  0.326000  0.499300  0.485100  1
  N  N1093  1  0.778900  0.959200  0.073700  1
  N  N1094  1  0.721100  0.540800  0.573700  1
  N  N1095  1  0.221100  0.040800  0.926300  1
  N  N1096  1  0.278900  0.459200  0.426300  1
  N  N1097  1  0.515000  0.756500  0.344400  1
  N  N1098  1  0.985000  0.743500  0.844400  1
  N  N1099  1  0.485000  0.243500  0.655600  1
  N  N1100  1  0.015000  0.256500  0.155600  1
  N  N1101  1  0.566000  0.800500  0.289000  1
  N  N1102  1  0.934000  0.699500  0.789000  1
  N  N1103  1  0.434000  0.199500  0.711000  1
  N  N1104  1  0.066000  0.300500  0.211000  1
  N  N1105  1  0.061300  0.627100  0.291600  1
  N  N1106  1  0.438700  0.872900  0.791600  1
  N  N1107  1  0.938700  0.372900  0.708400  1
  N  N1108  1  0.561300  0.127100  0.208400  1
  N  N1109  1  0.059600  0.703800  0.305500  1
  N  N1110  1  0.440400  0.796200  0.805500  1
  N  N1111  1  0.940400  0.296200  0.694500  1
  N  N1112  1  0.559600  0.203800  0.194500  1
  N  N1113  1  0.087400  0.082100  0.360900  1
  N  N1114  1  0.412600  0.417900  0.860900  1
  N  N1115  1  0.912600  0.917900  0.639100  1
  N  N1116  1  0.587400  0.582100  0.139100  1
  N  N1117  1  0.079300  0.005100  0.347000  1
  N  N1118  1  0.420700  0.494900  0.847000  1
  N  N1119  1  0.920700  0.994900  0.653000  1
  N  N1120  1  0.579300  0.505100  0.153000  1
  N  N1121  1  0.088100  0.639700  0.207600  1
  N  N1122  1  0.411900  0.860300  0.707600  1
  N  N1123  1  0.911900  0.360300  0.792400  1
  N  N1124  1  0.588100  0.139700  0.292400  1
  N  N1125  1  0.992700  0.671700  0.238100  1
  N  N1126  1  0.507300  0.828300  0.738100  1
  N  N1127  1  0.007300  0.328300  0.761900  1
  N  N1128  1  0.492700  0.171700  0.261900  1
  N  N1129  1  0.532400  0.819300  0.403200  1
  N  N1130  1  0.967600  0.680700  0.903200  1
  N  N1131  1  0.467600  0.180700  0.596800  1
  N  N1132  1  0.032400  0.319300  0.096800  1
  N  N1133  1  0.626800  0.790600  0.368300  1
  N  N1134  1  0.873200  0.709400  0.868300  1
  N  N1135  1  0.373200  0.209400  0.631700  1
  N  N1136  1  0.126800  0.290600  0.131700  1
  N  N1137  1  0.081800  0.028100  0.428100  1
  N  N1138  1  0.418200  0.471900  0.928100  1
  N  N1139  1  0.918200  0.971900  0.571900  1
  N  N1140  1  0.581800  0.528100  0.071900  1
  N  N1141  1  0.980300  0.996000  0.406100  1
  N  N1142  1  0.519700  0.504000  0.906100  1
  N  N1143  1  0.019700  0.004000  0.593900  1
  N  N1144  1  0.480300  0.496000  0.093900  1
  N  N1145  1  0.472200  0.838000  0.330300  1
  N  N1146  1  0.027800  0.662000  0.830300  1
  N  N1147  1  0.527800  0.162000  0.669700  1
  N  N1148  1  0.972200  0.338000  0.169700  1
  N  N1149  1  0.577200  0.870800  0.342100  1
  N  N1150  1  0.922800  0.629200  0.842100  1
  N  N1151  1  0.422800  0.129200  0.657900  1
  N  N1152  1  0.077200  0.370800  0.157900  1
  Cl  Cl1153  1  0.816100  0.849600  0.285600  1
  Cl  Cl1154  1  0.683900  0.650400  0.785600  1
  Cl  Cl1155  1  0.183900  0.150400  0.714400  1
  Cl  Cl1156  1  0.316100  0.349600  0.214400  1
  Cl  Cl1157  1  0.923700  0.896300  0.267900  1
  Cl  Cl1158  1  0.576300  0.603700  0.767900  1
  Cl  Cl1159  1  0.076300  0.103700  0.732100  1
  Cl  Cl1160  1  0.423700  0.396300  0.232100  1
  Cl  Cl1161  1  0.858000  0.856500  0.204700  1
  Cl  Cl1162  1  0.642000  0.643500  0.704700  1
  Cl  Cl1163  1  0.142000  0.143500  0.795300  1
  Cl  Cl1164  1  0.358000  0.356500  0.295300  1
  O  O1165  1  0.083500  0.813000  0.085000  1
  O  O1166  1  0.416500  0.687000  0.585000  1
  O  O1167  1  0.916500  0.187000  0.915000  1
  O  O1168  1  0.583500  0.313000  0.415000  1
  O  O1169  1  0.068100  0.880700  0.111400  1
  O  O1170  1  0.431900  0.619300  0.611400  1
  O  O1171  1  0.931900  0.119300  0.888600  1
  O  O1172  1  0.568100  0.380700  0.388600  1
  O  O1173  1  0.055700  0.867400  0.041000  1
  O  O1174  1  0.444300  0.632600  0.541000  1
  O  O1175  1  0.944300  0.132600  0.959000  1
  O  O1176  1  0.555700  0.367400  0.459000  1
  O  O1177  1  0.954400  0.748300  0.066800  1
  O  O1178  1  0.545600  0.751700  0.566800  1
  O  O1179  1  0.045600  0.251700  0.933200  1
  O  O1180  1  0.454400  0.248300  0.433200  1
  O  O1181  1  0.910700  0.709600  0.119000  1
  O  O1182  1  0.589300  0.790400  0.619000  1
  O  O1183  1  0.089300  0.290400  0.881000  1
  O  O1184  1  0.410700  0.209600  0.381000  1
  O  O1185  1  0.004600  0.688300  0.092600  1
  O  O1186  1  0.495400  0.811700  0.592600  1
  O  O1187  1  0.995400  0.311700  0.907400  1
  O  O1188  1  0.504600  0.188300  0.407400  1
  O  O1189  1  0.882300  0.093900  0.125300  1
  O  O1190  1  0.617700  0.406100  0.625300  1
  O  O1191  1  0.117700  0.906100  0.874700  1
  O  O1192  1  0.382300  0.593900  0.374700  1
  O  O1193  1  0.897800  0.086800  0.195400  1
  O  O1194  1  0.602200  0.413200  0.695400  1
  O  O1195  1  0.102200  0.913200  0.804600  1
  O  O1196  1  0.397800  0.586800  0.304600  1
  O  O1197  1  0.808200  0.060300  0.165800  1
  O  O1198  1  0.691800  0.439700  0.665800  1
  O  O1199  1  0.191800  0.939700  0.834200  1
  O  O1200  1  0.308200  0.560300  0.334200  1
  O  O1201  1  0.036300  0.062800  0.168800  1
  O  O1202  1  0.463700  0.437200  0.668800  1
  O  O1203  1  0.963700  0.937200  0.831200  1
  O  O1204  1  0.536300  0.562800  0.331200  1
  O  O1205  1  0.075000  0.997900  0.188400  1
  O  O1206  1  0.425000  0.502100  0.688400  1
  O  O1207  1  0.925000  0.002100  0.811600  1
  O  O1208  1  0.575000  0.497900  0.311600  1
  O  O1209  1  0.105200  0.057200  0.222900  1
  O  O1210  1  0.394800  0.442800  0.722900  1
  O  O1211  1  0.894800  0.942800  0.777100  1
  O  O1212  1  0.605200  0.557200  0.277100  1
  O  O1213  1  0.584300  0.837300  0.136200  1
  O  O1214  1  0.915700  0.662700  0.636200  1
  O  O1215  1  0.415700  0.162700  0.863800  1
  O  O1216  1  0.084300  0.337300  0.363800  1
  O  O1217  1  0.676100  0.804600  0.118100  1
  O  O1218  1  0.823900  0.695400  0.618100  1
  O  O1219  1  0.323900  0.195400  0.881900  1
  O  O1220  1  0.176100  0.304600  0.381900  1
  O  O1221  1  0.624300  0.846300  0.069800  1
  O  O1222  1  0.875700  0.653700  0.569800  1
  O  O1223  1  0.375700  0.153700  0.930200  1
  O  O1224  1  0.124300  0.346300  0.430200  1
  O  O1225  1  0.573200  0.938700  0.165100  1
  O  O1226  1  0.926800  0.561300  0.665100  1
  O  O1227  1  0.426800  0.061300  0.834900  1
  O  O1228  1  0.073200  0.438700  0.334900  1
  O  O1229  1  0.622700  0.962900  0.224100  1
  O  O1230  1  0.877300  0.537100  0.724100  1
  O  O1231  1  0.377300  0.037100  0.775900  1
  O  O1232  1  0.122700  0.462900  0.275900  1
  O  O1233  1  0.520000  0.936500  0.227900  1
  O  O1234  1  0.980000  0.563500  0.727900  1
  O  O1235  1  0.480000  0.063500  0.772100  1
  O  O1236  1  0.020000  0.436500  0.272100  1
  O  O1237  1  0.199700  0.865100  0.328600  1
  O  O1238  1  0.300300  0.634900  0.828600  1
  O  O1239  1  0.800300  0.134900  0.671400  1
  O  O1240  1  0.699700  0.365100  0.171400  1
  O  O1241  1  0.167800  0.860500  0.260600  1
  O  O1242  1  0.332200  0.639500  0.760600  1
  O  O1243  1  0.832200  0.139500  0.739400  1
  O  O1244  1  0.667800  0.360500  0.239400  1
  O  O1245  1  0.225100  0.806000  0.289900  1
  O  O1246  1  0.274900  0.694000  0.789900  1
  O  O1247  1  0.774900  0.194000  0.710100  1
  O  O1248  1  0.725100  0.306000  0.210100  1
  O  O1249  1  0.101100  0.828200  0.406000  1
  O  O1250  1  0.398900  0.671800  0.906000  1
  O  O1251  1  0.898900  0.171800  0.594000  1
  O  O1252  1  0.601100  0.328200  0.094000  1
  O  O1253  1  0.000800  0.855500  0.417700  1
  O  O1254  1  0.499200  0.644500  0.917700  1
  O  O1255  1  0.999200  0.144500  0.582300  1
  O  O1256  1  0.500800  0.355500  0.082300  1
  O  O1257  1  0.090700  0.890300  0.443300  1
  O  O1258  1  0.409300  0.609700  0.943300  1
  O  O1259  1  0.909300  0.109700  0.556700  1
  O  O1260  1  0.590700  0.390300  0.056700  1
  O  O1261  1  0.866500  0.703200  0.374400  1
  O  O1262  1  0.633500  0.796800  0.874400  1
  O  O1263  1  0.133500  0.296800  0.625600  1
  O  O1264  1  0.366500  0.203200  0.125600  1
  O  O1265  1  0.886000  0.632900  0.362600  1
  O  O1266  1  0.614000  0.867100  0.862600  1
  O  O1267  1  0.114000  0.367100  0.637400  1
  O  O1268  1  0.386000  0.132900  0.137400  1
  O  O1269  1  0.783200  0.659300  0.358200  1
  O  O1270  1  0.716800  0.840700  0.858200  1
  O  O1271  1  0.216800  0.340700  0.641800  1
  O  O1272  1  0.283200  0.159300  0.141800  1
  O  O1273  1  0.733600  0.654800  0.273800  1
  O  O1274  1  0.766400  0.845200  0.773800  1
  O  O1275  1  0.266400  0.345200  0.726200  1
  O  O1276  1  0.233600  0.154800  0.226200  1
  O  O1277  1  0.734100  0.708900  0.227200  1
  O  O1278  1  0.765900  0.791100  0.727200  1
  O  O1279  1  0.265900  0.291100  0.772800  1
  O  O1280  1  0.234100  0.208900  0.272800  1
  O  O1281  1  0.643300  0.688400  0.259800  1
  O  O1282  1  0.856700  0.811600  0.759800  1
  O  O1283  1  0.356700  0.311600  0.740200  1
  O  O1284  1  0.143300  0.188400  0.240200  1
  O  O1285  1  0.708000  0.996700  0.415800  1
  O  O1286  1  0.792000  0.503300  0.915800  1
  O  O1287  1  0.292000  0.003300  0.584200  1
  O  O1288  1  0.208000  0.496700  0.084200  1
  O  O1289  1  0.726700  0.020500  0.350500  1
  O  O1290  1  0.773300  0.479500  0.850500  1
  O  O1291  1  0.273300  0.979500  0.649500  1
  O  O1292  1  0.226700  0.520500  0.149500  1
  O  O1293  1  0.772800  0.055000  0.405700  1
  O  O1294  1  0.727200  0.445000  0.905700  1
  O  O1295  1  0.227200  0.945000  0.594300  1
  O  O1296  1  0.272800  0.555000  0.094300  1
  O  O1297  1  0.793000  0.921500  0.453400  1
  O  O1298  1  0.707000  0.578500  0.953400  1
  O  O1299  1  0.207000  0.078500  0.546600  1
  O  O1300  1  0.293000  0.421500  0.046600  1
  O  O1301  1  0.784400  0.851300  0.434700  1
  O  O1302  1  0.715600  0.648700  0.934700  1
  O  O1303  1  0.215600  0.148700  0.565300  1
  O  O1304  1  0.284400  0.351300  0.065300  1
  O  O1305  1  0.701900  0.884000  0.468200  1
  O  O1306  1  0.798100  0.616000  0.968200  1
  O  O1307  1  0.298100  0.116000  0.531800  1
  O  O1308  1  0.201900  0.384000  0.031800  1
  O  O1309  1  0.743100  0.783400  0.478000  1
  O  O1310  1  0.756900  0.716600  0.978000  1
  O  O1311  1  0.256900  0.216600  0.522000  1
  O  O1312  1  0.243100  0.283400  0.022000  1
  O  O1313  1  0.661400  0.832500  0.530400  1
  O  O1314  1  0.838600  0.667500  0.030400  1
  O  O1315  1  0.338600  0.167500  0.469600  1
  O  O1316  1  0.161400  0.332500  0.969600  1
  O  O1317  1  0.659500  0.739100  0.533000  1
  O  O1318  1  0.840500  0.760900  0.033000  1
  O  O1319  1  0.340500  0.260900  0.467000  1
  O  O1320  1  0.159500  0.239100  0.967000  1
  O  O1321  1  0.705900  0.785400  0.602800  1
  O  O1322  1  0.794100  0.714600  0.102800  1
  O  O1323  1  0.294100  0.214600  0.397200  1
  O  O1324  1  0.205900  0.285400  0.897200  1
  O  O1325  1  0.790100  0.832600  0.549900  1
  O  O1326  1  0.709900  0.667400  0.049900  1
  O  O1327  1  0.209900  0.167400  0.450100  1
  O  O1328  1  0.290100  0.332600  0.950100  1
  O  O1329  1  0.793500  0.739000  0.548600  1
  O  O1330  1  0.706500  0.761000  0.048600  1
  O  O1331  1  0.206500  0.261000  0.451400  1
  O  O1332  1  0.293500  0.239000  0.951400  1
  O  O1333  1  0.250000  0.961300  0.145800  1
  O  O1334  1  0.250000  0.538700  0.645800  1
  O  O1335  1  0.750000  0.038700  0.854200  1
  O  O1336  1  0.750000  0.461300  0.354200  1
  O  O1337  1  0.255800  0.095600  0.418700  1
  O  O1338  1  0.244200  0.404400  0.918700  1
  O  O1339  1  0.744200  0.904400  0.581300  1
  O  O1340  1  0.755800  0.595600  0.081300  1
  O  O1341  1  0.561400  0.633900  0.231600  1
  O  O1342  1  0.938600  0.866100  0.731600  1
  O  O1343  1  0.438600  0.366100  0.768400  1
  O  O1344  1  0.061400  0.133900  0.268400  1
  O  O1345  1  0.830300  0.740100  0.440800  1
  O  O1346  1  0.669700  0.759900  0.940800  1
  O  O1347  1  0.169700  0.259900  0.559200  1
  O  O1348  1  0.330300  0.240100  0.059200  1
  O  O1349  1  0.203800  0.004800  0.111000  1
  O  O1350  1  0.296200  0.495200  0.611000  1
  O  O1351  1  0.796200  0.995200  0.889000  1
  O  O1352  1  0.703800  0.504800  0.389000  1
  O  O1353  1  0.671900  0.679600  0.399600  1
  O  O1354  1  0.828100  0.820400  0.899600  1
  O  O1355  1  0.328100  0.320400  0.600400  1
  O  O1356  1  0.171900  0.179600  0.100400  1
  O  O1357  1  0.621100  0.695900  0.471100  1
  O  O1358  1  0.878900  0.804100  0.971100  1
  O  O1359  1  0.378900  0.304100  0.528900  1
  O  O1360  1  0.121100  0.195900  0.028900  1
  O  O1361  1  0.926800  0.132400  0.263300  1
  O  O1362  1  0.573200  0.367600  0.763300  1
  O  O1363  1  0.073200  0.867600  0.736700  1
  O  O1364  1  0.426800  0.632400  0.236700  1
  O  O1365  1  0.824000  0.155400  0.086000  1
  O  O1366  1  0.676000  0.344600  0.586000  1
  O  O1367  1  0.176000  0.844600  0.914000  1
  O  O1368  1  0.324000  0.655400  0.414000  1
  O  O1369  1  0.692000  0.075900  0.139700  1
  O  O1370  1  0.808000  0.424100  0.639700  1
  O  O1371  1  0.308000  0.924100  0.860300  1
  O  O1372  1  0.192000  0.575900  0.360300  1
  O  O1373  1  0.081400  0.974700  0.101900  1
  O  O1374  1  0.418600  0.525300  0.601900  1
  O  O1375  1  0.918600  0.025300  0.898100  1
  O  O1376  1  0.581400  0.474700  0.398100  1
  O  O1377  1  0.635900  0.002100  0.121500  1
  O  O1378  1  0.864100  0.497900  0.621500  1
  O  O1379  1  0.364100  0.997900  0.878500  1
  O  O1380  1  0.135900  0.502100  0.378500  1
  O  O1381  1  0.920600  0.899100  0.471300  1
  O  O1382  1  0.579400  0.600900  0.971300  1
  O  O1383  1  0.079400  0.100900  0.528700  1
  O  O1384  1  0.420600  0.399100  0.028700  1
  O  O1385  1  0.697700  0.138800  0.086800  1
  O  O1386  1  0.802300  0.361200  0.586800  1
  O  O1387  1  0.302300  0.861200  0.913200  1
  O  O1388  1  0.197700  0.638800  0.413200  1
  O  O1389  1  0.653900  0.209300  0.114800  1
  O  O1390  1  0.846100  0.290700  0.614800  1
  O  O1391  1  0.346100  0.790700  0.885200  1
  O  O1392  1  0.153900  0.709300  0.385200  1
  O  O1393  1  0.622900  0.632000  0.335800  1
  O  O1394  1  0.877100  0.868000  0.835800  1
  O  O1395  1  0.377100  0.368000  0.664200  1
  O  O1396  1  0.122900  0.132000  0.164200  1
  O  O1397  1  0.216800  0.085400  0.125400  1
  O  O1398  1  0.283200  0.414600  0.625400  1
  O  O1399  1  0.783200  0.914600  0.874600  1
  O  O1400  1  0.716800  0.585400  0.374600  1
  O  O1401  1  0.900400  0.840800  0.531300  1
  O  O1402  1  0.599600  0.659200  0.031300  1
  O  O1403  1  0.099600  0.159200  0.468700  1
  O  O1404  1  0.400400  0.340800  0.968700  1
  O  O1405  1  0.061700  0.748900  0.426800  1
  O  O1406  1  0.438300  0.751100  0.926800  1
  O  O1407  1  0.938300  0.251100  0.573200  1
  O  O1408  1  0.561700  0.248900  0.073200  1
  O  O1409  1  0.696200  0.020400  0.496200  1
  O  O1410  1  0.803800  0.479600  0.996200  1
  O  O1411  1  0.303800  0.979600  0.503800  1
  O  O1412  1  0.196200  0.520400  0.003800  1
  O  O1413  1  0.657000  0.901900  0.644900  1
  O  O1414  1  0.843000  0.598100  0.144900  1
  O  O1415  1  0.343000  0.098100  0.355100  1
  O  O1416  1  0.157000  0.401900  0.855100  1
  O  O1417  1  0.899100  0.198200  0.305400  1
  O  O1418  1  0.600900  0.301800  0.805400  1
  O  O1419  1  0.100900  0.801800  0.694600  1
  O  O1420  1  0.399100  0.698200  0.194600  1
  O  O1421  1  0.349600  0.960500  0.011100  1
  O  O1422  1  0.150400  0.539500  0.511100  1
  O  O1423  1  0.650400  0.039500  0.988900  1
  O  O1424  1  0.849600  0.460500  0.488900  1
  O  O1425  1  0.943600  0.588700  0.538600  1
  O  O1426  1  0.556400  0.911300  0.038600  1
  O  O1427  1  0.056400  0.411300  0.461400  1
  O  O1428  1  0.443600  0.088700  0.961400  1
  O  O1429  1  0.905500  0.722900  0.515500  1
  O  O1430  1  0.594500  0.777100  0.015500  1
  O  O1431  1  0.094500  0.277100  0.484500  1
  O  O1432  1  0.405500  0.222900  0.984500  1
  O  O1433  1  0.012000  0.568200  0.605600  1
  O  O1434  1  0.488000  0.931800  0.105600  1
  O  O1435  1  0.988000  0.431800  0.394400  1
  O  O1436  1  0.512000  0.068200  0.894400  1
  O  O1437  1  0.877500  0.548400  0.337300  1
  O  O1438  1  0.622500  0.951600  0.837300  1
  O  O1439  1  0.122500  0.451600  0.662700  1
  O  O1440  1  0.377500  0.048400  0.162700  1
  O  O1441  1  0.501400  0.718800  0.479100  1
  O  O1442  1  0.998600  0.781200  0.979100  1
  O  O1443  1  0.498600  0.281200  0.520900  1
  O  O1444  1  0.001400  0.218800  0.020900  1
  O  O1445  1  0.417700  0.660000  0.472500  1
  O  O1446  1  0.082300  0.840000  0.972500  1
  O  O1447  1  0.582300  0.340000  0.527500  1
  O  O1448  1  0.917700  0.160000  0.027500  1
  O  O1449  1  0.638200  0.120100  0.018900  1
  O  O1450  1  0.861800  0.379900  0.518900  1
  O  O1451  1  0.361800  0.879900  0.981100  1
  O  O1452  1  0.138200  0.620100  0.481100  1
  O  O1453  1  0.919200  0.501800  0.402700  1
  O  O1454  1  0.580800  0.998200  0.902700  1
  O  O1455  1  0.080800  0.498200  0.597300  1
  O  O1456  1  0.419200  0.001800  0.097300  1
  O  O1457  1  0.590100  0.748000  0.180000  1
  O  O1458  1  0.909900  0.752000  0.680000  1
  O  O1459  1  0.409900  0.252000  0.820000  1
  O  O1460  1  0.090100  0.248000  0.320000  1
  O  O1461  1  0.587900  0.988700  0.356500  1
  O  O1462  1  0.912100  0.511300  0.856500  1
  O  O1463  1  0.412100  0.011300  0.643500  1
  O  O1464  1  0.087900  0.488700  0.143500  1
  O  O1465  1  0.178500  0.795400  0.137300  1
  O  O1466  1  0.321500  0.704600  0.637300  1
  O  O1467  1  0.821500  0.204600  0.862700  1
  O  O1468  1  0.678500  0.295400  0.362700  1
  O  O1469  1  0.415200  0.073200  0.239400  1
  O  O1470  1  0.084800  0.426800  0.739400  1
  O  O1471  1  0.584800  0.926800  0.760600  1
  O  O1472  1  0.915200  0.573200  0.260600  1
  O  O1473  1  0.996900  0.206000  0.363500  1
  O  O1474  1  0.503100  0.294000  0.863500  1
  O  O1475  1  0.003100  0.794000  0.636500  1
  O  O1476  1  0.496900  0.706000  0.136500  1
  O  O1477  1  0.741500  0.262500  0.131900  1
  O  O1478  1  0.758500  0.237500  0.631900  1
  O  O1479  1  0.258500  0.737500  0.868100  1
  O  O1480  1  0.241500  0.762500  0.368100  1
  O  O1481  1  0.007600  0.621600  0.469100  1
  O  O1482  1  0.492400  0.878400  0.969100  1
  O  O1483  1  0.992400  0.378400  0.530900  1
  O  O1484  1  0.507600  0.121600  0.030900  1
  O  O1485  1  0.301300  0.966400  0.075600  1
  O  O1486  1  0.198700  0.533600  0.575600  1
  O  O1487  1  0.698700  0.033600  0.924400  1
  O  O1488  1  0.801300  0.466400  0.424400  1
  O  O1489  1  0.837400  0.235400  0.125900  1
  O  O1490  1  0.662600  0.264600  0.625900  1
  O  O1491  1  0.162600  0.764600  0.874100  1
  O  O1492  1  0.337400  0.735400  0.374100  1
  O  O1493  1  0.881000  0.275400  0.062700  1
  O  O1494  1  0.619000  0.224600  0.562700  1
  O  O1495  1  0.119000  0.724600  0.937300  1
  O  O1496  1  0.381000  0.775400  0.437300  1
  O  O1497  1  0.786900  0.102700  0.316600  1
  O  O1498  1  0.713100  0.397300  0.816600  1
  O  O1499  1  0.213100  0.897300  0.683400  1
  O  O1500  1  0.286900  0.602700  0.183400  1
  O  O1501  1  0.300700  0.089800  0.249600  1
  O  O1502  1  0.199300  0.410200  0.749600  1
  O  O1503  1  0.699300  0.910200  0.750400  1
  O  O1504  1  0.800700  0.589800  0.250400  1
  O  O1505  1  0.964700  0.696900  0.443900  1
  O  O1506  1  0.535300  0.803100  0.943900  1
  O  O1507  1  0.035300  0.303100  0.556100  1
  O  O1508  1  0.464700  0.196900  0.056100  1
  O  O1509  1  0.379900  0.907300  0.415100  1
  O  O1510  1  0.120100  0.592700  0.915100  1
  O  O1511  1  0.620100  0.092700  0.584900  1
  O  O1512  1  0.879900  0.407300  0.084900  1
  O  O1513  1  0.671600  0.946300  0.524100  1
  O  O1514  1  0.828400  0.553700  0.024100  1
  O  O1515  1  0.328400  0.053700  0.475900  1
  O  O1516  1  0.171600  0.446300  0.975900  1
  O  O1517  1  0.888400  0.811000  0.405900  1
  O  O1518  1  0.611600  0.689000  0.905900  1
  O  O1519  1  0.111600  0.189000  0.594100  1
  O  O1520  1  0.388400  0.311000  0.094100  1
  O  O1521  1  0.332700  0.131000  0.290000  1
  O  O1522  1  0.167300  0.369000  0.790000  1
  O  O1523  1  0.667300  0.869000  0.710000  1
  O  O1524  1  0.832700  0.631000  0.210000  1
  O  O1525  1  0.765400  0.759700  0.167300  1
  O  O1526  1  0.734600  0.740300  0.667300  1
  O  O1527  1  0.234600  0.240300  0.832700  1
  O  O1528  1  0.265400  0.259700  0.332700  1
  O  O1529  1  0.584700  0.876000  0.582200  1
  O  O1530  1  0.915300  0.624000  0.082200  1
  O  O1531  1  0.415300  0.124000  0.417800  1
  O  O1532  1  0.084700  0.376000  0.917800  1
  O  O1533  1  0.745800  0.121900  0.448600  1
  O  O1534  1  0.754200  0.378100  0.948600  1
  O  O1535  1  0.254200  0.878100  0.551400  1
  O  O1536  1  0.245800  0.621900  0.051400  1
  O  O1537  1  0.591600  0.998800  0.038200  1
  O  O1538  1  0.908400  0.501200  0.538200  1
  O  O1539  1  0.408400  0.001200  0.961800  1
  O  O1540  1  0.091600  0.498800  0.461800  1
  O  O1541  1  0.538000  0.937900  0.552000  1
  O  O1542  1  0.962000  0.562100  0.052000  1
  O  O1543  1  0.462000  0.062100  0.448000  1
  O  O1544  1  0.038000  0.437900  0.948000  1
  O  O1545  1  0.979200  0.782800  0.550400  1
  O  O1546  1  0.520800  0.717200  0.050400  1
  O  O1547  1  0.020800  0.217200  0.449600  1
  O  O1548  1  0.479200  0.282800  0.949600  1
  O  O1549  1  0.386500  0.017900  0.323200  1
  O  O1550  1  0.113500  0.482100  0.823200  1
  O  O1551  1  0.613500  0.982100  0.676800  1
  O  O1552  1  0.886500  0.517900  0.176800  1
  O  O1553  1  0.747300  0.012400  0.230600  1
  O  O1554  1  0.752700  0.487600  0.730600  1
  O  O1555  1  0.252700  0.987600  0.769400  1
  O  O1556  1  0.247300  0.512400  0.269400  1
  O  O1557  1  0.091900  0.894200  0.196800  1
  O  O1558  1  0.408100  0.605800  0.696800  1
  O  O1559  1  0.908100  0.105800  0.803200  1
  O  O1560  1  0.591900  0.394200  0.303200  1
  O  O1561  1  0.913800  0.277100  0.274500  1
  O  O1562  1  0.586200  0.222900  0.774500  1
  O  O1563  1  0.086200  0.722900  0.725500  1
  O  O1564  1  0.413800  0.777100  0.225500  1
  O  O1565  1  0.241000  0.838400  0.151000  1
  O  O1566  1  0.259000  0.661600  0.651000  1
  O  O1567  1  0.759000  0.161600  0.849000  1
  O  O1568  1  0.741000  0.338400  0.349000  1
  O  O1569  1  0.993000  0.552700  0.451000  1
  O  O1570  1  0.507000  0.947300  0.951000  1
  O  O1571  1  0.007000  0.447300  0.549000  1
  O  O1572  1  0.493000  0.052700  0.049000  1
  O  O1573  1  0.608000  0.200000  0.441000  1
  O  O1574  1  0.892000  0.300000  0.941000  1
  O  O1575  1  0.392000  0.800000  0.559000  1
  O  O1576  1  0.108000  0.700000  0.059000  1
  O  O1577  1  0.602000  0.141000  0.451000  1
  O  O1578  1  0.898000  0.359000  0.951000  1
  O  O1579  1  0.398000  0.859000  0.549000  1
  O  O1580  1  0.102000  0.641000  0.049000  1
  O  O1581  1  0.203000  0.893700  0.468200  1
  O  O1582  1  0.297000  0.606300  0.968200  1
  O  O1583  1  0.797000  0.106300  0.531800  1
  O  O1584  1  0.703000  0.393700  0.031800  1
  O  O1585  1  0.748800  0.072800  0.245300  1
  O  O1586  1  0.751200  0.427200  0.745300  1
  O  O1587  1  0.251200  0.927200  0.754700  1
  O  O1588  1  0.248800  0.572800  0.254700  1
  O  O1589  1  0.238000  0.986100  0.370100  1
  O  O1590  1  0.262000  0.513900  0.870100  1
  O  O1591  1  0.762000  0.013900  0.629900  1
  O  O1592  1  0.738000  0.486100  0.129900  1
  O  O1593  1  0.840000  0.234000  0.424000  1
  O  O1594  1  0.660000  0.266000  0.924000  1
  O  O1595  1  0.160000  0.766000  0.576000  1
  O  O1596  1  0.340000  0.734000  0.076000  1
  O  O1597  1  0.102000  0.628000  0.619000  1
  O  O1598  1  0.398000  0.872000  0.119000  1
  O  O1599  1  0.898000  0.372000  0.381000  1
  O  O1600  1  0.602000  0.128000  0.881000  1
  O  O1601  1  0.446000  0.939000  0.530000  1
  O  O1602  1  0.054000  0.561000  0.030000  1
  O  O1603  1  0.554000  0.061000  0.470000  1
  O  O1604  1  0.946000  0.439000  0.970000  1
  O  O1605  1  0.215000  0.801000  0.510000  1
  O  O1606  1  0.285000  0.699000  0.010000  1
  O  O1607  1  0.785000  0.199000  0.490000  1
  O  O1608  1  0.715000  0.301000  0.990000  1
  O  O1609  1  0.959000  0.328300  0.335000  1
  O  O1610  1  0.541000  0.171700  0.835000  1
  O  O1611  1  0.041000  0.671700  0.665000  1
  O  O1612  1  0.459000  0.828300  0.165000  1
  O  O1613  1  0.719000  0.181000  0.974000  1
  O  O1614  1  0.781000  0.319000  0.474000  1
  O  O1615  1  0.281000  0.819000  0.026000  1
  O  O1616  1  0.219000  0.681000  0.526000  1
  O  O1617  1  0.827400  0.622600  0.346300  1
  O  O1618  1  0.672600  0.877400  0.846300  1
  O  O1619  1  0.172600  0.377400  0.653700  1
  O  O1620  1  0.327400  0.122600  0.153700  1
  O  O1621  1  0.797300  0.686600  0.374500  1
  O  O1622  1  0.702700  0.813400  0.874500  1
  O  O1623  1  0.202700  0.313400  0.625500  1
  O  O1624  1  0.297300  0.186600  0.125500  1
  O  O1625  1  0.902000  0.664700  0.377900  1
  O  O1626  1  0.598000  0.835300  0.877900  1
  O  O1627  1  0.098000  0.335300  0.622100  1
  O  O1628  1  0.402000  0.164700  0.122100  1
  O  O1629  1  0.767500  0.763800  0.540800  1
  O  O1630  1  0.732500  0.736200  0.040800  1
  O  O1631  1  0.232500  0.236200  0.459200  1
  O  O1632  1  0.267500  0.263800  0.959200  1
  O  O1633  1  0.280300  0.984100  0.177500  1
  O  O1634  1  0.219700  0.515900  0.677500  1
  O  O1635  1  0.719700  0.015900  0.822500  1
  O  O1636  1  0.780300  0.484100  0.322500  1
  O  O1637  1  0.220900  0.027500  0.245100  1
  O  O1638  1  0.279100  0.472500  0.745100  1
  O  O1639  1  0.779100  0.972500  0.754900  1
  O  O1640  1  0.720900  0.527500  0.254900  1
  O  O1641  1  0.163000  0.952400  0.212200  1
  O  O1642  1  0.337000  0.547600  0.712200  1
  O  O1643  1  0.837000  0.047600  0.787800  1
  O  O1644  1  0.663000  0.452400  0.287800  1
  O  O1645  1  0.221500  0.948800  0.293600  1
  O  O1646  1  0.278500  0.551200  0.793600  1
  O  O1647  1  0.778500  0.051200  0.706400  1
  O  O1648  1  0.721500  0.448800  0.206400  1
  O  O1649  1  0.336700  0.980700  0.259400  1
  O  O1650  1  0.163300  0.519300  0.759400  1
  O  O1651  1  0.663300  0.019300  0.740600  1
  O  O1652  1  0.836700  0.480700  0.240600  1
  O  O1653  1  0.278700  0.905600  0.224800  1
  O  O1654  1  0.221300  0.594400  0.724800  1
  O  O1655  1  0.721300  0.094400  0.775200  1
  O  O1656  1  0.778700  0.405600  0.275200  1
  O  O1657  1  0.873000  0.121900  0.271200  1
  O  O1658  1  0.627000  0.378100  0.771200  1
  O  O1659  1  0.127000  0.878100  0.728800  1
  O  O1660  1  0.373000  0.621900  0.228800  1
  O  O1661  1  0.528900  0.776500  0.178400  1
  O  O1662  1  0.971100  0.723500  0.678400  1
  O  O1663  1  0.471100  0.223500  0.821600  1
  O  O1664  1  0.028900  0.276500  0.321600  1
  O  O1665  1  0.841000  0.279700  0.106000  1
  O  O1666  1  0.659000  0.220300  0.606000  1
  O  O1667  1  0.159000  0.720300  0.894000  1
  O  O1668  1  0.341000  0.779700  0.394000  1
  O  O1669  1  0.787000  0.157300  0.332400  1
  O  O1670  1  0.713000  0.342700  0.832400  1
  O  O1671  1  0.213000  0.842700  0.667600  1
  O  O1672  1  0.287000  0.657300  0.167600  1
  O  O1673  1  0.784300  0.183300  0.344700  1
  O  O1674  1  0.715700  0.316700  0.844700  1
  O  O1675  1  0.215700  0.816700  0.655300  1
  O  O1676  1  0.284300  0.683300  0.155300  1
  O  O1677  1  0.771000  0.170800  0.371000  1
  O  O1678  1  0.729000  0.329200  0.871000  1
  O  O1679  1  0.229000  0.829200  0.629000  1
  O  O1680  1  0.271000  0.670800  0.129000  1
  O  O1681  1  0.806000  0.127900  0.308700  1
  O  O1682  1  0.694000  0.372100  0.808700  1
  O  O1683  1  0.194000  0.872100  0.691300  1
  O  O1684  1  0.306000  0.627900  0.191300  1
  O  O1685  1  0.341600  0.164900  0.314100  1
  O  O1686  1  0.158400  0.335100  0.814100  1
  O  O1687  1  0.658400  0.835100  0.685900  1
  O  O1688  1  0.841600  0.664900  0.185900  1
  O  O1689  1  0.701200  0.736300  0.161000  1
  O  O1690  1  0.798800  0.763700  0.661000  1
  O  O1691  1  0.298800  0.263700  0.839000  1
  O  O1692  1  0.201200  0.236300  0.339000  1
  O  O1693  1  0.630000  0.985300  0.041000  1
  O  O1694  1  0.870000  0.514700  0.541000  1
  O  O1695  1  0.370000  0.014700  0.959000  1
  O  O1696  1  0.130000  0.485300  0.459000  1
  O  O1697  1  0.713000  0.000100  0.260200  1
  O  O1698  1  0.787000  0.499900  0.760200  1
  O  O1699  1  0.287000  0.999900  0.739800  1
  O  O1700  1  0.213000  0.500100  0.239800  1
  O  O1701  1  0.934000  0.313100  0.277600  1
  O  O1702  1  0.566000  0.186900  0.777600  1
  O  O1703  1  0.066000  0.686900  0.722400  1
  O  O1704  1  0.434000  0.813100  0.222400  1
  O  O1705  1  0.238000  0.830200  0.201600  1
  O  O1706  1  0.262000  0.669800  0.701600  1
  O  O1707  1  0.762000  0.169800  0.798400  1
  O  O1708  1  0.738000  0.330200  0.298400  1
  O  O1709  1  0.299600  0.811200  0.219800  1
  O  O1710  1  0.200400  0.688800  0.719800  1
  O  O1711  1  0.700400  0.188800  0.780200  1
  O  O1712  1  0.799600  0.311200  0.280200  1
  O  O1713  1  0.978000  0.531800  0.439900  1
  O  O1714  1  0.522000  0.968200  0.939900  1
  O  O1715  1  0.022000  0.468200  0.560100  1
  O  O1716  1  0.478000  0.031800  0.060100  1
  O  O1717  1  0.616700  0.019800  0.291200  1
  O  O1718  1  0.883300  0.480200  0.791200  1
  O  O1719  1  0.383300  0.980200  0.708800  1
  O  O1720  1  0.116700  0.519800  0.208800  1
  O  O1721  1  0.556300  0.011500  0.283300  1
  O  O1722  1  0.943700  0.488500  0.783300  1
  O  O1723  1  0.443700  0.988500  0.716700  1
  O  O1724  1  0.056300  0.511500  0.216700  1
  O  O1725  1  0.505600  0.010100  0.284100  1
  O  O1726  1  0.994400  0.489900  0.784100  1
  O  O1727  1  0.494400  0.989900  0.715900  1
  O  O1728  1  0.005600  0.510100  0.215900  1
  O  O1729  1  0.875600  0.782700  0.523500  1
  O  O1730  1  0.624400  0.717300  0.023500  1
  O  O1731  1  0.124400  0.217300  0.476500  1
  O  O1732  1  0.375600  0.282700  0.976500  1
  O  O1733  1  0.640700  0.126000  0.481200  1
  O  O1734  1  0.859300  0.374000  0.981200  1
  O  O1735  1  0.359300  0.874000  0.518800  1
  O  O1736  1  0.140700  0.626000  0.018800  1
  O  O1737  1  0.619300  0.087100  0.497500  1
  O  O1738  1  0.880700  0.412900  0.997500  1
  O  O1739  1  0.380700  0.912900  0.502500  1
  O  O1740  1  0.119300  0.587100  0.002500  1
  O  O1741  1  0.613000  0.182900  0.437400  1
  O  O1742  1  0.887000  0.317100  0.937400  1
  O  O1743  1  0.387000  0.817100  0.562600  1
  O  O1744  1  0.113000  0.682900  0.062600  1
  O  O1745  1  0.179800  0.713600  0.130300  1
  O  O1746  1  0.320200  0.786400  0.630300  1
  O  O1747  1  0.820200  0.286400  0.869700  1
  O  O1748  1  0.679800  0.213600  0.369700  1
  O  O1749  1  0.089700  0.769000  0.503400  1
  O  O1750  1  0.410300  0.731000  0.003400  1
  O  O1751  1  0.910300  0.231000  0.496600  1
  O  O1752  1  0.589700  0.269000  0.996600  1
  O  O1753  1  0.196700  0.857500  0.475100  1
  O  O1754  1  0.303300  0.642500  0.975100  1
  O  O1755  1  0.803300  0.142500  0.524900  1
  O  O1756  1  0.696700  0.357500  0.024900  1
  O  O1757  1  0.774000  0.080100  0.262800  1
  O  O1758  1  0.726000  0.419900  0.762800  1
  O  O1759  1  0.226000  0.919900  0.737200  1
  O  O1760  1  0.274000  0.580100  0.237200  1
  O  O1761  1  0.267100  0.850600  0.398900  1
  O  O1762  1  0.232900  0.649400  0.898900  1
  O  O1763  1  0.732900  0.149400  0.601100  1
  O  O1764  1  0.767100  0.350600  0.101100  1
  O  O1765  1  0.414800  0.984200  0.394500  1
  O  O1766  1  0.085200  0.515800  0.894500  1
  O  O1767  1  0.585200  0.015800  0.605500  1
  O  O1768  1  0.914800  0.484200  0.105500  1
  O  O1769  1  0.480800  0.999900  0.577100  1
  O  O1770  1  0.019200  0.500100  0.077100  1
  O  O1771  1  0.519200  0.000100  0.422900  1
  O  O1772  1  0.980800  0.499900  0.922900  1
  O  O1773  1  0.979800  0.154400  0.309500  1
  O  O1774  1  0.520200  0.345600  0.809500  1
  O  O1775  1  0.020200  0.845600  0.690500  1
  O  O1776  1  0.479800  0.654400  0.190500  1
  O  O1777  1  0.349000  0.857100  0.433700  1
  O  O1778  1  0.151000  0.642900  0.933700  1
  O  O1779  1  0.651000  0.142900  0.566300  1
  O  O1780  1  0.849000  0.357100  0.066300  1
  O  O1781  1  0.091000  0.539600  0.706800  1
  O  O1782  1  0.409000  0.960400  0.206800  1
  O  O1783  1  0.909000  0.460400  0.293200  1
  O  O1784  1  0.591000  0.039600  0.793200  1
  O  O1785  1  0.231000  0.956500  0.408600  1
  O  O1786  1  0.269000  0.543500  0.908600  1
  O  O1787  1  0.769000  0.043500  0.591400  1
  O  O1788  1  0.731000  0.456500  0.091400  1
  O  O1789  1  0.625000  0.256000  0.479300  1
  O  O1790  1  0.875000  0.244000  0.979300  1
  O  O1791  1  0.375000  0.744000  0.520700  1
  O  O1792  1  0.125000  0.756000  0.020700  1
  O  O1793  1  0.445000  0.060600  0.552800  1
  O  O1794  1  0.055000  0.439400  0.052800  1
  O  O1795  1  0.555000  0.939400  0.447200  1
  O  O1796  1  0.945000  0.560600  0.947200  1
  O  O1797  1  0.856000  0.231300  0.376700  1
  O  O1798  1  0.644000  0.268700  0.876700  1
  O  O1799  1  0.144000  0.768700  0.623300  1
  O  O1800  1  0.356000  0.731300  0.123300  1
  O  O1801  1  0.096000  0.608700  0.700800  1
  O  O1802  1  0.404000  0.891300  0.200800  1
  O  O1803  1  0.904000  0.391300  0.299200  1
  O  O1804  1  0.596000  0.108700  0.799200  1
  O  O1805  1  0.886200  0.225300  0.053500  1
  O  O1806  1  0.613800  0.274700  0.553500  1
  O  O1807  1  0.113800  0.774700  0.946500  1
  O  O1808  1  0.386200  0.725300  0.446500  1
  O  O1809  1  0.197000  0.779000  0.496000  1
  O  O1810  1  0.303000  0.721000  0.996000  1
  O  O1811  1  0.803000  0.221000  0.504000  1
  O  O1812  1  0.697000  0.279000  0.004000  1
  O  O1813  1  0.492700  0.681300  0.470600  1
  O  O1814  1  0.007300  0.818700  0.970600  1
  O  O1815  1  0.507300  0.318700  0.529400  1
  O  O1816  1  0.992700  0.181300  0.029400  1
  O  O1817  1  0.262000  0.983000  0.393000  1
  O  O1818  1  0.238000  0.517000  0.893000  1
  O  O1819  1  0.738000  0.017000  0.607000  1
  O  O1820  1  0.762000  0.483000  0.107000  1
