
#######################################################################
#
#                 Cambridge Crystallographic Data Centre
#                                CCDC 
#
#######################################################################
#
# If this CIF has been generated from an entry in the Cambridge 
# Structural Database, then it will include bibliographic, chemical, 
# crystal, experimental, refinement or atomic coordinate data resulting 
# from the CCDC's data processing and validation procedures.
#
#######################################################################

data_GIDGUX
_chemical_formula_moiety         
'C144 H96 Fe4 N24 O36 S12 4-,1.1(H12 Fe1 O6 2+),1.8(C4 H12 N1 1+),0.1(C1 H2 Cl2),47.27(H2 O1)'
_chemical_name_systematic        
"Tetramethylammonium hexa-aqua-iron hexakis(\m~2~-4,4'-bis((pyridin-2-ylmethylene)amino)biphenyl-2,2'-disulfonate)-tetra-iron dichloromethane clathrate hydrate"
_symmetry_cell_setting           monoclinic
_symmetry_space_group_name_H-M   'P 21/n'
_symmetry_Int_Tables_number      14
_space_group_name_Hall           '-P 2yn'
loop_
_symmetry_equiv_pos_site_id
_symmetry_equiv_pos_as_xyz
1 x,y,z
2 1/2-x,1/2+y,1/2-z
3 -x,-y,-z
4 1/2+x,1/2-y,1/2+z
_cell_length_a                   21.9173(4)
_cell_length_b                   33.3220(6)
_cell_length_c                   32.6991(5)
_cell_angle_alpha                90
_cell_angle_beta                 90.9171(8)
_cell_angle_gamma                90
_cell_volume                     23878
_exptl_crystal_colour            purple
_exptl_crystal_description       rod
_cell_formula_units_Z            4
loop_
_atom_site_label
_atom_site_type_symbol
_atom_site_fract_x
_atom_site_fract_y
_atom_site_fract_z
Fe1 Fe 0.47031(5) 0.61855(3) 0.45936(3)
Fe2 Fe 0.95042(6) 0.65376(4) 0.68704(3)
Fe3 Fe 0.66662(5) 0.96978(3) 0.55917(3)
Fe4 Fe 0.42211(6) 0.74404(4) 0.82581(4)
S1 S 0.74860(14) 0.60958(12) 0.48259(8)
O1 O 0.7929(5) 0.5853(5) 0.5031(3)
O2 O 0.7726(7) 0.6494(4) 0.4797(4)
O3 O 0.7275(4) 0.5941(5) 0.4456(3)
N1 N 0.4170(3) 0.57213(18) 0.4714(2)
N2 N 0.5191(3) 0.59403(18) 0.50375(19)
C3 C 0.3635(4) 0.5621(3) 0.4547(3)
H1 H 0.3473 0.5785 0.4333
C4 C 0.3299(5) 0.5287(3) 0.4668(3)
H2 H 0.2919 0.5226 0.4539
C5 C 0.3524(5) 0.5050(3) 0.4976(3)
H3 H 0.3301 0.4822 0.5064
C6 C 0.4081(5) 0.5146(2) 0.5158(3)
H4 H 0.4245 0.4985 0.5372
C7 C 0.4393(4) 0.5479(2) 0.5023(2)
C8 C 0.4961(4) 0.5614(2) 0.5194(2)
H5 H 0.5161 0.5474 0.5411
C9 C 0.5766(4) 0.6078(2) 0.5207(2)
C10 C 0.6284(4) 0.6037(2) 0.4982(2)
H6 H 0.6257 0.5936 0.4711
C11 C 0.6845(4) 0.6141(2) 0.5148(2)
C12 C 0.6895(4) 0.6283(2) 0.5549(2)
C13 C 0.6361(4) 0.6331(3) 0.5766(3)
H7 H 0.6386 0.6434 0.6037
C14 C 0.5791(4) 0.6234(3) 0.5602(2)
H8 H 0.5430 0.6273 0.5754
S2 S 0.74672(14) 0.55862(8) 0.60997(9)
O4 O 0.7840(16) 0.5401(10) 0.6411(10)
O5 O 0.6879(11) 0.5684(12) 0.6231(12)
O6 O 0.761(2) 0.5461(12) 0.5711(7)
N3 N 1.0283(3) 0.6695(2) 0.6625(2)
N4 N 0.9234(3) 0.6578(2) 0.62926(19)
C15 C 1.0832(5) 0.6758(4) 0.6804(4)
H9 H 1.0870 0.6720 0.7092
C16 C 1.1335(5) 0.6875(5) 0.6595(5)
H10 H 1.1712 0.6913 0.6738
C17 C 1.1304(6) 0.6937(5) 0.6191(5)
H11 H 1.1651 0.7023 0.6045
C18 C 1.0756(5) 0.6871(4) 0.5994(4)
H12 H 1.0721 0.6907 0.5707
C19 C 1.0247(4) 0.6749(3) 0.6216(3)
C20 C 0.9657(4) 0.6681(3) 0.6043(3)
H13 H 0.9579 0.6709 0.5758
C21 C 0.8629(3) 0.6512(2) 0.6121(2)
C22 C 0.8372(4) 0.6142(2) 0.6161(3)
H14 H 0.8579 0.5937 0.6310
C23 C 0.7802(4) 0.6065(2) 0.5979(3)
C24 C 0.7497(4) 0.6359(2) 0.5759(2)
C25 C 0.7770(4) 0.6735(3) 0.5735(3)
H15 H 0.7566 0.6942 0.5586
C26 C 0.8321(4) 0.6817(3) 0.5917(3)
H16 H 0.8491 0.7079 0.5904
S3 S 0.44145(14) 0.79977(8) 0.46399(14)
O7 O 0.4634(5) 0.8320(3) 0.4397(7)
O8 O 0.4239(5) 0.8107(5) 0.5035(5)
O9 O 0.3945(3) 0.7776(2) 0.4431(3)
N5 N 0.5170(3) 0.58818(19) 0.4187(2)
N6 N 0.5325(3) 0.65958(18) 0.44628(19)
C27 C 0.5083(5) 0.5509(2) 0.4051(3)
H17 H 0.4759 0.5355 0.4160
C28 C 0.5446(6) 0.5337(3) 0.3755(3)
H18 H 0.5366 0.5070 0.3665
C29 C 0.5915(6) 0.5547(3) 0.3593(3)
H19 H 0.6165 0.5429 0.3391
C30 C 0.6026(5) 0.5939(3) 0.3729(3)
H20 H 0.6352 0.6094 0.3625
C31 C 0.5642(4) 0.6091(2) 0.4022(3)
C32 C 0.5708(4) 0.6496(2) 0.4191(2)
H21 H 0.6018 0.6674 0.4104
C33 C 0.5406(4) 0.6993(2) 0.4634(2)
C34 C 0.4958(4) 0.7272(2) 0.4579(3)
H22 H 0.4587 0.7198 0.4445
C35 C 0.5037(4) 0.7665(2) 0.4717(3)
C36 C 0.5586(4) 0.7778(2) 0.4902(2)
C37 C 0.6033(4) 0.7494(2) 0.4966(3)
H23 H 0.6400 0.7567 0.5105
C38 C 0.5952(4) 0.7094(2) 0.4828(3)
H24 H 0.6264 0.6899 0.4868
S4 S 0.62914(10) 0.83945(6) 0.43050(6)
O10 O 0.6001(4) 0.8053(2) 0.4130(2)
O11 O 0.6909(4) 0.8336(4) 0.4402(2)
O12 O 0.6186(4) 0.8747(2) 0.4061(2)
N7 N 0.6067(3) 1.01260(19) 0.5692(2)
N8 N 0.5912(3) 0.94050(17) 0.54469(18)
C39 C 0.6166(4) 1.0497(2) 0.5839(3)
H25 H 0.6570 1.0574 0.5914
C40 C 0.5691(5) 1.0776(3) 0.5886(3)
H26 H 0.5778 1.1037 0.5987
C41 C 0.5108(5) 1.0672(3) 0.5787(3)
H27 H 0.4785 1.0860 0.5816
C42 C 0.4994(4) 1.0289(2) 0.5644(3)
H28 H 0.4589 1.0208 0.5577
C43 C 0.5476(4) 1.0025(2) 0.5598(2)
C44 C 0.5417(4) 0.9612(2) 0.5460(2)
H29 H 0.5033 0.9501 0.5383
C45 C 0.5859(4) 0.8989(2) 0.5317(2)
C46 C 0.6016(4) 0.8886(2) 0.4931(2)
H30 H 0.6164 0.9087 0.4752
C47 C 0.5965(4) 0.8491(2) 0.4792(2)
C48 C 0.5702(4) 0.8200(2) 0.5039(2)
C49 C 0.5543(4) 0.8317(2) 0.5434(2)
H31 H 0.5379 0.8121 0.5612
C50 C 0.5615(4) 0.8706(2) 0.5577(2)
H32 H 0.5501 0.8776 0.5847
S5 S 0.43302(15) 0.58788(8) 0.63576(8)
O13 O 0.3996(4) 0.5942(2) 0.6721(2)
O14 O 0.4987(4) 0.5824(3) 0.6442(2)
O15 O 0.4093(4) 0.55669(19) 0.6092(2)
N9 N 0.4118(3) 0.63945(18) 0.4178(2)
N10 N 0.4207(3) 0.65333(18) 0.49477(19)
C51 C 0.4087(5) 0.6302(3) 0.3784(3)
H33 H 0.4401 0.6144 0.3667
C52 C 0.3596(6) 0.6433(3) 0.3534(3)
H34 H 0.3577 0.6358 0.3254
C53 C 0.3152(5) 0.6665(3) 0.3689(3)
H35 H 0.2818 0.6750 0.3522
C54 C 0.3194(5) 0.6776(3) 0.4097(3)
H36 H 0.2898 0.6949 0.4212
C55 C 0.3673(4) 0.6631(2) 0.4331(3)
C56 C 0.3750(4) 0.6705(2) 0.4767(3)
H37 H 0.3476 0.6872 0.4912
C57 C 0.4270(4) 0.6600(3) 0.5381(3)
C58 C 0.4210(4) 0.6276(2) 0.5640(3)
H38 H 0.4125 0.6017 0.5532
C59 C 0.4276(5) 0.6330(3) 0.6065(3)
C60 C 0.4377(4) 0.6707(3) 0.6227(3)
C61 C 0.4449(5) 0.7026(3) 0.5959(3)
H39 H 0.4531 0.7285 0.6067
C62 C 0.4403(5) 0.6977(3) 0.5536(3)
H40 H 0.4463 0.7198 0.5357
S6 S 0.31819(14) 0.70310(11) 0.66201(9)
O16 O 0.3018(4) 0.6722(3) 0.6342(3)
O17 O 0.3329(5) 0.7400(3) 0.6393(3)
O18 O 0.2750(3) 0.7102(3) 0.6933(2)
N11 N 0.4392(4) 0.7083(3) 0.8727(2)
N12 N 0.4409(4) 0.6942(2) 0.7957(2)
C63 C 0.4368(6) 0.7171(4) 0.9123(3)
H41 H 0.4252 0.7434 0.9205
C64 C 0.4512(6) 0.6881(4) 0.9424(3)
H42 H 0.4501 0.6953 0.9705
C65 C 0.4666(6) 0.6495(4) 0.9316(3)
H43 H 0.4755 0.6298 0.9519
C66 C 0.4687(5) 0.6405(4) 0.8913(3)
H44 H 0.4803 0.6144 0.8827
C67 C 0.4537(5) 0.6702(3) 0.8623(3)
C68 C 0.4553(5) 0.6639(3) 0.8193(3)
H45 H 0.4663 0.6386 0.8082
C69 C 0.4425(4) 0.6885(3) 0.7526(2)
C70 C 0.3885(5) 0.6942(3) 0.7304(3)
H46 H 0.3523 0.7012 0.7443
C71 C 0.3866(4) 0.6897(3) 0.6883(3)
C72 C 0.4400(5) 0.6784(3) 0.6677(3)
C73 C 0.4933(5) 0.6719(4) 0.6901(3)
H47 H 0.5290 0.6631 0.6765
C74 C 0.4952(5) 0.6783(3) 0.7325(3)
H48 H 0.5326 0.6756 0.7473
S7 S 0.9256(2) 0.79404(12) 0.56667(12)
O19 O 0.9266(5) 0.8353(3) 0.5615(3)
O20 O 0.8802(7) 0.7759(4) 0.5372(3)
O21 O 0.9824(5) 0.7732(4) 0.5649(4)
N13 N 0.9844(4) 0.6552(3) 0.7431(2)
N14 N 0.9349(3) 0.7109(2) 0.6996(2)
C75 C 1.0062(5) 0.6251(4) 0.7670(3)
H49 H 1.0072 0.5986 0.7565
C76 C 1.0272(6) 0.6323(5) 0.8065(4)
H50 H 1.0417 0.6102 0.8223
C77 C 1.0280(6) 0.6688(5) 0.8233(4)
H51 H 1.0426 0.6729 0.8505
C78 C 1.0066(5) 0.7005(4) 0.7995(3)
H52 H 1.0067 0.7271 0.8100
C79 C 0.9850(4) 0.6929(3) 0.7602(3)
C80 C 0.9572(4) 0.7234(3) 0.7341(3)
H53 H 0.9557 0.7508 0.7420
C81 C 0.9031(4) 0.7401(2) 0.6750(2)
C82 C 0.9271(4) 0.7547(2) 0.6394(3)
H54 H 0.9656 0.7451 0.6306
C83 C 0.8963(4) 0.7830(3) 0.6163(3)
C84 C 0.8420(4) 0.7992(2) 0.6290(2)
C85 C 0.8178(5) 0.7840(3) 0.6645(3)
H55 H 0.7797 0.7940 0.6734
C86 C 0.8466(5) 0.7548(3) 0.6875(3)
H56 H 0.8283 0.7448 0.7116
S8 S 0.86299(15) 0.88754(8) 0.66126(9)
O22 O 0.9157(4) 0.8634(3) 0.6634(4)
O23 O 0.8243(5) 0.8818(3) 0.6955(2)
O24 O 0.8753(4) 0.9299(2) 0.6550(3)
N15 N 0.6748(3) 0.98529(18) 0.5013(2)
N16 N 0.7216(3) 0.92607(18) 0.5411(2)
C87 C 0.6501(4) 1.0163(2) 0.4814(3)
H57 H 0.6255 1.0346 0.4962
C88 C 0.6588(4) 1.0231(3) 0.4398(3)
H58 H 0.6411 1.0459 0.4269
C89 C 0.6928(5) 0.9969(3) 0.4179(3)
H59 H 0.6984 1.0009 0.3894
C90 C 0.7193(5) 0.9641(3) 0.4379(3)
H60 H 0.7433 0.9454 0.4233
C91 C 0.7099(4) 0.9595(2) 0.4794(2)
C92 C 0.7350(4) 0.9273(2) 0.5030(3)
H61 H 0.7605 0.9076 0.4911
C93 C 0.7482(4) 0.8939(2) 0.5649(2)
C94 C 0.7883(4) 0.9024(2) 0.5966(3)
H62 H 0.7956 0.9296 0.6037
C95 C 0.8176(4) 0.8731(3) 0.6179(3)
C96 C 0.8087(4) 0.8324(3) 0.6072(3)
C97 C 0.7678(4) 0.8244(2) 0.5756(3)
H63 H 0.7604 0.7973 0.5682
C98 C 0.7372(4) 0.8543(2) 0.5543(3)
H64 H 0.7093 0.8477 0.5328
S9 S 0.79267(13) 0.73770(8) 0.80801(7)
O25 O 0.7651(6) 0.7266(4) 0.8443(2)
O26 O 0.7685(8) 0.7728(3) 0.7909(3)
O27 O 0.8565(4) 0.7380(4) 0.8136(4)
N17 N 0.9680(4) 0.5961(2) 0.6806(2)
N18 N 0.8734(3) 0.6316(2) 0.7094(2)
C99 C 1.0154(6) 0.5784(4) 0.6636(4)
H65 H 1.0464 0.5946 0.6520
C100 C 1.0214(9) 0.5368(5) 0.6621(6)
H66 H 1.0567 0.5251 0.6505
C101 C 0.9776(11) 0.5132(4) 0.6770(6)
H67 H 0.9815 0.4849 0.6754
C102 C 0.9269(8) 0.5298(4) 0.6947(5)
H68 H 0.8959 0.5134 0.7059
C103 C 0.9230(6) 0.5715(3) 0.6954(3)
C104 C 0.8722(5) 0.5934(3) 0.7116(3)
H69 H 0.8387 0.5798 0.7234
C105 C 0.8208(4) 0.6521(2) 0.7243(2)
C106 C 0.8274(4) 0.6792(3) 0.7557(3)
H70 H 0.8670 0.6848 0.7666
C107 C 0.7770(4) 0.6985(3) 0.7716(2)
C108 C 0.7177(4) 0.6898(3) 0.7573(3)
C109 C 0.7127(4) 0.6630(3) 0.7244(3)
H71 H 0.6735 0.6576 0.7128
C110 C 0.7635(5) 0.6441(3) 0.7082(3)
H72 H 0.7588 0.6258 0.6862
S10 S 0.6455(7) 0.6382(4) 0.8169(6)
O28 O 0.6288(14) 0.6167(8) 0.7816(9)
O29 O 0.6068(15) 0.6325(11) 0.8521(9)
O30 O 0.7085(10) 0.6365(12) 0.8293(11)
N19 N 0.4124(4) 0.7922(3) 0.8606(2)
N20 N 0.5078(4) 0.7622(2) 0.8287(2)
C111 C 0.3600(6) 0.8084(4) 0.8747(4)
H73 H 0.3222 0.7956 0.8683
C112 C 0.3599(6) 0.8424(4) 0.8978(4)
H74 H 0.3223 0.8528 0.9073
C113 C 0.4136(7) 0.8619(4) 0.9078(3)
H75 H 0.4134 0.8859 0.9235
C114 C 0.4688(6) 0.8454(4) 0.8938(3)
H76 H 0.5069 0.8576 0.9003
C115 C 0.4655(5) 0.8110(3) 0.8704(3)
C116 C 0.5184(5) 0.7927(3) 0.8514(3)
H77 H 0.5585 0.8028 0.8558
C117 C 0.5594(4) 0.7438(3) 0.8101(2)
C118 C 0.5829(4) 0.7089(3) 0.8260(3)
H78 H 0.5645 0.6973 0.8493
C119 C 0.6327(4) 0.6902(3) 0.8091(3)
C120 C 0.6619(4) 0.7075(3) 0.7752(3)
C121 C 0.6373(5) 0.7426(3) 0.7598(3)
H79 H 0.6562 0.7549 0.7370
C122 C 0.5873(5) 0.7606(3) 0.7757(3)
H80 H 0.5714 0.7844 0.7637
S11 S 0.44832(13) 0.91949(9) 0.65000(9)
O31 O 0.4165(4) 0.9154(3) 0.6868(3)
O32 O 0.4320(5) 0.8885(3) 0.6192(3)
O33 O 0.4434(4) 0.9585(2) 0.6319(3)
N21 N 0.7374(3) 1.0025(2) 0.5771(2)
N22 N 0.6682(3) 0.95630(19) 0.6180(2)
C123 C 0.7726(4) 1.0252(3) 0.5544(3)
H81 H 0.7645 1.0268 0.5258
C124 C 0.8222(5) 1.0472(3) 0.5713(4)
H82 H 0.8470 1.0633 0.5542
C125 C 0.8344(5) 1.0451(3) 0.6132(4)
H83 H 0.8672 1.0599 0.6251
C126 C 0.7983(5) 1.0215(3) 0.6366(4)
H84 H 0.8060 1.0193 0.6652
C127 C 0.7502(4) 1.0006(2) 0.6185(3)
C128 C 0.7096(4) 0.9749(2) 0.6396(3)
H85 H 0.7127 0.9714 0.6684
C129 C 0.6292(4) 0.9291(3) 0.6403(2)
C130 C 0.5674(4) 0.9371(2) 0.6402(2)
H86 H 0.5521 0.9601 0.6264
C131 C 0.5278(4) 0.9119(2) 0.6602(2)
C132 C 0.5504(4) 0.8796(3) 0.6831(3)
C133 C 0.6116(5) 0.8728(3) 0.6826(3)
H87 H 0.6274 0.8505 0.6974
C134 C 0.6524(5) 0.8970(3) 0.6613(3)
H88 H 0.6949 0.8912 0.6615
S12 S 0.5321(3) 0.90107(13) 0.77651(10)
O34 O 0.5453(6) 0.9330(3) 0.7519(3)
O35 O 0.5908(7) 0.8821(6) 0.7904(6)
O36 O 0.4956(7) 0.9079(3) 0.8121(3)
N23 N 0.3343(4) 0.7313(3) 0.8240(2)
N24 N 0.3970(4) 0.7767(2) 0.7780(2)
C135 C 0.3034(6) 0.7058(4) 0.8470(3)
H89 H 0.3246 0.6915 0.8680
C136 C 0.2382(6) 0.6989(5) 0.8412(4)
H90 H 0.2173 0.6800 0.8575
C137 C 0.2093(6) 0.7195(5) 0.8126(4)
H91 H 0.1663 0.7165 0.8095
C138 C 0.2397(6) 0.7456(4) 0.7869(4)
H92 H 0.2191 0.7593 0.7652
C139 C 0.3021(5) 0.7509(3) 0.7944(3)
C140 C 0.3406(5) 0.7777(3) 0.7703(3)
H93 H 0.3238 0.7950 0.7499
C141 C 0.4359(4) 0.8023(3) 0.7534(3)
C142 C 0.4594(5) 0.8363(3) 0.7708(3)
H94 H 0.4503 0.8428 0.7983
C143 C 0.4960(5) 0.8610(3) 0.7488(3)
C144 C 0.5099(5) 0.8528(3) 0.7076(3)
C145 C 0.4854(5) 0.8188(3) 0.6918(3)
H95 H 0.4931 0.8125 0.6640
C146 C 0.4497(5) 0.7927(3) 0.7140(3)
H96 H 0.4350 0.7685 0.7020
O37 O 0.624(2) 0.6742(15) 0.9494(14)
O38 O 0.149(2) 0.7555(14) 0.4748(15)
O39 O 0.270(2) 0.6659(14) 0.5545(14)
Fe5 Fe 0.22605(12) 0.54147(7) 0.28487(7)
O40 O 0.2421(5) 0.4782(2) 0.2837(3)
O41 O 0.2931(5) 0.5480(3) 0.2398(3)
O42 O 0.1594(4) 0.5332(2) 0.2393(2)
O43 O 0.2072(6) 0.6030(3) 0.2861(4)
O44 O 0.1602(5) 0.5307(3) 0.3323(3)
O45 O 0.2894(5) 0.5496(4) 0.3325(3)
O46 O 0.5795(3) 0.52857(19) 0.6007(2)
O47 O 0.8648(4) 0.8783(2) 0.4979(2)
O48 O 0.5812(4) 1.1017(2) 0.4748(3)
O49 O 0.3072(4) 0.6396(3) 0.9239(3)
O50 O 0.6765(5) 0.9140(3) 0.3453(3)
O51 O 1.0754(6) 0.7636(3) 0.8680(3)
O52 O 0.8018(5) 0.9136(4) 0.3613(3)
O53 O 0.7038(5) 1.1101(3) 0.5051(4)
O54 O 0.6217(7) 1.1644(3) 0.6318(4)
O55 O 0.4387(6) 0.7317(4) 0.3663(4)
O56 O 0.1208(6) 0.4707(3) 0.1958(4)
O57 O 0.1717(6) 0.3990(3) 0.1781(5)
O58 O 0.3979(7) 0.5321(4) 0.3412(4)
O59 O 0.6117(6) 0.5955(4) 0.6890(4)
O60 O 0.9136(6) 0.6435(5) 0.5114(3)
O61 O 0.2436(6) 0.5809(4) 0.4053(4)
O62 O 0.3297(7) 0.4405(4) 0.2397(4)
O63 O 0.9691(16) 0.8211(10) 0.7228(10)
O64 O 0.4381(8) 0.5737(5) 0.7519(4)
O65 O 0.7167(7) 1.1255(5) 0.5846(5)
O66 O 0.2965(14) 0.6599(9) 0.2643(9)
O67 O 0.3474(7) 0.6139(5) 0.7909(5)
O68 O 1.0094(7) 1.0301(5) 0.6230(7)
O69 O 0.9872(14) 1.0548(9) 0.5422(9)
O70 O 0.9432(8) 0.9619(5) 0.5882(6)
O71 O 0.5868(10) 0.9161(6) 0.8752(5)
O72 O 0.5541(16) 0.9435(10) 0.9428(10)
O73 O 0.446(2) 0.9679(15) 0.9380(15)
O74 O 1.1015(8) 0.8037(6) 0.8006(5)
O75 O 0.5359(9) 0.5559(6) 0.7993(6)
O76 O 0.1706(9) 0.5241(5) 0.4444(7)
O77 O 0.0834(10) 0.7614(6) 0.4256(6)
O78 O 0.1973(11) 0.7495(8) 0.4086(6)
O79 O 0.8024(8) 1.0773(8) 0.4667(6)
O80 O 0.9860(10) 1.1057(6) 0.4310(7)
O81 O 0.8628(10) 0.9819(6) 0.3799(8)
O82 O 0.7103(8) 0.6807(8) 0.3893(9)
O83 O 0.8492(12) 1.0127(8) 0.4605(7)
O84 O 1.0013(13) 0.5199(6) 0.7806(8)
O85 O 1.0835(12) 0.5272(7) 0.8382(9)
O86 O 0.9162(11) 1.1023(11) 0.5006(6)
O87 O 0.6565(9) 0.8548(6) 0.9023(7)
O88 O 0.1676(9) 0.7070(10) 0.3635(12)
O89 O 1.1145(14) 0.5522(8) 0.7723(12)
O90 O 0.7385(12) 0.7458(9) 0.4225(7)
O91 O 0.5042(11) 0.6387(9) 0.2938(7)
O92 O 1.2599(8) 0.6329(9) 0.7389(7)
O93 O 1.1513(9) 0.6241(8) 0.7670(7)
O94 O 0.453(2) 0.7829(6) 0.9875(6)
O95 O 0.3220(9) 0.8616(9) 0.7034(8)
O96 O 0.1949(14) 0.4961(8) 0.5200(10)
O97 O 0.7557(14) 0.5504(9) 0.3790(7)
O98 O 0.4064(11) 0.5146(6) 0.2240(11)
O99 O 0.2407(16) 0.5997(7) 0.6519(8)
O100 O 0.8919(17) 0.9591(6) 0.5102(8)
O101 O 0.4095(14) 0.8043(7) 0.6041(9)
O102 O 0.464(3) 0.583(2) 0.300(2)
O103 O 0.1961(16) 0.7786(10) 0.6871(10)
O104 O 0.2540(16) 0.8463(11) 0.6597(10)
O105 O 0.3783(13) 0.5228(9) 0.2805(9)
O106 O 1.1228(15) 0.5863(10) 0.5954(10)
O107 O 0.9776(14) 0.5771(9) 0.5000(9)
O108 O 0.7535(14) 0.7689(9) 0.4880(9)
O109 O 0.3217(15) 0.8711(9) 0.7854(9)
O110 O 1.1090(18) 0.6771(12) 0.4835(12)
O111 O 1.071(2) 0.7799(16) 0.6955(16)
O112 O 0.7137(18) 0.6603(13) 0.3267(12)
O113 O 1.1548(17) 0.5658(11) 0.6434(11)
O114 O 1.0198(17) 0.8105(11) 0.8450(11)
O115 O 0.3871(17) 0.9368(11) 0.8069(11)
O116 O 0.7091(19) 0.4682(13) 0.3937(13)
O117 O 1.0914(19) 0.6060(12) 0.5164(12)
O118 O 0.8773(19) 0.5044(13) 0.4096(13)
O119 O 0.4111(19) 0.4950(13) 0.7302(12)
O120 O 1.0918(19) 0.7943(13) 0.5400(13)
O121 O 0.373(2) 0.9800(14) 0.7425(14)
O122 O 1.273(2) 0.5891(15) 0.5436(15)
O123 O 1.035(2) 0.8360(16) 0.6784(16)
O124 O 0.915(2) 0.5252(16) 0.5644(15)
O125 O 0.644(3) 0.6258(18) 0.2698(18)
O126 O 0.219(3) 0.9076(17) 0.6139(16)
C1 C 0.573(4) 0.761(2) 0.628(2)
C2 C 0.652(5) 0.757(3) 0.614(3)
Cl1 Cl 0.651(3) 0.7899(18) 0.640(2)
Cl2 Cl 0.573(3) 0.7327(15) 0.5988(17)
C147? C 0.590(8) 0.757(6) 0.645(2)
H97? H 0.5999 0.7365 0.6660
H98? H 0.5533 0.7717 0.6539
C148? C 0.659(4) 0.736(3) 0.619(3)
C149? C 0.620(4) 0.776(3) 0.625(2)
C150? C 0.678(3) 0.715(2) 0.646(2)
C151? C 0.663(4) 0.779(2) 0.665(2)
C152? C 0.664(4) 0.744(3) 0.639(3)
C153? C 0.620(5) 0.740(3) 0.608(3)
C154? C 0.607(5) 0.739(3) 0.623(3)
C155? C 0.605(7) 0.733(5) 0.647(5)
C156? C 0.646(6) 0.709(4) 0.653(3)
O127? O 0.7057(4) 0.5469(2) 0.5792(2)
O128? O 0.7169(5) 0.5650(3) 0.6490(3)
O129? O 0.8003(4) 0.5318(2) 0.6141(3)
S13? S 0.6544(3) 0.64405(17) 0.83565(16)
O130? O 0.6714(6) 0.6534(4) 0.8764(3)
O131? O 0.7023(6) 0.6249(6) 0.8127(5)
O132? O 0.5989(7) 0.6205(5) 0.8328(5)
Fe6? Fe 0.24847(18) 0.76553(12) 0.53296(10)
O133? O 0.2787(7) 0.7555(6) 0.4726(4)
O134? O 0.2195(10) 0.8221(5) 0.5163(7)
O135? O 0.1644(7) 0.7383(7) 0.5213(6)
O136? O 0.2218(11) 0.7743(7) 0.5943(5)
O137? O 0.2798(8) 0.7065(5) 0.5510(4)
O138? O 0.3370(8) 0.7887(7) 0.5467(6)
O139? O 0.7826(18) 0.7411(12) 0.5004(11)
O140? O 1.0875(15) 0.7724(9) 0.7266(10)
O141? O 0.728(2) 0.6327(17) 0.3271(15)
O142? O 0.7003(14) 0.4753(9) 0.3587(10)
O143? O 0.855(2) 0.5198(13) 0.3727(14)
O144? O 1.255(3) 0.6205(18) 0.5198(17)
O145? O 0.950(2) 0.5553(16) 0.5645(15)
O146? O 1.0079(16) 0.5325(10) 0.8177(11)
O147? O 0.275(2) 0.5378(12) 0.2858(12)
O148? O 0.2344(8) 0.6672(4) 0.2403(5)
O149? O 0.4796(15) 0.5503(13) 0.2823(8)
O150? O 0.529(2) 0.5558(15) 0.8257(16)
O151? O 0.637(2) 0.6531(17) 0.9249(18)
O152? O 0.617(2) 0.6546(15) 0.9555(15)
O153? O 0.565(3) 0.933(2) 0.896(2)
O154? O 0.502(2) 0.9573(13) 0.9263(13)
O155? O 0.9091(8) 0.8175(5) 0.7523(4)
O156? O 0.260(2) 0.7996(13) 0.6713(13)
O157? O 1.201(2) 0.6342(14) 0.7495(14)
O158? O 1.1627(15) 0.6069(10) 0.7202(10)
O159? O 0.990(3) 1.042(2) 0.576(2)
loop_
_geom_bond_atom_site_label_1
_geom_bond_atom_site_label_2
_geom_bond_site_symmetry_1
_geom_bond_site_symmetry_2
C1 C2 1_555 1_555
C2 Cl1 1_555 1_555
Cl1 C1 1_555 1_555
Cl2 C1 1_555 1_555
Fe1 N1 1_555 1_555
Fe2 N3 1_555 1_555
Fe3 N7 1_555 1_555
Fe4 N11 1_555 1_555
S1 O1 1_555 1_555
O2 S1 1_555 1_555
O3 S1 1_555 1_555
N1 C3 1_555 1_555
N2 Fe1 1_555 1_555
C3 H1 1_555 1_555
C4 C3 1_555 1_555
H2 C4 1_555 1_555
C5 C4 1_555 1_555
H3 C5 1_555 1_555
C6 C5 1_555 1_555
H4 C6 1_555 1_555
C7 N1 1_555 1_555
C8 N2 1_555 1_555
H5 C8 1_555 1_555
C9 N2 1_555 1_555
C10 C9 1_555 1_555
H6 C10 1_555 1_555
C11 S1 1_555 1_555
C12 C11 1_555 1_555
C13 C12 1_555 1_555
H7 C13 1_555 1_555
C14 C9 1_555 1_555
H8 C14 1_555 1_555
S2 O4 1_555 1_555
O5 S2 1_555 1_555
O6 S2 1_555 1_555
N3 C15 1_555 1_555
N4 Fe2 1_555 1_555
C15 H9 1_555 1_555
C16 C15 1_555 1_555
H10 C16 1_555 1_555
C17 C16 1_555 1_555
H11 C17 1_555 1_555
C18 C17 1_555 1_555
H12 C18 1_555 1_555
C19 N3 1_555 1_555
C20 N4 1_555 1_555
H13 C20 1_555 1_555
C21 N4 1_555 1_555
C22 C21 1_555 1_555
H14 C22 1_555 1_555
C23 S2 1_555 1_555
C24 C12 1_555 1_555
C25 C24 1_555 1_555
H15 C25 1_555 1_555
C26 C21 1_555 1_555
H16 C26 1_555 1_555
S3 O7 1_555 1_555
O8 S3 1_555 1_555
O9 S3 1_555 1_555
N5 Fe1 1_555 1_555
N6 Fe1 1_555 1_555
C27 N5 1_555 1_555
H17 C27 1_555 1_555
C28 C27 1_555 1_555
H18 C28 1_555 1_555
C29 C28 1_555 1_555
H19 C29 1_555 1_555
C30 C29 1_555 1_555
H20 C30 1_555 1_555
C31 N5 1_555 1_555
C32 N6 1_555 1_555
H21 C32 1_555 1_555
C33 N6 1_555 1_555
C34 C33 1_555 1_555
H22 C34 1_555 1_555
C35 S3 1_555 1_555
C36 C35 1_555 1_555
C37 C36 1_555 1_555
H23 C37 1_555 1_555
C38 C33 1_555 1_555
H24 C38 1_555 1_555
S4 O10 1_555 1_555
O11 S4 1_555 1_555
O12 S4 1_555 1_555
N7 C39 1_555 1_555
N8 Fe3 1_555 1_555
C39 H25 1_555 1_555
C40 C39 1_555 1_555
H26 C40 1_555 1_555
C41 C40 1_555 1_555
H27 C41 1_555 1_555
C42 C41 1_555 1_555
H28 C42 1_555 1_555
C43 N7 1_555 1_555
C44 N8 1_555 1_555
H29 C44 1_555 1_555
C45 N8 1_555 1_555
C46 C45 1_555 1_555
H30 C46 1_555 1_555
C47 S4 1_555 1_555
C48 C36 1_555 1_555
C49 C48 1_555 1_555
H31 C49 1_555 1_555
C50 C45 1_555 1_555
H32 C50 1_555 1_555
S5 O13 1_555 1_555
O14 S5 1_555 1_555
O15 S5 1_555 1_555
N9 Fe1 1_555 1_555
N10 Fe1 1_555 1_555
C51 N9 1_555 1_555
H33 C51 1_555 1_555
C52 C51 1_555 1_555
H34 C52 1_555 1_555
C53 C52 1_555 1_555
H35 C53 1_555 1_555
C54 C53 1_555 1_555
H36 C54 1_555 1_555
C55 N9 1_555 1_555
C56 N10 1_555 1_555
H37 C56 1_555 1_555
C57 N10 1_555 1_555
C58 C57 1_555 1_555
H38 C58 1_555 1_555
C59 S5 1_555 1_555
C60 C59 1_555 1_555
C61 C60 1_555 1_555
H39 C61 1_555 1_555
C62 C57 1_555 1_555
H40 C62 1_555 1_555
S6 O16 1_555 1_555
O17 S6 1_555 1_555
O18 S6 1_555 1_555
N11 C63 1_555 1_555
N12 Fe4 1_555 1_555
C63 H41 1_555 1_555
C64 C63 1_555 1_555
H42 C64 1_555 1_555
C65 C64 1_555 1_555
H43 C65 1_555 1_555
C66 C65 1_555 1_555
H44 C66 1_555 1_555
C67 N11 1_555 1_555
C68 N12 1_555 1_555
H45 C68 1_555 1_555
C69 N12 1_555 1_555
C70 C69 1_555 1_555
H46 C70 1_555 1_555
C71 S6 1_555 1_555
C72 C60 1_555 1_555
C73 C72 1_555 1_555
H47 C73 1_555 1_555
C74 C69 1_555 1_555
H48 C74 1_555 1_555
S7 O19 1_555 1_555
O20 S7 1_555 1_555
O21 S7 1_555 1_555
N13 Fe2 1_555 1_555
N14 Fe2 1_555 1_555
C75 N13 1_555 1_555
H49 C75 1_555 1_555
C76 C75 1_555 1_555
H50 C76 1_555 1_555
C77 C76 1_555 1_555
H51 C77 1_555 1_555
C78 C77 1_555 1_555
H52 C78 1_555 1_555
C79 N13 1_555 1_555
C80 N14 1_555 1_555
H53 C80 1_555 1_555
C81 N14 1_555 1_555
C82 C81 1_555 1_555
H54 C82 1_555 1_555
C83 S7 1_555 1_555
C84 C83 1_555 1_555
C85 C84 1_555 1_555
H55 C85 1_555 1_555
C86 C81 1_555 1_555
H56 C86 1_555 1_555
S8 O22 1_555 1_555
O23 S8 1_555 1_555
O24 S8 1_555 1_555
N15 Fe3 1_555 1_555
N16 Fe3 1_555 1_555
C87 N15 1_555 1_555
H57 C87 1_555 1_555
C88 C87 1_555 1_555
H58 C88 1_555 1_555
C89 C88 1_555 1_555
H59 C89 1_555 1_555
C90 C89 1_555 1_555
H60 C90 1_555 1_555
C91 N15 1_555 1_555
C92 N16 1_555 1_555
H61 C92 1_555 1_555
C93 N16 1_555 1_555
C94 C93 1_555 1_555
H62 C94 1_555 1_555
C95 S8 1_555 1_555
C96 C84 1_555 1_555
C97 C96 1_555 1_555
H63 C97 1_555 1_555
C98 C93 1_555 1_555
H64 C98 1_555 1_555
S9 O25 1_555 1_555
O26 S9 1_555 1_555
O27 S9 1_555 1_555
N17 Fe2 1_555 1_555
N18 Fe2 1_555 1_555
C99 N17 1_555 1_555
H65 C99 1_555 1_555
C100 C99 1_555 1_555
H66 C100 1_555 1_555
C101 C100 1_555 1_555
H67 C101 1_555 1_555
C102 C101 1_555 1_555
H68 C102 1_555 1_555
C103 N17 1_555 1_555
C104 N18 1_555 1_555
H69 C104 1_555 1_555
C105 N18 1_555 1_555
C106 C105 1_555 1_555
H70 C106 1_555 1_555
C107 S9 1_555 1_555
C108 C107 1_555 1_555
C109 C108 1_555 1_555
H71 C109 1_555 1_555
C110 C105 1_555 1_555
H72 C110 1_555 1_555
S10 O28 1_555 1_555
O29 S10 1_555 1_555
O30 S10 1_555 1_555
N19 Fe4 1_555 1_555
N20 Fe4 1_555 1_555
C111 N19 1_555 1_555
H73 C111 1_555 1_555
C112 C111 1_555 1_555
H74 C112 1_555 1_555
C113 C112 1_555 1_555
H75 C113 1_555 1_555
C114 C113 1_555 1_555
H76 C114 1_555 1_555
C115 N19 1_555 1_555
C116 N20 1_555 1_555
H77 C116 1_555 1_555
C117 N20 1_555 1_555
C118 C117 1_555 1_555
H78 C118 1_555 1_555
C119 S10 1_555 1_555
C120 C108 1_555 1_555
C121 C120 1_555 1_555
H79 C121 1_555 1_555
C122 C117 1_555 1_555
H80 C122 1_555 1_555
S11 O31 1_555 1_555
O32 S11 1_555 1_555
O33 S11 1_555 1_555
N21 Fe3 1_555 1_555
N22 Fe3 1_555 1_555
C123 N21 1_555 1_555
H81 C123 1_555 1_555
C124 C123 1_555 1_555
H82 C124 1_555 1_555
C125 C124 1_555 1_555
H83 C125 1_555 1_555
C126 C125 1_555 1_555
H84 C126 1_555 1_555
C127 N21 1_555 1_555
C128 N22 1_555 1_555
H85 C128 1_555 1_555
C129 N22 1_555 1_555
C130 C129 1_555 1_555
H86 C130 1_555 1_555
C131 S11 1_555 1_555
C132 C131 1_555 1_555
C133 C132 1_555 1_555
H87 C133 1_555 1_555
C134 C129 1_555 1_555
H88 C134 1_555 1_555
S12 O34 1_555 1_555
O35 S12 1_555 1_555
O36 S12 1_555 1_555
N23 Fe4 1_555 1_555
N24 Fe4 1_555 1_555
C135 N23 1_555 1_555
H89 C135 1_555 1_555
C136 C135 1_555 1_555
H90 C136 1_555 1_555
C137 C136 1_555 1_555
H91 C137 1_555 1_555
C138 C137 1_555 1_555
H92 C138 1_555 1_555
C139 N23 1_555 1_555
C140 N24 1_555 1_555
H93 C140 1_555 1_555
C141 N24 1_555 1_555
C142 C141 1_555 1_555
H94 C142 1_555 1_555
C143 S12 1_555 1_555
C144 C132 1_555 1_555
C145 C144 1_555 1_555
H95 C145 1_555 1_555
C146 C141 1_555 1_555
H96 C146 1_555 1_555
Fe5 O40 1_555 1_555
O41 Fe5 1_555 1_555
O42 Fe5 1_555 1_555
O43 Fe5 1_555 1_555
O44 Fe5 1_555 1_555
O45 Fe5 1_555 1_555
C2 Cl2 1_555 1_555
C6 C7 1_555 1_555
C7 C8 1_555 1_555
C10 C11 1_555 1_555
C13 C14 1_555 1_555
C18 C19 1_555 1_555
C19 C20 1_555 1_555
C22 C23 1_555 1_555
C23 C24 1_555 1_555
C25 C26 1_555 1_555
C30 C31 1_555 1_555
C31 C32 1_555 1_555
C34 C35 1_555 1_555
C37 C38 1_555 1_555
C42 C43 1_555 1_555
C43 C44 1_555 1_555
C46 C47 1_555 1_555
C47 C48 1_555 1_555
C49 C50 1_555 1_555
C54 C55 1_555 1_555
C55 C56 1_555 1_555
C58 C59 1_555 1_555
C61 C62 1_555 1_555
C66 C67 1_555 1_555
C67 C68 1_555 1_555
C70 C71 1_555 1_555
C71 C72 1_555 1_555
C73 C74 1_555 1_555
C78 C79 1_555 1_555
C79 C80 1_555 1_555
C82 C83 1_555 1_555
C85 C86 1_555 1_555
C90 C91 1_555 1_555
C91 C92 1_555 1_555
C94 C95 1_555 1_555
C95 C96 1_555 1_555
C97 C98 1_555 1_555
C102 C103 1_555 1_555
C103 C104 1_555 1_555
C106 C107 1_555 1_555
C109 C110 1_555 1_555
C114 C115 1_555 1_555
C115 C116 1_555 1_555
C118 C119 1_555 1_555
C119 C120 1_555 1_555
C121 C122 1_555 1_555
C126 C127 1_555 1_555
C127 C128 1_555 1_555
C130 C131 1_555 1_555
C133 C134 1_555 1_555
C138 C139 1_555 1_555
C139 C140 1_555 1_555
C142 C143 1_555 1_555
C143 C144 1_555 1_555
C145 C146 1_555 1_555

#END
