
#######################################################################
#
#                 Cambridge Crystallographic Data Centre
#                                CCDC 
#
#######################################################################
#
# If this CIF has been generated from an entry in the Cambridge 
# Structural Database, then it will include bibliographic, chemical, 
# crystal, experimental, refinement or atomic coordinate data resulting 
# from the CCDC's data processing and validation procedures.
#
#######################################################################

data_GIDGIL
_chemical_formula_moiety         
'C144 H96 Fe4 N24 O36 S12 4-,0.6(C1 Cl4),42(H2 O1),4(C4 H12 N1 1+)'
_chemical_name_systematic        
"tetrakis(Tetramethylammonium) hexakis(\m~2~-4,4'-bis((pyridin-2-ylmethylene)amino)biphenyl-2,2'-disulfonate)-tetra-iron tetrachloromethane clathrate hydrate"
_symmetry_cell_setting           monoclinic
_symmetry_space_group_name_H-M   'P 21/n'
_symmetry_Int_Tables_number      14
_space_group_name_Hall           '-P 2yn'
loop_
_symmetry_equiv_pos_site_id
_symmetry_equiv_pos_as_xyz
1 x,y,z
2 1/2-x,1/2+y,1/2-z
3 -x,-y,-z
4 1/2+x,1/2-y,1/2+z
_cell_length_a                   21.8011(6)
_cell_length_b                   33.2607(10)
_cell_length_c                   32.8901(9)
_cell_angle_alpha                90
_cell_angle_beta                 91.039(2)
_cell_angle_gamma                90
_cell_volume                     23845.3
_exptl_crystal_colour            purple
_exptl_crystal_description       block
_cell_formula_units_Z            4
loop_
_atom_site_label
_atom_site_type_symbol
_atom_site_fract_x
_atom_site_fract_y
_atom_site_fract_z
Fe1 Fe 0.04965(10) 0.34630(6) 0.81187(6)
Fe2 Fe 0.33277(9) 0.02910(5) 0.94089(6)
Fe3 Fe 0.57927(10) 0.25280(7) 0.67314(6)
Fe4 Fe 0.53289(10) 0.38183(6) 1.03751(5)
S1 S 0.0792(2) 0.20867(15) 0.93351(14)
O1 O 0.0728(6) 0.1663(2) 0.9391(4)
O2 O 0.1279(5) 0.2260(4) 0.9592(3)
O3 O 0.0222(5) 0.2306(4) 0.9356(3)
N1 N 0.0160(5) 0.3459(4) 0.7564(4)
N2 N 0.0627(5) 0.2877(3) 0.7988(3)
C2 C -0.0022(7) 0.3767(5) 0.7326(5)
H1 H -0.0009 0.4029 0.7440
C3 C -0.0229(8) 0.3732(6) 0.6925(5)
H2 H -0.0323 0.3962 0.6764
C4 C -0.0291(9) 0.3351(6) 0.6772(5)
H3 H -0.0466 0.3315 0.6508
C5 C -0.0108(7) 0.3023(5) 0.6987(4)
H4 H -0.0137 0.2759 0.6877
C6 C 0.0128(6) 0.3095(5) 0.7389(4)
C7 C 0.0392(6) 0.2777(4) 0.7655(4)
H5 H 0.0382 0.2503 0.7574
C8 C 0.0932(7) 0.2578(4) 0.8227(4)
C9 C 0.0730(6) 0.2453(4) 0.8598(4)
H6 H 0.0364 0.2569 0.8697
C10 C 0.1022(6) 0.2169(4) 0.8835(4)
C11 C 0.1526(6) 0.1966(4) 0.8668(4)
C12 C 0.1731(7) 0.2078(5) 0.8299(4)
H7 H 0.2072 0.1942 0.8188
C13 C 0.1452(7) 0.2394(5) 0.8075(4)
H8 H 0.1617 0.2479 0.7824
S2 S 0.1296(2) 0.10697(14) 0.83920(17)
O4 O 0.0719(5) 0.1281(4) 0.8430(5)
O5 O 0.1239(5) 0.0639(2) 0.8437(3)
O6 O 0.1618(7) 0.1176(4) 0.8029(3)
N3 N 0.3241(5) 0.0149(3) 0.9989(3)
N4 N 0.2775(5) 0.0730(3) 0.9572(3)
C14 C 0.3481(6) -0.0161(4) 1.0194(4)
H9 H 0.3737 -0.0344 1.0055
C15 C 0.3374(7) -0.0225(4) 1.0591(4)
H10 H 0.3562 -0.0445 1.0729
C16 C 0.2977(7) 0.0038(4) 1.0803(4)
H11 H 0.2874 -0.0015 1.1077
C17 C 0.2747(6) 0.0365(4) 1.0611(4)
H12 H 0.2506 0.0558 1.0748
C18 C 0.2881(5) 0.0406(4) 1.0204(4)
C19 C 0.2622(6) 0.0718(4) 0.9941(4)
H13 H 0.2342 0.0910 1.0046
C20 C 0.2489(6) 0.1044(4) 0.9332(4)
C21 C 0.2086(6) 0.0936(4) 0.9019(4)
H14 H 0.2026 0.0661 0.8951
C22 C 0.1776(6) 0.1231(4) 0.8809(4)
C23 C 0.1862(6) 0.1637(4) 0.8895(4)
C24 C 0.2293(6) 0.1726(4) 0.9191(4)
H15 H 0.2378 0.2002 0.9246
C25 C 0.2608(7) 0.1443(4) 0.9411(5)
H16 H 0.2902 0.1520 0.9613
S3 S 0.20555(18) 0.26057(11) 0.69056(10)
O7 O 0.2413(6) 0.2682(4) 0.6552(3)
O8 O 0.1404(4) 0.2643(4) 0.6815(4)
O9 O 0.2218(7) 0.2239(3) 0.7106(3)
N5 N 0.0345(6) 0.4042(4) 0.8190(3)
N6 N 0.1267(5) 0.3681(3) 0.7901(3)
C26 C -0.0124(9) 0.4209(6) 0.8361(5)
H17 H -0.0461 0.4052 0.8449
C27 C -0.0117(11) 0.4658(6) 0.8415(6)
H18 H -0.0426 0.4782 0.8572
C28 C 0.0299(13) 0.4876(6) 0.8253(5)
H19 H 0.0254 0.5160 0.8254
C29 C 0.0806(10) 0.4711(5) 0.8079(5)
H20 H 0.1138 0.4869 0.7986
C30 C 0.0800(9) 0.4278(5) 0.8046(5)
C31 C 0.1312(7) 0.4065(4) 0.7873(4)
H21 H 0.1649 0.4197 0.7752
C32 C 0.1812(6) 0.3462(4) 0.7731(4)
C33 C 0.1731(7) 0.3189(4) 0.7427(4)
H22 H 0.1330 0.3135 0.7324
C34 C 0.2220(6) 0.2990(4) 0.7267(4)
C35 C 0.2816(6) 0.3085(4) 0.7400(4)
C36 C 0.2885(7) 0.3368(4) 0.7703(4)
H23 H 0.3286 0.3438 0.7796
C37 C 0.2389(7) 0.3549(4) 0.7874(4)
H24 H 0.2446 0.3735 0.8091
S4 S 0.3518(3) 0.35761(18) 0.6704(3)
O10 O 0.2890(4) 0.3658(5) 0.6717(5)
O11 O 0.3920(8) 0.3669(5) 0.6378(6)
O12 O 0.3790(10) 0.3794(6) 0.7059(5)
N7 N 0.5889(6) 0.2050(4) 0.6391(3)
N8 N 0.4937(5) 0.2357(3) 0.6695(3)
C38 C 0.6438(9) 0.1858(6) 0.6263(6)
H25 H 0.6828 0.1968 0.6334
C39 C 0.6398(11) 0.1521(6) 0.6043(6)
H26 H 0.6772 0.1399 0.5965
C40 C 0.5881(11) 0.1338(7) 0.5921(5)
H27 H 0.5880 0.1102 0.5759
C41 C 0.5328(10) 0.1524(5) 0.6054(4)
H28 H 0.4940 0.1411 0.5984
C42 C 0.5361(7) 0.1866(4) 0.6283(4)
C43 C 0.4814(7) 0.2052(4) 0.6463(4)
H29 H 0.4409 0.1957 0.6412
C44 C 0.4405(6) 0.2542(4) 0.6883(3)
C45 C 0.4198(6) 0.2898(4) 0.6733(4)
H30 H 0.4391 0.3016 0.6505
C46 C 0.3697(6) 0.3096(5) 0.6913(4)
C47 C 0.3383(6) 0.2896(4) 0.7217(4)
C48 C 0.3591(7) 0.2538(4) 0.7345(4)
H31 H 0.3380 0.2403 0.7554
C49 C 0.4091(7) 0.2364(4) 0.7186(4)
H32 H 0.4226 0.2111 0.7288
S5 S 0.2545(2) 0.43996(12) 0.88702(14)
O13 O 0.2897(5) 0.4552(3) 0.9208(3)
O14 O 0.2047(5) 0.4648(3) 0.8725(5)
O15 O 0.2941(6) 0.4300(4) 0.8529(3)
N9 N -0.0297(6) 0.3327(4) 0.8354(4)
N10 N 0.0761(5) 0.3421(3) 0.8688(3)
C50 C -0.0842(7) 0.3255(7) 0.8166(5)
H33 H -0.0866 0.3289 0.7879
C51 C -0.1358(9) 0.3137(8) 0.8357(6)
H34 H -0.1728 0.3090 0.8208
C52 C -0.1336(8) 0.3087(8) 0.8768(7)
H35 H -0.1695 0.3014 0.8910
C53 C -0.0785(8) 0.3145(8) 0.8978(6)
H36 H -0.0759 0.3100 0.9263
C54 C -0.0278(7) 0.3267(5) 0.8770(5)
C55 C 0.0330(7) 0.3327(4) 0.8943(4)
H37 H 0.0412 0.3300 0.9227
C56 C 0.1351(6) 0.3481(4) 0.8865(4)
C57 C 0.1628(6) 0.3858(4) 0.8822(3)
H38 H 0.1421 0.4062 0.8671
C58 C 0.2196(6) 0.3938(4) 0.8995(3)
C59 C 0.2508(6) 0.3649(4) 0.9241(4)
C60 C 0.2209(5) 0.3281(4) 0.9282(4)
H39 H 0.2408 0.3078 0.9439
C61 C 0.1655(6) 0.3193(4) 0.9114(4)
H40 H 0.1471 0.2939 0.9162
S6 S 0.2526(2) 0.38962(16) 1.01748(12)
O16 O 0.2039(5) 0.4109(4) 0.9965(3)
O17 O 0.2754(5) 0.4098(4) 1.0533(3)
O18 O 0.2373(7) 0.3480(3) 1.0243(4)
N11 N 0.5871(5) 0.4278(3) 1.0253(3)
N12 N 0.4827(5) 0.4070(3) 0.9947(3)
C62 C 0.6411(7) 0.4366(4) 1.0408(4)
H41 H 0.6577 0.4195 1.0614
C63 C 0.6768(7) 0.4706(4) 1.0287(5)
H42 H 0.7159 0.4762 1.0406
C64 C 0.6514(7) 0.4947(4) 0.9988(4)
H43 H 0.6731 0.5177 0.9898
C65 C 0.5961(6) 0.4859(4) 0.9823(4)
H44 H 0.5799 0.5021 0.9609
C66 C 0.5621(6) 0.4529(3) 0.9964(4)
C67 C 0.5060(6) 0.4389(4) 0.9800(4)
H45 H 0.4859 0.4529 0.9584
C68 C 0.4243(6) 0.3936(4) 0.9771(4)
C69 C 0.3727(6) 0.3969(3) 1.0001(3)
H46 H 0.3762 0.4069 1.0271
C70 C 0.3163(6) 0.3861(4) 0.9849(4)
C71 C 0.3113(6) 0.3730(4) 0.9449(4)
C72 C 0.3645(6) 0.3691(4) 0.9227(4)
H47 H 0.3620 0.3587 0.8958
C73 C 0.4186(6) 0.3797(4) 0.9380(4)
H48 H 0.4540 0.3777 0.9217
S7 S 0.5521(2) 0.08057(14) 0.85038(14)
O19 O 0.5838(5) 0.0825(4) 0.8126(3)
O20 O 0.5584(5) 0.0432(3) 0.8716(3)
O21 O 0.5674(6) 0.1144(3) 0.8777(4)
N13 N 0.2625(5) -0.0044(3) 0.9248(4)
N14 N 0.3315(5) 0.0407(3) 0.8820(3)
C74 C 0.2265(7) -0.0272(4) 0.9477(5)
H49 H 0.2354 -0.0294 0.9760
C75 C 0.1745(7) -0.0489(4) 0.9308(5)
H50 H 0.1486 -0.0640 0.9480
C76 C 0.1628(8) -0.0474(5) 0.8899(6)
H51 H 0.1287 -0.0615 0.8786
C77 C 0.2004(7) -0.0255(4) 0.8649(5)
H52 H 0.1935 -0.0248 0.8363
C78 C 0.2496(7) -0.0043(4) 0.8835(4)
C79 C 0.2890(6) 0.0209(4) 0.8607(5)
H53 H 0.2851 0.0234 0.8320
C80 C 0.3713(6) 0.0673(4) 0.8590(4)
C81 C 0.4326(6) 0.0615(4) 0.8602(3)
H54 H 0.4487 0.0400 0.8762
C82 C 0.4733(6) 0.0857(4) 0.8389(3)
C83 C 0.4489(6) 0.1167(4) 0.8154(4)
C84 C 0.3882(7) 0.1227(4) 0.8142(4)
H55 H 0.3721 0.1442 0.7983
C85 C 0.3469(7) 0.0979(4) 0.8363(4)
H56 H 0.3039 0.1026 0.8351
S8 S 0.4647(4) 0.09474(19) 0.72219(16)
O22 O 0.4634(9) 0.0598(3) 0.7470(3)
O23 O 0.4967(7) 0.0902(4) 0.6845(3)
O24 O 0.4034(8) 0.1108(8) 0.7138(6)
N15 N 0.6667(5) 0.2649(4) 0.6764(3)
N16 N 0.6014(6) 0.2194(3) 0.7203(3)
C86 C 0.7002(8) 0.2911(6) 0.6530(5)
H57 H 0.6799 0.3056 0.6318
C87 C 0.7626(9) 0.2969(6) 0.6597(5)
H58 H 0.7840 0.3151 0.6428
C88 C 0.7943(9) 0.2772(6) 0.6897(6)
H59 H 0.8366 0.2827 0.6945
C89 C 0.7641(7) 0.2486(5) 0.7137(5)
H60 H 0.7854 0.2324 0.7331
C90 C 0.7003(7) 0.2453(5) 0.7072(5)
C91 C 0.6570(7) 0.2194(4) 0.7294(4)
H61 H 0.6719 0.2025 0.7507
C92 C 0.5643(7) 0.1939(4) 0.7436(4)
C93 C 0.5397(7) 0.1606(4) 0.7261(4)
H62 H 0.5484 0.1543 0.6987
C94 C 0.5008(8) 0.1353(4) 0.7488(4)
C95 C 0.4891(7) 0.1439(4) 0.7892(4)
C96 C 0.5129(7) 0.1760(4) 0.8065(4)
H63 H 0.5044 0.1816 0.8341
C97 C 0.5514(7) 0.2029(5) 0.7842(4)
H64 H 0.5679 0.2263 0.7968
S9 S 0.36808(18) 0.16144(10) 1.06786(10)
O25 O 0.4040(5) 0.1920(3) 1.0877(2)
O26 O 0.3702(6) 0.1236(2) 1.0892(3)
O27 O 0.3070(4) 0.1744(4) 1.0578(3)
N17 N 0.3920(5) -0.0136(3) 0.9322(3)
N18 N 0.4068(5) 0.0592(3) 0.9550(3)
C98 C 0.3835(7) -0.0507(4) 0.9182(4)
H65 H 0.3428 -0.0590 0.9117
C99 C 0.4308(7) -0.0778(4) 0.9126(5)
H66 H 0.4228 -0.1038 0.9017
C100 C 0.4913(7) -0.0661(4) 0.9233(4)
H67 H 0.5242 -0.0847 0.9212
C101 C 0.5018(6) -0.0287(4) 0.9365(4)
H68 H 0.5422 -0.0197 0.9428
C102 C 0.4513(6) -0.0031(3) 0.9406(3)
C103 C 0.4589(7) 0.0384(3) 0.9546(4)
H69 H 0.4974 0.0494 0.9627
C104 C 0.4121(6) 0.1013(4) 0.9683(3)
C105 C 0.3953(5) 0.1119(3) 1.0057(3)
H70 H 0.3789 0.0921 1.0232
C106 C 0.4013(6) 0.1517(3) 1.0197(3)
C107 C 0.4297(5) 0.1801(3) 0.9957(3)
C108 C 0.4463(6) 0.1684(4) 0.9584(4)
H71 H 0.4637 0.1880 0.9410
C109 C 0.4398(6) 0.1292(3) 0.9435(4)
H72 H 0.4538 0.1221 0.9173
S10 S 0.5632(2) 0.20194(12) 1.02856(18)
O28 O 0.5431(6) 0.1648(3) 1.0444(5)
O29 O 0.6082(4) 0.2228(3) 1.0529(3)
O30 O 0.5840(7) 0.1983(5) 0.9865(3)
N19 N 0.4879(5) 0.4129(3) 1.0787(3)
N20 N 0.4715(5) 0.3408(3) 1.0519(3)
C110 C 0.5016(7) 0.4498(3) 1.0925(3)
H73 H 0.5363 0.4641 1.0831
C111 C 0.4609(8) 0.4670(5) 1.1223(4)
H74 H 0.4693 0.4935 1.1316
C112 C 0.4112(9) 0.4474(5) 1.1377(5)
H75 H 0.3853 0.4600 1.1569
C113 C 0.4006(8) 0.4090(4) 1.1244(4)
H76 H 0.3672 0.3939 1.1346
C114 C 0.4403(7) 0.3919(4) 1.0950(4)
C115 C 0.4320(6) 0.3514(4) 1.0790(4)
H77 H 0.4003 0.3340 1.0878
C116 C 0.4610(6) 0.3005(4) 1.0347(3)
C117 C 0.5067(6) 0.2730(4) 1.0378(4)
H78 H 0.5450 0.2810 1.0495
C118 C 0.4997(6) 0.2335(3) 1.0245(4)
C119 C 0.4414(6) 0.2224(3) 1.0098(3)
C120 C 0.3942(6) 0.2512(4) 1.0065(4)
H79 H 0.3552 0.2440 0.9953
C121 C 0.4049(6) 0.2899(4) 1.0197(4)
H80 H 0.3729 0.3093 1.0183
S11 S 0.6797(2) 0.29123(15) 0.83695(13)
O31 O 0.6979(5) 0.3210(3) 0.8669(3)
O32 O 0.7243(5) 0.2844(4) 0.8058(3)
O33 O 0.6611(6) 0.2536(3) 0.8567(4)
N21 N 0.5656(5) 0.2882(4) 0.6258(3)
N22 N 0.5612(5) 0.3035(3) 0.7020(3)
C122 C 0.5664(8) 0.2789(5) 0.5865(4)
H81 H 0.5779 0.2525 0.5786
C123 C 0.5510(10) 0.3067(6) 0.5570(5)
H82 H 0.5524 0.2991 0.5292
C124 C 0.5347(8) 0.3431(6) 0.5662(5)
H83 H 0.5239 0.3615 0.5452
C125 C 0.5331(7) 0.3550(5) 0.6063(4)
H84 H 0.5222 0.3816 0.6138
C126 C 0.5484(7) 0.3257(5) 0.6357(4)
C127 C 0.5490(6) 0.3323(5) 0.6781(4)
H85 H 0.5402 0.3582 0.6886
C128 C 0.5608(6) 0.3101(4) 0.7447(4)
C129 C 0.6144(6) 0.3022(4) 0.7680(4)
H86 H 0.6509 0.2934 0.7555
C130 C 0.6122(6) 0.3079(4) 0.8104(4)
C131 C 0.5660(7) 0.3251(4) 0.8290(4)
C132 C 0.5128(7) 0.3333(5) 0.8050(4)
H87 H 0.4782 0.3445 0.8181
C133 C 0.5086(7) 0.3259(5) 0.7635(4)
H88 H 0.4720 0.3312 0.7484
S12 S 0.5742(3) 0.41474(13) 0.86189(13)
O34 O 0.6090(6) 0.4084(3) 0.8260(3)
O35 O 0.5985(6) 0.4456(3) 0.8887(3)
O36 O 0.5092(5) 0.4215(4) 0.8522(4)
N23 N 0.5935(6) 0.3601(3) 1.0780(3)
N24 N 0.5819(5) 0.3468(3) 1.0012(3)
C134 C 0.5977(7) 0.3686(4) 1.1173(4)
H89 H 0.5679 0.3856 1.1293
C135 C 0.6459(7) 0.3528(5) 1.1413(5)
H90 H 0.6465 0.3582 1.1697
C136 C 0.6913(8) 0.3302(5) 1.1258(5)
H91 H 0.7259 0.3217 1.1415
C137 C 0.6833(7) 0.3205(5) 1.0848(5)
H92 H 0.7106 0.3021 1.0725
C138 C 0.6372(7) 0.3369(4) 1.0624(4)
C139 C 0.6280(6) 0.3300(4) 1.0180(4)
H93 H 0.6554 0.3137 1.0030
C140 C 0.5737(6) 0.3420(4) 0.9575(4)
C141 C 0.5839(6) 0.3730(4) 0.9321(4)
H94 H 0.5969 0.3979 0.9434
C142 C 0.5764(6) 0.3703(4) 0.8915(4)
C143 C 0.5656(6) 0.3316(4) 0.8740(4)
C144 C 0.5561(7) 0.3004(4) 0.9002(4)
H95 H 0.5457 0.2747 0.8894
C145 C 0.5609(7) 0.3048(4) 0.9413(4)
H96 H 0.5555 0.2823 0.9586
O37 O 0.4169(5) 0.4728(3) 0.8998(3)
O38 O 0.1341(6) 0.1232(4) 1.0013(3)
O39 O 0.6941(6) 0.3597(4) 0.5747(4)
O40 O 0.4202(5) -0.1018(3) 1.0248(4)
O41 O 0.3253(6) 0.0861(4) 1.1550(3)
O42 O 0.4237(7) 0.2627(4) 1.1298(3)
O43 O 0.7543(6) 0.2330(3) 0.9652(3)
O44 O 0.2689(8) 0.5409(4) 0.7619(6)
O45 O 0.1660(8) 0.5295(4) 0.7394(4)
O46 O 0.1959(7) 0.0870(5) 1.1378(4)
O47 O 0.3830(8) 0.5232(4) 0.7826(4)
O48 O 0.0550(8) 0.2316(6) 0.6311(5)
O49 O 0.3813(9) -0.1665(4) 0.8713(5)
O50 O 0.2955(7) -0.1078(5) 0.9948(7)
O51 O 0.2517(11) 0.4771(6) 0.7833(6)
O52 O 0.2548(13) 0.4455(8) 1.1248(7)
O53 O 0.1245(10) 0.4648(6) 0.6979(6)
O54 O 0.3904(11) 0.4029(7) 0.8084(7)
O55 O 0.6515(9) 0.3862(7) 0.7084(6)
O56 O -0.1557(9) 0.3763(7) 0.7323(6)
O57 O 0.0529(10) 0.0333(7) 0.9111(7)
O58 O 0.1717(10) 0.3980(5) 0.6729(8)
O59 O 0.5842(10) -0.0297(6) 0.8398(6)
O60 O 0.0084(11) 0.4786(5) 0.7167(6)
O61 O 0.2781(11) 0.3681(9) 1.1738(7)
O62 O -0.2598(9) 0.3620(8) 0.7642(6)
O63 O 0.5698(10) 0.4330(7) 0.7474(5)
O64 O 0.1319(10) 0.0207(7) 1.1167(7)
O65 O 0.7209(11) 0.2915(10) 0.9455(5)
O66 O 0.2702(13) 0.1602(7) 0.7503(7)
O67 O 0.1784(12) 0.3734(8) 1.2176(8)
O68 O 0.1422(11) -0.0186(7) 1.0386(7)
O69 O 0.3234(12) 0.3089(8) 1.1317(8)
O70 O 0.3323(11) 0.2168(9) 0.6189(7)
O71 O 0.7581(9) 0.1413(6) 0.8389(8)
O72 O 0.4099(12) 0.2605(8) 0.5704(6)
O73 O 0.3719(11) 0.5379(5) 0.8559(7)
O74 O 0.5023(10) 0.4671(7) 0.7309(7)
O75 O 0.1084(13) 0.0435(7) 0.9862(8)
O76 O 0.5035(10) 0.4635(8) 0.6165(9)
O77 O 0.2816(11) -0.1276(8) 0.9198(8)
O78 O 0.0065(12) 0.1342(10) 0.7041(7)
O79 O 0.3375(12) 0.4385(8) 0.7458(10)
O80 O 0.2396(12) 0.2282(9) 1.0054(8)
O81 O 0.604(2) 0.2081(10) 0.5143(9)
O82 O 0.5794(16) 0.1988(9) 0.8997(9)
O83 O 0.0869(17) 0.1767(12) 0.7402(10)
O84 O 0.6826(13) 0.1303(9) 0.7947(11)
O85 O 0.4290(14) 0.0730(9) 0.6087(8)
O86 O 0.1971(13) -0.0810(9) 1.0365(8)
O87 O -0.1341(16) 0.5294(9) 0.8737(10)
O88 O 0.0830(14) 0.3722(12) 0.9871(7)
O89 O 0.2568(14) 0.2558(10) 1.0772(9)
O90 O 0.7559(12) 0.4300(11) 1.1079(12)
O91 O 0.1710(14) 0.4906(10) 0.9977(10)
O92 O 0.8012(18) 0.2175(12) 0.8167(10)
O93 O 0.3365(18) 0.2361(13) 0.4724(11)
O94 O 0.7267(17) 0.2420(11) 1.0262(11)
Cl1 Cl 0.3598(4) 0.20125(17) 0.8544(2)
Cl2 Cl 0.2917(3) 0.2737(2) 0.8527(2)
Cl3 Cl 0.3790(5) 0.2606(2) 0.91549(18)
Cl4 Cl 0.4186(4) 0.2750(3) 0.8356(2)
C1 C 0.3624(3) 0.2524(2) 0.8645(2)
O95? O 0.2901(13) 0.3186(10) 1.1077(9)
O96? O 0.302(2) 0.2495(14) 0.5917(13)
O97? O 0.4740(13) 0.4357(9) 0.6917(8)
O98? O 0.652(3) 0.2177(17) 0.5287(16)
O99? O 0.070(4) 0.412(3) 0.986(2)
O100? O 0.719(3) 0.450(2) 1.151(2)
O101? O 0.3722(19) 0.2472(12) 0.5154(12)
O102? O 0.3991(17) 0.5101(11) 0.7224(10)
O103? O 0.6026(18) 0.0636(12) 0.6882(11)
O104? O 0.0962(18) -0.1216(12) 1.0009(11)
O105? O 0.736(2) 0.2199(15) 1.0729(13)
O106? O 0.908(2) 0.2250(13) 0.7748(12)
O107? O -0.014(2) 0.1064(13) 0.9336(12)
O108? O 0.131(2) -0.1617(16) 0.9377(15)
O109? O 0.241(2) -0.1480(13) 1.0491(12)
O110? O 0.748(2) 0.3761(14) 0.9904(13)
O111? O -0.1188(19) 0.4399(13) 0.7719(12)
O112? O 0.493(2) 0.4427(13) 0.5403(12)
O113? O -0.158(2) 0.4361(13) 0.8562(12)
O114? O 0.6181(19) 0.0208(13) 0.7564(12)
O115? O 0.439(2) 0.2059(16) 0.5058(14)
O116? O -0.2575(19) 0.3986(13) 0.8395(12)
O117? O 0.902(2) 0.1967(14) 0.7032(13)
O118? O 0.522(3) 0.2053(16) 0.5003(15)
O119? O 0.708(3) 0.4781(18) 0.8751(17)
O120? O 0.2251(7) 0.5431(4) 0.7863(5)
loop_
_geom_bond_atom_site_label_1
_geom_bond_atom_site_label_2
_geom_bond_site_symmetry_1
_geom_bond_site_symmetry_2
Cl1 C1 1_555 1_555
Cl2 C1 1_555 1_555
Cl3 C1 1_555 1_555
Cl4 C1 1_555 1_555
Fe1 N1 1_555 1_555
Fe2 N3 1_555 1_555
Fe3 N7 1_555 1_555
Fe4 N11 1_555 1_555
S1 O1 1_555 1_555
O2 S1 1_555 1_555
O3 S1 1_555 1_555
N1 C2 1_555 1_555
N2 Fe1 1_555 1_555
C2 H1 1_555 1_555
C3 C2 1_555 1_555
H2 C3 1_555 1_555
C4 C3 1_555 1_555
H3 C4 1_555 1_555
C5 C4 1_555 1_555
H4 C5 1_555 1_555
C6 N1 1_555 1_555
C7 N2 1_555 1_555
H5 C7 1_555 1_555
C8 N2 1_555 1_555
C9 C8 1_555 1_555
H6 C9 1_555 1_555
C10 S1 1_555 1_555
C11 C10 1_555 1_555
C12 C11 1_555 1_555
H7 C12 1_555 1_555
C13 C8 1_555 1_555
H8 C13 1_555 1_555
S2 O4 1_555 1_555
O5 S2 1_555 1_555
O6 S2 1_555 1_555
N3 C14 1_555 1_555
N4 Fe2 1_555 1_555
C14 H9 1_555 1_555
C15 C14 1_555 1_555
H10 C15 1_555 1_555
C16 C15 1_555 1_555
H11 C16 1_555 1_555
C17 C16 1_555 1_555
H12 C17 1_555 1_555
C18 N3 1_555 1_555
C19 N4 1_555 1_555
H13 C19 1_555 1_555
C20 N4 1_555 1_555
C21 C20 1_555 1_555
H14 C21 1_555 1_555
C22 S2 1_555 1_555
C23 C11 1_555 1_555
C24 C23 1_555 1_555
H15 C24 1_555 1_555
C25 C20 1_555 1_555
H16 C25 1_555 1_555
S3 O7 1_555 1_555
O8 S3 1_555 1_555
O9 S3 1_555 1_555
N5 Fe1 1_555 1_555
N6 Fe1 1_555 1_555
C26 N5 1_555 1_555
H17 C26 1_555 1_555
C27 C26 1_555 1_555
H18 C27 1_555 1_555
C28 C27 1_555 1_555
H19 C28 1_555 1_555
C29 C28 1_555 1_555
H20 C29 1_555 1_555
C30 N5 1_555 1_555
C31 N6 1_555 1_555
H21 C31 1_555 1_555
C32 N6 1_555 1_555
C33 C32 1_555 1_555
H22 C33 1_555 1_555
C34 S3 1_555 1_555
C35 C34 1_555 1_555
C36 C35 1_555 1_555
H23 C36 1_555 1_555
C37 C32 1_555 1_555
H24 C37 1_555 1_555
S4 O10 1_555 1_555
O11 S4 1_555 1_555
O12 S4 1_555 1_555
N7 C38 1_555 1_555
N8 Fe3 1_555 1_555
C38 H25 1_555 1_555
C39 C38 1_555 1_555
H26 C39 1_555 1_555
C40 C39 1_555 1_555
H27 C40 1_555 1_555
C41 C40 1_555 1_555
H28 C41 1_555 1_555
C42 N7 1_555 1_555
C43 N8 1_555 1_555
H29 C43 1_555 1_555
C44 N8 1_555 1_555
C45 C44 1_555 1_555
H30 C45 1_555 1_555
C46 S4 1_555 1_555
C47 C35 1_555 1_555
C48 C47 1_555 1_555
H31 C48 1_555 1_555
C49 C44 1_555 1_555
H32 C49 1_555 1_555
S5 O13 1_555 1_555
O14 S5 1_555 1_555
O15 S5 1_555 1_555
N9 Fe1 1_555 1_555
N10 Fe1 1_555 1_555
C50 N9 1_555 1_555
H33 C50 1_555 1_555
C51 C50 1_555 1_555
H34 C51 1_555 1_555
C52 C51 1_555 1_555
H35 C52 1_555 1_555
C53 C52 1_555 1_555
H36 C53 1_555 1_555
C54 N9 1_555 1_555
C55 N10 1_555 1_555
H37 C55 1_555 1_555
C56 N10 1_555 1_555
C57 C56 1_555 1_555
H38 C57 1_555 1_555
C58 S5 1_555 1_555
C59 C58 1_555 1_555
C60 C59 1_555 1_555
H39 C60 1_555 1_555
C61 C56 1_555 1_555
H40 C61 1_555 1_555
S6 O16 1_555 1_555
O17 S6 1_555 1_555
O18 S6 1_555 1_555
N11 C62 1_555 1_555
N12 Fe4 1_555 1_555
C62 H41 1_555 1_555
C63 C62 1_555 1_555
H42 C63 1_555 1_555
C64 C63 1_555 1_555
H43 C64 1_555 1_555
C65 C64 1_555 1_555
H44 C65 1_555 1_555
C66 N11 1_555 1_555
C67 N12 1_555 1_555
H45 C67 1_555 1_555
C68 N12 1_555 1_555
C69 C68 1_555 1_555
H46 C69 1_555 1_555
C70 S6 1_555 1_555
C71 C59 1_555 1_555
C72 C71 1_555 1_555
H47 C72 1_555 1_555
C73 C68 1_555 1_555
H48 C73 1_555 1_555
S7 O19 1_555 1_555
O20 S7 1_555 1_555
O21 S7 1_555 1_555
N13 Fe2 1_555 1_555
N14 Fe2 1_555 1_555
C74 N13 1_555 1_555
H49 C74 1_555 1_555
C75 C74 1_555 1_555
H50 C75 1_555 1_555
C76 C75 1_555 1_555
H51 C76 1_555 1_555
C77 C76 1_555 1_555
H52 C77 1_555 1_555
C78 N13 1_555 1_555
C79 N14 1_555 1_555
H53 C79 1_555 1_555
C80 N14 1_555 1_555
C81 C80 1_555 1_555
H54 C81 1_555 1_555
C82 S7 1_555 1_555
C83 C82 1_555 1_555
C84 C83 1_555 1_555
H55 C84 1_555 1_555
C85 C80 1_555 1_555
H56 C85 1_555 1_555
S8 O22 1_555 1_555
O23 S8 1_555 1_555
O24 S8 1_555 1_555
N15 Fe3 1_555 1_555
N16 Fe3 1_555 1_555
C86 N15 1_555 1_555
H57 C86 1_555 1_555
C87 C86 1_555 1_555
H58 C87 1_555 1_555
C88 C87 1_555 1_555
H59 C88 1_555 1_555
C89 C88 1_555 1_555
H60 C89 1_555 1_555
C90 N15 1_555 1_555
C91 N16 1_555 1_555
H61 C91 1_555 1_555
C92 N16 1_555 1_555
C93 C92 1_555 1_555
H62 C93 1_555 1_555
C94 S8 1_555 1_555
C95 C83 1_555 1_555
C96 C95 1_555 1_555
H63 C96 1_555 1_555
C97 C92 1_555 1_555
H64 C97 1_555 1_555
S9 O25 1_555 1_555
O26 S9 1_555 1_555
O27 S9 1_555 1_555
N17 Fe2 1_555 1_555
N18 Fe2 1_555 1_555
C98 N17 1_555 1_555
H65 C98 1_555 1_555
C99 C98 1_555 1_555
H66 C99 1_555 1_555
C100 C99 1_555 1_555
H67 C100 1_555 1_555
C101 C100 1_555 1_555
H68 C101 1_555 1_555
C102 N17 1_555 1_555
C103 N18 1_555 1_555
H69 C103 1_555 1_555
C104 N18 1_555 1_555
C105 C104 1_555 1_555
H70 C105 1_555 1_555
C106 S9 1_555 1_555
C107 C106 1_555 1_555
C108 C107 1_555 1_555
H71 C108 1_555 1_555
C109 C104 1_555 1_555
H72 C109 1_555 1_555
S10 O28 1_555 1_555
O29 S10 1_555 1_555
O30 S10 1_555 1_555
N19 Fe4 1_555 1_555
N20 Fe4 1_555 1_555
C110 N19 1_555 1_555
H73 C110 1_555 1_555
C111 C110 1_555 1_555
H74 C111 1_555 1_555
C112 C111 1_555 1_555
H75 C112 1_555 1_555
C113 C112 1_555 1_555
H76 C113 1_555 1_555
C114 N19 1_555 1_555
C115 N20 1_555 1_555
H77 C115 1_555 1_555
C116 N20 1_555 1_555
C117 C116 1_555 1_555
H78 C117 1_555 1_555
C118 S10 1_555 1_555
C119 C107 1_555 1_555
C120 C119 1_555 1_555
H79 C120 1_555 1_555
C121 C116 1_555 1_555
H80 C121 1_555 1_555
S11 O31 1_555 1_555
O32 S11 1_555 1_555
O33 S11 1_555 1_555
N21 Fe3 1_555 1_555
N22 Fe3 1_555 1_555
C122 N21 1_555 1_555
H81 C122 1_555 1_555
C123 C122 1_555 1_555
H82 C123 1_555 1_555
C124 C123 1_555 1_555
H83 C124 1_555 1_555
C125 C124 1_555 1_555
H84 C125 1_555 1_555
C126 N21 1_555 1_555
C127 N22 1_555 1_555
H85 C127 1_555 1_555
C128 N22 1_555 1_555
C129 C128 1_555 1_555
H86 C129 1_555 1_555
C130 S11 1_555 1_555
C131 C130 1_555 1_555
C132 C131 1_555 1_555
H87 C132 1_555 1_555
C133 C128 1_555 1_555
H88 C133 1_555 1_555
S12 O34 1_555 1_555
O35 S12 1_555 1_555
O36 S12 1_555 1_555
N23 Fe4 1_555 1_555
N24 Fe4 1_555 1_555
C134 N23 1_555 1_555
H89 C134 1_555 1_555
C135 C134 1_555 1_555
H90 C135 1_555 1_555
C136 C135 1_555 1_555
H91 C136 1_555 1_555
C137 C136 1_555 1_555
H92 C137 1_555 1_555
C138 N23 1_555 1_555
C139 N24 1_555 1_555
H93 C139 1_555 1_555
C140 N24 1_555 1_555
C141 C140 1_555 1_555
H94 C141 1_555 1_555
C142 S12 1_555 1_555
C143 C131 1_555 1_555
C144 C143 1_555 1_555
H95 C144 1_555 1_555
C145 C140 1_555 1_555
H96 C145 1_555 1_555
C5 C6 1_555 1_555
C6 C7 1_555 1_555
C9 C10 1_555 1_555
C12 C13 1_555 1_555
C17 C18 1_555 1_555
C18 C19 1_555 1_555
C21 C22 1_555 1_555
C22 C23 1_555 1_555
C24 C25 1_555 1_555
C29 C30 1_555 1_555
C30 C31 1_555 1_555
C33 C34 1_555 1_555
C36 C37 1_555 1_555
C41 C42 1_555 1_555
C42 C43 1_555 1_555
C45 C46 1_555 1_555
C46 C47 1_555 1_555
C48 C49 1_555 1_555
C53 C54 1_555 1_555
C54 C55 1_555 1_555
C57 C58 1_555 1_555
C60 C61 1_555 1_555
C65 C66 1_555 1_555
C66 C67 1_555 1_555
C69 C70 1_555 1_555
C70 C71 1_555 1_555
C72 C73 1_555 1_555
C77 C78 1_555 1_555
C78 C79 1_555 1_555
C81 C82 1_555 1_555
C84 C85 1_555 1_555
C89 C90 1_555 1_555
C90 C91 1_555 1_555
C93 C94 1_555 1_555
C94 C95 1_555 1_555
C96 C97 1_555 1_555
C101 C102 1_555 1_555
C102 C103 1_555 1_555
C105 C106 1_555 1_555
C108 C109 1_555 1_555
C113 C114 1_555 1_555
C114 C115 1_555 1_555
C117 C118 1_555 1_555
C118 C119 1_555 1_555
C120 C121 1_555 1_555
C125 C126 1_555 1_555
C126 C127 1_555 1_555
C129 C130 1_555 1_555
C132 C133 1_555 1_555
C137 C138 1_555 1_555
C138 C139 1_555 1_555
C141 C142 1_555 1_555
C142 C143 1_555 1_555
C144 C145 1_555 1_555

#END
