
#######################################################################
#
#                 Cambridge Crystallographic Data Centre
#                                CCDC 
#
#######################################################################
#
# If this CIF has been generated from an entry in the Cambridge 
# Structural Database, then it will include bibliographic, chemical, 
# crystal, experimental, refinement or atomic coordinate data resulting 
# from the CCDC's data processing and validation procedures.
#
#######################################################################

data_GIDGOR
_chemical_formula_moiety         
'C144 H96 Fe4 N24 O36 S12 4-,1.3(H12 Fe1 O6 2+),1.4(C4 H12 N1 1+),0.12(C1 H1 Cl3),49.68(H2 O1)'
_chemical_name_systematic        
"Tetramethylammonium hexa-aqua-iron hexakis(\m~2~-4,4'-bis((pyridin-2-ylmethylene)amino)biphenyl-2,2'-disulfonate)-tetra-iron chloroform clathrate hydrate"
_symmetry_cell_setting           monoclinic
_symmetry_space_group_name_H-M   'P 21/n'
_symmetry_Int_Tables_number      14
_space_group_name_Hall           '-P 2yn'
loop_
_symmetry_equiv_pos_site_id
_symmetry_equiv_pos_as_xyz
1 x,y,z
2 1/2-x,1/2+y,1/2-z
3 -x,-y,-z
4 1/2+x,1/2-y,1/2+z
_cell_length_a                   21.9381(7)
_cell_length_b                   33.3267(12)
_cell_length_c                   32.6860(11)
_cell_angle_alpha                90
_cell_angle_beta                 90.7531(11)
_cell_angle_gamma                90
_cell_volume                     23895.5
_exptl_crystal_colour            purple
_exptl_crystal_description       rod
_cell_formula_units_Z            4
loop_
_atom_site_label
_atom_site_type_symbol
_atom_site_fract_x
_atom_site_fract_y
_atom_site_fract_z
Fe1 Fe 0.16644(6) 0.96973(4) 0.05898(4)
Fe2 Fe -0.07812(7) 0.74424(5) 0.32587(4)
Fe3 Fe -0.02934(6) 0.61844(4) -0.04054(4)
Fe4 Fe 0.45028(6) 0.65407(4) 0.18698(4)
S1 S -0.05141(15) 0.91956(11) 0.15014(11)
O1 O -0.0835(4) 0.9150(3) 0.1870(3)
O2 O -0.0681(5) 0.8886(3) 0.1193(3)
O3 O -0.0557(4) 0.9590(2) 0.1326(3)
N1 N 0.2368(4) 1.0023(2) 0.0769(3)
N2 N 0.1687(4) 0.9560(2) 0.1180(2)
C3 C 0.2733(5) 1.0252(3) 0.0540(4)
H2 H 0.2663 1.0264 0.0259
C4 C 0.3214(5) 1.0474(3) 0.0709(5)
H3 H 0.3449 1.0638 0.0543
C5 C 0.3340(6) 1.0448(4) 0.1124(5)
H4 H 0.3666 1.0587 0.1240
C6 C 0.2976(5) 1.0214(3) 0.1358(4)
H5 H 0.3050 1.0194 0.1638
C7 C 0.2496(5) 1.0006(3) 0.1181(3)
C8 C 0.2088(5) 0.9740(3) 0.1392(3)
H6 H 0.2119 0.9702 0.1673
C9 C 0.1288(5) 0.9290(3) 0.1404(3)
C10 C 0.0664(5) 0.9367(3) 0.1401(3)
H7 H 0.0510 0.9589 0.1260
C11 C 0.0279(5) 0.9120(3) 0.1604(3)
C12 C 0.0499(5) 0.8797(3) 0.1828(3)
C13 C 0.1126(5) 0.8719(3) 0.1829(3)
H8 H 0.1280 0.8503 0.1978
C14 C 0.1524(5) 0.8963(3) 0.1608(3)
H9 H 0.1938 0.8905 0.1599
S2 S 0.0325(3) 0.90043(15) 0.27627(12)
O4 O 0.0456(7) 0.9332(3) 0.2517(3)
O5 O 0.0893(6) 0.8810(5) 0.2904(6)
O6 O -0.0046(6) 0.9074(3) 0.3117(3)
N3 N -0.1662(4) 0.7319(3) 0.3239(3)
N4 N -0.1023(4) 0.7764(3) 0.2778(2)
C15 C -0.1969(7) 0.7062(5) 0.3470(4)
H10 H -0.1762 0.6923 0.3675
C16 C -0.2612(7) 0.6995(5) 0.3412(5)
H11 H -0.2813 0.6811 0.3576
C17 C -0.2915(7) 0.7192(5) 0.3128(5)
H12 H -0.3333 0.7157 0.3095
C18 C -0.2600(6) 0.7457(5) 0.2876(4)
H13 H -0.2802 0.7593 0.2666
C19 C -0.1986(5) 0.7512(4) 0.2943(4)
C20 C -0.1606(5) 0.7769(3) 0.2698(3)
H14 H -0.1770 0.7930 0.2492
C21 C -0.0643(5) 0.8023(3) 0.2530(3)
C22 C -0.0407(5) 0.8359(3) 0.2703(3)
H15 H -0.0497 0.8422 0.2973
C23 C -0.0039(5) 0.8605(3) 0.2484(3)
C24 C 0.0095(5) 0.8528(3) 0.2074(3)
C25 C -0.0136(6) 0.8180(3) 0.1924(4)
H16 H -0.0043 0.8110 0.1656
C26 C -0.0502(6) 0.7923(4) 0.2142(4)
H17 H -0.0649 0.7687 0.2025
S3 S 0.12910(12) 0.83944(7) -0.06983(8)
O7 O 0.1177(4) 0.8747(2) -0.0939(2)
O8 O 0.1022(4) 0.8046(2) -0.0868(2)
O9 O 0.1918(4) 0.8342(4) -0.0603(3)
N5 N 0.1073(4) 1.0127(2) 0.0693(2)
N6 N 0.0913(4) 0.9403(2) 0.0445(2)
C27 C 0.1167(5) 1.0495(3) 0.0836(3)
H18 H 0.1563 1.0570 0.0908
C28 C 0.0699(6) 1.0777(3) 0.0884(3)
H19 H 0.0787 1.1034 0.0980
C29 C 0.0114(5) 1.0672(3) 0.0789(3)
H20 H -0.0202 1.0854 0.0823
C30 C -0.0003(5) 1.0290(3) 0.0641(3)
H21 H -0.0398 1.0213 0.0572
C31 C 0.0482(5) 1.0023(3) 0.0599(3)
C32 C 0.0423(5) 0.9607(3) 0.0459(3)
H22 H 0.0048 0.9498 0.0385
C33 C 0.0851(4) 0.8991(2) 0.0314(3)
C34 C 0.1024(4) 0.8883(2) -0.0068(3)
H23 H 0.1192 0.9077 -0.0239
C35 C 0.0959(4) 0.8493(3) -0.0213(3)
C36 C 0.0701(4) 0.8206(2) 0.0039(3)
C37 C 0.0534(5) 0.8318(3) 0.0429(3)
H24 H 0.0360 0.8128 0.0600
C38 C 0.0615(5) 0.8702(3) 0.0574(3)
H25 H 0.0514 0.8767 0.0841
S4 S -0.05816(16) 0.79975(10) -0.03710(17)
O10 O -0.0363(5) 0.8312(3) -0.0628(6)
O11 O -0.0750(6) 0.8116(5) 0.0021(4)
O12 O -0.1052(4) 0.7771(2) -0.0572(3)
N7 N 0.0178(4) 0.5883(2) -0.0813(2)
N8 N 0.0328(4) 0.6596(2) -0.0534(2)
C39 C 0.0083(5) 0.5506(3) -0.0949(3)
H26 H -0.0239 0.5359 -0.0844
C40 C 0.0451(6) 0.5333(3) -0.1240(3)
H27 H 0.0372 0.5073 -0.1329
C41 C 0.0933(6) 0.5543(4) -0.1398(4)
H28 H 0.1190 0.5424 -0.1586
C42 C 0.1028(6) 0.5940(3) -0.1271(3)
H29 H 0.1335 0.6096 -0.1384
C43 C 0.0650(5) 0.6095(3) -0.0971(3)
C44 C 0.0719(5) 0.6495(3) -0.0805(3)
H30 H 0.1026 0.6668 -0.0890
C45 C 0.0406(4) 0.6996(3) -0.0369(3)
C46 C -0.0041(4) 0.7275(3) -0.0419(3)
H31 H -0.0407 0.7202 -0.0544
C47 C 0.0036(4) 0.7662(3) -0.0288(3)
C48 C 0.0584(4) 0.7783(3) -0.0105(3)
C49 C 0.1023(5) 0.7493(3) -0.0039(3)
H32 H 0.1382 0.7563 0.0097
C50 C 0.0946(5) 0.7096(3) -0.0170(3)
H33 H 0.1248 0.6904 -0.0125
S5 S 0.36297(17) 0.88790(10) 0.16059(10)
O13 O 0.4157(4) 0.8638(3) 0.1627(4)
O14 O 0.3239(5) 0.8819(3) 0.1954(3)
O15 O 0.3757(4) 0.9302(2) 0.1537(3)
N9 N 0.1740(3) 0.9851(2) 0.0007(2)
N10 N 0.2211(4) 0.9263(2) 0.0408(2)
C51 C 0.1493(5) 1.0166(3) -0.0188(3)
H34 H 0.1259 1.0347 -0.0041
C52 C 0.1578(5) 1.0230(3) -0.0606(3)
H35 H 0.1405 1.0452 -0.0735
C53 C 0.1916(6) 0.9964(4) -0.0822(3)
H36 H 0.1968 1.0001 -0.1102
C54 C 0.2186(5) 0.9634(3) -0.0625(3)
H37 H 0.2418 0.9450 -0.0770
C55 C 0.2097(5) 0.9591(3) -0.0210(3)
C56 C 0.2352(5) 0.9267(3) 0.0022(3)
H38 H 0.2601 0.9074 -0.0095
C57 C 0.2479(5) 0.8940(3) 0.0645(3)
C58 C 0.2886(5) 0.9028(3) 0.0959(3)
H39 H 0.2962 0.9294 0.1025
C59 C 0.3182(5) 0.8729(3) 0.1175(3)
C60 C 0.3088(5) 0.8321(3) 0.1070(3)
C61 C 0.2679(5) 0.8243(3) 0.0757(3)
H40 H 0.2611 0.7978 0.0683
C62 C 0.2365(5) 0.8541(3) 0.0547(3)
H41 H 0.2081 0.8475 0.0344
S6 S 0.4243(2) 0.79344(12) 0.06619(12)
O16 O 0.4268(5) 0.8349(3) 0.0613(3)
O17 O 0.3773(6) 0.7759(4) 0.0371(3)
O18 O 0.4800(5) 0.7721(3) 0.0635(3)
N11 N 0.4850(4) 0.6556(3) 0.2435(3)
N12 N 0.4340(3) 0.7110(2) 0.1995(2)
C63 C 0.5060(6) 0.6259(4) 0.2667(4)
H42 H 0.5063 0.5999 0.2562
C64 C 0.5274(7) 0.6327(5) 0.3057(4)
H43 H 0.5422 0.6112 0.3211
C65 C 0.5275(6) 0.6694(6) 0.3223(4)
H44 H 0.5413 0.6736 0.3490
C66 C 0.5071(6) 0.7005(4) 0.2989(4)
H45 H 0.5080 0.7265 0.3092
C67 C 0.4850(5) 0.6933(3) 0.2601(3)
C68 C 0.4574(5) 0.7239(3) 0.2335(3)
H46 H 0.4568 0.7509 0.2407
C69 C 0.4023(4) 0.7406(3) 0.1750(3)
C70 C 0.4260(5) 0.7545(3) 0.1392(3)
H47 H 0.4633 0.7447 0.1305
C71 C 0.3956(5) 0.7830(3) 0.1156(3)
C72 C 0.3410(5) 0.7990(3) 0.1287(3)
C73 C 0.3176(5) 0.7844(4) 0.1651(4)
H48 H 0.2809 0.7946 0.1744
C74 C 0.3472(5) 0.7553(4) 0.1878(4)
H49 H 0.3300 0.7456 0.2117
S7 S -0.18206(17) 0.70234(13) 0.16264(11)
O19 O -0.1997(5) 0.6714(4) 0.1349(3)
O20 O -0.1678(5) 0.7394(3) 0.1395(3)
O21 O -0.2251(4) 0.7101(3) 0.1940(3)
N13 N -0.0613(4) 0.7084(3) 0.3729(3)
N14 N -0.0596(4) 0.6945(3) 0.2962(3)
C75 C -0.0644(6) 0.7170(4) 0.4131(3)
H50 H -0.0765 0.7424 0.4214
C76 C -0.0496(7) 0.6878(5) 0.4426(4)
H51 H -0.0502 0.6945 0.4702
C77 C -0.0345(6) 0.6497(5) 0.4315(4)
H52 H -0.0258 0.6302 0.4511
C78 C -0.0325(6) 0.6413(4) 0.3915(4)
H53 H -0.0224 0.6156 0.3829
C79 C -0.0452(5) 0.6705(4) 0.3633(3)
C80 C -0.0451(5) 0.6642(4) 0.3192(4)
H54 H -0.0349 0.6394 0.3080
C81 C -0.0593(5) 0.6884(3) 0.2525(3)
C82 C -0.1123(5) 0.6934(3) 0.2306(3)
H55 H -0.1477 0.6997 0.2445
C83 C -0.1146(5) 0.6892(3) 0.1887(3)
C84 C -0.0608(5) 0.6778(3) 0.1677(3)
C85 C -0.0072(6) 0.6730(4) 0.1903(3)
H56 H 0.0284 0.6659 0.1770
C86 C -0.0057(6) 0.6786(4) 0.2323(4)
H57 H 0.0308 0.6759 0.2469
S8 S -0.06713(19) 0.58808(10) 0.13589(10)
O22 O -0.1011(4) 0.5940(3) 0.1718(2)
O23 O -0.0008(4) 0.5823(3) 0.1445(3)
O24 O -0.0907(5) 0.5567(2) 0.1097(2)
N15 N -0.0874(4) 0.6391(2) -0.0821(2)
N16 N -0.0793(4) 0.6530(2) -0.0051(2)
C87 C -0.0906(6) 0.6301(3) -0.1213(3)
H58 H -0.0597 0.6148 -0.1327
C88 C -0.1390(6) 0.6430(4) -0.1461(4)
H59 H -0.1407 0.6355 -0.1735
C89 C -0.1836(6) 0.6663(4) -0.1306(4)
H60 H -0.2162 0.6747 -0.1469
C90 C -0.1797(5) 0.6771(4) -0.0904(4)
H61 H -0.2087 0.6940 -0.0790
C91 C -0.1323(5) 0.6628(3) -0.0672(3)
C92 C -0.1241(5) 0.6702(3) -0.0234(3)
H62 H -0.1506 0.6869 -0.0093
C93 C -0.0726(4) 0.6592(3) 0.0383(3)
C94 C -0.0797(5) 0.6279(3) 0.0641(3)
H63 H -0.0895 0.6027 0.0537
C95 C -0.0724(5) 0.6330(3) 0.1065(3)
C96 C -0.0629(5) 0.6704(3) 0.1227(3)
C97 C -0.0559(6) 0.7028(3) 0.0964(3)
H64 H -0.0487 0.7283 0.1069
C98 C -0.0599(5) 0.6970(3) 0.0538(3)
H65 H -0.0539 0.7185 0.0361
S9 S 0.15389(16) 0.64357(10) 0.33422(12)
O25 O 0.1335(12) 0.6256(9) 0.2968(6)
O26 O 0.1140(13) 0.6374(12) 0.3671(7)
O27 O 0.2168(7) 0.6418(12) 0.3407(10)
N17 N -0.0881(4) 0.7924(3) 0.3603(2)
N18 N 0.0073(4) 0.7619(2) 0.3283(2)
C99 C -0.1391(6) 0.8089(4) 0.3748(4)
H66 H -0.1760 0.7961 0.3694
C100 C -0.1400(7) 0.8432(5) 0.3971(4)
H67 H -0.1769 0.8540 0.4054
C101 C -0.0864(8) 0.8619(4) 0.4075(4)
H68 H -0.0865 0.8849 0.4236
C102 C -0.0308(6) 0.8457(4) 0.3933(4)
H69 H 0.0063 0.8580 0.3992
C103 C -0.0339(6) 0.8108(3) 0.3704(3)
C104 C 0.0178(5) 0.7925(3) 0.3517(3)
H70 H 0.0571 0.8021 0.3562
C105 C 0.0599(5) 0.7427(3) 0.3098(3)
C106 C 0.0837(5) 0.7092(3) 0.3265(3)
H71 H 0.0664 0.6984 0.3499
C107 C 0.1334(5) 0.6907(3) 0.3094(3)
C108 C 0.1628(5) 0.7073(3) 0.2756(3)
C109 C 0.1370(5) 0.7417(4) 0.2599(3)
H72 H 0.1549 0.7532 0.2371
C110 C 0.0863(5) 0.7603(4) 0.2757(3)
H73 H 0.0704 0.7837 0.2641
S10 S 0.29225(14) 0.73800(9) 0.30796(8)
O28 O 0.2664(6) 0.7262(4) 0.3452(3)
O29 O 0.2659(7) 0.7728(3) 0.2911(4)
O30 O 0.3567(4) 0.7402(4) 0.3116(4)
N19 N 0.4676(4) 0.5968(3) 0.1807(3)
N20 N 0.3732(4) 0.6317(2) 0.2094(2)
C111 C 0.5172(7) 0.5802(4) 0.1648(4)
H74 H 0.5482 0.5963 0.1546
C112 C 0.5222(9) 0.5368(5) 0.1635(6)
H75 H 0.5560 0.5252 0.1513
C113 C 0.4798(10) 0.5133(5) 0.1794(6)
H76 H 0.4843 0.4856 0.1792
C114 C 0.4294(8) 0.5307(4) 0.1962(5)
H77 H 0.3987 0.5148 0.2071
C115 C 0.4245(6) 0.5719(3) 0.1967(4)
C116 C 0.3723(5) 0.5932(3) 0.2125(3)
H78 H 0.3399 0.5798 0.2244
C117 C 0.3205(4) 0.6522(3) 0.2240(3)
C118 C 0.3272(5) 0.6796(3) 0.2559(3)
H79 H 0.3659 0.6850 0.2666
C119 C 0.2768(5) 0.6988(3) 0.2719(3)
C120 C 0.2181(5) 0.6895(3) 0.2576(3)
C121 C 0.2141(5) 0.6624(3) 0.2254(3)
H80 H 0.1757 0.6564 0.2146
C122 C 0.2644(5) 0.6440(4) 0.2084(3)
H81 H 0.2597 0.6262 0.1866
S11 S 0.24910(16) 0.60941(14) -0.01738(10)
O31 O 0.2920(5) 0.5842(4) 0.0033(3)
O32 O 0.2733(7) 0.6495(4) -0.0205(4)
O33 O 0.2272(4) 0.5943(5) -0.0550(3)
N21 N -0.0818(4) 0.5719(2) -0.0281(2)
N22 N 0.0197(3) 0.5939(2) 0.0040(2)
C123 C -0.1354(5) 0.5622(3) -0.0447(3)
H82 H -0.1511 0.5785 -0.0654
C124 C -0.1693(5) 0.5289(3) -0.0330(4)
H83 H -0.2065 0.5231 -0.0456
C125 C -0.1463(5) 0.5049(3) -0.0023(4)
H84 H -0.1676 0.4822 0.0059
C126 C -0.0917(5) 0.5147(3) 0.0159(3)
H85 H -0.0760 0.4992 0.0373
C127 C -0.0601(5) 0.5479(3) 0.0022(3)
C128 C -0.0030(5) 0.5611(3) 0.0188(3)
H86 H 0.0170 0.5468 0.0394
C129 C 0.0758(4) 0.6075(3) 0.0205(3)
C130 C 0.1286(4) 0.6031(3) -0.0018(3)
H87 H 0.1262 0.5927 -0.0281
C131 C 0.1846(4) 0.6138(3) 0.0144(3)
C132 C 0.1897(4) 0.6281(3) 0.0551(3)
C133 C 0.1357(5) 0.6329(3) 0.0769(3)
H88 H 0.1381 0.6427 0.1035
C134 C 0.0792(5) 0.6238(3) 0.0605(3)
H89 H 0.0440 0.6283 0.0754
S12 S 0.24669(17) 0.55852(9) 0.11002(10)
O34 O 0.2070(4) 0.5466(2) 0.0785(2)
O35 O 0.2156(5) 0.5653(3) 0.1487(3)
O36 O 0.2981(4) 0.5318(2) 0.1160(3)
N23 N 0.5278(4) 0.6697(3) 0.1620(3)
N24 N 0.4228(3) 0.6579(2) 0.1292(2)
C135 C 0.5820(5) 0.6764(4) 0.1802(4)
H90 H 0.5857 0.6729 0.2084
C136 C 0.6318(6) 0.6882(6) 0.1589(6)
H91 H 0.6683 0.6928 0.1729
C137 C 0.6298(6) 0.6933(5) 0.1184(5)
H92 H 0.6643 0.7013 0.1044
C138 C 0.5751(5) 0.6865(4) 0.0975(4)
H93 H 0.5719 0.6893 0.0692
C139 C 0.5252(5) 0.6751(3) 0.1210(3)
C140 C 0.4654(5) 0.6676(3) 0.1042(3)
H94 H 0.4577 0.6696 0.0762
C141 C 0.3630(4) 0.6510(3) 0.1124(3)
C142 C 0.3362(5) 0.6132(3) 0.1160(3)
H95 H 0.3559 0.5930 0.1307
C143 C 0.2806(5) 0.6060(3) 0.0977(3)
C144 C 0.2496(4) 0.6354(3) 0.0759(3)
C145 C 0.2761(5) 0.6731(3) 0.0731(3)
H96 H 0.2558 0.6932 0.0587
C146 C 0.3320(5) 0.6814(3) 0.0912(3)
H97 H 0.3488 0.7069 0.0892
Fe5 Fe 0.27301(12) 0.45855(7) 0.21517(8)
O37 O 0.2569(4) 0.5220(2) 0.2166(3)
O38 O 0.3386(5) 0.4696(3) 0.1675(3)
O39 O 0.3405(4) 0.4670(3) 0.2609(2)
O40 O 0.2941(6) 0.3972(3) 0.2146(4)
O41 O 0.2099(5) 0.4501(3) 0.1674(3)
O42 O 0.2065(5) 0.4514(4) 0.2610(3)
O43 O -0.250(2) 0.8542(17) 0.0387(16)
O44 O -0.2558(6) 0.5813(4) -0.0956(4)
O45 O 0.4386(6) 0.7684(4) 0.3661(4)
O46 O 0.1697(6) 0.5592(4) 0.2599(4)
O47 O -0.2038(5) 0.8890(3) -0.0048(4)
O48 O 0.3281(6) 0.6004(3) 0.3204(5)
O49 O 0.3789(6) 0.5289(3) 0.3041(4)
O50 O 0.0732(7) 0.7367(3) -0.1324(3)
O51 O 0.1760(5) 0.9140(3) -0.1554(3)
O52 O 0.3080(4) 0.8603(3) -0.0759(3)
O53 O -0.0814(4) 0.8981(2) 0.0253(3)
O54 O 0.3641(4) 0.8785(3) -0.0021(3)
O55 O 0.0794(4) 0.5287(2) 0.1009(2)
O56 O 0.3023(6) 0.9132(4) -0.1388(4)
O57 O 0.3461(9) 0.8852(6) -0.2093(5)
O58 O 0.3771(7) 0.6642(3) 0.3680(5)
O59 O -0.2168(6) 0.8746(5) -0.0854(5)
O60 O 0.0996(7) 0.4687(4) 0.1592(5)
O61 O -0.0617(8) 0.5732(6) 0.2511(4)
O62 O 0.3038(13) 0.5038(8) -0.0204(10)
O63 O 0.3430(9) 0.3551(7) 0.0981(8)
O64 O 0.1009(9) 0.6946(7) -0.1982(7)
O65 O -0.3496(12) 0.9889(9) 0.0395(8)
O66 O 0.0564(8) 0.4614(5) 0.4113(6)
O67 O 0.0945(9) 0.4845(7) 0.2771(10)
O68 O -0.0120(10) 0.3944(7) 0.4318(7)
O69 O 0.1225(10) 0.6627(9) 0.4516(9)
O70 O 0.4986(14) 0.5209(8) 0.2812(10)
O71 O 0.5823(13) 0.5275(8) 0.3400(10)
O72 O 0.3618(10) 0.9811(7) -0.1201(8)
O73 O 0.0808(11) 0.5973(9) 0.4982(7)
O74 O 0.4099(10) 0.8200(5) 0.2520(5)
O75 O 0.4121(7) 0.6435(6) 0.0113(4)
O76 O -0.1785(10) 0.8627(8) 0.2046(8)
O77 O -0.4152(10) 0.7606(7) -0.0732(6)
O78 O 0.0031(11) 0.6365(9) -0.2060(7)
O79 O 0.2585(10) 0.8681(9) -0.2625(8)
O80 O -0.0076(8) 0.5309(6) 0.3784(8)
O81 O -0.3013(9) 0.9244(8) 0.0336(6)
O82 O 0.1626(17) 0.8741(9) -0.2354(9)
O83 O 0.119(2) 0.9373(17) -0.2754(17)
O84 O 0.2131(9) 0.6834(10) -0.1027(11)
O85 O -0.3007(9) 0.7504(8) -0.0898(5)
O86 O 0.0353(8) 0.5561(6) 0.3031(7)
O87 O 0.6201(14) 0.5849(8) 0.0927(10)
O88 O 0.3284(8) 0.4759(6) 0.0537(7)
O89 O 0.1116(7) 0.5941(5) 0.1890(4)
O90 O -0.3327(9) 0.7100(7) -0.1310(10)
O91 O 0.2346(10) 0.8327(5) 0.2403(6)
O92 O 0.4153(9) 0.4178(6) 0.1240(5)
O93 O 0.2542(13) 0.5514(10) -0.1219(9)
O94 O 0.4084(15) 0.9618(10) 0.0012(12)
O95 O 0.462(2) 0.4480(10) 0.0621(10)
O96 O 0.0208(14) 0.4496(14) 0.2172(8)
O97 O -0.3865(19) 0.6768(11) -0.0179(9)
O98 O 0.2527(12) 0.7694(11) -0.0124(11)
O99 O -0.0919(14) 0.8032(7) 0.1058(10)
O100 O 0.0862(15) 0.7255(9) -0.2771(11)
O101 O -0.2410(12) 0.8490(12) 0.1616(9)
O102 O 0.007(2) 0.5490(15) 0.4473(16)
O103 O 0.392(4) 0.559(3) -0.200(3)
O104 O 0.398(3) 0.549(2) -0.141(2)
O105 O -0.203(2) 0.5318(15) 0.1063(16)
O106 O 0.2512(18) 0.7547(12) -0.0728(11)
O107 O -0.238(3) 0.6299(18) 0.0139(16)
O108 O 0.160(3) 0.576(2) -0.234(2)
O109 O -0.102(3) 0.381(2) 0.372(2)
O110 O 0.554(3) 0.470(2) 0.061(2)
O111 O -0.215(5) 0.490(3) 0.199(3)
O112 O 0.041(3) 0.6650(19) -0.3283(19)
O113 O 0.281(4) 1.026(2) -0.181(2)
C1 C 0.165(4) 0.739(3) 0.124(2)
C2 C 0.1481(14) 0.7493(9) 0.1186(10)
H1 H 0.1728 0.7529 0.0941
Cl1 Cl 0.1839(18) 0.7144(11) 0.1504(10)
Cl2 Cl 0.0763(15) 0.7321(11) 0.1037(12)
Cl3 Cl 0.142(2) 0.7953(9) 0.1435(16)
C147? C 0.123(5) 0.742(3) 0.112(3)
C148? C 0.141(4) 0.765(3) 0.129(3)
C149? C 0.092(4) 0.748(3) 0.139(3)
O114? O 0.1726(6) 0.6537(4) 0.3774(3)
O115? O 0.2027(5) 0.6255(3) 0.3134(3)
O116? O 0.0980(4) 0.6221(3) 0.3353(4)
O117? O 0.2325(14) 0.4592(8) 0.2362(9)
Fe6? Fe -0.25137(17) 0.76610(11) 0.03288(10)
O118? O -0.2803(9) 0.8225(4) 0.0159(5)
O119? O -0.2209(6) 0.7549(5) -0.0275(3)
O120? O -0.1630(7) 0.7878(6) 0.0476(5)
O121? O -0.2215(7) 0.7064(4) 0.0512(5)
O122? O -0.3367(6) 0.7406(6) 0.0193(5)
O123? O -0.2787(9) 0.7752(5) 0.0944(4)
O124? O 0.127(2) 0.7288(15) -0.1219(15)
O125? O 0.4711(17) 0.8216(11) 0.2235(12)
O126? O 0.1590(17) 0.8940(11) -0.2797(11)
O127? O 0.213(2) 0.6676(15) -0.1573(17)
O128? O 0.2157(18) 0.6553(14) -0.1833(14)
O129? O 0.229(2) 0.6290(16) -0.1708(15)
O130? O 0.194(2) 0.6913(15) -0.1279(16)
O131? O -0.3416(17) 0.6859(12) -0.1649(12)
O132? O 0.2988(14) 0.8390(8) 0.2637(7)
O133? O 0.370(2) 0.9590(13) 0.0147(12)
O134? O 0.287(2) 0.7398(13) -0.0001(13)
O135? O 0.066(2) 0.7224(15) -0.3131(16)
O136? O -0.238(2) 0.7984(14) 0.1698(13)
O137? O -0.2996(19) 0.7802(13) 0.1888(13)
O138? O 0.022(3) 0.5601(17) 0.4682(18)
O139? O 0.3833(15) 0.7088(10) -0.0198(10)
O140? O 0.4437(17) 0.7167(10) -0.0115(10)
O141? O 0.4944(19) 0.7159(11) -0.0101(11)
O142? O 0.1244(14) 0.4765(10) 0.2173(10)
O143? O 0.3593(17) 0.5188(11) -0.1260(11)
O144? O 0.3807(19) 0.5025(13) -0.0871(13)
O145? O 0.387(2) 0.5626(16) -0.1829(18)
O146? O -0.1798(16) 0.8697(11) 0.2864(11)
O147? O -0.0897(19) 0.4966(13) 0.2310(13)
O148? O -0.1967(17) 0.5249(11) 0.1425(12)
O149? O 0.226(2) 0.7372(15) -0.0801(14)
O150? O -0.2671(17) 0.6011(11) 0.1494(11)
O151? O 0.5852(19) 0.6055(13) 0.0158(13)
O152? O 0.5192(17) 0.4229(11) 0.0001(11)
O153? O 0.0202(16) 0.6905(11) -0.1544(11)
O154? O 0.651(2) 0.5663(14) 0.1429(14)
O155? O -0.091(2) 0.2932(15) 0.4604(15)
O156? O -0.231(3) 0.5914(18) 0.0435(18)
O157? O 0.375(2) 0.5207(14) -0.2560(14)
O158? O 0.555(2) 0.4472(16) -0.0606(16)
O159? O 0.144(2) 0.6233(16) -0.2313(16)
O160? O -0.096(2) 0.2992(16) 0.3913(16)
O161? O 0.1138(12) 0.9465(8) -0.2253(10)
O162? O -0.197(5) 0.504(3) 0.221(3)
O163? O 0.5073(12) 0.5294(9) 0.3187(10)
O164? O -0.262(4) 0.607(3) 0.017(3)
loop_
_geom_bond_atom_site_label_1
_geom_bond_atom_site_label_2
_geom_bond_site_symmetry_1
_geom_bond_site_symmetry_2
C1 H1 1_555 1_555
C2 H1 1_555 1_555
Cl1 C1 1_555 1_555
Cl2 C1 1_555 1_555
Cl3 C1 1_555 1_555
Fe1 N1 1_555 1_555
Fe2 N3 1_555 1_555
Fe3 N7 1_555 1_555
Fe4 N11 1_555 1_555
S1 O1 1_555 1_555
O2 S1 1_555 1_555
O3 S1 1_555 1_555
N1 C3 1_555 1_555
N2 Fe1 1_555 1_555
C3 H2 1_555 1_555
C4 C3 1_555 1_555
H3 C4 1_555 1_555
C5 C4 1_555 1_555
H4 C5 1_555 1_555
C6 C5 1_555 1_555
H5 C6 1_555 1_555
C7 N1 1_555 1_555
C8 N2 1_555 1_555
H6 C8 1_555 1_555
C9 N2 1_555 1_555
C10 C9 1_555 1_555
H7 C10 1_555 1_555
C11 S1 1_555 1_555
C12 C11 1_555 1_555
C13 C12 1_555 1_555
H8 C13 1_555 1_555
C14 C9 1_555 1_555
H9 C14 1_555 1_555
S2 O4 1_555 1_555
O5 S2 1_555 1_555
O6 S2 1_555 1_555
N3 C15 1_555 1_555
N4 Fe2 1_555 1_555
C15 H10 1_555 1_555
C16 C15 1_555 1_555
H11 C16 1_555 1_555
C17 C16 1_555 1_555
H12 C17 1_555 1_555
C18 C17 1_555 1_555
H13 C18 1_555 1_555
C19 N3 1_555 1_555
C20 N4 1_555 1_555
H14 C20 1_555 1_555
C21 N4 1_555 1_555
C22 C21 1_555 1_555
H15 C22 1_555 1_555
C23 S2 1_555 1_555
C24 C12 1_555 1_555
C25 C24 1_555 1_555
H16 C25 1_555 1_555
C26 C21 1_555 1_555
H17 C26 1_555 1_555
S3 O7 1_555 1_555
O8 S3 1_555 1_555
O9 S3 1_555 1_555
N5 Fe1 1_555 1_555
N6 Fe1 1_555 1_555
C27 N5 1_555 1_555
H18 C27 1_555 1_555
C28 C27 1_555 1_555
H19 C28 1_555 1_555
C29 C28 1_555 1_555
H20 C29 1_555 1_555
C30 C29 1_555 1_555
H21 C30 1_555 1_555
C31 N5 1_555 1_555
C32 N6 1_555 1_555
H22 C32 1_555 1_555
C33 N6 1_555 1_555
C34 C33 1_555 1_555
H23 C34 1_555 1_555
C35 S3 1_555 1_555
C36 C35 1_555 1_555
C37 C36 1_555 1_555
H24 C37 1_555 1_555
C38 C33 1_555 1_555
H25 C38 1_555 1_555
S4 O10 1_555 1_555
O11 S4 1_555 1_555
O12 S4 1_555 1_555
N7 C39 1_555 1_555
N8 Fe3 1_555 1_555
C39 H26 1_555 1_555
C40 C39 1_555 1_555
H27 C40 1_555 1_555
C41 C40 1_555 1_555
H28 C41 1_555 1_555
C42 C41 1_555 1_555
H29 C42 1_555 1_555
C43 N7 1_555 1_555
C44 N8 1_555 1_555
H30 C44 1_555 1_555
C45 N8 1_555 1_555
C46 C45 1_555 1_555
H31 C46 1_555 1_555
C47 S4 1_555 1_555
C48 C36 1_555 1_555
C49 C48 1_555 1_555
H32 C49 1_555 1_555
C50 C45 1_555 1_555
H33 C50 1_555 1_555
S5 O13 1_555 1_555
O14 S5 1_555 1_555
O15 S5 1_555 1_555
N9 Fe1 1_555 1_555
N10 Fe1 1_555 1_555
C51 N9 1_555 1_555
H34 C51 1_555 1_555
C52 C51 1_555 1_555
H35 C52 1_555 1_555
C53 C52 1_555 1_555
H36 C53 1_555 1_555
C54 C53 1_555 1_555
H37 C54 1_555 1_555
C55 N9 1_555 1_555
C56 N10 1_555 1_555
H38 C56 1_555 1_555
C57 N10 1_555 1_555
C58 C57 1_555 1_555
H39 C58 1_555 1_555
C59 S5 1_555 1_555
C60 C59 1_555 1_555
C61 C60 1_555 1_555
H40 C61 1_555 1_555
C62 C57 1_555 1_555
H41 C62 1_555 1_555
S6 O16 1_555 1_555
O17 S6 1_555 1_555
O18 S6 1_555 1_555
N11 C63 1_555 1_555
N12 Fe4 1_555 1_555
C63 H42 1_555 1_555
C64 C63 1_555 1_555
H43 C64 1_555 1_555
C65 C64 1_555 1_555
H44 C65 1_555 1_555
C66 C65 1_555 1_555
H45 C66 1_555 1_555
C67 N11 1_555 1_555
C68 N12 1_555 1_555
H46 C68 1_555 1_555
C69 N12 1_555 1_555
C70 C69 1_555 1_555
H47 C70 1_555 1_555
C71 S6 1_555 1_555
C72 C60 1_555 1_555
C73 C72 1_555 1_555
H48 C73 1_555 1_555
C74 C69 1_555 1_555
H49 C74 1_555 1_555
S7 O19 1_555 1_555
O20 S7 1_555 1_555
O21 S7 1_555 1_555
N13 Fe2 1_555 1_555
N14 Fe2 1_555 1_555
C75 N13 1_555 1_555
H50 C75 1_555 1_555
C76 C75 1_555 1_555
H51 C76 1_555 1_555
C77 C76 1_555 1_555
H52 C77 1_555 1_555
C78 C77 1_555 1_555
H53 C78 1_555 1_555
C79 N13 1_555 1_555
C80 N14 1_555 1_555
H54 C80 1_555 1_555
C81 N14 1_555 1_555
C82 C81 1_555 1_555
H55 C82 1_555 1_555
C83 S7 1_555 1_555
C84 C83 1_555 1_555
C85 C84 1_555 1_555
H56 C85 1_555 1_555
C86 C81 1_555 1_555
H57 C86 1_555 1_555
S8 O22 1_555 1_555
O23 S8 1_555 1_555
O24 S8 1_555 1_555
N15 Fe3 1_555 1_555
N16 Fe3 1_555 1_555
C87 N15 1_555 1_555
H58 C87 1_555 1_555
C88 C87 1_555 1_555
H59 C88 1_555 1_555
C89 C88 1_555 1_555
H60 C89 1_555 1_555
C90 C89 1_555 1_555
H61 C90 1_555 1_555
C91 N15 1_555 1_555
C92 N16 1_555 1_555
H62 C92 1_555 1_555
C93 N16 1_555 1_555
C94 C93 1_555 1_555
H63 C94 1_555 1_555
C95 S8 1_555 1_555
C96 C84 1_555 1_555
C97 C96 1_555 1_555
H64 C97 1_555 1_555
C98 C93 1_555 1_555
H65 C98 1_555 1_555
S9 O25 1_555 1_555
O26 S9 1_555 1_555
O27 S9 1_555 1_555
N17 Fe2 1_555 1_555
N18 Fe2 1_555 1_555
C99 N17 1_555 1_555
H66 C99 1_555 1_555
C100 C99 1_555 1_555
H67 C100 1_555 1_555
C101 C100 1_555 1_555
H68 C101 1_555 1_555
C102 C101 1_555 1_555
H69 C102 1_555 1_555
C103 N17 1_555 1_555
C104 N18 1_555 1_555
H70 C104 1_555 1_555
C105 N18 1_555 1_555
C106 C105 1_555 1_555
H71 C106 1_555 1_555
C107 S9 1_555 1_555
C108 C107 1_555 1_555
C109 C108 1_555 1_555
H72 C109 1_555 1_555
C110 C105 1_555 1_555
H73 C110 1_555 1_555
S10 O28 1_555 1_555
O29 S10 1_555 1_555
O30 S10 1_555 1_555
N19 Fe4 1_555 1_555
N20 Fe4 1_555 1_555
C111 N19 1_555 1_555
H74 C111 1_555 1_555
C112 C111 1_555 1_555
H75 C112 1_555 1_555
C113 C112 1_555 1_555
H76 C113 1_555 1_555
C114 C113 1_555 1_555
H77 C114 1_555 1_555
C115 N19 1_555 1_555
C116 N20 1_555 1_555
H78 C116 1_555 1_555
C117 N20 1_555 1_555
C118 C117 1_555 1_555
H79 C118 1_555 1_555
C119 S10 1_555 1_555
C120 C108 1_555 1_555
C121 C120 1_555 1_555
H80 C121 1_555 1_555
C122 C117 1_555 1_555
H81 C122 1_555 1_555
S11 O31 1_555 1_555
O32 S11 1_555 1_555
O33 S11 1_555 1_555
N21 Fe3 1_555 1_555
N22 Fe3 1_555 1_555
C123 N21 1_555 1_555
H82 C123 1_555 1_555
C124 C123 1_555 1_555
H83 C124 1_555 1_555
C125 C124 1_555 1_555
H84 C125 1_555 1_555
C126 C125 1_555 1_555
H85 C126 1_555 1_555
C127 N21 1_555 1_555
C128 N22 1_555 1_555
H86 C128 1_555 1_555
C129 N22 1_555 1_555
C130 C129 1_555 1_555
H87 C130 1_555 1_555
C131 S11 1_555 1_555
C132 C131 1_555 1_555
C133 C132 1_555 1_555
H88 C133 1_555 1_555
C134 C129 1_555 1_555
H89 C134 1_555 1_555
S12 O34 1_555 1_555
O35 S12 1_555 1_555
O36 S12 1_555 1_555
N23 Fe4 1_555 1_555
N24 Fe4 1_555 1_555
C135 N23 1_555 1_555
H90 C135 1_555 1_555
C136 C135 1_555 1_555
H91 C136 1_555 1_555
C137 C136 1_555 1_555
H92 C137 1_555 1_555
C138 C137 1_555 1_555
H93 C138 1_555 1_555
C139 N23 1_555 1_555
C140 N24 1_555 1_555
H94 C140 1_555 1_555
C141 N24 1_555 1_555
C142 C141 1_555 1_555
H95 C142 1_555 1_555
C143 S12 1_555 1_555
C144 C132 1_555 1_555
C145 C144 1_555 1_555
H96 C145 1_555 1_555
C146 C141 1_555 1_555
H97 C146 1_555 1_555
Fe5 O37 1_555 1_555
O38 Fe5 1_555 1_555
O39 Fe5 1_555 1_555
O40 Fe5 1_555 1_555
O41 Fe5 1_555 1_555
O42 Fe5 1_555 1_555
C2 Cl1 1_555 1_555
C2 Cl2 1_555 1_555
C2 Cl3 1_555 1_555
C6 C7 1_555 1_555
C7 C8 1_555 1_555
C10 C11 1_555 1_555
C13 C14 1_555 1_555
C18 C19 1_555 1_555
C19 C20 1_555 1_555
C22 C23 1_555 1_555
C23 C24 1_555 1_555
C25 C26 1_555 1_555
C30 C31 1_555 1_555
C31 C32 1_555 1_555
C34 C35 1_555 1_555
C37 C38 1_555 1_555
C42 C43 1_555 1_555
C43 C44 1_555 1_555
C46 C47 1_555 1_555
C47 C48 1_555 1_555
C49 C50 1_555 1_555
C54 C55 1_555 1_555
C55 C56 1_555 1_555
C58 C59 1_555 1_555
C61 C62 1_555 1_555
C66 C67 1_555 1_555
C67 C68 1_555 1_555
C70 C71 1_555 1_555
C71 C72 1_555 1_555
C73 C74 1_555 1_555
C78 C79 1_555 1_555
C79 C80 1_555 1_555
C82 C83 1_555 1_555
C85 C86 1_555 1_555
C90 C91 1_555 1_555
C91 C92 1_555 1_555
C94 C95 1_555 1_555
C95 C96 1_555 1_555
C97 C98 1_555 1_555
C102 C103 1_555 1_555
C103 C104 1_555 1_555
C106 C107 1_555 1_555
C109 C110 1_555 1_555
C114 C115 1_555 1_555
C115 C116 1_555 1_555
C118 C119 1_555 1_555
C119 C120 1_555 1_555
C121 C122 1_555 1_555
C126 C127 1_555 1_555
C127 C128 1_555 1_555
C130 C131 1_555 1_555
C133 C134 1_555 1_555
C138 C139 1_555 1_555
C139 C140 1_555 1_555
C142 C143 1_555 1_555
C143 C144 1_555 1_555
C145 C146 1_555 1_555

#END
