# generated using pymatgen
data_Ni2H32C51S4(N4O35)2
_symmetry_space_group_name_H-M   'P 1'
_cell_length_a   25.55087927
_cell_length_b   25.55087927
_cell_length_c   25.55087927
_cell_angle_alpha   60.00000000
_cell_angle_beta   60.00000000
_cell_angle_gamma   60.00000000
_symmetry_Int_Tables_number   1
_chemical_formula_structural   Ni2H32C51S4(N4O35)2
_chemical_formula_sum   'Ni12 H192 C306 S24 N48 O420'
_cell_volume   11795.12511765
_cell_formula_units_Z   6
loop_
 _symmetry_equiv_pos_site_id
 _symmetry_equiv_pos_as_xyz
  1  'x, y, z'
loop_
 _atom_site_type_symbol
 _atom_site_label
 _atom_site_symmetry_multiplicity
 _atom_site_fract_x
 _atom_site_fract_y
 _atom_site_fract_z
 _atom_site_occupancy
  C  C1  1  0.788300  0.903900  0.903900  1
  C  C2  1  0.903900  0.903900  0.903900  1
  C  C3  1  0.903900  0.788300  0.903900  1
  C  C4  1  0.903900  0.903900  0.788300  1
  C  C5  1  0.211700  0.096100  0.096100  1
  C  C6  1  0.096100  0.096100  0.096100  1
  C  C7  1  0.096100  0.211700  0.096100  1
  C  C8  1  0.096100  0.096100  0.211700  1
  C  C9  1  0.875000  0.875000  0.875000  1
  C  C10  1  0.125000  0.125000  0.125000  1
  C  C11  1  0.827900  0.890700  0.890700  1
  C  C12  1  0.890700  0.890700  0.890700  1
  C  C13  1  0.890700  0.827900  0.890700  1
  C  C14  1  0.890700  0.890700  0.827900  1
  C  C15  1  0.172100  0.109300  0.109300  1
  C  C16  1  0.109300  0.109300  0.109300  1
  C  C17  1  0.109300  0.172100  0.109300  1
  C  C18  1  0.109300  0.109300  0.172100  1
  C  C19  1  0.646900  0.680700  0.810900  1.0
  C  C20  1  0.361500  0.810900  0.680700  1.0
  C  C21  1  0.680700  0.646900  0.361500  1.0
  C  C22  1  0.810900  0.361500  0.646900  1.0
  C  C23  1  0.680700  0.810900  0.646900  1.0
  C  C24  1  0.810900  0.646900  0.680700  1.0
  C  C25  1  0.361500  0.646900  0.810900  1.0
  C  C26  1  0.680700  0.361500  0.810900  1.0
  C  C27  1  0.810900  0.680700  0.361500  1.0
  C  C28  1  0.361500  0.680700  0.646900  1.0
  C  C29  1  0.646900  0.361500  0.680700  1.0
  C  C30  1  0.646900  0.810900  0.361500  1.0
  C  C31  1  0.353100  0.319300  0.189100  1.0
  C  C32  1  0.638500  0.189100  0.319300  1.0
  C  C33  1  0.319300  0.353100  0.638500  1.0
  C  C34  1  0.189100  0.638500  0.353100  1.0
  C  C35  1  0.319300  0.189100  0.353100  1.0
  C  C36  1  0.189100  0.353100  0.319300  1.0
  C  C37  1  0.638500  0.353100  0.189100  1.0
  C  C38  1  0.319300  0.638500  0.189100  1.0
  C  C39  1  0.189100  0.319300  0.638500  1.0
  C  C40  1  0.638500  0.319300  0.353100  1.0
  C  C41  1  0.353100  0.638500  0.319300  1.0
  C  C42  1  0.353100  0.189100  0.638500  1.0
  C  C43  1  0.586100  0.674700  0.847900  1.0
  C  C44  1  0.391300  0.847900  0.674700  1.0
  C  C45  1  0.674700  0.586100  0.391300  1.0
  C  C46  1  0.847900  0.391300  0.586100  1.0
  C  C47  1  0.674700  0.847900  0.586100  1.0
  C  C48  1  0.847900  0.586100  0.674700  1.0
  C  C49  1  0.391300  0.586100  0.847900  1.0
  C  C50  1  0.674700  0.391300  0.847900  1.0
  C  C51  1  0.847900  0.674700  0.391300  1.0
  C  C52  1  0.391300  0.674700  0.586100  1.0
  C  C53  1  0.586100  0.391300  0.674700  1.0
  C  C54  1  0.586100  0.847900  0.391300  1.0
  C  C55  1  0.413900  0.325300  0.152100  1.0
  C  C56  1  0.608700  0.152100  0.325300  1.0
  C  C57  1  0.325300  0.413900  0.608700  1.0
  C  C58  1  0.152100  0.608700  0.413900  1.0
  C  C59  1  0.325300  0.152100  0.413900  1.0
  C  C60  1  0.152100  0.413900  0.325300  1.0
  C  C61  1  0.608700  0.413900  0.152100  1.0
  C  C62  1  0.325300  0.608700  0.152100  1.0
  C  C63  1  0.152100  0.325300  0.608700  1.0
  C  C64  1  0.608700  0.325300  0.413900  1.0
  C  C65  1  0.413900  0.608700  0.325300  1.0
  C  C66  1  0.413900  0.152100  0.608700  1.0
  C  C67  1  0.538500  0.721300  0.873300  1.0
  C  C68  1  0.366900  0.873300  0.721300  1.0
  C  C69  1  0.721300  0.538500  0.366900  1.0
  C  C70  1  0.873300  0.366900  0.538500  1.0
  C  C71  1  0.721300  0.873300  0.538500  1.0
  C  C72  1  0.873300  0.538500  0.721300  1.0
  C  C73  1  0.366900  0.538500  0.873300  1.0
  C  C74  1  0.721300  0.366900  0.873300  1.0
  C  C75  1  0.873300  0.721300  0.366900  1.0
  C  C76  1  0.366900  0.721300  0.538500  1.0
  C  C77  1  0.538500  0.366900  0.721300  1.0
  C  C78  1  0.538500  0.873300  0.366900  1.0
  C  C79  1  0.461500  0.278700  0.126700  1.0
  C  C80  1  0.633100  0.126700  0.278700  1.0
  C  C81  1  0.278700  0.461500  0.633100  1.0
  C  C82  1  0.126700  0.633100  0.461500  1.0
  C  C83  1  0.278700  0.126700  0.461500  1.0
  C  C84  1  0.126700  0.461500  0.278700  1.0
  C  C85  1  0.633100  0.461500  0.126700  1.0
  C  C86  1  0.278700  0.633100  0.126700  1.0
  C  C87  1  0.126700  0.278700  0.633100  1.0
  C  C88  1  0.633100  0.278700  0.461500  1.0
  C  C89  1  0.461500  0.633100  0.278700  1.0
  C  C90  1  0.461500  0.126700  0.633100  1.0
  C  C91  1  0.551200  0.773200  0.862600  1.0
  C  C92  1  0.313000  0.862600  0.773200  1.0
  C  C93  1  0.773200  0.551200  0.313000  1.0
  C  C94  1  0.862600  0.313000  0.551200  1.0
  C  C95  1  0.773200  0.862600  0.551200  1.0
  C  C96  1  0.862600  0.551200  0.773200  1.0
  C  C97  1  0.313000  0.551200  0.862600  1.0
  C  C98  1  0.773200  0.313000  0.862600  1.0
  C  C99  1  0.862600  0.773200  0.313000  1.0
  C  C100  1  0.313000  0.773200  0.551200  1.0
  C  C101  1  0.551200  0.313000  0.773200  1.0
  C  C102  1  0.551200  0.862600  0.313000  1.0
  C  C103  1  0.448800  0.226800  0.137400  1.0
  C  C104  1  0.687000  0.137400  0.226800  1.0
  C  C105  1  0.226800  0.448800  0.687000  1.0
  C  C106  1  0.137400  0.687000  0.448800  1.0
  C  C107  1  0.226800  0.137400  0.448800  1.0
  C  C108  1  0.137400  0.448800  0.226800  1.0
  C  C109  1  0.687000  0.448800  0.137400  1.0
  C  C110  1  0.226800  0.687000  0.137400  1.0
  C  C111  1  0.137400  0.226800  0.687000  1.0
  C  C112  1  0.687000  0.226800  0.448800  1.0
  C  C113  1  0.448800  0.687000  0.226800  1.0
  C  C114  1  0.448800  0.137400  0.687000  1.0
  C  C115  1  0.611500  0.776100  0.826700  1.0
  C  C116  1  0.285700  0.826700  0.776100  1.0
  C  C117  1  0.776100  0.611500  0.285700  1.0
  C  C118  1  0.826700  0.285700  0.611500  1.0
  C  C119  1  0.776100  0.826700  0.611500  1.0
  C  C120  1  0.826700  0.611500  0.776100  1.0
  C  C121  1  0.285700  0.611500  0.826700  1.0
  C  C122  1  0.776100  0.285700  0.826700  1.0
  C  C123  1  0.826700  0.776100  0.285700  1.0
  C  C124  1  0.285700  0.776100  0.611500  1.0
  C  C125  1  0.611500  0.285700  0.776100  1.0
  C  C126  1  0.611500  0.826700  0.285700  1.0
  C  C127  1  0.388500  0.223900  0.173300  1.0
  C  C128  1  0.714300  0.173300  0.223900  1.0
  C  C129  1  0.223900  0.388500  0.714300  1.0
  C  C130  1  0.173300  0.714300  0.388500  1.0
  C  C131  1  0.223900  0.173300  0.388500  1.0
  C  C132  1  0.173300  0.388500  0.223900  1.0
  C  C133  1  0.714300  0.388500  0.173300  1.0
  C  C134  1  0.223900  0.714300  0.173300  1.0
  C  C135  1  0.173300  0.223900  0.714300  1.0
  C  C136  1  0.714300  0.223900  0.388500  1.0
  C  C137  1  0.388500  0.714300  0.223900  1.0
  C  C138  1  0.388500  0.173300  0.714300  1.0
  C  C139  1  0.629500  0.828500  0.813500  1.0
  C  C140  1  0.228500  0.813500  0.828500  1.0
  C  C141  1  0.828500  0.629500  0.228500  1.0
  C  C142  1  0.813500  0.228500  0.629500  1.0
  C  C143  1  0.828500  0.813500  0.629500  1.0
  C  C144  1  0.813500  0.629500  0.828500  1.0
  C  C145  1  0.228500  0.629500  0.813500  1.0
  C  C146  1  0.828500  0.228500  0.813500  1.0
  C  C147  1  0.813500  0.828500  0.228500  1.0
  C  C148  1  0.228500  0.828500  0.629500  1.0
  C  C149  1  0.629500  0.228500  0.828500  1.0
  C  C150  1  0.629500  0.813500  0.228500  1.0
  C  C151  1  0.370500  0.171500  0.186500  1.0
  C  C152  1  0.771500  0.186500  0.171500  1.0
  C  C153  1  0.171500  0.370500  0.771500  1.0
  C  C154  1  0.186500  0.771500  0.370500  1.0
  C  C155  1  0.171500  0.186500  0.370500  1.0
  C  C156  1  0.186500  0.370500  0.171500  1.0
  C  C157  1  0.771500  0.370500  0.186500  1.0
  C  C158  1  0.171500  0.771500  0.186500  1.0
  C  C159  1  0.186500  0.171500  0.771500  1.0
  C  C160  1  0.771500  0.171500  0.370500  1.0
  C  C161  1  0.370500  0.771500  0.171500  1.0
  C  C162  1  0.370500  0.186500  0.771500  1.0
  C  C163  1  0.704070  0.878730  0.768870  1.0
  C  C164  1  0.148330  0.768870  0.878730  1.0
  C  C165  1  0.878730  0.704070  0.148330  1.0
  C  C166  1  0.768870  0.148330  0.704070  1.0
  C  C167  1  0.878730  0.768870  0.704070  1.0
  C  C168  1  0.768870  0.704070  0.878730  1.0
  C  C169  1  0.148330  0.704070  0.768870  1.0
  C  C170  1  0.878730  0.148330  0.768870  1.0
  C  C171  1  0.768870  0.878730  0.148330  1.0
  C  C172  1  0.148330  0.878730  0.704070  1.0
  C  C173  1  0.704070  0.148330  0.878730  1.0
  C  C174  1  0.704070  0.768870  0.148330  1.0
  C  C175  1  0.295930  0.121270  0.231130  1.0
  C  C176  1  0.851670  0.231130  0.121270  1.0
  C  C177  1  0.121270  0.295930  0.851670  1.0
  C  C178  1  0.231130  0.851670  0.295930  1.0
  C  C179  1  0.121270  0.231130  0.295930  1.0
  C  C180  1  0.231130  0.295930  0.121270  1.0
  C  C181  1  0.851670  0.295930  0.231130  1.0
  C  C182  1  0.121270  0.851670  0.231130  1.0
  C  C183  1  0.231130  0.121270  0.851670  1.0
  C  C184  1  0.851670  0.121270  0.295930  1.0
  C  C185  1  0.295930  0.851670  0.121270  1.0
  C  C186  1  0.295930  0.231130  0.851670  1.0
  C  C187  1  0.723700  0.918300  0.706500  1.0
  C  C188  1  0.151500  0.706500  0.918300  1.0
  C  C189  1  0.918300  0.723700  0.151500  1.0
  C  C190  1  0.706500  0.151500  0.723700  1.0
  C  C191  1  0.918300  0.706500  0.723700  1.0
  C  C192  1  0.706500  0.723700  0.918300  1.0
  C  C193  1  0.151500  0.723700  0.706500  1.0
  C  C194  1  0.918300  0.151500  0.706500  1.0
  C  C195  1  0.706500  0.918300  0.151500  1.0
  C  C196  1  0.151500  0.918300  0.723700  1.0
  C  C197  1  0.723700  0.151500  0.918300  1.0
  C  C198  1  0.723700  0.706500  0.151500  1.0
  C  C199  1  0.276300  0.081700  0.293500  1.0
  C  C200  1  0.848500  0.293500  0.081700  1.0
  C  C201  1  0.081700  0.276300  0.848500  1.0
  C  C202  1  0.293500  0.848500  0.276300  1.0
  C  C203  1  0.081700  0.293500  0.276300  1.0
  C  C204  1  0.293500  0.276300  0.081700  1.0
  C  C205  1  0.848500  0.276300  0.293500  1.0
  C  C206  1  0.081700  0.848500  0.293500  1.0
  C  C207  1  0.293500  0.081700  0.848500  1.0
  C  C208  1  0.848500  0.081700  0.276300  1.0
  C  C209  1  0.276300  0.848500  0.081700  1.0
  C  C210  1  0.276300  0.293500  0.848500  1.0
  C  C211  1  0.738200  0.970000  0.694200  1.0
  C  C212  1  0.097600  0.694200  0.970000  1.0
  C  C213  1  0.970000  0.738200  0.097600  1.0
  C  C214  1  0.694200  0.097600  0.738200  1.0
  C  C215  1  0.970000  0.694200  0.738200  1.0
  C  C216  1  0.694200  0.738200  0.970000  1.0
  C  C217  1  0.097600  0.738200  0.694200  1.0
  C  C218  1  0.970000  0.097600  0.694200  1.0
  C  C219  1  0.694200  0.970000  0.097600  1.0
  C  C220  1  0.097600  0.970000  0.738200  1.0
  C  C221  1  0.738200  0.097600  0.970000  1.0
  C  C222  1  0.738200  0.694200  0.097600  1.0
  C  C223  1  0.261800  0.030000  0.305800  1.0
  C  C224  1  0.902400  0.305800  0.030000  1.0
  C  C225  1  0.030000  0.261800  0.902400  1.0
  C  C226  1  0.305800  0.902400  0.261800  1.0
  C  C227  1  0.030000  0.305800  0.261800  1.0
  C  C228  1  0.305800  0.261800  0.030000  1.0
  C  C229  1  0.902400  0.261800  0.305800  1.0
  C  C230  1  0.030000  0.902400  0.305800  1.0
  C  C231  1  0.305800  0.030000  0.902400  1.0
  C  C232  1  0.902400  0.030000  0.261800  1.0
  C  C233  1  0.261800  0.902400  0.030000  1.0
  C  C234  1  0.261800  0.305800  0.902400  1.0
  C  C235  1  0.732600  0.982400  0.743600  1.0
  C  C236  1  0.041400  0.743600  0.982400  1.0
  C  C237  1  0.982400  0.732600  0.041400  1.0
  C  C238  1  0.743600  0.041400  0.732600  1.0
  C  C239  1  0.982400  0.743600  0.732600  1.0
  C  C240  1  0.743600  0.732600  0.982400  1.0
  C  C241  1  0.041400  0.732600  0.743600  1.0
  C  C242  1  0.982400  0.041400  0.743600  1.0
  C  C243  1  0.743600  0.982400  0.041400  1.0
  C  C244  1  0.041400  0.982400  0.732600  1.0
  C  C245  1  0.732600  0.041400  0.982400  1.0
  C  C246  1  0.732600  0.743600  0.041400  1.0
  C  C247  1  0.267400  0.017600  0.256400  1.0
  C  C248  1  0.958600  0.256400  0.017600  1.0
  C  C249  1  0.017600  0.267400  0.958600  1.0
  C  C250  1  0.256400  0.958600  0.267400  1.0
  C  C251  1  0.017600  0.256400  0.267400  1.0
  C  C252  1  0.256400  0.267400  0.017600  1.0
  C  C253  1  0.958600  0.267400  0.256400  1.0
  C  C254  1  0.017600  0.958600  0.256400  1.0
  C  C255  1  0.256400  0.017600  0.958600  1.0
  C  C256  1  0.958600  0.017600  0.267400  1.0
  C  C257  1  0.267400  0.958600  0.017600  1.0
  C  C258  1  0.267400  0.256400  0.958600  1.0
  C  C259  1  0.713000  0.942600  0.805400  1.0
  C  C260  1  0.039000  0.805400  0.942600  1.0
  C  C261  1  0.942600  0.713000  0.039000  1.0
  C  C262  1  0.805400  0.039000  0.713000  1.0
  C  C263  1  0.942600  0.805400  0.713000  1.0
  C  C264  1  0.805400  0.713000  0.942600  1.0
  C  C265  1  0.039000  0.713000  0.805400  1.0
  C  C266  1  0.942600  0.039000  0.805400  1.0
  C  C267  1  0.805400  0.942600  0.039000  1.0
  C  C268  1  0.039000  0.942600  0.713000  1.0
  C  C269  1  0.713000  0.039000  0.942600  1.0
  C  C270  1  0.713000  0.805400  0.039000  1.0
  C  C271  1  0.287000  0.057400  0.194600  1.0
  C  C272  1  0.961000  0.194600  0.057400  1.0
  C  C273  1  0.057400  0.287000  0.961000  1.0
  C  C274  1  0.194600  0.961000  0.287000  1.0
  C  C275  1  0.057400  0.194600  0.287000  1.0
  C  C276  1  0.194600  0.287000  0.057400  1.0
  C  C277  1  0.961000  0.287000  0.194600  1.0
  C  C278  1  0.057400  0.961000  0.194600  1.0
  C  C279  1  0.194600  0.057400  0.961000  1.0
  C  C280  1  0.961000  0.057400  0.287000  1.0
  C  C281  1  0.287000  0.961000  0.057400  1.0
  C  C282  1  0.287000  0.194600  0.961000  1.0
  C  C283  1  0.699300  0.889300  0.819300  1.0
  C  C284  1  0.092100  0.819300  0.889300  1.0
  C  C285  1  0.889300  0.699300  0.092100  1.0
  C  C286  1  0.819300  0.092100  0.699300  1.0
  C  C287  1  0.889300  0.819300  0.699300  1.0
  C  C288  1  0.819300  0.699300  0.889300  1.0
  C  C289  1  0.092100  0.699300  0.819300  1.0
  C  C290  1  0.889300  0.092100  0.819300  1.0
  C  C291  1  0.819300  0.889300  0.092100  1.0
  C  C292  1  0.092100  0.889300  0.699300  1.0
  C  C293  1  0.699300  0.092100  0.889300  1.0
  C  C294  1  0.699300  0.819300  0.092100  1.0
  C  C295  1  0.300700  0.110700  0.180700  1.0
  C  C296  1  0.907900  0.180700  0.110700  1.0
  C  C297  1  0.110700  0.300700  0.907900  1.0
  C  C298  1  0.180700  0.907900  0.300700  1.0
  C  C299  1  0.110700  0.180700  0.300700  1.0
  C  C300  1  0.180700  0.300700  0.110700  1.0
  C  C301  1  0.907900  0.300700  0.180700  1.0
  C  C302  1  0.110700  0.907900  0.180700  1.0
  C  C303  1  0.180700  0.110700  0.907900  1.0
  C  C304  1  0.907900  0.110700  0.300700  1.0
  C  C305  1  0.300700  0.907900  0.110700  1.0
  C  C306  1  0.300700  0.180700  0.907900  1.0
  H  H307  1  0.679900  0.648100  0.793100  1.0
  H  H308  1  0.378900  0.793100  0.648100  1.0
  H  H309  1  0.648100  0.679900  0.378900  1.0
  H  H310  1  0.793100  0.378900  0.679900  1.0
  H  H311  1  0.648100  0.793100  0.679900  1.0
  H  H312  1  0.793100  0.679900  0.648100  1.0
  H  H313  1  0.378900  0.679900  0.793100  1.0
  H  H314  1  0.648100  0.378900  0.793100  1.0
  H  H315  1  0.793100  0.648100  0.378900  1.0
  H  H316  1  0.378900  0.648100  0.679900  1.0
  H  H317  1  0.679900  0.378900  0.648100  1.0
  H  H318  1  0.679900  0.793100  0.378900  1.0
  H  H319  1  0.320100  0.351900  0.206900  1.0
  H  H320  1  0.621100  0.206900  0.351900  1.0
  H  H321  1  0.351900  0.320100  0.621100  1.0
  H  H322  1  0.206900  0.621100  0.320100  1.0
  H  H323  1  0.351900  0.206900  0.320100  1.0
  H  H324  1  0.206900  0.320100  0.351900  1.0
  H  H325  1  0.621100  0.320100  0.206900  1.0
  H  H326  1  0.351900  0.621100  0.206900  1.0
  H  H327  1  0.206900  0.351900  0.621100  1.0
  H  H328  1  0.621100  0.351900  0.320100  1.0
  H  H329  1  0.320100  0.621100  0.351900  1.0
  H  H330  1  0.320100  0.206900  0.621100  1.0
  H  H331  1  0.578100  0.638500  0.855500  1.0
  H  H332  1  0.427900  0.855500  0.638500  1.0
  H  H333  1  0.638500  0.578100  0.427900  1.0
  H  H334  1  0.855500  0.427900  0.578100  1.0
  H  H335  1  0.638500  0.855500  0.578100  1.0
  H  H336  1  0.855500  0.578100  0.638500  1.0
  H  H337  1  0.427900  0.578100  0.855500  1.0
  H  H338  1  0.638500  0.427900  0.855500  1.0
  H  H339  1  0.855500  0.638500  0.427900  1.0
  H  H340  1  0.427900  0.638500  0.578100  1.0
  H  H341  1  0.578100  0.427900  0.638500  1.0
  H  H342  1  0.578100  0.855500  0.427900  1.0
  H  H343  1  0.421900  0.361500  0.144500  1.0
  H  H344  1  0.572100  0.144500  0.361500  1.0
  H  H345  1  0.361500  0.421900  0.572100  1.0
  H  H346  1  0.144500  0.572100  0.421900  1.0
  H  H347  1  0.361500  0.144500  0.421900  1.0
  H  H348  1  0.144500  0.421900  0.361500  1.0
  H  H349  1  0.572100  0.421900  0.144500  1.0
  H  H350  1  0.361500  0.572100  0.144500  1.0
  H  H351  1  0.144500  0.361500  0.572100  1.0
  H  H352  1  0.572100  0.361500  0.421900  1.0
  H  H353  1  0.421900  0.572100  0.361500  1.0
  H  H354  1  0.421900  0.144500  0.572100  1.0
  H  H355  1  0.497000  0.718200  0.898200  1.0
  H  H356  1  0.386600  0.898200  0.718200  1.0
  H  H357  1  0.718200  0.497000  0.386600  1.0
  H  H358  1  0.898200  0.386600  0.497000  1.0
  H  H359  1  0.718200  0.898200  0.497000  1.0
  H  H360  1  0.898200  0.497000  0.718200  1.0
  H  H361  1  0.386600  0.497000  0.898200  1.0
  H  H362  1  0.718200  0.386600  0.898200  1.0
  H  H363  1  0.898200  0.718200  0.386600  1.0
  H  H364  1  0.386600  0.718200  0.497000  1.0
  H  H365  1  0.497000  0.386600  0.718200  1.0
  H  H366  1  0.497000  0.898200  0.386600  1.0
  H  H367  1  0.503000  0.281800  0.101800  1.0
  H  H368  1  0.613400  0.101800  0.281800  1.0
  H  H369  1  0.281800  0.503000  0.613400  1.0
  H  H370  1  0.101800  0.613400  0.503000  1.0
  H  H371  1  0.281800  0.101800  0.503000  1.0
  H  H372  1  0.101800  0.503000  0.281800  1.0
  H  H373  1  0.613400  0.503000  0.101800  1.0
  H  H374  1  0.281800  0.613400  0.101800  1.0
  H  H375  1  0.101800  0.281800  0.613400  1.0
  H  H376  1  0.613400  0.281800  0.503000  1.0
  H  H377  1  0.503000  0.613400  0.281800  1.0
  H  H378  1  0.503000  0.101800  0.613400  1.0
  H  H379  1  0.518500  0.806100  0.879900  1.0
  H  H380  1  0.295500  0.879900  0.806100  1.0
  H  H381  1  0.806100  0.518500  0.295500  1.0
  H  H382  1  0.879900  0.295500  0.518500  1.0
  H  H383  1  0.806100  0.879900  0.518500  1.0
  H  H384  1  0.879900  0.518500  0.806100  1.0
  H  H385  1  0.295500  0.518500  0.879900  1.0
  H  H386  1  0.806100  0.295500  0.879900  1.0
  H  H387  1  0.879900  0.806100  0.295500  1.0
  H  H388  1  0.295500  0.806100  0.518500  1.0
  H  H389  1  0.518500  0.295500  0.806100  1.0
  H  H390  1  0.518500  0.879900  0.295500  1.0
  H  H391  1  0.481500  0.193900  0.120100  1.0
  H  H392  1  0.704500  0.120100  0.193900  1.0
  H  H393  1  0.193900  0.481500  0.704500  1.0
  H  H394  1  0.120100  0.704500  0.481500  1.0
  H  H395  1  0.193900  0.120100  0.481500  1.0
  H  H396  1  0.120100  0.481500  0.193900  1.0
  H  H397  1  0.704500  0.481500  0.120100  1.0
  H  H398  1  0.193900  0.704500  0.120100  1.0
  H  H399  1  0.120100  0.193900  0.704500  1.0
  H  H400  1  0.704500  0.193900  0.481500  1.0
  H  H401  1  0.481500  0.704500  0.193900  1.0
  H  H402  1  0.481500  0.120100  0.704500  1.0
  H  H403  1  0.598800  0.863200  0.829200  1.0
  H  H404  1  0.208800  0.829200  0.863200  1.0
  H  H405  1  0.863200  0.598800  0.208800  1.0
  H  H406  1  0.829200  0.208800  0.598800  1.0
  H  H407  1  0.863200  0.829200  0.598800  1.0
  H  H408  1  0.829200  0.598800  0.863200  1.0
  H  H409  1  0.208800  0.598800  0.829200  1.0
  H  H410  1  0.863200  0.208800  0.829200  1.0
  H  H411  1  0.829200  0.863200  0.208800  1.0
  H  H412  1  0.208800  0.863200  0.598800  1.0
  H  H413  1  0.598800  0.208800  0.863200  1.0
  H  H414  1  0.598800  0.829200  0.208800  1.0
  H  H415  1  0.401200  0.136800  0.170800  1.0
  H  H416  1  0.791200  0.170800  0.136800  1.0
  H  H417  1  0.136800  0.401200  0.791200  1.0
  H  H418  1  0.170800  0.791200  0.401200  1.0
  H  H419  1  0.136800  0.170800  0.401200  1.0
  H  H420  1  0.170800  0.401200  0.136800  1.0
  H  H421  1  0.791200  0.401200  0.170800  1.0
  H  H422  1  0.136800  0.791200  0.170800  1.0
  H  H423  1  0.170800  0.136800  0.791200  1.0
  H  H424  1  0.791200  0.136800  0.401200  1.0
  H  H425  1  0.401200  0.791200  0.136800  1.0
  H  H426  1  0.401200  0.170800  0.791200  1.0
  H  H427  1  0.727300  0.910300  0.672100  1.0
  H  H428  1  0.190300  0.672100  0.910300  1.0
  H  H429  1  0.910300  0.727300  0.190300  1.0
  H  H430  1  0.672100  0.190300  0.727300  1.0
  H  H431  1  0.910300  0.672100  0.727300  1.0
  H  H432  1  0.672100  0.727300  0.910300  1.0
  H  H433  1  0.190300  0.727300  0.672100  1.0
  H  H434  1  0.910300  0.190300  0.672100  1.0
  H  H435  1  0.672100  0.910300  0.190300  1.0
  H  H436  1  0.190300  0.910300  0.727300  1.0
  H  H437  1  0.727300  0.190300  0.910300  1.0
  H  H438  1  0.727300  0.672100  0.190300  1.0
  H  H439  1  0.272700  0.089700  0.327900  1.0
  H  H440  1  0.809700  0.327900  0.089700  1.0
  H  H441  1  0.089700  0.272700  0.809700  1.0
  H  H442  1  0.327900  0.809700  0.272700  1.0
  H  H443  1  0.089700  0.327900  0.272700  1.0
  H  H444  1  0.327900  0.272700  0.089700  1.0
  H  H445  1  0.809700  0.272700  0.327900  1.0
  H  H446  1  0.089700  0.809700  0.327900  1.0
  H  H447  1  0.327900  0.089700  0.809700  1.0
  H  H448  1  0.809700  0.089700  0.272700  1.0
  H  H449  1  0.272700  0.809700  0.089700  1.0
  H  H450  1  0.272700  0.327900  0.809700  1.0
  H  H451  1  0.708600  0.951400  0.839600  1.0
  H  H452  1  0.000400  0.839600  0.951400  1.0
  H  H453  1  0.951400  0.708600  0.000400  1.0
  H  H454  1  0.839600  0.000400  0.708600  1.0
  H  H455  1  0.951400  0.839600  0.708600  1.0
  H  H456  1  0.839600  0.708600  0.951400  1.0
  H  H457  1  0.000400  0.708600  0.839600  1.0
  H  H458  1  0.951400  0.000400  0.839600  1.0
  H  H459  1  0.839600  0.951400  0.000400  1.0
  H  H460  1  0.000400  0.951400  0.708600  1.0
  H  H461  1  0.708600  0.000400  0.951400  1.0
  H  H462  1  0.708600  0.839600  0.000400  1.0
  H  H463  1  0.291400  0.048600  0.160400  1.0
  H  H464  1  0.999600  0.160400  0.048600  1.0
  H  H465  1  0.048600  0.291400  0.999600  1.0
  H  H466  1  0.160400  0.999600  0.291400  1.0
  H  H467  1  0.048600  0.160400  0.291400  1.0
  H  H468  1  0.160400  0.291400  0.048600  1.0
  H  H469  1  0.999600  0.291400  0.160400  1.0
  H  H470  1  0.048600  0.999600  0.160400  1.0
  H  H471  1  0.160400  0.048600  0.999600  1.0
  H  H472  1  0.999600  0.048600  0.291400  1.0
  H  H473  1  0.291400  0.999600  0.048600  1.0
  H  H474  1  0.291400  0.160400  0.999600  1.0
  H  H475  1  0.687100  0.861300  0.862100  1.0
  H  H476  1  0.089500  0.862100  0.861300  1.0
  H  H477  1  0.861300  0.687100  0.089500  1.0
  H  H478  1  0.862100  0.089500  0.687100  1.0
  H  H479  1  0.861300  0.862100  0.687100  1.0
  H  H480  1  0.862100  0.687100  0.861300  1.0
  H  H481  1  0.089500  0.687100  0.862100  1.0
  H  H482  1  0.861300  0.089500  0.862100  1.0
  H  H483  1  0.862100  0.861300  0.089500  1.0
  H  H484  1  0.089500  0.861300  0.687100  1.0
  H  H485  1  0.687100  0.089500  0.861300  1.0
  H  H486  1  0.687100  0.862100  0.089500  1.0
  H  H487  1  0.312900  0.138700  0.137900  1.0
  H  H488  1  0.910500  0.137900  0.138700  1.0
  H  H489  1  0.138700  0.312900  0.910500  1.0
  H  H490  1  0.137900  0.910500  0.312900  1.0
  H  H491  1  0.138700  0.137900  0.312900  1.0
  H  H492  1  0.137900  0.312900  0.138700  1.0
  H  H493  1  0.910500  0.312900  0.137900  1.0
  H  H494  1  0.138700  0.910500  0.137900  1.0
  H  H495  1  0.137900  0.138700  0.910500  1.0
  H  H496  1  0.910500  0.138700  0.312900  1.0
  H  H497  1  0.312900  0.910500  0.138700  1.0
  H  H498  1  0.312900  0.137900  0.910500  1.0
  N  N499  1  0.660720  0.730380  0.799360  1.0
  N  N500  1  0.309540  0.799360  0.730380  1.0
  N  N501  1  0.730380  0.660720  0.309540  1.0
  N  N502  1  0.799360  0.309540  0.660720  1.0
  N  N503  1  0.730380  0.799360  0.660720  1.0
  N  N504  1  0.799360  0.660720  0.730380  1.0
  N  N505  1  0.309540  0.660720  0.799360  1.0
  N  N506  1  0.730380  0.309540  0.799360  1.0
  N  N507  1  0.799360  0.730380  0.309540  1.0
  N  N508  1  0.309540  0.730380  0.660720  1.0
  N  N509  1  0.660720  0.309540  0.730380  1.0
  N  N510  1  0.660720  0.799360  0.309540  1.0
  N  N511  1  0.339280  0.269620  0.200640  1.0
  N  N512  1  0.690460  0.200640  0.269620  1.0
  N  N513  1  0.269620  0.339280  0.690460  1.0
  N  N514  1  0.200640  0.690460  0.339280  1.0
  N  N515  1  0.269620  0.200640  0.339280  1.0
  N  N516  1  0.200640  0.339280  0.269620  1.0
  N  N517  1  0.690460  0.339280  0.200640  1.0
  N  N518  1  0.269620  0.690460  0.200640  1.0
  N  N519  1  0.200640  0.269620  0.690460  1.0
  N  N520  1  0.690460  0.269620  0.339280  1.0
  N  N521  1  0.339280  0.690460  0.269620  1.0
  N  N522  1  0.339280  0.200640  0.690460  1.0
  N  N523  1  0.688170  0.826930  0.779790  1.0
  N  N524  1  0.205110  0.779790  0.826930  1.0
  N  N525  1  0.826930  0.688170  0.205110  1.0
  N  N526  1  0.779790  0.205110  0.688170  1.0
  N  N527  1  0.826930  0.779790  0.688170  1.0
  N  N528  1  0.779790  0.688170  0.826930  1.0
  N  N529  1  0.205110  0.688170  0.779790  1.0
  N  N530  1  0.826930  0.205110  0.779790  1.0
  N  N531  1  0.779790  0.826930  0.205110  1.0
  N  N532  1  0.205110  0.826930  0.688170  1.0
  N  N533  1  0.688170  0.205110  0.826930  1.0
  N  N534  1  0.688170  0.779790  0.205110  1.0
  N  N535  1  0.311830  0.173070  0.220210  1.0
  N  N536  1  0.794890  0.220210  0.173070  1.0
  N  N537  1  0.173070  0.311830  0.794890  1.0
  N  N538  1  0.220210  0.794890  0.311830  1.0
  N  N539  1  0.173070  0.220210  0.311830  1.0
  N  N540  1  0.220210  0.311830  0.173070  1.0
  N  N541  1  0.794890  0.311830  0.220210  1.0
  N  N542  1  0.173070  0.794890  0.220210  1.0
  N  N543  1  0.220210  0.173070  0.794890  1.0
  N  N544  1  0.794890  0.173070  0.311830  1.0
  N  N545  1  0.311830  0.794890  0.173070  1.0
  N  N546  1  0.311830  0.220210  0.794890  1.0
  Ni  Ni547  1  0.500000  0.000000  0.000000  1
  Ni  Ni548  1  0.000000  0.000000  0.000000  1
  Ni  Ni549  1  0.000000  0.500000  0.000000  1
  Ni  Ni550  1  0.000000  1.000000  0.500000  1
  Ni  Ni551  1  0.747510  0.747510  0.747510  1.0
  Ni  Ni552  1  0.257470  0.747510  0.747510  1.0
  Ni  Ni553  1  0.747510  0.747510  0.257470  1.0
  Ni  Ni554  1  0.747510  0.257470  0.747510  1.0
  Ni  Ni555  1  0.252490  0.252490  0.252490  1.0
  Ni  Ni556  1  0.742530  0.252490  0.252490  1.0
  Ni  Ni557  1  0.252490  0.252490  0.742530  1.0
  Ni  Ni558  1  0.252490  0.742530  0.252490  1.0
  O  O559  1  0.561200  0.561200  0.816400  1
  O  O560  1  0.561200  0.816400  0.561200  1
  O  O561  1  0.561200  0.561200  0.561200  1
  O  O562  1  0.816400  0.561200  0.561200  1
  O  O563  1  0.438800  0.438800  0.183600  1
  O  O564  1  0.438800  0.183600  0.438800  1
  O  O565  1  0.438800  0.438800  0.438800  1
  O  O566  1  0.183600  0.438800  0.438800  1
  O  O567  1  0.686800  0.552600  0.772200  1
  O  O568  1  0.488400  0.772200  0.552600  1
  O  O569  1  0.552600  0.686800  0.488400  1
  O  O570  1  0.772200  0.488400  0.686800  1
  O  O571  1  0.552600  0.772200  0.686800  1
  O  O572  1  0.772200  0.686800  0.552600  1
  O  O573  1  0.488400  0.686800  0.772200  1
  O  O574  1  0.552600  0.488400  0.772200  1
  O  O575  1  0.772200  0.552600  0.488400  1
  O  O576  1  0.488400  0.552600  0.686800  1
  O  O577  1  0.686800  0.488400  0.552600  1
  O  O578  1  0.686800  0.772200  0.488400  1
  O  O579  1  0.313200  0.447400  0.227800  1
  O  O580  1  0.511600  0.227800  0.447400  1
  O  O581  1  0.447400  0.313200  0.511600  1
  O  O582  1  0.227800  0.511600  0.313200  1
  O  O583  1  0.447400  0.227800  0.313200  1
  O  O584  1  0.227800  0.313200  0.447400  1
  O  O585  1  0.511600  0.313200  0.227800  1
  O  O586  1  0.447400  0.511600  0.227800  1
  O  O587  1  0.227800  0.447400  0.511600  1
  O  O588  1  0.511600  0.447400  0.313200  1
  O  O589  1  0.313200  0.511600  0.447400  1
  O  O590  1  0.313200  0.227800  0.511600  1
  O  O591  1  0.555900  0.983500  0.776500  1
  O  O592  1  0.184100  0.776500  0.983500  1
  O  O593  1  0.983500  0.555900  0.184100  1
  O  O594  1  0.776500  0.184100  0.555900  1
  O  O595  1  0.983500  0.776500  0.555900  1
  O  O596  1  0.776500  0.555900  0.983500  1
  O  O597  1  0.184100  0.555900  0.776500  1
  O  O598  1  0.983500  0.184100  0.776500  1
  O  O599  1  0.776500  0.983500  0.184100  1
  O  O600  1  0.184100  0.983500  0.555900  1
  O  O601  1  0.555900  0.184100  0.983500  1
  O  O602  1  0.555900  0.776500  0.184100  1
  O  O603  1  0.444100  0.016500  0.223500  1
  O  O604  1  0.815900  0.223500  0.016500  1
  O  O605  1  0.016500  0.444100  0.815900  1
  O  O606  1  0.223500  0.815900  0.444100  1
  O  O607  1  0.016500  0.223500  0.444100  1
  O  O608  1  0.223500  0.444100  0.016500  1
  O  O609  1  0.815900  0.444100  0.223500  1
  O  O610  1  0.016500  0.815900  0.223500  1
  O  O611  1  0.223500  0.016500  0.815900  1
  O  O612  1  0.815900  0.016500  0.444100  1
  O  O613  1  0.444100  0.815900  0.016500  1
  O  O614  1  0.444100  0.223500  0.815900  1
  O  O615  1  0.674400  0.674400  0.674400  1
  O  O616  1  0.476800  0.674400  0.674400  1
  O  O617  1  0.674400  0.674400  0.476800  1
  O  O618  1  0.674400  0.476800  0.674400  1
  O  O619  1  0.325600  0.325600  0.325600  1
  O  O620  1  0.523200  0.325600  0.325600  1
  O  O621  1  0.325600  0.325600  0.523200  1
  O  O622  1  0.325600  0.523200  0.325600  1
  O  O623  1  0.402700  0.847300  0.847300  1
  O  O624  1  0.847300  0.402700  0.402700  1
  O  O625  1  0.847300  0.847300  0.402700  1
  O  O626  1  0.847300  0.402700  0.847300  1
  O  O627  1  0.402700  0.402700  0.847300  1
  O  O628  1  0.402700  0.847300  0.402700  1
  O  O629  1  0.597300  0.152700  0.152700  1
  O  O630  1  0.152700  0.597300  0.597300  1
  O  O631  1  0.152700  0.152700  0.597300  1
  O  O632  1  0.152700  0.597300  0.152700  1
  O  O633  1  0.597300  0.597300  0.152700  1
  O  O634  1  0.597300  0.152700  0.597300  1
  O  O635  1  0.280500  0.966500  0.612500  1
  O  O636  1  0.640500  0.612500  0.966500  1
  O  O637  1  0.966500  0.280500  0.640500  1
  O  O638  1  0.612500  0.640500  0.280500  1
  O  O639  1  0.966500  0.612500  0.280500  1
  O  O640  1  0.612500  0.280500  0.966500  1
  O  O641  1  0.640500  0.280500  0.612500  1
  O  O642  1  0.966500  0.640500  0.612500  1
  O  O643  1  0.612500  0.966500  0.640500  1
  O  O644  1  0.640500  0.966500  0.280500  1
  O  O645  1  0.280500  0.640500  0.966500  1
  O  O646  1  0.280500  0.612500  0.640500  1
  O  O647  1  0.719500  0.033500  0.387500  1
  O  O648  1  0.359500  0.387500  0.033500  1
  O  O649  1  0.033500  0.719500  0.359500  1
  O  O650  1  0.387500  0.359500  0.719500  1
  O  O651  1  0.033500  0.387500  0.719500  1
  O  O652  1  0.387500  0.719500  0.033500  1
  O  O653  1  0.359500  0.719500  0.387500  1
  O  O654  1  0.033500  0.359500  0.387500  1
  O  O655  1  0.387500  0.033500  0.359500  1
  O  O656  1  0.359500  0.033500  0.719500  1
  O  O657  1  0.719500  0.359500  0.033500  1
  O  O658  1  0.719500  0.387500  0.359500  1
  O  O659  1  0.278900  0.948500  0.588100  1
  O  O660  1  0.684500  0.588100  0.948500  1
  O  O661  1  0.948500  0.278900  0.684500  1
  O  O662  1  0.588100  0.684500  0.278900  1
  O  O663  1  0.948500  0.588100  0.278900  1
  O  O664  1  0.588100  0.278900  0.948500  1
  O  O665  1  0.684500  0.278900  0.588100  1
  O  O666  1  0.948500  0.684500  0.588100  1
  O  O667  1  0.588100  0.948500  0.684500  1
  O  O668  1  0.684500  0.948500  0.278900  1
  O  O669  1  0.278900  0.684500  0.948500  1
  O  O670  1  0.278900  0.588100  0.684500  1
  O  O671  1  0.721100  0.051500  0.411900  1
  O  O672  1  0.315500  0.411900  0.051500  1
  O  O673  1  0.051500  0.721100  0.315500  1
  O  O674  1  0.411900  0.315500  0.721100  1
  O  O675  1  0.051500  0.411900  0.721100  1
  O  O676  1  0.411900  0.721100  0.051500  1
  O  O677  1  0.315500  0.721100  0.411900  1
  O  O678  1  0.051500  0.315500  0.411900  1
  O  O679  1  0.411900  0.051500  0.315500  1
  O  O680  1  0.315500  0.051500  0.721100  1
  O  O681  1  0.721100  0.315500  0.051500  1
  O  O682  1  0.721100  0.411900  0.315500  1
  O  O683  1  0.398200  0.673800  0.903600  1
  O  O684  1  0.524400  0.903600  0.673800  1
  O  O685  1  0.673800  0.398200  0.524400  1
  O  O686  1  0.903600  0.524400  0.398200  1
  O  O687  1  0.673800  0.903600  0.398200  1
  O  O688  1  0.903600  0.398200  0.673800  1
  O  O689  1  0.524400  0.398200  0.903600  1
  O  O690  1  0.673800  0.524400  0.903600  1
  O  O691  1  0.903600  0.673800  0.524400  1
  O  O692  1  0.524400  0.673800  0.398200  1
  O  O693  1  0.398200  0.524400  0.673800  1
  O  O694  1  0.398200  0.903600  0.524400  1
  O  O695  1  0.601800  0.326200  0.096400  1
  O  O696  1  0.475600  0.096400  0.326200  1
  O  O697  1  0.326200  0.601800  0.475600  1
  O  O698  1  0.096400  0.475600  0.601800  1
  O  O699  1  0.326200  0.096400  0.601800  1
  O  O700  1  0.096400  0.601800  0.326200  1
  O  O701  1  0.475600  0.601800  0.096400  1
  O  O702  1  0.326200  0.475600  0.096400  1
  O  O703  1  0.096400  0.326200  0.475600  1
  O  O704  1  0.475600  0.326200  0.601800  1
  O  O705  1  0.601800  0.475600  0.326200  1
  O  O706  1  0.601800  0.096400  0.475600  1
  O  O707  1  0.369300  0.764500  0.950100  1
  O  O708  1  0.416100  0.950100  0.764500  1
  O  O709  1  0.764500  0.369300  0.416100  1
  O  O710  1  0.950100  0.416100  0.369300  1
  O  O711  1  0.764500  0.950100  0.369300  1
  O  O712  1  0.950100  0.369300  0.764500  1
  O  O713  1  0.416100  0.369300  0.950100  1
  O  O714  1  0.764500  0.416100  0.950100  1
  O  O715  1  0.950100  0.764500  0.416100  1
  O  O716  1  0.416100  0.764500  0.369300  1
  O  O717  1  0.369300  0.416100  0.764500  1
  O  O718  1  0.369300  0.950100  0.416100  1
  O  O719  1  0.630700  0.235500  0.049900  1
  O  O720  1  0.583900  0.049900  0.235500  1
  O  O721  1  0.235500  0.630700  0.583900  1
  O  O722  1  0.049900  0.583900  0.630700  1
  O  O723  1  0.235500  0.049900  0.630700  1
  O  O724  1  0.049900  0.630700  0.235500  1
  O  O725  1  0.583900  0.630700  0.049900  1
  O  O726  1  0.235500  0.583900  0.049900  1
  O  O727  1  0.049900  0.235500  0.583900  1
  O  O728  1  0.583900  0.235500  0.630700  1
  O  O729  1  0.630700  0.583900  0.235500  1
  O  O730  1  0.630700  0.049900  0.583900  1
  O  O731  1  0.380900  0.833900  0.875300  1
  O  O732  1  0.409900  0.875300  0.833900  1
  O  O733  1  0.833900  0.380900  0.409900  1
  O  O734  1  0.875300  0.409900  0.380900  1
  O  O735  1  0.833900  0.875300  0.380900  1
  O  O736  1  0.875300  0.380900  0.833900  1
  O  O737  1  0.409900  0.380900  0.875300  1
  O  O738  1  0.833900  0.409900  0.875300  1
  O  O739  1  0.875300  0.833900  0.409900  1
  O  O740  1  0.409900  0.833900  0.380900  1
  O  O741  1  0.380900  0.409900  0.833900  1
  O  O742  1  0.380900  0.875300  0.409900  1
  O  O743  1  0.619100  0.166100  0.124700  1
  O  O744  1  0.590100  0.124700  0.166100  1
  O  O745  1  0.166100  0.619100  0.590100  1
  O  O746  1  0.124700  0.590100  0.619100  1
  O  O747  1  0.166100  0.124700  0.619100  1
  O  O748  1  0.124700  0.619100  0.166100  1
  O  O749  1  0.590100  0.619100  0.124700  1
  O  O750  1  0.166100  0.590100  0.124700  1
  O  O751  1  0.124700  0.166100  0.590100  1
  O  O752  1  0.590100  0.166100  0.619100  1
  O  O753  1  0.619100  0.590100  0.166100  1
  O  O754  1  0.619100  0.124700  0.590100  1
  O  O755  1  0.398300  0.726700  0.860500  1
  O  O756  1  0.514500  0.860500  0.726700  1
  O  O757  1  0.726700  0.398300  0.514500  1
  O  O758  1  0.860500  0.514500  0.398300  1
  O  O759  1  0.726700  0.860500  0.398300  1
  O  O760  1  0.860500  0.398300  0.726700  1
  O  O761  1  0.514500  0.398300  0.860500  1
  O  O762  1  0.726700  0.514500  0.860500  1
  O  O763  1  0.860500  0.726700  0.514500  1
  O  O764  1  0.514500  0.726700  0.398300  1
  O  O765  1  0.398300  0.514500  0.726700  1
  O  O766  1  0.398300  0.860500  0.514500  1
  O  O767  1  0.601700  0.273300  0.139500  1
  O  O768  1  0.485500  0.139500  0.273300  1
  O  O769  1  0.273300  0.601700  0.485500  1
  O  O770  1  0.139500  0.485500  0.601700  1
  O  O771  1  0.273300  0.139500  0.601700  1
  O  O772  1  0.139500  0.601700  0.273300  1
  O  O773  1  0.485500  0.601700  0.139500  1
  O  O774  1  0.273300  0.485500  0.139500  1
  O  O775  1  0.139500  0.273300  0.485500  1
  O  O776  1  0.485500  0.273300  0.601700  1
  O  O777  1  0.601700  0.485500  0.273300  1
  O  O778  1  0.601700  0.139500  0.485500  1
  O  O779  1  0.392400  0.699200  0.910400  1
  O  O780  1  0.498000  0.910400  0.699200  1
  O  O781  1  0.699200  0.392400  0.498000  1
  O  O782  1  0.910400  0.498000  0.392400  1
  O  O783  1  0.699200  0.910400  0.392400  1
  O  O784  1  0.910400  0.392400  0.699200  1
  O  O785  1  0.498000  0.392400  0.910400  1
  O  O786  1  0.699200  0.498000  0.910400  1
  O  O787  1  0.910400  0.699200  0.498000  1
  O  O788  1  0.498000  0.699200  0.392400  1
  O  O789  1  0.392400  0.498000  0.699200  1
  O  O790  1  0.392400  0.910400  0.498000  1
  O  O791  1  0.607600  0.300800  0.089600  1
  O  O792  1  0.502000  0.089600  0.300800  1
  O  O793  1  0.300800  0.607600  0.502000  1
  O  O794  1  0.089600  0.502000  0.607600  1
  O  O795  1  0.300800  0.089600  0.607600  1
  O  O796  1  0.089600  0.607600  0.300800  1
  O  O797  1  0.502000  0.607600  0.089600  1
  O  O798  1  0.300800  0.502000  0.089600  1
  O  O799  1  0.089600  0.300800  0.502000  1
  O  O800  1  0.502000  0.300800  0.607600  1
  O  O801  1  0.607600  0.502000  0.300800  1
  O  O802  1  0.607600  0.089600  0.502000  1
  O  O803  1  0.563200  0.513600  0.935200  1
  O  O804  1  0.488000  0.935200  0.513600  1
  O  O805  1  0.513600  0.563200  0.488000  1
  O  O806  1  0.935200  0.488000  0.563200  1
  O  O807  1  0.513600  0.935200  0.563200  1
  O  O808  1  0.935200  0.563200  0.513600  1
  O  O809  1  0.488000  0.563200  0.935200  1
  O  O810  1  0.513600  0.488000  0.935200  1
  O  O811  1  0.935200  0.513600  0.488000  1
  O  O812  1  0.488000  0.513600  0.563200  1
  O  O813  1  0.563200  0.488000  0.513600  1
  O  O814  1  0.563200  0.935200  0.488000  1
  O  O815  1  0.436800  0.486400  0.064800  1
  O  O816  1  0.512000  0.064800  0.486400  1
  O  O817  1  0.486400  0.436800  0.512000  1
  O  O818  1  0.064800  0.512000  0.436800  1
  O  O819  1  0.486400  0.064800  0.436800  1
  O  O820  1  0.064800  0.436800  0.486400  1
  O  O821  1  0.512000  0.436800  0.064800  1
  O  O822  1  0.486400  0.512000  0.064800  1
  O  O823  1  0.064800  0.486400  0.512000  1
  O  O824  1  0.512000  0.486400  0.436800  1
  O  O825  1  0.436800  0.512000  0.486400  1
  O  O826  1  0.436800  0.064800  0.512000  1
  O  O827  1  0.631500  0.447700  0.983300  1
  O  O828  1  0.437500  0.983300  0.447700  1
  O  O829  1  0.447700  0.631500  0.437500  1
  O  O830  1  0.983300  0.437500  0.631500  1
  O  O831  1  0.447700  0.983300  0.631500  1
  O  O832  1  0.983300  0.631500  0.447700  1
  O  O833  1  0.437500  0.631500  0.983300  1
  O  O834  1  0.447700  0.437500  0.983300  1
  O  O835  1  0.983300  0.447700  0.437500  1
  O  O836  1  0.437500  0.447700  0.631500  1
  O  O837  1  0.631500  0.437500  0.447700  1
  O  O838  1  0.631500  0.983300  0.437500  1
  O  O839  1  0.368500  0.552300  0.016700  1
  O  O840  1  0.562500  0.016700  0.552300  1
  O  O841  1  0.552300  0.368500  0.562500  1
  O  O842  1  0.016700  0.562500  0.368500  1
  O  O843  1  0.552300  0.016700  0.368500  1
  O  O844  1  0.016700  0.368500  0.552300  1
  O  O845  1  0.562500  0.368500  0.016700  1
  O  O846  1  0.552300  0.562500  0.016700  1
  O  O847  1  0.016700  0.552300  0.562500  1
  O  O848  1  0.562500  0.552300  0.368500  1
  O  O849  1  0.368500  0.562500  0.552300  1
  O  O850  1  0.368500  0.016700  0.562500  1
  O  O851  1  0.526000  0.526000  0.922000  1
  O  O852  1  0.526000  0.922000  0.526000  1
  O  O853  1  0.526000  0.526000  0.526000  1
  O  O854  1  0.922000  0.526000  0.526000  1
  O  O855  1  0.474000  0.474000  0.078000  1
  O  O856  1  0.474000  0.078000  0.474000  1
  O  O857  1  0.474000  0.474000  0.474000  1
  O  O858  1  0.078000  0.474000  0.474000  1
  O  O859  1  0.587000  0.465600  0.979800  1
  O  O860  1  0.467600  0.979800  0.465600  1
  O  O861  1  0.465600  0.587000  0.467600  1
  O  O862  1  0.979800  0.467600  0.587000  1
  O  O863  1  0.465600  0.979800  0.587000  1
  O  O864  1  0.979800  0.587000  0.465600  1
  O  O865  1  0.467600  0.587000  0.979800  1
  O  O866  1  0.465600  0.467600  0.979800  1
  O  O867  1  0.979800  0.465600  0.467600  1
  O  O868  1  0.467600  0.465600  0.587000  1
  O  O869  1  0.587000  0.467600  0.465600  1
  O  O870  1  0.587000  0.979800  0.467600  1
  O  O871  1  0.413000  0.534400  0.020200  1
  O  O872  1  0.532400  0.020200  0.534400  1
  O  O873  1  0.534400  0.413000  0.532400  1
  O  O874  1  0.020200  0.532400  0.413000  1
  O  O875  1  0.534400  0.020200  0.413000  1
  O  O876  1  0.020200  0.413000  0.534400  1
  O  O877  1  0.532400  0.413000  0.020200  1
  O  O878  1  0.534400  0.532400  0.020200  1
  O  O879  1  0.020200  0.534400  0.532400  1
  O  O880  1  0.532400  0.534400  0.413000  1
  O  O881  1  0.413000  0.532400  0.534400  1
  O  O882  1  0.413000  0.020200  0.532400  1
  O  O883  1  0.554900  0.958300  0.932100  1.0
  O  O884  1  0.054700  0.932100  0.958300  1.0
  O  O885  1  0.958300  0.554900  0.054700  1.0
  O  O886  1  0.932100  0.054700  0.554900  1.0
  O  O887  1  0.958300  0.932100  0.554900  1.0
  O  O888  1  0.932100  0.554900  0.958300  1.0
  O  O889  1  0.054700  0.554900  0.932100  1.0
  O  O890  1  0.958300  0.054700  0.932100  1.0
  O  O891  1  0.932100  0.958300  0.054700  1.0
  O  O892  1  0.054700  0.958300  0.554900  1.0
  O  O893  1  0.554900  0.054700  0.958300  1.0
  O  O894  1  0.554900  0.932100  0.054700  1.0
  O  O895  1  0.445100  0.041700  0.067900  1.0
  O  O896  1  0.945300  0.067900  0.041700  1.0
  O  O897  1  0.041700  0.445100  0.945300  1.0
  O  O898  1  0.067900  0.945300  0.445100  1.0
  O  O899  1  0.041700  0.067900  0.445100  1.0
  O  O900  1  0.067900  0.445100  0.041700  1.0
  O  O901  1  0.945300  0.445100  0.067900  1.0
  O  O902  1  0.041700  0.945300  0.067900  1.0
  O  O903  1  0.067900  0.041700  0.945300  1.0
  O  O904  1  0.945300  0.041700  0.445100  1.0
  O  O905  1  0.445100  0.945300  0.041700  1.0
  O  O906  1  0.445100  0.067900  0.945300  1.0
  O  O907  1  0.738030  0.080030  0.602190  1.0
  O  O908  1  0.079750  0.602190  0.080030  1.0
  O  O909  1  0.080030  0.738030  0.079750  1.0
  O  O910  1  0.602190  0.079750  0.738030  1.0
  O  O911  1  0.080030  0.602190  0.738030  1.0
  O  O912  1  0.602190  0.738030  0.080030  1.0
  O  O913  1  0.079750  0.738030  0.602190  1.0
  O  O914  1  0.080030  0.079750  0.602190  1.0
  O  O915  1  0.602190  0.080030  0.079750  1.0
  O  O916  1  0.079750  0.080030  0.738030  1.0
  O  O917  1  0.738030  0.079750  0.080030  1.0
  O  O918  1  0.738030  0.602190  0.079750  1.0
  O  O919  1  0.261970  0.919970  0.397810  1.0
  O  O920  1  0.920250  0.397810  0.919970  1.0
  O  O921  1  0.919970  0.261970  0.920250  1.0
  O  O922  1  0.397810  0.920250  0.261970  1.0
  O  O923  1  0.919970  0.397810  0.261970  1.0
  O  O924  1  0.397810  0.261970  0.919970  1.0
  O  O925  1  0.920250  0.261970  0.397810  1.0
  O  O926  1  0.919970  0.920250  0.397810  1.0
  O  O927  1  0.397810  0.919970  0.920250  1.0
  O  O928  1  0.920250  0.919970  0.261970  1.0
  O  O929  1  0.261970  0.920250  0.919970  1.0
  O  O930  1  0.261970  0.397810  0.920250  1.0
  O  O931  1  0.763200  0.989600  0.576800  1.0
  O  O932  1  0.170400  0.576800  0.989600  1.0
  O  O933  1  0.989600  0.763200  0.170400  1.0
  O  O934  1  0.576800  0.170400  0.763200  1.0
  O  O935  1  0.989600  0.576800  0.763200  1.0
  O  O936  1  0.576800  0.763200  0.989600  1.0
  O  O937  1  0.170400  0.763200  0.576800  1.0
  O  O938  1  0.989600  0.170400  0.576800  1.0
  O  O939  1  0.576800  0.989600  0.170400  1.0
  O  O940  1  0.170400  0.989600  0.763200  1.0
  O  O941  1  0.763200  0.170400  0.989600  1.0
  O  O942  1  0.763200  0.576800  0.170400  1.0
  O  O943  1  0.236800  0.010400  0.423200  1.0
  O  O944  1  0.829600  0.423200  0.010400  1.0
  O  O945  1  0.010400  0.236800  0.829600  1.0
  O  O946  1  0.423200  0.829600  0.236800  1.0
  O  O947  1  0.010400  0.423200  0.236800  1.0
  O  O948  1  0.423200  0.236800  0.010400  1.0
  O  O949  1  0.829600  0.236800  0.423200  1.0
  O  O950  1  0.010400  0.829600  0.423200  1.0
  O  O951  1  0.423200  0.010400  0.829600  1.0
  O  O952  1  0.829600  0.010400  0.236800  1.0
  O  O953  1  0.236800  0.829600  0.010400  1.0
  O  O954  1  0.236800  0.423200  0.829600  1.0
  O  O955  1  0.836400  0.996400  0.606200  1.0
  O  O956  1  0.061000  0.606200  0.996400  1.0
  O  O957  1  0.996400  0.836400  0.061000  1.0
  O  O958  1  0.606200  0.061000  0.836400  1.0
  O  O959  1  0.996400  0.606200  0.836400  1.0
  O  O960  1  0.606200  0.836400  0.996400  1.0
  O  O961  1  0.061000  0.836400  0.606200  1.0
  O  O962  1  0.996400  0.061000  0.606200  1.0
  O  O963  1  0.606200  0.996400  0.061000  1.0
  O  O964  1  0.061000  0.996400  0.836400  1.0
  O  O965  1  0.836400  0.061000  0.996400  1.0
  O  O966  1  0.836400  0.606200  0.061000  1.0
  O  O967  1  0.163600  0.003600  0.393800  1.0
  O  O968  1  0.939000  0.393800  0.003600  1.0
  O  O969  1  0.003600  0.163600  0.939000  1.0
  O  O970  1  0.393800  0.939000  0.163600  1.0
  O  O971  1  0.003600  0.393800  0.163600  1.0
  O  O972  1  0.393800  0.163600  0.003600  1.0
  O  O973  1  0.939000  0.163600  0.393800  1.0
  O  O974  1  0.003600  0.939000  0.393800  1.0
  O  O975  1  0.393800  0.003600  0.939000  1.0
  O  O976  1  0.939000  0.003600  0.163600  1.0
  O  O977  1  0.163600  0.939000  0.003600  1.0
  O  O978  1  0.163600  0.393800  0.939000  1.0
  S  S979  1  0.769040  0.014380  0.612060  1.0
  S  S980  1  0.104520  0.612060  0.014380  1.0
  S  S981  1  0.014380  0.769040  0.104520  1.0
  S  S982  1  0.612060  0.104520  0.769040  1.0
  S  S983  1  0.014380  0.612060  0.769040  1.0
  S  S984  1  0.612060  0.769040  0.014380  1.0
  S  S985  1  0.104520  0.769040  0.612060  1.0
  S  S986  1  0.014380  0.104520  0.612060  1.0
  S  S987  1  0.612060  0.014380  0.104520  1.0
  S  S988  1  0.104520  0.014380  0.769040  1.0
  S  S989  1  0.769040  0.104520  0.014380  1.0
  S  S990  1  0.769040  0.612060  0.104520  1.0
  S  S991  1  0.230960  0.985620  0.387940  1.0
  S  S992  1  0.895480  0.387940  0.985620  1.0
  S  S993  1  0.985620  0.230960  0.895480  1.0
  S  S994  1  0.387940  0.895480  0.230960  1.0
  S  S995  1  0.985620  0.387940  0.230960  1.0
  S  S996  1  0.387940  0.230960  0.985620  1.0
  S  S997  1  0.895480  0.230960  0.387940  1.0
  S  S998  1  0.985620  0.895480  0.387940  1.0
  S  S999  1  0.387940  0.985620  0.895480  1.0
  S  S1000  1  0.895480  0.985620  0.230960  1.0
  S  S1001  1  0.230960  0.895480  0.985620  1.0
  S  S1002  1  0.230960  0.387940  0.895480  1.0
