# generated using pymatgen
data_Fe4H96C145S12N24(ClO30)4
_symmetry_space_group_name_H-M   'P 1'
_cell_length_a   21.80110000
_cell_length_b   32.89010000
_cell_length_c   33.26070000
_cell_angle_alpha   90.00000000
_cell_angle_beta   90.00000000
_cell_angle_gamma   91.03900000
_symmetry_Int_Tables_number   1
_chemical_formula_structural   Fe4H96C145S12N24(ClO30)4
_chemical_formula_sum   'Fe16 H384 C580 S48 N96 Cl16 O480'
_cell_volume   23845.34307292
_cell_formula_units_Z   4
loop_
 _symmetry_equiv_pos_site_id
 _symmetry_equiv_pos_as_xyz
  1  'x, y, z'
loop_
 _atom_site_type_symbol
 _atom_site_label
 _atom_site_symmetry_multiplicity
 _atom_site_fract_x
 _atom_site_fract_y
 _atom_site_fract_z
 _atom_site_occupancy
  Fe  Fe1  1  0.950350  0.188130  0.653700  1
  Fe  Fe2  1  0.549650  0.311870  0.153700  1
  Fe  Fe3  1  0.049650  0.811870  0.346300  1
  Fe  Fe4  1  0.450350  0.688130  0.846300  1
  Fe  Fe5  1  0.667230  0.059110  0.970900  1
  Fe  Fe6  1  0.832770  0.440890  0.470900  1
  Fe  Fe7  1  0.332770  0.940890  0.029100  1
  Fe  Fe8  1  0.167230  0.559110  0.529100  1
  Fe  Fe9  1  0.420730  0.326860  0.747200  1
  Fe  Fe10  1  0.079270  0.173140  0.247200  1
  Fe  Fe11  1  0.579270  0.673140  0.252800  1
  Fe  Fe12  1  0.920730  0.826860  0.752800  1
  Fe  Fe13  1  0.467110  0.962490  0.618170  1
  Fe  Fe14  1  0.032890  0.537510  0.118170  1
  Fe  Fe15  1  0.532890  0.037510  0.381830  1
  Fe  Fe16  1  0.967110  0.462490  0.881830  1
  H  H17  1  0.000900  0.256000  0.597100  1
  H  H18  1  0.499100  0.244000  0.097100  1
  H  H19  1  0.999100  0.744000  0.402900  1
  H  H20  1  0.500900  0.756000  0.902900  1
  H  H21  1  0.032300  0.323600  0.603800  1
  H  H22  1  0.467700  0.176400  0.103800  1
  H  H23  1  0.967700  0.676400  0.396200  1
  H  H24  1  0.532300  0.823600  0.896200  1
  H  H25  1  0.046600  0.349200  0.668500  1
  H  H26  1  0.453400  0.150800  0.168500  1
  H  H27  1  0.953400  0.650800  0.331500  1
  H  H28  1  0.546600  0.849200  0.831500  1
  H  H29  1  0.013700  0.312300  0.724100  1
  H  H30  1  0.486300  0.187700  0.224100  1
  H  H31  1  0.986300  0.687700  0.275900  1
  H  H32  1  0.513700  0.812300  0.775900  1
  H  H33  1  0.961800  0.242600  0.749700  1
  H  H34  1  0.538200  0.257400  0.249700  1
  H  H35  1  0.038200  0.757400  0.250300  1
  H  H36  1  0.461800  0.742600  0.750300  1
  H  H37  1  0.963600  0.130300  0.743100  1
  H  H38  1  0.536400  0.369700  0.243100  1
  H  H39  1  0.036400  0.869700  0.256900  1
  H  H40  1  0.463600  0.630300  0.756900  1
  H  H41  1  0.792800  0.181200  0.805800  1
  H  H42  1  0.707200  0.318800  0.305800  1
  H  H43  1  0.207200  0.818800  0.194200  1
  H  H44  1  0.292800  0.681200  0.694200  1
  H  H45  1  0.838300  0.217600  0.752100  1
  H  H46  1  0.661700  0.282400  0.252100  1
  H  H47  1  0.161700  0.782400  0.247900  1
  H  H48  1  0.338300  0.717600  0.747900  1
  H  H49  1  0.626300  0.994500  0.034400  1
  H  H50  1  0.873700  0.505500  0.534400  1
  H  H51  1  0.373700  0.005500  0.965600  1
  H  H52  1  0.126300  0.494500  0.465600  1
  H  H53  1  0.643800  0.927100  0.044500  1
  H  H54  1  0.856200  0.572900  0.544500  1
  H  H55  1  0.356200  0.072900  0.955500  1
  H  H56  1  0.143800  0.427100  0.455500  1
  H  H57  1  0.712600  0.892300  0.001500  1
  H  H58  1  0.787400  0.607700  0.501500  1
  H  H59  1  0.287400  0.107700  0.998500  1
  H  H60  1  0.212600  0.392300  0.498500  1
  H  H61  1  0.749400  0.925200  0.944200  1
  H  H62  1  0.750600  0.574800  0.444200  1
  H  H63  1  0.250600  0.074800  0.055800  1
  H  H64  1  0.249400  0.425200  0.555800  1
  H  H65  1  0.765800  0.995400  0.909000  1
  H  H66  1  0.734200  0.504600  0.409000  1
  H  H67  1  0.234200  0.004600  0.091000  1
  H  H68  1  0.265800  0.495400  0.591000  1
  H  H69  1  0.797400  0.104900  0.933900  1
  H  H70  1  0.702600  0.395100  0.433900  1
  H  H71  1  0.202600  0.895100  0.066100  1
  H  H72  1  0.297400  0.604900  0.566100  1
  H  H73  1  0.762200  0.075400  0.799800  1
  H  H74  1  0.737800  0.424600  0.299800  1
  H  H75  1  0.237800  0.924600  0.200200  1
  H  H76  1  0.262200  0.575400  0.700200  1
  H  H77  1  0.709800  0.038700  0.848000  1
  H  H78  1  0.790200  0.461300  0.348000  1
  H  H79  1  0.290200  0.961300  0.152000  1
  H  H80  1  0.209800  0.538700  0.652000  1
  H  H81  1  0.046100  0.155100  0.594800  1
  H  H82  1  0.453900  0.344900  0.094800  1
  H  H83  1  0.953900  0.844900  0.405200  1
  H  H84  1  0.546100  0.655100  0.905200  1
  H  H85  1  0.042600  0.142800  0.521800  1
  H  H86  1  0.457400  0.357200  0.021800  1
  H  H87  1  0.957400  0.857200  0.478200  1
  H  H88  1  0.542600  0.642800  0.978200  1
  H  H89  1  0.974600  0.174600  0.484000  1
  H  H90  1  0.525400  0.325400  0.984000  1
  H  H91  1  0.025400  0.825400  0.516000  1
  H  H92  1  0.474600  0.674600  0.016000  1
  H  H93  1  0.886200  0.201400  0.513100  1
  H  H94  1  0.613800  0.298600  0.013100  1
  H  H95  1  0.113800  0.798600  0.486900  1
  H  H96  1  0.386200  0.701400  0.986900  1
  H  H97  1  0.835100  0.224800  0.580300  1
  H  H98  1  0.664900  0.275200  0.080300  1
  H  H99  1  0.164900  0.775200  0.419700  1
  H  H100  1  0.335100  0.724800  0.919700  1
  H  H101  1  0.867000  0.267600  0.686500  1
  H  H102  1  0.633000  0.232400  0.186500  1
  H  H103  1  0.133000  0.732400  0.313500  1
  H  H104  1  0.367000  0.767600  0.813500  1
  H  H105  1  0.671400  0.220400  0.656200  1
  H  H106  1  0.828600  0.279600  0.156200  1
  H  H107  1  0.328600  0.779600  0.343800  1
  H  H108  1  0.171400  0.720400  0.843800  1
  H  H109  1  0.755400  0.190900  0.626500  1
  H  H110  1  0.744600  0.309100  0.126500  1
  H  H111  1  0.244600  0.809100  0.373500  1
  H  H112  1  0.255400  0.690900  0.873500  1
  H  H113  1  0.317200  0.366600  0.803200  1
  H  H114  1  0.182800  0.133400  0.303200  1
  H  H115  1  0.682800  0.633400  0.196800  1
  H  H116  1  0.817200  0.866600  0.696800  1
  H  H117  1  0.322800  0.403500  0.860100  1
  H  H118  1  0.177200  0.096500  0.360100  1
  H  H119  1  0.677200  0.596500  0.139900  1
  H  H120  1  0.822800  0.903500  0.639900  1
  H  H121  1  0.412000  0.424100  0.889800  1
  H  H122  1  0.088000  0.075900  0.389800  1
  H  H123  1  0.588000  0.575900  0.110200  1
  H  H124  1  0.912000  0.924100  0.610200  1
  H  H125  1  0.506000  0.401600  0.858900  1
  H  H126  1  0.994000  0.098400  0.358900  1
  H  H127  1  0.494000  0.598400  0.141100  1
  H  H128  1  0.006000  0.901600  0.641100  1
  H  H129  1  0.559100  0.358800  0.804300  1
  H  H130  1  0.940900  0.141200  0.304300  1
  H  H131  1  0.440900  0.641200  0.195700  1
  H  H132  1  0.059100  0.858800  0.695700  1
  H  H133  1  0.560900  0.349500  0.698400  1
  H  H134  1  0.939100  0.150500  0.198400  1
  H  H135  1  0.439100  0.650500  0.301600  1
  H  H136  1  0.060900  0.849500  0.801600  1
  H  H137  1  0.662000  0.244600  0.759700  1
  H  H138  1  0.838000  0.255400  0.259700  1
  H  H139  1  0.338000  0.755400  0.240300  1
  H  H140  1  0.162000  0.744600  0.740300  1
  H  H141  1  0.577400  0.271200  0.788900  1
  H  H142  1  0.922600  0.228800  0.288900  1
  H  H143  1  0.422600  0.728800  0.211100  1
  H  H144  1  0.077400  0.771200  0.711100  1
  H  H145  1  0.086600  0.212100  0.671100  1
  H  H146  1  0.413400  0.287900  0.171100  1
  H  H147  1  0.913400  0.787900  0.328900  1
  H  H148  1  0.586600  0.712100  0.828900  1
  H  H149  1  0.172800  0.179200  0.691000  1
  H  H150  1  0.327200  0.320800  0.191000  1
  H  H151  1  0.827200  0.820800  0.309000  1
  H  H152  1  0.672800  0.679200  0.809000  1
  H  H153  1  0.169500  0.109000  0.698600  1
  H  H154  1  0.330500  0.391000  0.198600  1
  H  H155  1  0.830500  0.891000  0.301400  1
  H  H156  1  0.669500  0.609000  0.801400  1
  H  H157  1  0.075900  0.073700  0.690000  1
  H  H158  1  0.424100  0.426300  0.190000  1
  H  H159  1  0.924100  0.926300  0.310000  1
  H  H160  1  0.575900  0.573700  0.810000  1
  H  H161  1  0.958800  0.077300  0.670000  1
  H  H162  1  0.541200  0.422700  0.170000  1
  H  H163  1  0.041200  0.922700  0.330000  1
  H  H164  1  0.458800  0.577300  0.830000  1
  H  H165  1  0.857900  0.132900  0.593800  1
  H  H166  1  0.642100  0.367100  0.093800  1
  H  H167  1  0.142100  0.867100  0.406200  1
  H  H168  1  0.357900  0.632900  0.906200  1
  H  H169  1  0.759200  0.056100  0.692200  1
  H  H170  1  0.740800  0.443900  0.192200  1
  H  H171  1  0.240800  0.943900  0.307800  1
  H  H172  1  0.259200  0.556100  0.807800  1
  H  H173  1  0.852900  0.083800  0.706100  1
  H  H174  1  0.647100  0.416200  0.206100  1
  H  H175  1  0.147100  0.916200  0.293900  1
  H  H176  1  0.352900  0.583800  0.793900  1
  H  H177  1  0.342300  0.938600  0.580500  1
  H  H178  1  0.157700  0.561400  0.080500  1
  H  H179  1  0.657700  0.061400  0.419500  1
  H  H180  1  0.842300  0.438600  0.919500  1
  H  H181  1  0.284100  0.959400  0.523800  1
  H  H182  1  0.215900  0.540600  0.023800  1
  H  H183  1  0.715900  0.040600  0.476200  1
  H  H184  1  0.784100  0.459400  0.976200  1
  H  H185  1  0.326900  0.010200  0.482300  1
  H  H186  1  0.173100  0.489800  0.982300  1
  H  H187  1  0.673100  0.989800  0.517700  1
  H  H188  1  0.826900  0.510200  0.017700  1
  H  H189  1  0.420100  0.039100  0.497900  1
  H  H190  1  0.079900  0.460900  0.997900  1
  H  H191  1  0.579900  0.960900  0.502100  1
  H  H192  1  0.920100  0.539100  0.002100  1
  H  H193  1  0.514100  0.041600  0.547100  1
  H  H194  1  0.985900  0.458400  0.047100  1
  H  H195  1  0.485900  0.958400  0.452900  1
  H  H196  1  0.014100  0.541600  0.952900  1
  H  H197  1  0.623800  0.972900  0.593100  1
  H  H198  1  0.876200  0.527100  0.093100  1
  H  H199  1  0.376200  0.027100  0.406900  1
  H  H200  1  0.123800  0.472900  0.906900  1
  H  H201  1  0.638000  0.104200  0.641300  1
  H  H202  1  0.862000  0.395800  0.141300  1
  H  H203  1  0.362000  0.895800  0.358700  1
  H  H204  1  0.138000  0.604200  0.858700  1
  H  H205  1  0.546000  0.078300  0.622300  1
  H  H206  1  0.954000  0.421700  0.122300  1
  H  H207  1  0.454000  0.921700  0.377700  1
  H  H208  1  0.046000  0.578300  0.877700  1
  H  H209  1  0.764600  0.024000  0.029400  1
  H  H210  1  0.735400  0.476000  0.529400  1
  H  H211  1  0.235400  0.976000  0.970600  1
  H  H212  1  0.264600  0.524000  0.470600  1
  H  H213  1  0.851400  0.052000  0.064000  1
  H  H214  1  0.648600  0.448000  0.564000  1
  H  H215  1  0.148600  0.948000  0.936000  1
  H  H216  1  0.351400  0.552000  0.436000  1
  H  H217  1  0.871300  0.121400  0.061500  1
  H  H218  1  0.628700  0.378600  0.561500  1
  H  H219  1  0.128700  0.878600  0.938500  1
  H  H220  1  0.371300  0.621400  0.438500  1
  H  H221  1  0.806500  0.163700  0.024800  1
  H  H222  1  0.693500  0.336300  0.524800  1
  H  H223  1  0.193500  0.836300  0.975200  1
  H  H224  1  0.306500  0.663700  0.475200  1
  H  H225  1  0.714900  0.168000  0.976600  1
  H  H226  1  0.785100  0.332000  0.476600  1
  H  H227  1  0.285100  0.832000  0.023400  1
  H  H228  1  0.214900  0.668000  0.523400  1
  H  H229  1  0.551300  0.123800  0.960000  1
  H  H230  1  0.948700  0.376200  0.460000  1
  H  H231  1  0.448700  0.876200  0.040000  1
  H  H232  1  0.051300  0.623800  0.540000  1
  H  H233  1  0.627900  0.201700  0.855800  1
  H  H234  1  0.872100  0.298300  0.355800  1
  H  H235  1  0.372100  0.798300  0.144200  1
  H  H236  1  0.127900  0.701700  0.644200  1
  H  H237  1  0.696100  0.164900  0.897400  1
  H  H238  1  0.803900  0.335100  0.397400  1
  H  H239  1  0.303900  0.835100  0.102600  1
  H  H240  1  0.196100  0.664900  0.602600  1
  H  H241  1  0.320100  0.368200  0.694400  1
  H  H242  1  0.179900  0.131800  0.194400  1
  H  H243  1  0.679900  0.631800  0.305600  1
  H  H244  1  0.820100  0.868200  0.805600  1
  H  H245  1  0.216000  0.357200  0.684900  1
  H  H246  1  0.284000  0.142800  0.184900  1
  H  H247  1  0.784000  0.642800  0.315100  1
  H  H248  1  0.716000  0.857200  0.815100  1
  H  H249  1  0.163400  0.305500  0.717300  1
  H  H250  1  0.336600  0.194500  0.217300  1
  H  H251  1  0.836600  0.694500  0.282700  1
  H  H252  1  0.663400  0.805500  0.782700  1
  H  H253  1  0.214600  0.266900  0.767600  1
  H  H254  1  0.285400  0.233100  0.267600  1
  H  H255  1  0.785400  0.733100  0.232400  1
  H  H256  1  0.714600  0.766900  0.732400  1
  H  H257  1  0.328100  0.249300  0.797500  1
  H  H258  1  0.171900  0.250700  0.297500  1
  H  H259  1  0.671900  0.750700  0.202500  1
  H  H260  1  0.828100  0.749300  0.702500  1
  H  H261  1  0.451600  0.301300  0.845700  1
  H  H262  1  0.048400  0.198700  0.345700  1
  H  H263  1  0.548400  0.698700  0.154300  1
  H  H264  1  0.951600  0.801300  0.654300  1
  H  H265  1  0.495600  0.165900  0.818400  1
  H  H266  1  0.004400  0.334100  0.318400  1
  H  H267  1  0.504400  0.834100  0.181600  1
  H  H268  1  0.995600  0.665900  0.681600  1
  H  H269  1  0.432100  0.203200  0.773700  1
  H  H270  1  0.067900  0.296800  0.273700  1
  H  H271  1  0.567900  0.796800  0.226300  1
  H  H272  1  0.932100  0.703200  0.726300  1
  H  H273  1  0.657200  0.088300  0.059000  1
  H  H274  1  0.842800  0.411700  0.559000  1
  H  H275  1  0.342800  0.911700  0.941000  1
  H  H276  1  0.157200  0.588300  0.441000  1
  H  H277  1  0.577200  0.098300  0.103800  1
  H  H278  1  0.922800  0.401700  0.603800  1
  H  H279  1  0.422800  0.901700  0.896200  1
  H  H280  1  0.077200  0.598300  0.396200  1
  H  H281  1  0.475800  0.078800  0.084700  1
  H  H282  1  0.024200  0.421200  0.584700  1
  H  H283  1  0.524200  0.921200  0.915300  1
  H  H284  1  0.975800  0.578800  0.415300  1
  H  H285  1  0.457800  0.057200  0.019700  1
  H  H286  1  0.042200  0.442800  0.519700  1
  H  H287  1  0.542200  0.942800  0.980300  1
  H  H288  1  0.957800  0.557200  0.480300  1
  H  H289  1  0.502600  0.037300  0.950600  1
  H  H290  1  0.997400  0.462700  0.450600  1
  H  H291  1  0.497400  0.962700  0.049400  1
  H  H292  1  0.002600  0.537300  0.549400  1
  H  H293  1  0.621100  0.976800  0.907900  1
  H  H294  1  0.878900  0.523200  0.407900  1
  H  H295  1  0.378900  0.023200  0.092100  1
  H  H296  1  0.121100  0.476800  0.592100  1
  H  H297  1  0.536300  0.059000  0.812000  1
  H  H298  1  0.963700  0.441000  0.312000  1
  H  H299  1  0.463700  0.941000  0.188000  1
  H  H300  1  0.036300  0.559000  0.688000  1
  H  H301  1  0.546200  0.082700  0.877900  1
  H  H302  1  0.953800  0.417300  0.377900  1
  H  H303  1  0.453800  0.917300  0.122100  1
  H  H304  1  0.046200  0.582700  0.622100  1
  H  H305  1  0.463700  0.916900  0.535900  1
  H  H306  1  0.036300  0.583100  0.035900  1
  H  H307  1  0.536300  0.083100  0.464100  1
  H  H308  1  0.963700  0.416900  0.964100  1
  H  H309  1  0.530700  0.868400  0.506500  1
  H  H310  1  0.969300  0.631600  0.006500  1
  H  H311  1  0.469300  0.131600  0.493500  1
  H  H312  1  0.030700  0.368400  0.993500  1
  H  H313  1  0.614700  0.843100  0.540000  1
  H  H314  1  0.885300  0.656900  0.040000  1
  H  H315  1  0.385300  0.156900  0.460000  1
  H  H316  1  0.114700  0.343100  0.960000  1
  H  H317  1  0.632800  0.865400  0.606100  1
  H  H318  1  0.867200  0.634600  0.106100  1
  H  H319  1  0.367200  0.134600  0.393900  1
  H  H320  1  0.132800  0.365400  0.893900  1
  H  H321  1  0.599700  0.912200  0.666000  1
  H  H322  1  0.900300  0.587800  0.166000  1
  H  H323  1  0.400300  0.087800  0.334000  1
  H  H324  1  0.099700  0.412200  0.834000  1
  H  H325  1  0.455000  0.950500  0.719000  1
  H  H326  1  0.045000  0.549500  0.219000  1
  H  H327  1  0.545000  0.049500  0.281000  1
  H  H328  1  0.955000  0.450500  0.781000  1
  H  H329  1  0.644800  0.004700  0.756000  1
  H  H330  1  0.855200  0.495300  0.256000  1
  H  H331  1  0.355200  0.995300  0.244000  1
  H  H332  1  0.144800  0.504700  0.744000  1
  H  H333  1  0.627100  0.981700  0.690700  1
  H  H334  1  0.872900  0.518300  0.190700  1
  H  H335  1  0.372900  0.018300  0.309300  1
  H  H336  1  0.127100  0.481700  0.809300  1
  H  H337  1  0.422100  0.421400  0.747500  1
  H  H338  1  0.077900  0.078600  0.247500  1
  H  H339  1  0.577900  0.578600  0.252500  1
  H  H340  1  0.922100  0.921400  0.752500  1
  H  H341  1  0.447600  0.470800  0.700900  1
  H  H342  1  0.052400  0.029200  0.200900  1
  H  H343  1  0.552400  0.529200  0.299100  1
  H  H344  1  0.947600  0.970800  0.799100  1
  H  H345  1  0.476100  0.454800  0.638500  1
  H  H346  1  0.023900  0.045200  0.138500  1
  H  H347  1  0.523900  0.545200  0.361500  1
  H  H348  1  0.976100  0.954800  0.861500  1
  H  H349  1  0.477800  0.386200  0.618400  1
  H  H350  1  0.022200  0.113800  0.118400  1
  H  H351  1  0.522200  0.613800  0.381600  1
  H  H352  1  0.977800  0.886200  0.881600  1
  H  H353  1  0.459800  0.311400  0.641800  1
  H  H354  1  0.040200  0.188600  0.141800  1
  H  H355  1  0.540200  0.688600  0.358200  1
  H  H356  1  0.959800  0.811400  0.858200  1
  H  H357  1  0.349100  0.244500  0.706600  1
  H  H358  1  0.150900  0.255500  0.206600  1
  H  H359  1  0.650900  0.755500  0.293400  1
  H  H360  1  0.849100  0.744500  0.793400  1
  H  H361  1  0.521800  0.181900  0.655500  1
  H  H362  1  0.978200  0.318100  0.155500  1
  H  H363  1  0.478200  0.818100  0.344500  1
  H  H364  1  0.021800  0.681900  0.844500  1
  H  H365  1  0.528000  0.251600  0.668800  1
  H  H366  1  0.972000  0.248400  0.168800  1
  H  H367  1  0.472000  0.748400  0.331200  1
  H  H368  1  0.028000  0.751600  0.831200  1
  H  H369  1  0.432100  0.870700  0.614400  1
  H  H370  1  0.067900  0.629300  0.114400  1
  H  H371  1  0.567900  0.129300  0.385600  1
  H  H372  1  0.932100  0.370700  0.885600  1
  H  H373  1  0.353500  0.830300  0.641800  1
  H  H374  1  0.146500  0.669700  0.141800  1
  H  H375  1  0.646500  0.169700  0.358200  1
  H  H376  1  0.853500  0.330300  0.858200  1
  H  H377  1  0.274100  0.858500  0.678300  1
  H  H378  1  0.225900  0.641500  0.178300  1
  H  H379  1  0.725900  0.141500  0.321700  1
  H  H380  1  0.774100  0.358500  0.821700  1
  H  H381  1  0.289400  0.927500  0.697900  1
  H  H382  1  0.210600  0.572500  0.197900  1
  H  H383  1  0.710600  0.072500  0.302100  1
  H  H384  1  0.789400  0.427500  0.802100  1
  H  H385  1  0.344600  0.997000  0.686300  1
  H  H386  1  0.155400  0.503000  0.186300  1
  H  H387  1  0.655400  0.003000  0.313700  1
  H  H388  1  0.844600  0.497000  0.813700  1
  H  H389  1  0.403100  0.056600  0.602100  1
  H  H390  1  0.096900  0.443400  0.102100  1
  H  H391  1  0.596900  0.943400  0.397900  1
  H  H392  1  0.903100  0.556600  0.897900  1
  H  H393  1  0.454300  0.110600  0.725300  1
  H  H394  1  0.045700  0.389400  0.225300  1
  H  H395  1  0.545700  0.889400  0.274700  1
  H  H396  1  0.954300  0.610600  0.774700  1
  H  H397  1  0.444500  0.041400  0.717700  1
  H  H398  1  0.055500  0.458600  0.217700  1
  H  H399  1  0.555500  0.958600  0.282300  1
  H  H400  1  0.944500  0.541400  0.782300  1
  C  C401  1  0.002200  0.267400  0.623300  1
  C  C402  1  0.497800  0.232600  0.123300  1
  C  C403  1  0.997800  0.732600  0.376700  1
  C  C404  1  0.502200  0.767400  0.876700  1
  C  C405  1  0.022900  0.307500  0.626800  1
  C  C406  1  0.477100  0.192500  0.126800  1
  C  C407  1  0.977100  0.692500  0.373200  1
  C  C408  1  0.522900  0.807500  0.873200  1
  C  C409  1  0.029100  0.322800  0.664900  1
  C  C410  1  0.470900  0.177200  0.164900  1
  C  C411  1  0.970900  0.677200  0.335100  1
  C  C412  1  0.529100  0.822800  0.835100  1
  C  C413  1  0.010800  0.301300  0.697700  1
  C  C414  1  0.489200  0.198700  0.197700  1
  C  C415  1  0.989200  0.698700  0.302300  1
  C  C416  1  0.510800  0.801300  0.802300  1
  C  C417  1  0.987200  0.261100  0.690500  1
  C  C418  1  0.512800  0.238900  0.190500  1
  C  C419  1  0.012800  0.738900  0.309500  1
  C  C420  1  0.487200  0.761100  0.809500  1
  C  C421  1  0.960800  0.234500  0.722300  1
  C  C422  1  0.539200  0.265500  0.222300  1
  C  C423  1  0.039200  0.765500  0.277700  1
  C  C424  1  0.460800  0.734500  0.777700  1
  C  C425  1  0.906800  0.177300  0.742200  1
  C  C426  1  0.593200  0.322700  0.242200  1
  C  C427  1  0.093200  0.822700  0.257800  1
  C  C428  1  0.406800  0.677300  0.757800  1
  C  C429  1  0.927000  0.140200  0.754700  1
  C  C430  1  0.573000  0.359800  0.254700  1
  C  C431  1  0.073000  0.859800  0.245300  1
  C  C432  1  0.427000  0.640200  0.745300  1
  C  C433  1  0.897800  0.116500  0.783100  1
  C  C434  1  0.602200  0.383500  0.283100  1
  C  C435  1  0.102200  0.883500  0.216900  1
  C  C436  1  0.397800  0.616500  0.716900  1
  C  C437  1  0.847400  0.133200  0.803400  1
  C  C438  1  0.652600  0.366800  0.303400  1
  C  C439  1  0.152600  0.866800  0.196600  1
  C  C440  1  0.347400  0.633200  0.696600  1
  C  C441  1  0.826900  0.170100  0.792200  1
  C  C442  1  0.673100  0.329900  0.292200  1
  C  C443  1  0.173100  0.829900  0.207800  1
  C  C444  1  0.326900  0.670100  0.707800  1
  C  C445  1  0.854800  0.192500  0.760600  1
  C  C446  1  0.645200  0.307500  0.260600  1
  C  C447  1  0.145200  0.807500  0.239400  1
  C  C448  1  0.354800  0.692500  0.739400  1
  C  C449  1  0.651900  0.980600  0.016100  1
  C  C450  1  0.848100  0.519400  0.516100  1
  C  C451  1  0.348100  0.019400  0.983900  1
  C  C452  1  0.151900  0.480600  0.483900  1
  C  C453  1  0.662600  0.940900  0.022500  1
  C  C454  1  0.837400  0.559100  0.522500  1
  C  C455  1  0.337400  0.059100  0.977500  1
  C  C456  1  0.162600  0.440900  0.477500  1
  C  C457  1  0.702300  0.919700  0.996200  1
  C  C458  1  0.797700  0.580300  0.496200  1
  C  C459  1  0.297700  0.080300  0.003800  1
  C  C460  1  0.202300  0.419700  0.503800  1
  C  C461  1  0.725300  0.938900  0.963500  1
  C  C462  1  0.774700  0.561100  0.463500  1
  C  C463  1  0.274700  0.061100  0.036500  1
  C  C464  1  0.225300  0.438900  0.536500  1
  C  C465  1  0.711900  0.979600  0.959400  1
  C  C466  1  0.788100  0.520400  0.459400  1
  C  C467  1  0.288100  0.020400  0.040600  1
  C  C468  1  0.211900  0.479600  0.540600  1
  C  C469  1  0.737800  0.005900  0.928200  1
  C  C470  1  0.762200  0.494100  0.428200  1
  C  C471  1  0.262200  0.994100  0.071800  1
  C  C472  1  0.237800  0.505900  0.571800  1
  C  C473  1  0.751100  0.066800  0.895600  1
  C  C474  1  0.748900  0.433200  0.395600  1
  C  C475  1  0.248900  0.933200  0.104400  1
  C  C476  1  0.251100  0.566800  0.604400  1
  C  C477  1  0.791400  0.098100  0.906400  1
  C  C478  1  0.708600  0.401900  0.406400  1
  C  C479  1  0.208600  0.901900  0.093600  1
  C  C480  1  0.291400  0.598100  0.593600  1
  C  C481  1  0.822400  0.119100  0.876900  1
  C  C482  1  0.677600  0.380900  0.376900  1
  C  C483  1  0.177600  0.880900  0.123100  1
  C  C484  1  0.322400  0.619100  0.623100  1
  C  C485  1  0.813800  0.110500  0.836300  1
  C  C486  1  0.686200  0.389500  0.336300  1
  C  C487  1  0.186200  0.889500  0.163700  1
  C  C488  1  0.313800  0.610500  0.663700  1
  C  C489  1  0.770700  0.080900  0.827400  1
  C  C490  1  0.729300  0.419100  0.327400  1
  C  C491  1  0.229300  0.919100  0.172600  1
  C  C492  1  0.270700  0.580900  0.672600  1
  C  C493  1  0.739200  0.058900  0.855700  1
  C  C494  1  0.760800  0.441100  0.355700  1
  C  C495  1  0.260800  0.941100  0.144300  1
  C  C496  1  0.239200  0.558900  0.644300  1
  C  C497  1  0.012400  0.163900  0.579100  1
  C  C498  1  0.487600  0.336100  0.079100  1
  C  C499  1  0.987600  0.836100  0.420900  1
  C  C500  1  0.512400  0.663900  0.920900  1
  C  C501  1  0.011700  0.158500  0.534200  1
  C  C502  1  0.488300  0.341500  0.034200  1
  C  C503  1  0.988300  0.841500  0.465800  1
  C  C504  1  0.511700  0.658500  0.965800  1
  C  C505  1  0.970100  0.174700  0.512400  1
  C  C506  1  0.529900  0.325300  0.012400  1
  C  C507  1  0.029900  0.825300  0.487600  1
  C  C508  1  0.470100  0.674700  0.987600  1
  C  C509  1  0.919400  0.192100  0.528900  1
  C  C510  1  0.580600  0.307900  0.028900  1
  C  C511  1  0.080600  0.807900  0.471100  1
  C  C512  1  0.419400  0.692100  0.971100  1
  C  C513  1  0.920000  0.195400  0.572200  1
  C  C514  1  0.580000  0.304600  0.072200  1
  C  C515  1  0.080000  0.804600  0.427800  1
  C  C516  1  0.420000  0.695400  0.927800  1
  C  C517  1  0.868800  0.212700  0.593500  1
  C  C518  1  0.631200  0.287300  0.093500  1
  C  C519  1  0.131200  0.787300  0.406500  1
  C  C520  1  0.368800  0.712700  0.906500  1
  C  C521  1  0.818800  0.226900  0.653800  1
  C  C522  1  0.681200  0.273100  0.153800  1
  C  C523  1  0.181200  0.773100  0.346200  1
  C  C524  1  0.318800  0.726900  0.846200  1
  C  C525  1  0.826900  0.257300  0.681100  1
  C  C526  1  0.673100  0.242700  0.181100  1
  C  C527  1  0.173100  0.742700  0.318900  1
  C  C528  1  0.326900  0.757300  0.818900  1
  C  C529  1  0.778000  0.273300  0.701000  1
  C  C530  1  0.722000  0.226700  0.201000  1
  C  C531  1  0.222000  0.726700  0.299000  1
  C  C532  1  0.278000  0.773300  0.799000  1
  C  C533  1  0.718400  0.260000  0.691500  1
  C  C534  1  0.781600  0.240000  0.191500  1
  C  C535  1  0.281600  0.740000  0.308500  1
  C  C536  1  0.218400  0.760000  0.808500  1
  C  C537  1  0.711500  0.229700  0.663200  1
  C  C538  1  0.788500  0.270300  0.163200  1
  C  C539  1  0.288500  0.770300  0.336800  1
  C  C540  1  0.211500  0.729700  0.836800  1
  C  C541  1  0.761100  0.212600  0.645100  1
  C  C542  1  0.738900  0.287400  0.145100  1
  C  C543  1  0.238900  0.787400  0.354900  1
  C  C544  1  0.261100  0.712600  0.854900  1
  C  C545  1  0.356200  0.373700  0.814200  1
  C  C546  1  0.143800  0.126300  0.314200  1
  C  C547  1  0.643800  0.626300  0.185800  1
  C  C548  1  0.856200  0.873700  0.685800  1
  C  C549  1  0.360200  0.395700  0.847900  1
  C  C550  1  0.139800  0.104300  0.347900  1
  C  C551  1  0.639800  0.604300  0.152100  1
  C  C552  1  0.860200  0.895700  0.652100  1
  C  C553  1  0.411900  0.407900  0.866200  1
  C  C554  1  0.088100  0.092100  0.366200  1
  C  C555  1  0.588100  0.592100  0.133800  1
  C  C556  1  0.911900  0.907900  0.633800  1
  C  C557  1  0.467200  0.394600  0.847600  1
  C  C558  1  0.032800  0.105400  0.347600  1
  C  C559  1  0.532800  0.605400  0.152400  1
  C  C560  1  0.967200  0.894600  0.652400  1
  C  C561  1  0.463900  0.371700  0.813400  1
  C  C562  1  0.036100  0.128300  0.313400  1
  C  C563  1  0.536100  0.628300  0.186600  1
  C  C564  1  0.963900  0.871700  0.686600  1
  C  C565  1  0.518600  0.353700  0.794800  1
  C  C566  1  0.981400  0.146300  0.294800  1
  C  C567  1  0.481400  0.646300  0.205200  1
  C  C568  1  0.018600  0.853700  0.705200  1
  C  C569  1  0.559500  0.311700  0.745800  1
  C  C570  1  0.940500  0.188300  0.245800  1
  C  C571  1  0.440500  0.688300  0.254200  1
  C  C572  1  0.059500  0.811700  0.754200  1
  C  C573  1  0.580200  0.326700  0.710200  1
  C  C574  1  0.919800  0.173300  0.210200  1
  C  C575  1  0.419800  0.673300  0.289800  1
  C  C576  1  0.080200  0.826700  0.789800  1
  C  C577  1  0.630300  0.308700  0.690400  1
  C  C578  1  0.869700  0.191300  0.190400  1
  C  C579  1  0.369700  0.691300  0.309600  1
  C  C580  1  0.130300  0.808700  0.809600  1
  C  C581  1  0.661700  0.278300  0.710400  1
  C  C582  1  0.838300  0.221700  0.210400  1
  C  C583  1  0.338300  0.721700  0.289600  1
  C  C584  1  0.161700  0.778300  0.789600  1
  C  C585  1  0.640900  0.265500  0.746200  1
  C  C586  1  0.859100  0.234500  0.246200  1
  C  C587  1  0.359100  0.734500  0.253800  1
  C  C588  1  0.140900  0.765500  0.753800  1
  C  C589  1  0.590900  0.281400  0.763600  1
  C  C590  1  0.909100  0.218600  0.263600  1
  C  C591  1  0.409100  0.718600  0.236400  1
  C  C592  1  0.090900  0.781400  0.736400  1
  C  C593  1  0.084200  0.183400  0.674500  1
  C  C594  1  0.415800  0.316600  0.174500  1
  C  C595  1  0.915800  0.816600  0.325500  1
  C  C596  1  0.584200  0.683400  0.825500  1
  C  C597  1  0.135800  0.164300  0.686300  1
  C  C598  1  0.364200  0.335700  0.186300  1
  C  C599  1  0.864200  0.835700  0.313700  1
  C  C600  1  0.635800  0.664300  0.813700  1
  C  C601  1  0.133600  0.123200  0.691300  1
  C  C602  1  0.366400  0.376800  0.191300  1
  C  C603  1  0.866400  0.876800  0.308700  1
  C  C604  1  0.633600  0.623200  0.808700  1
  C  C605  1  0.078500  0.102200  0.685500  1
  C  C606  1  0.421500  0.397800  0.185500  1
  C  C607  1  0.921500  0.897800  0.314500  1
  C  C608  1  0.578500  0.602200  0.814500  1
  C  C609  1  0.027800  0.123000  0.673300  1
  C  C610  1  0.472200  0.377000  0.173300  1
  C  C611  1  0.972200  0.877000  0.326700  1
  C  C612  1  0.527800  0.623000  0.826700  1
  C  C613  1  0.967000  0.105700  0.667300  1
  C  C614  1  0.533000  0.394300  0.167300  1
  C  C615  1  0.033000  0.894300  0.332700  1
  C  C616  1  0.467000  0.605700  0.832700  1
  C  C617  1  0.864900  0.113500  0.651900  1
  C  C618  1  0.635100  0.386500  0.151900  1
  C  C619  1  0.135100  0.886500  0.348100  1
  C  C620  1  0.364900  0.613500  0.848100  1
  C  C621  1  0.837200  0.117800  0.614200  1
  C  C622  1  0.662800  0.382200  0.114200  1
  C  C623  1  0.162800  0.882200  0.385800  1
  C  C624  1  0.337200  0.617800  0.885800  1
  C  C625  1  0.780400  0.100500  0.606200  1
  C  C626  1  0.719600  0.399500  0.106200  1
  C  C627  1  0.219600  0.899500  0.393800  1
  C  C628  1  0.280400  0.600500  0.893800  1
  C  C629  1  0.749200  0.075900  0.635100  1
  C  C630  1  0.750800  0.424100  0.135100  1
  C  C631  1  0.250800  0.924100  0.364900  1
  C  C632  1  0.249200  0.575900  0.864900  1
  C  C633  1  0.779100  0.071800  0.671900  1
  C  C634  1  0.720900  0.428200  0.171900  1
  C  C635  1  0.220900  0.928200  0.328100  1
  C  C636  1  0.279100  0.571800  0.828100  1
  C  C637  1  0.834500  0.088600  0.680700  1
  C  C638  1  0.665500  0.411400  0.180700  1
  C  C639  1  0.165500  0.911400  0.319300  1
  C  C640  1  0.334500  0.588600  0.819300  1
  C  C641  1  0.358900  0.959200  0.563400  1
  C  C642  1  0.141100  0.540800  0.063400  1
  C  C643  1  0.641100  0.040800  0.436600  1
  C  C644  1  0.858900  0.459200  0.936600  1
  C  C645  1  0.323200  0.971300  0.529400  1
  C  C646  1  0.176800  0.528700  0.029400  1
  C  C647  1  0.676800  0.028700  0.470600  1
  C  C648  1  0.823200  0.471300  0.970600  1
  C  C649  1  0.348600  0.001200  0.505300  1
  C  C650  1  0.151400  0.498800  0.005300  1
  C  C651  1  0.651400  0.998800  0.494700  1
  C  C652  1  0.848600  0.501200  0.994700  1
  C  C653  1  0.403900  0.017700  0.514100  1
  C  C654  1  0.096100  0.482300  0.014100  1
  C  C655  1  0.596100  0.982300  0.485900  1
  C  C656  1  0.903900  0.517700  0.985900  1
  C  C657  1  0.437900  0.003600  0.547100  1
  C  C658  1  0.062100  0.496400  0.047100  1
  C  C659  1  0.562100  0.996400  0.452900  1
  C  C660  1  0.937900  0.503600  0.952900  1
  C  C661  1  0.494000  0.020000  0.561100  1
  C  C662  1  0.006000  0.480000  0.061100  1
  C  C663  1  0.506000  0.980000  0.438900  1
  C  C664  1  0.994000  0.520000  0.938900  1
  C  C665  1  0.575700  0.022900  0.606400  1
  C  C666  1  0.924300  0.477100  0.106400  1
  C  C667  1  0.424300  0.977100  0.393600  1
  C  C668  1  0.075700  0.522900  0.893600  1
  C  C669  1  0.627300  0.999900  0.603100  1
  C  C670  1  0.872700  0.500100  0.103100  1
  C  C671  1  0.372700  0.000100  0.396900  1
  C  C672  1  0.127300  0.499900  0.896900  1
  C  C673  1  0.683700  0.015100  0.613900  1
  C  C674  1  0.816300  0.484900  0.113900  1
  C  C675  1  0.316300  0.984900  0.386100  1
  C  C676  1  0.183700  0.515100  0.886100  1
  C  C677  1  0.688700  0.055100  0.627000  1
  C  C678  1  0.811300  0.444900  0.127000  1
  C  C679  1  0.311300  0.944900  0.373000  1
  C  C680  1  0.188700  0.555100  0.873000  1
  C  C681  1  0.635500  0.077300  0.630900  1
  C  C682  1  0.864500  0.422700  0.130900  1
  C  C683  1  0.364500  0.922700  0.369100  1
  C  C684  1  0.135500  0.577300  0.869100  1
  C  C685  1  0.581400  0.062000  0.620300  1
  C  C686  1  0.918600  0.438000  0.120300  1
  C  C687  1  0.418600  0.938000  0.379700  1
  C  C688  1  0.081400  0.562000  0.879700  1
  C  C689  1  0.773500  0.052300  0.027200  1
  C  C690  1  0.726500  0.447700  0.527200  1
  C  C691  1  0.226500  0.947700  0.972800  1
  C  C692  1  0.273500  0.552300  0.472800  1
  C  C693  1  0.825500  0.069200  0.048900  1
  C  C694  1  0.674500  0.430800  0.548900  1
  C  C695  1  0.174500  0.930800  0.951100  1
  C  C696  1  0.325500  0.569200  0.451100  1
  C  C697  1  0.837200  0.110100  0.047400  1
  C  C698  1  0.662800  0.389900  0.547400  1
  C  C699  1  0.162800  0.889900  0.952600  1
  C  C700  1  0.337200  0.610100  0.452600  1
  C  C701  1  0.799600  0.135100  0.025500  1
  C  C702  1  0.700400  0.364900  0.525500  1
  C  C703  1  0.200400  0.864900  0.974500  1
  C  C704  1  0.299600  0.635100  0.474500  1
  C  C705  1  0.750400  0.116500  0.004300  1
  C  C706  1  0.749600  0.383500  0.504300  1
  C  C707  1  0.249600  0.883500  0.995700  1
  C  C708  1  0.250400  0.616500  0.495700  1
  C  C709  1  0.711000  0.139300  0.979100  1
  C  C710  1  0.789000  0.360700  0.479100  1
  C  C711  1  0.289000  0.860700  0.020900  1
  C  C712  1  0.211000  0.639300  0.520900  1
  C  C713  1  0.628700  0.141000  0.932700  1
  C  C714  1  0.871300  0.359000  0.432700  1
  C  C715  1  0.371300  0.859000  0.067300  1
  C  C716  1  0.128700  0.641000  0.567300  1
  C  C717  1  0.567400  0.139800  0.938500  1
  C  C718  1  0.932600  0.360200  0.438500  1
  C  C719  1  0.432600  0.860200  0.061500  1
  C  C720  1  0.067400  0.639800  0.561500  1
  C  C721  1  0.526700  0.161100  0.914300  1
  C  C722  1  0.973300  0.338900  0.414300  1
  C  C723  1  0.473300  0.838900  0.085700  1
  C  C724  1  0.026700  0.661100  0.585700  1
  C  C725  1  0.551100  0.184600  0.883300  1
  C  C726  1  0.948900  0.315400  0.383300  1
  C  C727  1  0.448900  0.815400  0.116700  1
  C  C728  1  0.051100  0.684600  0.616700  1
  C  C729  1  0.611800  0.185800  0.877300  1
  C  C730  1  0.888200  0.314200  0.377300  1
  C  C731  1  0.388200  0.814200  0.122700  1
  C  C732  1  0.111800  0.685800  0.622700  1
  C  C733  1  0.653100  0.163700  0.902100  1
  C  C734  1  0.846900  0.336300  0.402100  1
  C  C735  1  0.346900  0.836300  0.097900  1
  C  C736  1  0.153100  0.663700  0.597900  1
  C  C737  1  0.299800  0.347000  0.708900  1
  C  C738  1  0.200200  0.153000  0.208900  1
  C  C739  1  0.700200  0.653000  0.291100  1
  C  C740  1  0.799800  0.847000  0.791100  1
  C  C741  1  0.237400  0.340300  0.703100  1
  C  C742  1  0.262600  0.159700  0.203100  1
  C  C743  1  0.762600  0.659700  0.296900  1
  C  C744  1  0.737400  0.840300  0.796900  1
  C  C745  1  0.205700  0.310300  0.722800  1
  C  C746  1  0.294300  0.189700  0.222800  1
  C  C747  1  0.794300  0.689700  0.277200  1
  C  C748  1  0.705700  0.810300  0.777200  1
  C  C749  1  0.235900  0.286300  0.751400  1
  C  C750  1  0.264100  0.213700  0.251400  1
  C  C751  1  0.764100  0.713700  0.248600  1
  C  C752  1  0.735900  0.786300  0.748600  1
  C  C753  1  0.299700  0.292800  0.754700  1
  C  C754  1  0.200300  0.207200  0.254700  1
  C  C755  1  0.700300  0.707200  0.245300  1
  C  C756  1  0.799700  0.792800  0.745300  1
  C  C757  1  0.343000  0.270600  0.780600  1
  C  C758  1  0.157000  0.229400  0.280600  1
  C  C759  1  0.657000  0.729400  0.219400  1
  C  C760  1  0.843000  0.770600  0.719400  1
  C  C761  1  0.435700  0.256400  0.806100  1
  C  C762  1  0.064300  0.243600  0.306100  1
  C  C763  1  0.564300  0.743600  0.193900  1
  C  C764  1  0.935700  0.756400  0.693900  1
  C  C765  1  0.460300  0.273900  0.839400  1
  C  C766  1  0.039700  0.226100  0.339400  1
  C  C767  1  0.539700  0.726100  0.160600  1
  C  C768  1  0.960300  0.773900  0.660600  1
  C  C769  1  0.499200  0.251200  0.864700  1
  C  C770  1  0.000800  0.248800  0.364700  1
  C  C771  1  0.500800  0.748800  0.135300  1
  C  C772  1  0.999200  0.751200  0.635300  1
  C  C773  1  0.510900  0.210800  0.856100  1
  C  C774  1  0.989100  0.289200  0.356100  1
  C  C775  1  0.489100  0.789200  0.143900  1
  C  C776  1  0.010900  0.710800  0.643900  1
  C  C777  1  0.487100  0.193500  0.824000  1
  C  C778  1  0.012900  0.306500  0.324000  1
  C  C779  1  0.512900  0.806500  0.176000  1
  C  C780  1  0.987100  0.693500  0.676000  1
  C  C781  1  0.448600  0.215800  0.797100  1
  C  C782  1  0.051400  0.284200  0.297100  1
  C  C783  1  0.551400  0.784200  0.202900  1
  C  C784  1  0.948600  0.715800  0.702900  1
  C  C785  1  0.616500  0.081800  0.050700  1
  C  C786  1  0.883500  0.418200  0.550700  1
  C  C787  1  0.383500  0.918200  0.949300  1
  C  C788  1  0.116500  0.581800  0.449300  1
  C  C789  1  0.569200  0.087400  0.077800  1
  C  C790  1  0.930800  0.412600  0.577800  1
  C  C791  1  0.430800  0.912600  0.922200  1
  C  C792  1  0.069200  0.587400  0.422200  1
  C  C793  1  0.508700  0.076700  0.066100  1
  C  C794  1  0.991300  0.423300  0.566100  1
  C  C795  1  0.491300  0.923300  0.933900  1
  C  C796  1  0.008700  0.576700  0.433900  1
  C  C797  1  0.498200  0.063500  0.028700  1
  C  C798  1  0.001800  0.436500  0.528700  1
  C  C799  1  0.501800  0.936500  0.971300  1
  C  C800  1  0.998200  0.563500  0.471300  1
  C  C801  1  0.548700  0.059400  0.003100  1
  C  C802  1  0.951300  0.440600  0.503100  1
  C  C803  1  0.451300  0.940600  0.996900  1
  C  C804  1  0.048700  0.559400  0.496900  1
  C  C805  1  0.541100  0.045400  0.961600  1
  C  C806  1  0.958900  0.454600  0.461600  1
  C  C807  1  0.458900  0.954600  0.038400  1
  C  C808  1  0.041100  0.545400  0.538400  1
  C  C809  1  0.587900  0.031700  0.898700  1
  C  C810  1  0.912100  0.468300  0.398700  1
  C  C811  1  0.412100  0.968300  0.101300  1
  C  C812  1  0.087900  0.531700  0.601300  1
  C  C813  1  0.604700  0.994300  0.888100  1
  C  C814  1  0.895300  0.505700  0.388100  1
  C  C815  1  0.395300  0.005700  0.111900  1
  C  C816  1  0.104700  0.494300  0.611900  1
  C  C817  1  0.598700  0.980300  0.848300  1
  C  C818  1  0.901300  0.519700  0.348300  1
  C  C819  1  0.401300  0.019700  0.151700  1
  C  C820  1  0.098700  0.480300  0.651700  1
  C  C821  1  0.570300  0.004300  0.819900  1
  C  C822  1  0.929700  0.495700  0.319900  1
  C  C823  1  0.429700  0.995700  0.180100  1
  C  C824  1  0.070300  0.504300  0.680100  1
  C  C825  1  0.553700  0.041600  0.831600  1
  C  C826  1  0.946300  0.458400  0.331600  1
  C  C827  1  0.446300  0.958400  0.168400  1
  C  C828  1  0.053700  0.541600  0.668400  1
  C  C829  1  0.560200  0.056500  0.870800  1
  C  C830  1  0.939800  0.443500  0.370800  1
  C  C831  1  0.439800  0.943500  0.129200  1
  C  C832  1  0.060200  0.556500  0.629200  1
  C  C833  1  0.498400  0.907500  0.550200  1
  C  C834  1  0.001600  0.592500  0.050200  1
  C  C835  1  0.501600  0.092500  0.449800  1
  C  C836  1  0.998400  0.407500  0.949800  1
  C  C837  1  0.539100  0.877700  0.533000  1
  C  C838  1  0.960900  0.622300  0.033000  1
  C  C839  1  0.460900  0.122300  0.467000  1
  C  C840  1  0.039100  0.377700  0.967000  1
  C  C841  1  0.588800  0.862300  0.552600  1
  C  C842  1  0.911200  0.637700  0.052600  1
  C  C843  1  0.411200  0.137700  0.447400  1
  C  C844  1  0.088800  0.362300  0.947400  1
  C  C845  1  0.599400  0.875600  0.591000  1
  C  C846  1  0.900600  0.624400  0.091000  1
  C  C847  1  0.400600  0.124400  0.409000  1
  C  C848  1  0.099400  0.375600  0.909000  1
  C  C849  1  0.559700  0.905000  0.608100  1
  C  C850  1  0.940300  0.595000  0.108100  1
  C  C851  1  0.440300  0.095000  0.391900  1
  C  C852  1  0.059700  0.405000  0.891900  1
  C  C853  1  0.568000  0.921000  0.648600  1
  C  C854  1  0.932000  0.579000  0.148600  1
  C  C855  1  0.432000  0.079000  0.351400  1
  C  C856  1  0.068000  0.421000  0.851400  1
  C  C857  1  0.539000  0.965300  0.699500  1
  C  C858  1  0.961000  0.534700  0.199500  1
  C  C859  1  0.461000  0.034700  0.300500  1
  C  C860  1  0.039000  0.465300  0.800500  1
  C  C861  1  0.493300  0.962200  0.727000  1
  C  C862  1  0.006700  0.537800  0.227000  1
  C  C863  1  0.506700  0.037800  0.273000  1
  C  C864  1  0.993300  0.462200  0.773000  1
  C  C865  1  0.500300  0.975500  0.766500  1
  C  C866  1  0.999700  0.524500  0.266500  1
  C  C867  1  0.499700  0.024500  0.233500  1
  C  C868  1  0.000300  0.475500  0.733500  1
  C  C869  1  0.558600  0.990200  0.777600  1
  C  C870  1  0.941400  0.509800  0.277600  1
  C  C871  1  0.441400  0.009800  0.222400  1
  C  C872  1  0.058600  0.490200  0.722400  1
  C  C873  1  0.605800  0.993500  0.748800  1
  C  C874  1  0.894200  0.506500  0.248800  1
  C  C875  1  0.394200  0.006500  0.251200  1
  C  C876  1  0.105800  0.493500  0.751200  1
  C  C877  1  0.595100  0.980300  0.710100  1
  C  C878  1  0.904900  0.519700  0.210100  1
  C  C879  1  0.404900  0.019700  0.289900  1
  C  C880  1  0.095100  0.480300  0.789900  1
  C  C881  1  0.433600  0.413500  0.721100  1
  C  C882  1  0.066400  0.086500  0.221100  1
  C  C883  1  0.566400  0.586500  0.278900  1
  C  C884  1  0.933600  0.913500  0.778900  1
  C  C885  1  0.449000  0.443000  0.693300  1
  C  C886  1  0.051000  0.057000  0.193300  1
  C  C887  1  0.551000  0.557000  0.306700  1
  C  C888  1  0.949000  0.943000  0.806700  1
  C  C889  1  0.465300  0.433800  0.656900  1
  C  C890  1  0.034700  0.066200  0.156900  1
  C  C891  1  0.534700  0.566200  0.343100  1
  C  C892  1  0.965300  0.933800  0.843100  1
  C  C893  1  0.466900  0.393700  0.645000  1
  C  C894  1  0.033100  0.106300  0.145000  1
  C  C895  1  0.533100  0.606300  0.355000  1
  C  C896  1  0.966900  0.893700  0.855000  1
  C  C897  1  0.451600  0.364300  0.674300  1
  C  C898  1  0.048400  0.135700  0.174300  1
  C  C899  1  0.548400  0.635700  0.325700  1
  C  C900  1  0.951600  0.864300  0.825700  1
  C  C901  1  0.451000  0.321900  0.667700  1
  C  C902  1  0.049000  0.178100  0.167700  1
  C  C903  1  0.549000  0.678100  0.332300  1
  C  C904  1  0.951000  0.821900  0.832300  1
  C  C905  1  0.439200  0.255300  0.689900  1
  C  C906  1  0.060800  0.244700  0.189900  1
  C  C907  1  0.560800  0.744700  0.310100  1
  C  C908  1  0.939200  0.755300  0.810100  1
  C  C909  1  0.385600  0.232000  0.697800  1
  C  C910  1  0.114400  0.268000  0.197800  1
  C  C911  1  0.614400  0.768000  0.302200  1
  C  C912  1  0.885600  0.732000  0.802200  1
  C  C913  1  0.387800  0.189600  0.692100  1
  C  C914  1  0.112200  0.310400  0.192100  1
  C  C915  1  0.612200  0.810400  0.307900  1
  C  C916  1  0.887800  0.689600  0.807900  1
  C  C917  1  0.434000  0.171000  0.674900  1
  C  C918  1  0.066000  0.329000  0.174900  1
  C  C919  1  0.566000  0.829000  0.325100  1
  C  C920  1  0.934000  0.671000  0.825100  1
  C  C921  1  0.487200  0.195000  0.666667  1
  C  C922  1  0.012800  0.305000  0.166667  1
  C  C923  1  0.512800  0.805000  0.333333  1
  C  C924  1  0.987200  0.695000  0.833333  1
  C  C925  1  0.491400  0.236500  0.674100  1
  C  C926  1  0.008600  0.263500  0.174100  1
  C  C927  1  0.508600  0.763500  0.325900  1
  C  C928  1  0.991400  0.736500  0.825900  1
  C  C929  1  0.402300  0.882700  0.631400  1
  C  C930  1  0.097700  0.617300  0.131400  1
  C  C931  1  0.597700  0.117300  0.368600  1
  C  C932  1  0.902300  0.382700  0.868600  1
  C  C933  1  0.354100  0.858700  0.647200  1
  C  C934  1  0.145900  0.641300  0.147200  1
  C  C935  1  0.645900  0.141300  0.352800  1
  C  C936  1  0.854100  0.358700  0.852800  1
  C  C937  1  0.308700  0.874200  0.669800  1
  C  C938  1  0.191300  0.625800  0.169800  1
  C  C939  1  0.691300  0.125800  0.330200  1
  C  C940  1  0.808700  0.374200  0.830200  1
  C  C941  1  0.316700  0.915200  0.679500  1
  C  C942  1  0.183300  0.584800  0.179500  1
  C  C943  1  0.683300  0.084800  0.320500  1
  C  C944  1  0.816700  0.415200  0.820500  1
  C  C945  1  0.362800  0.937600  0.663100  1
  C  C946  1  0.137200  0.562400  0.163100  1
  C  C947  1  0.637200  0.062400  0.336900  1
  C  C948  1  0.862800  0.437600  0.836900  1
  C  C949  1  0.372000  0.982000  0.670000  1
  C  C950  1  0.128000  0.518000  0.170000  1
  C  C951  1  0.628000  0.018000  0.330000  1
  C  C952  1  0.872000  0.482000  0.830000  1
  C  C953  1  0.426300  0.042500  0.658000  1
  C  C954  1  0.073700  0.457500  0.158000  1
  C  C955  1  0.573700  0.957500  0.342000  1
  C  C956  1  0.926300  0.542500  0.842000  1
  C  C957  1  0.416100  0.067900  0.627000  1
  C  C958  1  0.083900  0.432100  0.127000  1
  C  C959  1  0.583900  0.932100  0.373000  1
  C  C960  1  0.916100  0.567900  0.873000  1
  C  C961  1  0.423600  0.108500  0.629700  1
  C  C962  1  0.076400  0.391500  0.129700  1
  C  C963  1  0.576400  0.891500  0.370300  1
  C  C964  1  0.923600  0.608500  0.870300  1
  C  C965  1  0.434400  0.126000  0.668400  1
  C  C966  1  0.065600  0.374000  0.168400  1
  C  C967  1  0.565600  0.874000  0.331600  1
  C  C968  1  0.934400  0.626000  0.831600  1
  C  C969  1  0.443900  0.099800  0.699600  1
  C  C970  1  0.056100  0.400200  0.199600  1
  C  C971  1  0.556100  0.900200  0.300400  1
  C  C972  1  0.943900  0.599800  0.800400  1
  C  C973  1  0.439100  0.058700  0.695200  1
  C  C974  1  0.060900  0.441300  0.195200  1
  C  C975  1  0.560900  0.941300  0.304800  1
  C  C976  1  0.939100  0.558700  0.804800  1
  C  C977  1  0.637600  0.135500  0.747600  1
  C  C978  1  0.862400  0.364500  0.247600  1
  C  C979  1  0.362400  0.864500  0.252400  1
  C  C980  1  0.137600  0.635500  0.752400  1
  S  S981  1  0.920800  0.066490  0.791330  1
  S  S982  1  0.579200  0.433510  0.291330  1
  S  S983  1  0.079200  0.933510  0.208670  1
  S  S984  1  0.420800  0.566490  0.708670  1
  S  S985  1  0.870400  0.160800  0.893030  1
  S  S986  1  0.629600  0.339200  0.393030  1
  S  S987  1  0.129600  0.839200  0.106970  1
  S  S988  1  0.370400  0.660800  0.606970  1
  S  S989  1  0.794450  0.309440  0.739430  1
  S  S990  1  0.705550  0.190560  0.239430  1
  S  S991  1  0.205550  0.690560  0.260570  1
  S  S992  1  0.294450  0.809440  0.760570  1
  S  S993  1  0.648200  0.329600  0.642390  1
  S  S994  1  0.851800  0.170400  0.142390  1
  S  S995  1  0.351800  0.670400  0.357610  1
  S  S996  1  0.148200  0.829600  0.857610  1
  S  S997  1  0.745500  0.112980  0.560040  1
  S  S998  1  0.754500  0.387020  0.060040  1
  S  S999  1  0.254500  0.887020  0.439960  1
  S  S1000  1  0.245500  0.612980  0.939960  1
  S  S1001  1  0.747400  0.982520  0.610380  1
  S  S1002  1  0.752600  0.517480  0.110380  1
  S  S1003  1  0.252600  0.017480  0.389620  1
  S  S1004  1  0.247400  0.482520  0.889620  1
  S  S1005  1  0.447900  0.149620  0.919430  1
  S  S1006  1  0.052100  0.350380  0.419430  1
  S  S1007  1  0.552100  0.850380  0.080570  1
  S  S1008  1  0.947900  0.649620  0.580570  1
  S  S1009  1  0.535300  0.277810  0.905260  1
  S  S1010  1  0.964700  0.222190  0.405260  1
  S  S1011  1  0.464700  0.722190  0.094740  1
  S  S1012  1  0.035300  0.777810  0.594740  1
  S  S1013  1  0.631920  0.932140  0.838560  1
  S  S1014  1  0.868080  0.567860  0.338560  1
  S  S1015  1  0.368080  0.067860  0.161440  1
  S  S1016  1  0.131920  0.432140  0.661440  1
  S  S1017  1  0.436800  0.971440  0.798060  1
  S  S1018  1  0.063200  0.528560  0.298060  1
  S  S1019  1  0.563200  0.028560  0.201940  1
  S  S1020  1  0.936800  0.471440  0.701940  1
  S  S1021  1  0.320300  0.163050  0.708770  1
  S  S1022  1  0.179700  0.336950  0.208770  1
  S  S1023  1  0.679700  0.836950  0.291230  1
  S  S1024  1  0.820300  0.663050  0.791230  1
  S  S1025  1  0.425800  0.138110  0.585260  1
  S  S1026  1  0.074200  0.361890  0.085260  1
  S  S1027  1  0.574200  0.861890  0.414740  1
  S  S1028  1  0.925800  0.638110  0.914740  1
  N  N1029  1  0.984000  0.243600  0.654100  1
  N  N1030  1  0.516000  0.256400  0.154100  1
  N  N1031  1  0.016000  0.756400  0.345900  1
  N  N1032  1  0.484000  0.743600  0.845900  1
  N  N1033  1  0.937300  0.201200  0.712300  1
  N  N1034  1  0.562700  0.298800  0.212300  1
  N  N1035  1  0.062700  0.798800  0.287700  1
  N  N1036  1  0.437300  0.701200  0.787700  1
  N  N1037  1  0.675900  0.001100  0.985100  1
  N  N1038  1  0.824100  0.498900  0.485100  1
  N  N1039  1  0.324100  0.998900  0.014900  1
  N  N1040  1  0.175900  0.501100  0.514900  1
  N  N1041  1  0.722500  0.042800  0.927000  1
  N  N1042  1  0.777500  0.457200  0.427000  1
  N  N1043  1  0.277500  0.957200  0.073000  1
  N  N1044  1  0.222500  0.542800  0.573000  1
  N  N1045  1  0.965500  0.181000  0.595800  1
  N  N1046  1  0.534500  0.319000  0.095800  1
  N  N1047  1  0.034500  0.819000  0.404200  1
  N  N1048  1  0.465500  0.681000  0.904200  1
  N  N1049  1  0.873300  0.209900  0.631900  1
  N  N1050  1  0.626700  0.290100  0.131900  1
  N  N1051  1  0.126700  0.790100  0.368100  1
  N  N1052  1  0.373300  0.709900  0.868100  1
  N  N1053  1  0.411100  0.360900  0.795000  1
  N  N1054  1  0.088900  0.139100  0.295000  1
  N  N1055  1  0.588900  0.639100  0.205000  1
  N  N1056  1  0.911100  0.860900  0.705000  1
  N  N1057  1  0.506300  0.330500  0.764300  1
  N  N1058  1  0.993700  0.169500  0.264300  1
  N  N1059  1  0.493700  0.669500  0.235700  1
  N  N1060  1  0.006300  0.830500  0.735700  1
  N  N1061  1  0.029700  0.164600  0.667300  1
  N  N1062  1  0.470300  0.335400  0.167300  1
  N  N1063  1  0.970300  0.835400  0.332700  1
  N  N1064  1  0.529700  0.664600  0.832700  1
  N  N1065  1  0.923900  0.131200  0.657900  1
  N  N1066  1  0.576100  0.368800  0.157900  1
  N  N1067  1  0.076100  0.868800  0.342100  1
  N  N1068  1  0.423900  0.631200  0.842100  1
  N  N1069  1  0.412900  0.974700  0.572200  1
  N  N1070  1  0.087100  0.525300  0.072200  1
  N  N1071  1  0.587100  0.025300  0.427800  1
  N  N1072  1  0.912900  0.474700  0.927800  1
  N  N1073  1  0.517300  0.005300  0.593000  1
  N  N1074  1  0.982700  0.494700  0.093000  1
  N  N1075  1  0.482700  0.994700  0.407000  1
  N  N1076  1  0.017300  0.505300  0.907000  1
  N  N1077  1  0.737500  0.075200  0.004400  1
  N  N1078  1  0.762500  0.424800  0.504400  1
  N  N1079  1  0.262500  0.924800  0.995600  1
  N  N1080  1  0.237500  0.575200  0.495600  1
  N  N1081  1  0.668500  0.118000  0.959300  1
  N  N1082  1  0.831500  0.382000  0.459300  1
  N  N1083  1  0.331500  0.882000  0.040700  1
  N  N1084  1  0.168500  0.618000  0.540700  1
  N  N1085  1  0.333333  0.323600  0.735100  1
  N  N1086  1  0.166667  0.176400  0.235100  1
  N  N1087  1  0.666667  0.676400  0.264900  1
  N  N1088  1  0.833333  0.823600  0.764900  1
  N  N1089  1  0.398600  0.279700  0.780600  1
  N  N1090  1  0.101400  0.220300  0.280600  1
  N  N1091  1  0.601400  0.720300  0.219400  1
  N  N1092  1  0.898600  0.779700  0.719400  1
  N  N1093  1  0.608000  0.067800  0.013600  1
  N  N1094  1  0.892000  0.432200  0.513600  1
  N  N1095  1  0.392000  0.932200  0.986400  1
  N  N1096  1  0.108000  0.567800  0.486400  1
  N  N1097  1  0.593200  0.045000  0.940800  1
  N  N1098  1  0.906800  0.455000  0.440800  1
  N  N1099  1  0.406800  0.955000  0.059200  1
  N  N1100  1  0.093200  0.545000  0.559200  1
  N  N1101  1  0.512100  0.921300  0.587100  1
  N  N1102  1  0.987900  0.578700  0.087100  1
  N  N1103  1  0.487900  0.078700  0.412900  1
  N  N1104  1  0.012100  0.421300  0.912900  1
  N  N1105  1  0.528500  0.948100  0.659200  1
  N  N1106  1  0.971500  0.551900  0.159200  1
  N  N1107  1  0.471500  0.051900  0.340800  1
  N  N1108  1  0.028500  0.448100  0.840800  1
  N  N1109  1  0.434400  0.374200  0.711800  1
  N  N1110  1  0.065600  0.125800  0.211800  1
  N  N1111  1  0.565600  0.625800  0.288200  1
  N  N1112  1  0.934400  0.874200  0.788200  1
  N  N1113  1  0.438800  0.298000  0.696500  1
  N  N1114  1  0.061200  0.202000  0.196500  1
  N  N1115  1  0.561200  0.702000  0.303500  1
  N  N1116  1  0.938800  0.798000  0.803500  1
  N  N1117  1  0.406500  0.922000  0.639900  1
  N  N1118  1  0.093500  0.578000  0.139900  1
  N  N1119  1  0.593500  0.078000  0.360100  1
  N  N1120  1  0.906500  0.422000  0.860100  1
  N  N1121  1  0.418100  0.998800  0.653200  1
  N  N1122  1  0.081900  0.501200  0.153200  1
  N  N1123  1  0.581900  0.001200  0.346800  1
  N  N1124  1  0.918100  0.498800  0.846800  1
  Cl  Cl1125  1  0.640200  0.145600  0.798750  1
  Cl  Cl1126  1  0.859800  0.354400  0.298750  1
  Cl  Cl1127  1  0.359800  0.854400  0.201250  1
  Cl  Cl1128  1  0.140200  0.645600  0.701250  1
  Cl  Cl1129  1  0.708300  0.147300  0.726300  1
  Cl  Cl1130  1  0.791700  0.352700  0.226300  1
  Cl  Cl1131  1  0.291700  0.852700  0.273700  1
  Cl  Cl1132  1  0.208300  0.647300  0.773700  1
  Cl  Cl1133  1  0.621000  0.084510  0.739400  1
  Cl  Cl1134  1  0.879000  0.415490  0.239400  1
  Cl  Cl1135  1  0.379000  0.915490  0.260600  1
  Cl  Cl1136  1  0.121000  0.584510  0.760600  1
  Cl  Cl1137  1  0.581400  0.164400  0.725000  1
  Cl  Cl1138  1  0.918600  0.335600  0.225000  1
  Cl  Cl1139  1  0.418600  0.835600  0.275000  1
  Cl  Cl1140  1  0.081400  0.664400  0.775000  1
  O  O1141  1  0.927200  0.060900  0.833700  1
  O  O1142  1  0.572800  0.439100  0.333700  1
  O  O1143  1  0.072800  0.939100  0.166300  1
  O  O1144  1  0.427200  0.560900  0.666300  1
  O  O1145  1  0.872100  0.040800  0.774000  1
  O  O1146  1  0.627900  0.459200  0.274000  1
  O  O1147  1  0.127900  0.959200  0.226000  1
  O  O1148  1  0.372100  0.540800  0.726000  1
  O  O1149  1  0.977800  0.064400  0.769400  1
  O  O1150  1  0.522200  0.435600  0.269400  1
  O  O1151  1  0.022200  0.935600  0.230600  1
  O  O1152  1  0.477800  0.564400  0.730600  1
  O  O1153  1  0.928100  0.157000  0.871900  1
  O  O1154  1  0.571900  0.343000  0.371900  1
  O  O1155  1  0.071900  0.843000  0.128100  1
  O  O1156  1  0.428100  0.657000  0.628100  1
  O  O1157  1  0.876100  0.156300  0.936100  1
  O  O1158  1  0.623900  0.343700  0.436100  1
  O  O1159  1  0.123900  0.843700  0.063900  1
  O  O1160  1  0.376100  0.656300  0.563900  1
  O  O1161  1  0.838200  0.197100  0.882400  1
  O  O1162  1  0.661800  0.302900  0.382400  1
  O  O1163  1  0.161800  0.802900  0.117600  1
  O  O1164  1  0.338200  0.697100  0.617600  1
  O  O1165  1  0.758700  0.344800  0.731800  1
  O  O1166  1  0.741300  0.155200  0.231800  1
  O  O1167  1  0.241300  0.655200  0.268200  1
  O  O1168  1  0.258700  0.844800  0.768200  1
  O  O1169  1  0.859600  0.318500  0.735700  1
  O  O1170  1  0.640400  0.181500  0.235700  1
  O  O1171  1  0.140400  0.681500  0.264300  1
  O  O1172  1  0.359600  0.818500  0.764300  1
  O  O1173  1  0.778200  0.289400  0.776100  1
  O  O1174  1  0.721800  0.210600  0.276100  1
  O  O1175  1  0.221800  0.710600  0.223900  1
  O  O1176  1  0.278200  0.789400  0.723900  1
  O  O1177  1  0.711000  0.328300  0.634200  1
  O  O1178  1  0.789000  0.171700  0.134200  1
  O  O1179  1  0.289000  0.671700  0.365800  1
  O  O1180  1  0.211000  0.828300  0.865800  1
  O  O1181  1  0.608000  0.362200  0.633100  1
  O  O1182  1  0.892000  0.137800  0.133100  1
  O  O1183  1  0.392000  0.637800  0.366900  1
  O  O1184  1  0.108000  0.862200  0.866900  1
  O  O1185  1  0.621000  0.294100  0.620600  1
  O  O1186  1  0.879000  0.205900  0.120600  1
  O  O1187  1  0.379000  0.705900  0.379400  1
  O  O1188  1  0.121000  0.794100  0.879400  1
  O  O1189  1  0.710300  0.079200  0.544800  1
  O  O1190  1  0.789700  0.420800  0.044800  1
  O  O1191  1  0.289700  0.920800  0.455200  1
  O  O1192  1  0.210300  0.579200  0.955200  1
  O  O1193  1  0.795300  0.127500  0.535200  1
  O  O1194  1  0.704700  0.372500  0.035200  1
  O  O1195  1  0.204700  0.872500  0.464800  1
  O  O1196  1  0.295300  0.627500  0.964800  1
  O  O1197  1  0.705900  0.147100  0.570000  1
  O  O1198  1  0.794100  0.352900  0.070000  1
  O  O1199  1  0.294100  0.852900  0.430000  1
  O  O1200  1  0.205900  0.647100  0.930000  1
  O  O1201  1  0.796100  0.003500  0.589100  1
  O  O1202  1  0.703900  0.496500  0.089100  1
  O  O1203  1  0.203900  0.996500  0.410900  1
  O  O1204  1  0.296100  0.503500  0.910900  1
  O  O1205  1  0.724600  0.946700  0.590200  1
  O  O1206  1  0.775400  0.553300  0.090200  1
  O  O1207  1  0.275400  0.053300  0.409800  1
  O  O1208  1  0.224600  0.446700  0.909800  1
  O  O1209  1  0.762700  0.975700  0.652000  1
  O  O1210  1  0.737300  0.524300  0.152000  1
  O  O1211  1  0.237300  0.024300  0.348000  1
  O  O1212  1  0.262700  0.475700  0.848000  1
  O  O1213  1  0.416200  0.187400  0.917500  1
  O  O1214  1  0.083800  0.312600  0.417500  1
  O  O1215  1  0.583800  0.812600  0.082500  1
  O  O1216  1  0.916200  0.687400  0.582500  1
  O  O1217  1  0.441600  0.128400  0.956800  1
  O  O1218  1  0.058400  0.371600  0.456800  1
  O  O1219  1  0.558400  0.871600  0.043200  1
  O  O1220  1  0.941600  0.628400  0.543200  1
  O  O1221  1  0.432600  0.122300  0.885600  1
  O  O1222  1  0.067400  0.377700  0.385600  1
  O  O1223  1  0.567400  0.877700  0.114400  1
  O  O1224  1  0.932600  0.622300  0.614400  1
  O  O1225  1  0.536600  0.253000  0.940200  1
  O  O1226  1  0.963400  0.247000  0.440200  1
  O  O1227  1  0.463400  0.747000  0.059800  1
  O  O1228  1  0.036600  0.753000  0.559800  1
  O  O1229  1  0.503300  0.315500  0.909800  1
  O  O1230  1  0.996700  0.184500  0.409800  1
  O  O1231  1  0.496700  0.684500  0.090200  1
  O  O1232  1  0.003300  0.815500  0.590200  1
  O  O1233  1  0.596600  0.286200  0.889200  1
  O  O1234  1  0.903400  0.213800  0.389200  1
  O  O1235  1  0.403400  0.713800  0.110800  1
  O  O1236  1  0.096600  0.786200  0.610800  1
  O  O1237  1  0.596000  0.912300  0.808000  1
  O  O1238  1  0.904000  0.587700  0.308000  1
  O  O1239  1  0.404000  0.087700  0.192000  1
  O  O1240  1  0.096000  0.412300  0.692000  1
  O  O1241  1  0.629800  0.910800  0.876400  1
  O  O1242  1  0.870200  0.589200  0.376400  1
  O  O1243  1  0.370200  0.089200  0.123600  1
  O  O1244  1  0.129800  0.410800  0.623600  1
  O  O1245  1  0.693000  0.942200  0.825600  1
  O  O1246  1  0.807000  0.557800  0.325600  1
  O  O1247  1  0.307000  0.057800  0.174400  1
  O  O1248  1  0.193000  0.442200  0.674400  1
  O  O1249  1  0.456900  0.955600  0.835200  1
  O  O1250  1  0.043100  0.544400  0.335200  1
  O  O1251  1  0.543100  0.044400  0.164800  1
  O  O1252  1  0.956900  0.455600  0.664800  1
  O  O1253  1  0.391800  0.947100  0.777200  1
  O  O1254  1  0.108200  0.552900  0.277200  1
  O  O1255  1  0.608200  0.052900  0.222800  1
  O  O1256  1  0.891800  0.447100  0.722800  1
  O  O1257  1  0.416000  0.013500  0.801700  1
  O  O1258  1  0.084000  0.486500  0.301700  1
  O  O1259  1  0.584000  0.986500  0.198300  1
  O  O1260  1  0.916000  0.513500  0.698300  1
  O  O1261  1  0.302100  0.133100  0.679000  1
  O  O1262  1  0.197900  0.366900  0.179000  1
  O  O1263  1  0.697900  0.866900  0.321000  1
  O  O1264  1  0.802100  0.633100  0.821000  1
  O  O1265  1  0.275700  0.194200  0.715600  1
  O  O1266  1  0.224300  0.305800  0.215600  1
  O  O1267  1  0.724300  0.805800  0.284400  1
  O  O1268  1  0.775700  0.694200  0.784400  1
  O  O1269  1  0.338900  0.143300  0.746400  1
  O  O1270  1  0.161100  0.356700  0.246400  1
  O  O1271  1  0.661100  0.856700  0.253600  1
  O  O1272  1  0.838900  0.643300  0.753600  1
  O  O1273  1  0.391000  0.174000  0.591600  1
  O  O1274  1  0.109000  0.326000  0.091600  1
  O  O1275  1  0.609000  0.826000  0.408400  1
  O  O1276  1  0.891000  0.674000  0.908400  1
  O  O1277  1  0.401500  0.111300  0.554400  1
  O  O1278  1  0.098500  0.388700  0.054400  1
  O  O1279  1  0.598500  0.888700  0.445600  1
  O  O1280  1  0.901500  0.611300  0.945600  1
  O  O1281  1  0.490800  0.147800  0.578500  1
  O  O1282  1  0.009200  0.352200  0.078500  1
  O  O1283  1  0.509200  0.852200  0.421500  1
  O  O1284  1  0.990800  0.647800  0.921500  1
  O  O1285  1  0.583100  0.100200  0.527200  1
  O  O1286  1  0.916900  0.399800  0.027200  1
  O  O1287  1  0.416900  0.899800  0.472800  1
  O  O1288  1  0.083100  0.600200  0.972800  1
  O  O1289  1  0.865900  0.998700  0.876800  1
  O  O1290  1  0.634100  0.501300  0.376800  1
  O  O1291  1  0.134100  0.001300  0.123200  1
  O  O1292  1  0.365900  0.498700  0.623200  1
  O  O1293  1  0.305900  0.425300  0.640300  1
  O  O1294  1  0.194100  0.074700  0.140300  1
  O  O1295  1  0.694100  0.574700  0.359700  1
  O  O1296  1  0.805900  0.925300  0.859700  1
  O  O1297  1  0.579800  0.975200  0.101800  1
  O  O1298  1  0.920200  0.524800  0.601800  1
  O  O1299  1  0.420200  0.024800  0.898200  1
  O  O1300  1  0.079800  0.475200  0.398200  1
  O  O1301  1  0.674700  0.845000  0.913900  1
  O  O1302  1  0.825300  0.655000  0.413900  1
  O  O1303  1  0.325300  0.155000  0.086100  1
  O  O1304  1  0.174700  0.345000  0.586100  1
  O  O1305  1  0.576300  0.870200  0.737300  1
  O  O1306  1  0.923700  0.629800  0.237300  1
  O  O1307  1  0.423700  0.129800  0.262700  1
  O  O1308  1  0.076300  0.370200  0.762700  1
  O  O1309  1  0.245700  0.034800  0.767000  1
  O  O1310  1  0.254300  0.465200  0.267000  1
  O  O1311  1  0.754300  0.965200  0.233000  1
  O  O1312  1  0.745700  0.534800  0.733000  1
  O  O1313  1  0.731100  0.238100  0.459100  1
  O  O1314  1  0.768900  0.261900  0.959100  1
  O  O1315  1  0.268900  0.761900  0.540900  1
  O  O1316  1  0.231100  0.738100  0.040900  1
  O  O1317  1  0.834000  0.260600  0.470500  1
  O  O1318  1  0.666000  0.239400  0.970500  1
  O  O1319  1  0.166000  0.739400  0.529500  1
  O  O1320  1  0.334000  0.760600  0.029500  1
  O  O1321  1  0.804100  0.862200  0.913000  1
  O  O1322  1  0.695900  0.637800  0.413000  1
  O  O1323  1  0.195900  0.137800  0.087000  1
  O  O1324  1  0.304100  0.362200  0.587000  1
  O  O1325  1  0.617000  0.217400  0.476800  1
  O  O1326  1  0.883000  0.282600  0.976800  1
  O  O1327  1  0.383000  0.782600  0.523200  1
  O  O1328  1  0.117000  0.717400  0.023200  1
  O  O1329  1  0.945000  0.368900  0.768400  1
  O  O1330  1  0.555000  0.131100  0.268400  1
  O  O1331  1  0.055000  0.631100  0.231600  1
  O  O1332  1  0.445000  0.868900  0.731600  1
  O  O1333  1  0.618700  0.128700  0.166500  1
  O  O1334  1  0.881300  0.371300  0.666500  1
  O  O1335  1  0.381300  0.871300  0.833500  1
  O  O1336  1  0.118700  0.628700  0.333500  1
  O  O1337  1  0.704500  0.005200  0.107800  1
  O  O1338  1  0.795500  0.494800  0.607800  1
  O  O1339  1  0.295500  0.994800  0.892200  1
  O  O1340  1  0.204500  0.505200  0.392200  1
  O  O1341  1  0.748300  0.216700  0.522900  1
  O  O1342  1  0.751700  0.283300  0.022900  1
  O  O1343  1  0.251700  0.783300  0.477100  1
  O  O1344  1  0.248300  0.716700  0.977100  1
  O  O1345  1  0.745200  0.875200  0.554500  1
  O  O1346  1  0.754800  0.624800  0.054500  1
  O  O1347  1  0.254800  0.124800  0.445500  1
  O  O1348  1  0.245200  0.375200  0.945500  1
  O  O1349  1  0.875500  0.302100  0.535200  1
  O  O1350  1  0.624500  0.197900  0.035200  1
  O  O1351  1  0.124500  0.697900  0.464800  1
  O  O1352  1  0.375500  0.802100  0.964800  1
  O  O1353  1  0.609600  0.191600  0.597100  1
  O  O1354  1  0.890400  0.308400  0.097100  1
  O  O1355  1  0.390400  0.808400  0.402900  1
  O  O1356  1  0.109600  0.691600  0.902900  1
  O  O1357  1  0.348500  0.291600  0.613800  1
  O  O1358  1  0.151500  0.208400  0.113800  1
  O  O1359  1  0.651500  0.708400  0.386200  1
  O  O1360  1  0.848500  0.791600  0.886200  1
  O  O1361  1  0.155700  0.267700  0.623700  1
  O  O1362  1  0.344300  0.232300  0.123700  1
  O  O1363  1  0.844300  0.732300  0.376300  1
  O  O1364  1  0.655700  0.767700  0.876300  1
  O  O1365  1  0.947100  0.088900  0.966700  1
  O  O1366  1  0.552900  0.411100  0.466700  1
  O  O1367  1  0.052900  0.911100  0.033300  1
  O  O1368  1  0.447100  0.588900  0.533300  1
  O  O1369  1  0.828300  0.327100  0.602000  1
  O  O1370  1  0.671700  0.172900  0.102000  1
  O  O1371  1  0.171700  0.672900  0.398000  1
  O  O1372  1  0.328300  0.827100  0.898000  1
  O  O1373  1  0.415800  0.160200  0.029700  1
  O  O1374  1  0.084200  0.339800  0.529700  1
  O  O1375  1  0.584200  0.839800  0.970300  1
  O  O1376  1  0.915800  0.660200  0.470300  1
  O  O1377  1  0.991600  0.283300  0.521400  1
  O  O1378  1  0.508400  0.216700  0.021400  1
  O  O1379  1  0.008400  0.716700  0.478600  1
  O  O1380  1  0.491600  0.783300  0.978600  1
  O  O1381  1  0.721900  0.826200  0.631900  1
  O  O1382  1  0.778100  0.673800  0.131900  1
  O  O1383  1  0.278100  0.173800  0.368100  1
  O  O1384  1  0.221900  0.326200  0.868100  1
  O  O1385  1  0.259800  0.235800  0.638000  1
  O  O1386  1  0.240200  0.264200  0.138000  1
  O  O1387  1  0.740200  0.764200  0.362000  1
  O  O1388  1  0.759800  0.735800  0.862000  1
  O  O1389  1  0.430200  0.252600  0.567000  1
  O  O1390  1  0.069800  0.247400  0.067000  1
  O  O1391  1  0.569800  0.747400  0.433000  1
  O  O1392  1  0.930200  0.752600  0.933000  1
  O  O1393  1  0.868100  0.883300  0.979300  1
  O  O1394  1  0.631900  0.616700  0.479300  1
  O  O1395  1  0.131900  0.116700  0.020700  1
  O  O1396  1  0.368100  0.383300  0.520700  1
  O  O1397  1  0.279100  0.054500  0.708500  1
  O  O1398  1  0.220900  0.445500  0.208500  1
  O  O1399  1  0.720900  0.945500  0.291500  1
  O  O1400  1  0.779100  0.554500  0.791500  1
  O  O1401  1  0.729800  0.249700  0.839800  1
  O  O1402  1  0.770200  0.250300  0.339800  1
  O  O1403  1  0.270200  0.750300  0.160200  1
  O  O1404  1  0.229800  0.749700  0.660200  1
  O  O1405  1  0.821600  0.782400  0.626600  1
  O  O1406  1  0.678400  0.717600  0.126600  1
  O  O1407  1  0.178400  0.217600  0.373400  1
  O  O1408  1  0.321600  0.282400  0.873400  1
  O  O1409  1  0.857800  0.961400  0.018600  1
  O  O1410  1  0.642200  0.538600  0.518600  1
  O  O1411  1  0.142200  0.038600  0.981400  1
  O  O1412  1  0.357800  0.461400  0.481400  1
  O  O1413  1  0.676600  0.868300  0.691100  1
  O  O1414  1  0.823400  0.631700  0.191100  1
  O  O1415  1  0.323400  0.131700  0.308900  1
  O  O1416  1  0.176600  0.368300  0.808900  1
  O  O1417  1  0.667700  0.381100  0.783200  1
  O  O1418  1  0.832300  0.118900  0.283200  1
  O  O1419  1  0.332300  0.618900  0.216800  1
  O  O1420  1  0.167700  0.881100  0.716800  1
  O  O1421  1  0.241900  0.161100  0.858700  1
  O  O1422  1  0.258100  0.338900  0.358700  1
  O  O1423  1  0.758100  0.838900  0.141300  1
  O  O1424  1  0.741900  0.661100  0.641300  1
  O  O1425  1  0.590100  0.429600  0.739500  1
  O  O1426  1  0.909900  0.070400  0.239500  1
  O  O1427  1  0.409900  0.570400  0.260500  1
  O  O1428  1  0.090100  0.929600  0.760500  1
  O  O1429  1  0.628100  0.144100  0.462100  1
  O  O1430  1  0.871900  0.355900  0.962100  1
  O  O1431  1  0.371900  0.855900  0.537900  1
  O  O1432  1  0.128100  0.644100  0.037900  1
  O  O1433  1  0.497700  0.269100  0.532900  1
  O  O1434  1  0.002300  0.230900  0.032900  1
  O  O1435  1  0.502300  0.730900  0.467100  1
  O  O1436  1  0.997700  0.769100  0.967100  1
  O  O1437  1  0.891600  0.013800  0.956500  1
  O  O1438  1  0.608400  0.486200  0.456500  1
  O  O1439  1  0.108400  0.986200  0.043500  1
  O  O1440  1  0.391600  0.513800  0.543500  1
  O  O1441  1  0.496500  0.383500  0.536500  1
  O  O1442  1  0.003500  0.116500  0.036500  1
  O  O1443  1  0.503500  0.616500  0.463500  1
  O  O1444  1  0.996500  0.883500  0.963500  1
  O  O1445  1  0.718400  0.080200  0.127600  1
  O  O1446  1  0.781600  0.419800  0.627600  1
  O  O1447  1  0.281600  0.919800  0.872400  1
  O  O1448  1  0.218400  0.580200  0.372400  1
  O  O1449  1  0.993500  0.295900  0.865800  1
  O  O1450  1  0.506500  0.204100  0.365800  1
  O  O1451  1  0.006500  0.704100  0.134200  1
  O  O1452  1  0.493500  0.795900  0.634200  1
  O  O1453  1  0.662500  0.254200  0.561500  1
  O  O1454  1  0.837500  0.245800  0.061500  1
  O  O1455  1  0.337500  0.745800  0.438500  1
  O  O1456  1  0.162500  0.754200  0.938500  1
  O  O1457  1  0.760400  0.994600  0.771800  1
  O  O1458  1  0.739600  0.505400  0.271800  1
  O  O1459  1  0.239600  0.005400  0.228200  1
  O  O1460  1  0.260400  0.494600  0.728200  1
  O  O1461  1  0.396000  0.485700  0.791900  1
  O  O1462  1  0.104000  0.014300  0.291900  1
  O  O1463  1  0.604000  0.514300  0.208100  1
  O  O1464  1  0.896000  0.985700  0.708100  1
  O  O1465  1  0.420600  0.100300  0.801200  1
  O  O1466  1  0.079400  0.399700  0.301200  1
  O  O1467  1  0.579400  0.899700  0.198800  1
  O  O1468  1  0.920600  0.600300  0.698800  1
  O  O1469  1  0.913100  0.259800  0.823300  1
  O  O1470  1  0.586900  0.240200  0.323300  1
  O  O1471  1  0.086900  0.740200  0.176700  1
  O  O1472  1  0.413100  0.759800  0.676700  1
  O  O1473  1  0.317400  0.205300  0.869700  1
  O  O1474  1  0.182600  0.294700  0.369700  1
  O  O1475  1  0.682600  0.794700  0.130300  1
  O  O1476  1  0.817400  0.705300  0.630300  1
  O  O1477  1  0.571000  0.391300  0.927000  1
  O  O1478  1  0.929000  0.108700  0.427000  1
  O  O1479  1  0.429000  0.608700  0.073000  1
  O  O1480  1  0.071000  0.891300  0.573000  1
  O  O1481  1  0.802900  0.963500  0.081000  1
  O  O1482  1  0.697100  0.536500  0.581000  1
  O  O1483  1  0.197100  0.036500  0.919000  1
  O  O1484  1  0.302900  0.463500  0.419000  1
  O  O1485  1  0.134100  0.126300  0.470600  1
  O  O1486  1  0.365900  0.373700  0.970600  1
  O  O1487  1  0.865900  0.873700  0.529400  1
  O  O1488  1  0.634100  0.626300  0.029400  1
  O  O1489  1  0.917000  0.012900  0.627800  1
  O  O1490  1  0.583000  0.487100  0.127800  1
  O  O1491  1  0.083000  0.987100  0.372200  1
  O  O1492  1  0.417000  0.512900  0.872200  1
  O  O1493  1  0.743200  0.922800  0.744200  1
  O  O1494  1  0.756800  0.577200  0.244200  1
  O  O1495  1  0.256800  0.077200  0.255800  1
  O  O1496  1  0.243200  0.422800  0.755800  1
  O  O1497  1  0.244100  0.892100  0.570000  1
  O  O1498  1  0.255900  0.607900  0.070000  1
  O  O1499  1  0.755900  0.107900  0.430000  1
  O  O1500  1  0.744100  0.392100  0.930000  1
  O  O1501  1  0.829000  0.002300  0.509400  1
  O  O1502  1  0.671000  0.497700  0.009400  1
  O  O1503  1  0.171000  0.997700  0.490600  1
  O  O1504  1  0.329000  0.502300  0.990600  1
  O  O1505  1  0.198800  0.183300  0.782500  1
  O  O1506  1  0.301200  0.316700  0.282500  1
  O  O1507  1  0.801200  0.816700  0.217500  1
  O  O1508  1  0.698800  0.683300  0.717500  1
  O  O1509  1  0.663500  0.527600  0.763900  1
  O  O1510  1  0.836500  0.972400  0.263900  1
  O  O1511  1  0.336500  0.472400  0.236100  1
  O  O1512  1  0.163500  0.027600  0.736100  1
  O  O1513  1  0.273300  0.973800  0.758000  1
  O  O1514  1  0.226700  0.526200  0.258000  1
  O  O1515  1  0.726700  0.026200  0.242000  1
  O  O1516  1  0.773300  0.473800  0.742000  1
  O  O1517  1  0.709900  0.892300  0.681400  1
  O  O1518  1  0.790100  0.607700  0.181400  1
  O  O1519  1  0.290100  0.107700  0.318600  1
  O  O1520  1  0.209900  0.392300  0.818600  1
  O  O1521  1  0.698000  0.408300  0.750500  1
  O  O1522  1  0.802000  0.091700  0.250500  1
  O  O1523  1  0.302000  0.591700  0.249500  1
  O  O1524  1  0.198000  0.908300  0.749500  1
  O  O1525  1  0.526000  0.308300  0.564300  1
  O  O1526  1  0.974000  0.191700  0.064300  1
  O  O1527  1  0.474000  0.691700  0.435700  1
  O  O1528  1  0.026000  0.808300  0.935700  1
  O  O1529  1  0.348000  0.471300  0.782300  1
  O  O1530  1  0.152000  0.028700  0.282300  1
  O  O1531  1  0.652000  0.528700  0.217700  1
  O  O1532  1  0.848000  0.971300  0.717700  1
  O  O1533  1  0.930000  0.014000  0.588000  1
  O  O1534  1  0.570000  0.486000  0.088000  1
  O  O1535  1  0.070000  0.986000  0.412000  1
  O  O1536  1  0.430000  0.514000  0.912000  1
  O  O1537  1  0.281000  0.849000  0.550000  1
  O  O1538  1  0.219000  0.651000  0.050000  1
  O  O1539  1  0.719000  0.151000  0.450000  1
  O  O1540  1  0.781000  0.349000  0.950000  1
  O  O1541  1  0.627800  0.484600  0.752800  1
  O  O1542  1  0.872200  0.015400  0.252800  1
  O  O1543  1  0.372200  0.515400  0.247200  1
  O  O1544  1  0.127800  0.984600  0.747200  1
  O  O1545  1  0.600900  0.277600  0.489900  1
  O  O1546  1  0.899100  0.222400  0.989900  1
  O  O1547  1  0.399100  0.722400  0.510100  1
  O  O1548  1  0.100900  0.777600  0.010100  1
  O  O1549  1  0.397400  0.311800  0.936400  1
  O  O1550  1  0.102600  0.188200  0.436400  1
  O  O1551  1  0.602600  0.688200  0.063600  1
  O  O1552  1  0.897400  0.811800  0.563600  1
  O  O1553  1  0.903800  0.999100  0.121600  1
  O  O1554  1  0.596200  0.500900  0.621600  1
  O  O1555  1  0.096200  0.000900  0.878400  1
  O  O1556  1  0.403800  0.499100  0.378400  1
  O  O1557  1  0.264000  0.927100  0.780100  1
  O  O1558  1  0.236000  0.572900  0.280100  1
  O  O1559  1  0.736000  0.072900  0.219900  1
  O  O1560  1  0.764000  0.427100  0.719900  1
  O  O1561  1  0.092000  0.225200  0.775000  1
  O  O1562  1  0.408000  0.274800  0.275000  1
  O  O1563  1  0.908000  0.774800  0.225000  1
  O  O1564  1  0.592000  0.725200  0.725000  1
  O  O1565  1  0.014000  0.066400  0.893600  1
  O  O1566  1  0.486000  0.433600  0.393600  1
  O  O1567  1  0.986000  0.933600  0.106400  1
  O  O1568  1  0.514000  0.566400  0.606400  1
  O  O1569  1  0.869000  0.062300  0.161700  1
  O  O1570  1  0.631000  0.437700  0.661700  1
  O  O1571  1  0.131000  0.937700  0.838300  1
  O  O1572  1  0.369000  0.562300  0.338300  1
  O  O1573  1  0.759000  0.950900  0.148000  1
  O  O1574  1  0.741000  0.549100  0.648000  1
  O  O1575  1  0.241000  0.049100  0.852000  1
  O  O1576  1  0.259000  0.450900  0.352000  1
  O  O1577  1  0.252000  0.009600  0.623900  1
  O  O1578  1  0.248000  0.490400  0.123900  1
  O  O1579  1  0.748000  0.990400  0.376100  1
  O  O1580  1  0.752000  0.509600  0.876100  1
  O  O1581  1  0.118800  0.228100  0.560100  1
  O  O1582  1  0.381200  0.271900  0.060100  1
  O  O1583  1  0.881200  0.771900  0.439900  1
  O  O1584  1  0.618800  0.728100  0.939900  1
  O  O1585  1  0.507000  0.459700  0.557300  1
  O  O1586  1  0.993000  0.040300  0.057300  1
  O  O1587  1  0.493000  0.540300  0.442700  1
  O  O1588  1  0.007000  0.959700  0.942700  1
  O  O1589  1  0.158000  0.143800  0.563900  1
  O  O1590  1  0.342000  0.356200  0.063900  1
  O  O1591  1  0.842000  0.856200  0.436100  1
  O  O1592  1  0.658000  0.643800  0.936100  1
  O  O1593  1  0.381900  0.243600  0.979200  1
  O  O1594  1  0.118100  0.256400  0.479200  1
  O  O1595  1  0.618100  0.756400  0.020800  1
  O  O1596  1  0.881900  0.743600  0.520800  1
  O  O1597  1  0.561000  0.494200  0.794100  1
  O  O1598  1  0.939000  0.005800  0.294100  1
  O  O1599  1  0.439000  0.505800  0.205900  1
  O  O1600  1  0.061000  0.994200  0.705900  1
  O  O1601  1  0.257500  0.160500  0.601400  1
  O  O1602  1  0.242500  0.339500  0.101400  1
  O  O1603  1  0.742500  0.839500  0.398600  1
  O  O1604  1  0.757500  0.660500  0.898600  1
  O  O1605  1  0.098000  0.296800  0.803300  1
  O  O1606  1  0.402000  0.203200  0.303300  1
  O  O1607  1  0.902000  0.703200  0.196700  1
  O  O1608  1  0.598000  0.796800  0.696700  1
  O  O1609  1  0.478000  0.499700  0.794700  1
  O  O1610  1  0.022000  0.000300  0.294700  1
  O  O1611  1  0.522000  0.500300  0.205300  1
  O  O1612  1  0.978000  0.999700  0.705300  1
  O  O1613  1  0.292000  0.124900  0.521900  1
  O  O1614  1  0.208000  0.375100  0.021900  1
  O  O1615  1  0.708000  0.875100  0.478100  1
  O  O1616  1  0.792000  0.624900  0.978100  1
  O  O1617  1  0.774900  0.213700  0.456900  1
  O  O1618  1  0.725100  0.286300  0.956900  1
  O  O1619  1  0.225100  0.786300  0.543100  1
  O  O1620  1  0.274900  0.713700  0.043100  1
