# generated using pymatgen
data_Fe6H98C156S13N24Cl2O159
_symmetry_space_group_name_H-M   'P 1'
_cell_length_a   21.91730000
_cell_length_b   32.69910000
_cell_length_c   33.32200000
_cell_angle_alpha   90.00000000
_cell_angle_beta   90.00000000
_cell_angle_gamma   90.91710000
_symmetry_Int_Tables_number   1
_chemical_formula_structural   Fe6H98C156S13N24Cl2O159
_chemical_formula_sum   'Fe24 H392 C624 S52 N96 Cl8 O636'
_cell_volume   23878.01798914
_cell_formula_units_Z   4
loop_
 _symmetry_equiv_pos_site_id
 _symmetry_equiv_pos_as_xyz
  1  'x, y, z'
loop_
 _atom_site_type_symbol
 _atom_site_label
 _atom_site_symmetry_multiplicity
 _atom_site_fract_x
 _atom_site_fract_y
 _atom_site_fract_z
 _atom_site_occupancy
  Fe  Fe1  1  0.529690  0.540640  0.381450  1
  Fe  Fe2  1  0.970310  0.959360  0.881450  1
  Fe  Fe3  1  0.470310  0.459360  0.618550  1
  Fe  Fe4  1  0.029690  0.040640  0.118550  1
  Fe  Fe5  1  0.049580  0.312960  0.346240  1
  Fe  Fe6  1  0.450420  0.187040  0.846240  1
  Fe  Fe7  1  0.950420  0.687040  0.653760  1
  Fe  Fe8  1  0.549580  0.812960  0.153760  1
  Fe  Fe9  1  0.333333  0.440830  0.030220  1
  Fe  Fe10  1  0.166667  0.059170  0.530220  1
  Fe  Fe11  1  0.666667  0.559170  0.969780  1
  Fe  Fe12  1  0.833333  0.940830  0.469780  1
  Fe  Fe13  1  0.577890  0.174190  0.255960  1
  Fe  Fe14  1  0.922110  0.325810  0.755960  1
  Fe  Fe15  1  0.422110  0.825810  0.744040  1
  Fe  Fe16  1  0.077890  0.674190  0.244040  1
  Fe  Fe17  1  0.773950  0.715130  0.458530  1
  Fe  Fe18  1  0.726050  0.784870  0.958530  1
  Fe  Fe19  1  0.226050  0.284870  0.541470  1
  Fe  Fe20  1  0.273950  0.215130  0.041470  1
  Fe  Fe21  1  0.751530  0.467040  0.234470  1
  Fe  Fe22  1  0.748470  0.032960  0.734470  1
  Fe  Fe23  1  0.248470  0.532960  0.765530  1
  Fe  Fe24  1  0.251530  0.967040  0.265530  1
  H  H25  1  0.652700  0.566700  0.421500  1
  H  H26  1  0.847300  0.933300  0.921500  1
  H  H27  1  0.347300  0.433300  0.578500  1
  H  H28  1  0.152700  0.066700  0.078500  1
  H  H29  1  0.708100  0.546100  0.477400  1
  H  H30  1  0.791900  0.953900  0.977400  1
  H  H31  1  0.291900  0.453900  0.522600  1
  H  H32  1  0.208100  0.046100  0.022600  1
  H  H33  1  0.669900  0.493600  0.517800  1
  H  H34  1  0.830100  0.006400  0.017800  1
  H  H35  1  0.330100  0.506400  0.482200  1
  H  H36  1  0.169900  0.993600  0.982200  1
  H  H37  1  0.575500  0.462800  0.501500  1
  H  H38  1  0.924500  0.037200  0.001500  1
  H  H39  1  0.424500  0.537200  0.498500  1
  H  H40  1  0.075500  0.962800  0.998500  1
  H  H41  1  0.483900  0.458900  0.452600  1
  H  H42  1  0.016100  0.041100  0.952600  1
  H  H43  1  0.516100  0.541100  0.547400  1
  H  H44  1  0.983900  0.958900  0.047400  1
  H  H45  1  0.374300  0.528900  0.406400  1
  H  H46  1  0.125700  0.971100  0.906400  1
  H  H47  1  0.625700  0.471100  0.593600  1
  H  H48  1  0.874300  0.028900  0.093600  1
  H  H49  1  0.361400  0.396300  0.356600  1
  H  H50  1  0.138600  0.103700  0.856600  1
  H  H51  1  0.638600  0.603700  0.643400  1
  H  H52  1  0.861400  0.896300  0.143400  1
  H  H53  1  0.457000  0.424600  0.372700  1
  H  H54  1  0.043000  0.075400  0.872700  1
  H  H55  1  0.543000  0.575400  0.627300  1
  H  H56  1  0.957000  0.924600  0.127300  1
  H  H57  1  0.913000  0.290800  0.328000  1
  H  H58  1  0.587000  0.209200  0.828000  1
  H  H59  1  0.087000  0.709200  0.672000  1
  H  H60  1  0.413000  0.790800  0.172000  1
  H  H61  1  0.828800  0.326200  0.308700  1
  H  H62  1  0.671200  0.173800  0.808700  1
  H  H63  1  0.171200  0.673800  0.691300  1
  H  H64  1  0.328800  0.826200  0.191300  1
  H  H65  1  0.834900  0.395500  0.297700  1
  H  H66  1  0.665100  0.104500  0.797700  1
  H  H67  1  0.165100  0.604500  0.702300  1
  H  H68  1  0.334900  0.895500  0.202300  1
  H  H69  1  0.927900  0.429300  0.309300  1
  H  H70  1  0.572100  0.070700  0.809300  1
  H  H71  1  0.072100  0.570700  0.690700  1
  H  H72  1  0.427900  0.929300  0.190700  1
  H  H73  1  0.042100  0.424200  0.329100  1
  H  H74  1  0.457900  0.075800  0.829100  1
  H  H75  1  0.957900  0.575800  0.670900  1
  H  H76  1  0.542100  0.924200  0.170900  1
  H  H77  1  0.142100  0.369000  0.406300  1
  H  H78  1  0.357900  0.131000  0.906300  1
  H  H79  1  0.857900  0.631000  0.593700  1
  H  H80  1  0.642100  0.869000  0.093700  1
  H  H81  1  0.243400  0.441400  0.305800  1
  H  H82  1  0.256600  0.058600  0.805800  1
  H  H83  1  0.756600  0.558600  0.694200  1
  H  H84  1  0.743400  0.941400  0.194200  1
  H  H85  1  0.150900  0.409600  0.292100  1
  H  H86  1  0.349100  0.090400  0.792100  1
  H  H87  1  0.849100  0.590400  0.707900  1
  H  H88  1  0.650900  0.909600  0.207900  1
  H  H89  1  0.524100  0.584000  0.464500  1
  H  H90  1  0.975900  0.916000  0.964500  1
  H  H91  1  0.475900  0.416000  0.535500  1
  H  H92  1  0.024100  0.084000  0.035500  1
  H  H93  1  0.463400  0.633500  0.493000  1
  H  H94  1  0.036600  0.866500  0.993000  1
  H  H95  1  0.536600  0.366500  0.507000  1
  H  H96  1  0.963400  0.133500  0.007000  1
  H  H97  1  0.383500  0.660900  0.457100  1
  H  H98  1  0.116500  0.839100  0.957100  1
  H  H99  1  0.616500  0.339100  0.542900  1
  H  H100  1  0.883500  0.160900  0.042900  1
  H  H101  1  0.364800  0.637500  0.390600  1
  H  H102  1  0.135200  0.862500  0.890600  1
  H  H103  1  0.635200  0.362500  0.609400  1
  H  H104  1  0.864800  0.137500  0.109400  1
  H  H105  1  0.398200  0.589600  0.332600  1
  H  H106  1  0.101800  0.910400  0.832600  1
  H  H107  1  0.601800  0.410400  0.667400  1
  H  H108  1  0.898200  0.089600  0.167400  1
  H  H109  1  0.541300  0.555500  0.280200  1
  H  H110  1  0.958700  0.944500  0.780200  1
  H  H111  1  0.458700  0.444500  0.719800  1
  H  H112  1  0.041300  0.055500  0.219800  1
  H  H113  1  0.360000  0.489500  0.243300  1
  H  H114  1  0.140000  0.010500  0.743300  1
  H  H115  1  0.640000  0.510500  0.756700  1
  H  H116  1  0.860000  0.989500  0.256700  1
  H  H117  1  0.373600  0.513200  0.310100  1
  H  H118  1  0.126400  0.986800  0.810100  1
  H  H119  1  0.626400  0.486800  0.689900  1
  H  H120  1  0.873600  0.013200  0.189900  1
  H  H121  1  0.343000  0.408600  0.942600  1
  H  H122  1  0.157000  0.091400  0.442600  1
  H  H123  1  0.657000  0.591400  0.057400  1
  H  H124  1  0.843000  0.908600  0.557400  1
  H  H125  1  0.422200  0.401300  0.896300  1
  H  H126  1  0.077800  0.098700  0.396300  1
  H  H127  1  0.577800  0.598700  0.103700  1
  H  H128  1  0.922200  0.901300  0.603700  1
  H  H129  1  0.521500  0.418400  0.914000  1
  H  H130  1  0.978500  0.081600  0.414000  1
  H  H131  1  0.478500  0.581600  0.086000  1
  H  H132  1  0.021500  0.918400  0.586000  1
  H  H133  1  0.541100  0.442300  0.979200  1
  H  H134  1  0.958900  0.057700  0.479200  1
  H  H135  1  0.458900  0.557700  0.020800  1
  H  H136  1  0.041100  0.942300  0.520800  1
  H  H137  1  0.496700  0.461700  0.049900  1
  H  H138  1  0.003300  0.038300  0.549900  1
  H  H139  1  0.503300  0.538300  0.950100  1
  H  H140  1  0.996700  0.961700  0.450100  1
  H  H141  1  0.383600  0.524800  0.091300  1
  H  H142  1  0.116400  0.975200  0.591300  1
  H  H143  1  0.616400  0.475200  0.908700  1
  H  H144  1  0.883600  0.024800  0.408700  1
  H  H145  1  0.462100  0.438800  0.187900  1
  H  H146  1  0.037900  0.061200  0.687900  1
  H  H147  1  0.537900  0.561200  0.812100  1
  H  H148  1  0.962100  0.938800  0.312100  1
  H  H149  1  0.449900  0.415300  0.122400  1
  H  H150  1  0.050100  0.084700  0.622400  1
  H  H151  1  0.550100  0.584700  0.877600  1
  H  H152  1  0.949900  0.915300  0.377600  1
  H  H153  1  0.559900  0.633300  0.385600  1
  H  H154  1  0.940100  0.866700  0.885600  1
  H  H155  1  0.440100  0.366700  0.614400  1
  H  H156  1  0.059900  0.133300  0.114400  1
  H  H157  1  0.642300  0.674600  0.364200  1
  H  H158  1  0.857700  0.825400  0.864200  1
  H  H159  1  0.357700  0.325400  0.635800  1
  H  H160  1  0.142300  0.174600  0.135800  1
  H  H161  1  0.718200  0.647800  0.325000  1
  H  H162  1  0.781800  0.852200  0.825000  1
  H  H163  1  0.281800  0.352200  0.675000  1
  H  H164  1  0.218200  0.147800  0.175000  1
  H  H165  1  0.710200  0.578800  0.305100  1
  H  H166  1  0.789800  0.921200  0.805100  1
  H  H167  1  0.289800  0.421200  0.694900  1
  H  H168  1  0.210200  0.078800  0.194900  1
  H  H169  1  0.652400  0.508800  0.312800  1
  H  H170  1  0.847600  0.991200  0.812800  1
  H  H171  1  0.347600  0.491200  0.687200  1
  H  H172  1  0.152400  0.008800  0.187200  1
  H  H173  1  0.587500  0.446800  0.398300  1
  H  H174  1  0.912500  0.053200  0.898300  1
  H  H175  1  0.412500  0.553200  0.601700  1
  H  H176  1  0.087500  0.946800  0.101700  1
  H  H177  1  0.546900  0.393300  0.271500  1
  H  H178  1  0.953100  0.106700  0.771500  1
  H  H179  1  0.453100  0.606700  0.728500  1
  H  H180  1  0.046900  0.893300  0.228500  1
  H  H181  1  0.553700  0.464300  0.280200  1
  H  H182  1  0.946300  0.035700  0.780200  1
  H  H183  1  0.446300  0.535700  0.719800  1
  H  H184  1  0.053700  0.964300  0.219800  1
  H  H185  1  0.574800  0.079500  0.256600  1
  H  H186  1  0.925200  0.420500  0.756600  1
  H  H187  1  0.425200  0.920500  0.743400  1
  H  H188  1  0.074800  0.579500  0.243400  1
  H  H189  1  0.549900  0.029500  0.304700  1
  H  H190  1  0.950100  0.470500  0.804700  1
  H  H191  1  0.450100  0.970500  0.695300  1
  H  H192  1  0.049900  0.529500  0.195300  1
  H  H193  1  0.524500  0.048100  0.370200  1
  H  H194  1  0.975500  0.451900  0.870200  1
  H  H195  1  0.475500  0.951900  0.629800  1
  H  H196  1  0.024500  0.548100  0.129800  1
  H  H197  1  0.519700  0.117300  0.385600  1
  H  H198  1  0.980300  0.382700  0.885600  1
  H  H199  1  0.480300  0.882700  0.614400  1
  H  H200  1  0.019700  0.617300  0.114400  1
  H  H201  1  0.533700  0.191800  0.361400  1
  H  H202  1  0.966300  0.308200  0.861400  1
  H  H203  1  0.466300  0.808200  0.638600  1
  H  H204  1  0.033700  0.691800  0.138600  1
  H  H205  1  0.647700  0.255700  0.298800  1
  H  H206  1  0.852300  0.244300  0.798800  1
  H  H207  1  0.352300  0.744300  0.701200  1
  H  H208  1  0.147700  0.755700  0.201200  1
  H  H209  1  0.471000  0.323500  0.336900  1
  H  H210  1  0.029000  0.176500  0.836900  1
  H  H211  1  0.529000  0.676500  0.663100  1
  H  H212  1  0.971000  0.823500  0.163100  1
  H  H213  1  0.467400  0.252700  0.324400  1
  H  H214  1  0.032600  0.247300  0.824400  1
  H  H215  1  0.532600  0.747300  0.675600  1
  H  H216  1  0.967400  0.752700  0.175600  1
  H  H217  1  0.992800  0.243500  0.401400  1
  H  H218  1  0.507200  0.256500  0.901400  1
  H  H219  1  0.007200  0.756500  0.598600  1
  H  H220  1  0.492800  0.743500  0.098600  1
  H  H221  1  0.958300  0.177700  0.389800  1
  H  H222  1  0.541700  0.322300  0.889800  1
  H  H223  1  0.041700  0.822300  0.610200  1
  H  H224  1  0.458300  0.677700  0.110200  1
  H  H225  1  0.957400  0.149500  0.327100  1
  H  H226  1  0.542600  0.350500  0.827100  1
  H  H227  1  0.042600  0.850500  0.672900  1
  H  H228  1  0.457400  0.649500  0.172900  1
  H  H229  1  0.993300  0.190000  0.272900  1
  H  H230  1  0.506700  0.310000  0.772900  1
  H  H231  1  0.006700  0.810000  0.727100  1
  H  H232  1  0.493300  0.690000  0.227100  1
  H  H233  1  0.044300  0.258000  0.249200  1
  H  H234  1  0.455700  0.242000  0.749200  1
  H  H235  1  0.955700  0.742000  0.750800  1
  H  H236  1  0.544300  0.758000  0.250800  1
  H  H237  1  0.034400  0.369400  0.254900  1
  H  H238  1  0.465600  0.130600  0.754900  1
  H  H239  1  0.965600  0.630600  0.745100  1
  H  H240  1  0.534400  0.869400  0.245100  1
  H  H241  1  0.220300  0.326600  0.206000  1
  H  H242  1  0.279700  0.173400  0.706000  1
  H  H243  1  0.779700  0.673400  0.794000  1
  H  H244  1  0.720300  0.826600  0.294000  1
  H  H245  1  0.171700  0.288400  0.255200  1
  H  H246  1  0.328300  0.211600  0.755200  1
  H  H247  1  0.828300  0.711600  0.744800  1
  H  H248  1  0.671700  0.788400  0.244800  1
  H  H249  1  0.374500  0.503800  0.965400  1
  H  H250  1  0.125500  0.996200  0.465400  1
  H  H251  1  0.625500  0.496200  0.034600  1
  H  H252  1  0.874500  0.003800  0.534600  1
  H  H253  1  0.358900  0.573100  0.954100  1
  H  H254  1  0.141100  0.926900  0.454100  1
  H  H255  1  0.641100  0.426900  0.045900  1
  H  H256  1  0.858900  0.073100  0.545900  1
  H  H257  1  0.301600  0.610600  0.999100  1
  H  H258  1  0.198400  0.889400  0.499100  1
  H  H259  1  0.698400  0.389400  0.000900  1
  H  H260  1  0.801600  0.110600  0.500900  1
  H  H261  1  0.256700  0.576700  0.054600  1
  H  H262  1  0.243300  0.923300  0.554600  1
  H  H263  1  0.743300  0.423300  0.945400  1
  H  H264  1  0.756700  0.076700  0.445400  1
  H  H265  1  0.239500  0.508900  0.092400  1
  H  H266  1  0.260500  0.991100  0.592400  1
  H  H267  1  0.760500  0.491100  0.907600  1
  H  H268  1  0.739500  0.008900  0.407600  1
  H  H269  1  0.204400  0.396300  0.070400  1
  H  H270  1  0.295600  0.103700  0.570400  1
  H  H271  1  0.795600  0.603700  0.929600  1
  H  H272  1  0.704400  0.896300  0.429600  1
  H  H273  1  0.239600  0.431800  0.202700  1
  H  H274  1  0.260400  0.068200  0.702700  1
  H  H275  1  0.760400  0.568200  0.797300  1
  H  H276  1  0.739600  0.931800  0.297300  1
  H  H277  1  0.290700  0.467200  0.152300  1
  H  H278  1  0.209300  0.032800  0.652300  1
  H  H279  1  0.709300  0.532800  0.847700  1
  H  H280  1  0.790700  0.967200  0.347700  1
  H  H281  1  0.953600  0.348000  0.405400  1
  H  H282  1  0.546400  0.152000  0.905400  1
  H  H283  1  0.046400  0.652000  0.594600  1
  H  H284  1  0.453600  0.848000  0.094600  1
  H  H285  1  0.943300  0.349500  0.474900  1
  H  H286  1  0.556700  0.150500  0.974900  1
  H  H287  1  0.056700  0.650500  0.525100  1
  H  H288  1  0.443300  0.849500  0.025100  1
  H  H289  1  0.018500  0.324600  0.515100  1
  H  H290  1  0.481500  0.175400  0.015100  1
  H  H291  1  0.981500  0.675400  0.484900  1
  H  H292  1  0.518500  0.824600  0.984900  1
  H  H293  1  0.104100  0.294100  0.486600  1
  H  H294  1  0.395900  0.205900  0.986600  1
  H  H295  1  0.895900  0.705900  0.513400  1
  H  H296  1  0.604100  0.794100  0.013400  1
  H  H297  1  0.161300  0.276600  0.420200  1
  H  H298  1  0.338700  0.223400  0.920200  1
  H  H299  1  0.838700  0.723400  0.579800  1
  H  H300  1  0.661300  0.776600  0.079800  1
  H  H301  1  0.133000  0.233400  0.315200  1
  H  H302  1  0.367000  0.266600  0.815200  1
  H  H303  1  0.867000  0.766600  0.684800  1
  H  H304  1  0.633000  0.733400  0.184800  1
  H  H305  1  0.326500  0.287200  0.342400  1
  H  H306  1  0.173500  0.212800  0.842400  1
  H  H307  1  0.673500  0.712800  0.657600  1
  H  H308  1  0.826500  0.787200  0.157600  1
  H  H309  1  0.241200  0.313800  0.374200  1
  H  H310  1  0.258800  0.186200  0.874200  1
  H  H311  1  0.758800  0.686200  0.625800  1
  H  H312  1  0.741200  0.813800  0.125800  1
  H  H313  1  0.677800  0.131700  0.204400  1
  H  H314  1  0.822200  0.368300  0.704400  1
  H  H315  1  0.322200  0.868300  0.795600  1
  H  H316  1  0.177800  0.631700  0.295600  1
  H  H317  1  0.677700  0.092700  0.147200  1
  H  H318  1  0.822300  0.407300  0.647200  1
  H  H319  1  0.322300  0.907300  0.852800  1
  H  H320  1  0.177700  0.592700  0.352800  1
  H  H321  1  0.586600  0.076500  0.114100  1
  H  H322  1  0.913400  0.423500  0.614100  1
  H  H323  1  0.413400  0.923500  0.885900  1
  H  H324  1  0.086600  0.576500  0.385900  1
  H  H325  1  0.493100  0.099700  0.142400  1
  H  H326  1  0.006900  0.400300  0.642400  1
  H  H327  1  0.506900  0.900300  0.857600  1
  H  H328  1  0.993100  0.599700  0.357600  1
  H  H329  1  0.441500  0.144200  0.197200  1
  H  H330  1  0.058500  0.355800  0.697200  1
  H  H331  1  0.558500  0.855800  0.802800  1
  H  H332  1  0.941500  0.644200  0.302800  1
  H  H333  1  0.435500  0.150700  0.302700  1
  H  H334  1  0.064500  0.349300  0.802700  1
  H  H335  1  0.564500  0.849300  0.697300  1
  H  H336  1  0.935500  0.650700  0.197300  1
  H  H337  1  0.343800  0.263000  0.245100  1
  H  H338  1  0.156200  0.237000  0.745100  1
  H  H339  1  0.656200  0.737000  0.754900  1
  H  H340  1  0.843800  0.763000  0.254900  1
  H  H341  1  0.428600  0.236300  0.215600  1
  H  H342  1  0.071400  0.263700  0.715600  1
  H  H343  1  0.571400  0.763700  0.784400  1
  H  H344  1  0.928600  0.736300  0.284400  1
  H  H345  1  0.235500  0.474200  0.973200  1
  H  H346  1  0.264500  0.025800  0.473200  1
  H  H347  1  0.764500  0.525800  0.026800  1
  H  H348  1  0.735500  0.974200  0.526800  1
  H  H349  1  0.153000  0.445800  0.936700  1
  H  H350  1  0.347000  0.054200  0.436700  1
  H  H351  1  0.847000  0.554200  0.063300  1
  H  H352  1  0.653000  0.945800  0.563300  1
  H  H353  1  0.132800  0.374900  0.940100  1
  H  H354  1  0.367200  0.125100  0.440100  1
  H  H355  1  0.867200  0.625100  0.059900  1
  H  H356  1  0.632800  0.874900  0.559900  1
  H  H357  1  0.194000  0.334800  0.980700  1
  H  H358  1  0.306000  0.165200  0.480700  1
  H  H359  1  0.806000  0.665200  0.019300  1
  H  H360  1  0.694000  0.834800  0.519300  1
  H  H361  1  0.287300  0.331600  0.028600  1
  H  H362  1  0.212700  0.168400  0.528600  1
  H  H363  1  0.712700  0.668400  0.971400  1
  H  H364  1  0.787300  0.831600  0.471400  1
  H  H365  1  0.447900  0.373600  0.039900  1
  H  H366  1  0.052100  0.126400  0.539900  1
  H  H367  1  0.552100  0.626400  0.960100  1
  H  H368  1  0.947900  0.873600  0.460100  1
  H  H369  1  0.372600  0.302600  0.149500  1
  H  H370  1  0.127400  0.197400  0.649500  1
  H  H371  1  0.627400  0.697400  0.850500  1
  H  H372  1  0.872600  0.802600  0.350500  1
  H  H373  1  0.305100  0.338500  0.108800  1
  H  H374  1  0.194900  0.161500  0.608800  1
  H  H375  1  0.694900  0.661500  0.891200  1
  H  H376  1  0.805100  0.838500  0.391200  1
  H  H377  1  0.675400  0.132000  0.308500  1
  H  H378  1  0.824600  0.368000  0.808500  1
  H  H379  1  0.324600  0.868000  0.691500  1
  H  H380  1  0.175400  0.632000  0.191500  1
  H  H381  1  0.782700  0.142500  0.320000  1
  H  H382  1  0.717300  0.357500  0.820000  1
  H  H383  1  0.217300  0.857500  0.680000  1
  H  H384  1  0.282700  0.642500  0.180000  1
  H  H385  1  0.833700  0.190500  0.283500  1
  H  H386  1  0.666300  0.309500  0.783500  1
  H  H387  1  0.166300  0.809500  0.716500  1
  H  H388  1  0.333700  0.690500  0.216500  1
  H  H389  1  0.780900  0.234800  0.240700  1
  H  H390  1  0.719100  0.265200  0.740700  1
  H  H391  1  0.219100  0.765200  0.759300  1
  H  H392  1  0.280900  0.734800  0.259300  1
  H  H393  1  0.676200  0.250100  0.205000  1
  H  H394  1  0.823800  0.249900  0.705000  1
  H  H395  1  0.323800  0.749900  0.795000  1
  H  H396  1  0.176200  0.750100  0.295000  1
  H  H397  1  0.549700  0.201700  0.157200  1
  H  H398  1  0.950300  0.298300  0.657200  1
  H  H399  1  0.450300  0.798300  0.842800  1
  H  H400  1  0.049700  0.701700  0.342800  1
  H  H401  1  0.506900  0.336000  0.187500  1
  H  H402  1  0.993100  0.164000  0.687500  1
  H  H403  1  0.493100  0.664000  0.812500  1
  H  H404  1  0.006900  0.836000  0.312500  1
  H  H405  1  0.565000  0.298000  0.231500  1
  H  H406  1  0.935000  0.202000  0.731500  1
  H  H407  1  0.435000  0.702000  0.768500  1
  H  H408  1  0.065000  0.798000  0.268500  1
  H  H409  1  0.400100  0.334000  0.263500  1
  H  H410  1  0.099900  0.166000  0.763500  1
  H  H411  1  0.599900  0.666000  0.736500  1
  H  H412  1  0.900100  0.834000  0.236500  1
  H  H413  1  0.446700  0.346100  0.228300  1
  H  H414  1  0.053300  0.153900  0.728300  1
  H  H415  1  0.553300  0.653900  0.771700  1
  H  H416  1  0.946700  0.846100  0.271700  1
  C  C417  1  0.636500  0.545300  0.437900  1
  C  C418  1  0.863500  0.954700  0.937900  1
  C  C419  1  0.363500  0.454700  0.562100  1
  C  C420  1  0.136500  0.045300  0.062100  1
  C  C421  1  0.670100  0.533200  0.471300  1
  C  C422  1  0.829900  0.966800  0.971300  1
  C  C423  1  0.329900  0.466800  0.528700  1
  C  C424  1  0.170100  0.033200  0.028700  1
  C  C425  1  0.647600  0.502400  0.495000  1
  C  C426  1  0.852400  0.997600  0.995000  1
  C  C427  1  0.352400  0.497600  0.505000  1
  C  C428  1  0.147600  0.002400  0.005000  1
  C  C429  1  0.591900  0.484200  0.485400  1
  C  C430  1  0.908100  0.015800  0.985400  1
  C  C431  1  0.408100  0.515800  0.514600  1
  C  C432  1  0.091900  0.984200  0.014600  1
  C  C433  1  0.560700  0.497700  0.452100  1
  C  C434  1  0.939300  0.002300  0.952100  1
  C  C435  1  0.439300  0.502300  0.547900  1
  C  C436  1  0.060700  0.997700  0.047900  1
  C  C437  1  0.503900  0.480600  0.438600  1
  C  C438  1  0.996100  0.019400  0.938600  1
  C  C439  1  0.496100  0.519400  0.561400  1
  C  C440  1  0.003900  0.980600  0.061400  1
  C  C441  1  0.423400  0.479300  0.392200  1
  C  C442  1  0.076600  0.020700  0.892200  1
  C  C443  1  0.576600  0.520700  0.607800  1
  C  C444  1  0.923400  0.979300  0.107800  1
  C  C445  1  0.371600  0.501800  0.396300  1
  C  C446  1  0.128400  0.998200  0.896300  1
  C  C447  1  0.628400  0.498200  0.603700  1
  C  C448  1  0.871600  0.001800  0.103700  1
  C  C449  1  0.315500  0.485200  0.385900  1
  C  C450  1  0.184500  0.014800  0.885900  1
  C  C451  1  0.684500  0.514800  0.614100  1
  C  C452  1  0.815500  0.985200  0.114100  1
  C  C453  1  0.310500  0.445100  0.371700  1
  C  C454  1  0.189500  0.054900  0.871700  1
  C  C455  1  0.689500  0.554900  0.628300  1
  C  C456  1  0.810500  0.945100  0.128300  1
  C  C457  1  0.363900  0.423400  0.366900  1
  C  C458  1  0.136100  0.076600  0.866900  1
  C  C459  1  0.636100  0.576600  0.633100  1
  C  C460  1  0.863900  0.923400  0.133100  1
  C  C461  1  0.420900  0.439800  0.376600  1
  C  C462  1  0.079100  0.060200  0.876600  1
  C  C463  1  0.579100  0.560200  0.623400  1
  C  C464  1  0.920900  0.939800  0.123400  1
  C  C465  1  0.916800  0.319600  0.324200  1
  C  C466  1  0.583200  0.180400  0.824200  1
  C  C467  1  0.083200  0.680400  0.675800  1
  C  C468  1  0.416800  0.819600  0.175800  1
  C  C469  1  0.866500  0.340500  0.312500  1
  C  C470  1  0.633500  0.159500  0.812500  1
  C  C471  1  0.133500  0.659500  0.687500  1
  C  C472  1  0.366500  0.840500  0.187500  1
  C  C473  1  0.869600  0.380900  0.306300  1
  C  C474  1  0.630400  0.119100  0.806300  1
  C  C475  1  0.130400  0.619100  0.693700  1
  C  C476  1  0.369600  0.880900  0.193700  1
  C  C477  1  0.924400  0.400600  0.312900  1
  C  C478  1  0.575600  0.099400  0.812900  1
  C  C479  1  0.075600  0.599400  0.687100  1
  C  C480  1  0.424400  0.900600  0.187100  1
  C  C481  1  0.975300  0.378400  0.325100  1
  C  C482  1  0.524700  0.121600  0.825100  1
  C  C483  1  0.024700  0.621600  0.674900  1
  C  C484  1  0.475300  0.878400  0.174900  1
  C  C485  1  0.034300  0.395700  0.331900  1
  C  C486  1  0.465700  0.104300  0.831900  1
  C  C487  1  0.965700  0.604300  0.668100  1
  C  C488  1  0.534300  0.895700  0.168100  1
  C  C489  1  0.137100  0.387900  0.348800  1
  C  C490  1  0.362900  0.112100  0.848800  1
  C  C491  1  0.862900  0.612100  0.651200  1
  C  C492  1  0.637100  0.887900  0.151200  1
  C  C493  1  0.162800  0.383900  0.385800  1
  C  C494  1  0.337200  0.116100  0.885800  1
  C  C495  1  0.837200  0.616100  0.614200  1
  C  C496  1  0.662800  0.883900  0.114200  1
  C  C497  1  0.219800  0.402100  0.393500  1
  C  C498  1  0.280200  0.097900  0.893500  1
  C  C499  1  0.780200  0.597900  0.606500  1
  C  C500  1  0.719800  0.902100  0.106500  1
  C  C501  1  0.250300  0.424100  0.364100  1
  C  C502  1  0.249700  0.075900  0.864100  1
  C  C503  1  0.749700  0.575900  0.635900  1
  C  C504  1  0.750300  0.924100  0.135900  1
  C  C505  1  0.223000  0.426500  0.326500  1
  C  C506  1  0.277000  0.073500  0.826500  1
  C  C507  1  0.777000  0.573500  0.673500  1
  C  C508  1  0.723000  0.926500  0.173500  1
  C  C509  1  0.167900  0.408300  0.318300  1
  C  C510  1  0.332100  0.091700  0.818300  1
  C  C511  1  0.832100  0.591700  0.681700  1
  C  C512  1  0.667900  0.908300  0.181700  1
  C  C513  1  0.491700  0.594900  0.449100  1
  C  C514  1  0.008300  0.905100  0.949100  1
  C  C515  1  0.508300  0.405100  0.550900  1
  C  C516  1  0.991700  0.094900  0.050900  1
  C  C517  1  0.455400  0.624500  0.466300  1
  C  C518  1  0.044600  0.875500  0.966300  1
  C  C519  1  0.544600  0.375500  0.533700  1
  C  C520  1  0.955400  0.124500  0.033700  1
  C  C521  1  0.408500  0.640700  0.445300  1
  C  C522  1  0.091500  0.859300  0.945300  1
  C  C523  1  0.591500  0.359300  0.554700  1
  C  C524  1  0.908500  0.140700  0.054700  1
  C  C525  1  0.397400  0.627100  0.406100  1
  C  C526  1  0.102600  0.872900  0.906100  1
  C  C527  1  0.602600  0.372900  0.593900  1
  C  C528  1  0.897400  0.127100  0.093900  1
  C  C529  1  0.435800  0.597800  0.390900  1
  C  C530  1  0.064200  0.902200  0.890900  1
  C  C531  1  0.564200  0.402200  0.609100  1
  C  C532  1  0.935800  0.097800  0.109100  1
  C  C533  1  0.429200  0.580900  0.350400  1
  C  C534  1  0.070800  0.919100  0.850400  1
  C  C535  1  0.570800  0.419100  0.649600  1
  C  C536  1  0.929200  0.080900  0.149600  1
  C  C537  1  0.459400  0.536600  0.300700  1
  C  C538  1  0.040600  0.963400  0.800700  1
  C  C539  1  0.540600  0.463400  0.699300  1
  C  C540  1  0.959400  0.036600  0.199300  1
  C  C541  1  0.504200  0.542100  0.272800  1
  C  C542  1  0.995800  0.957900  0.772800  1
  C  C543  1  0.495800  0.457900  0.727200  1
  C  C544  1  0.004200  0.042100  0.227200  1
  C  C545  1  0.496300  0.528300  0.233500  1
  C  C546  1  0.003700  0.971700  0.733500  1
  C  C547  1  0.503700  0.471700  0.766500  1
  C  C548  1  0.996300  0.028300  0.266500  1
  C  C549  1  0.441400  0.509800  0.222200  1
  C  C550  1  0.058600  0.990200  0.722200  1
  C  C551  1  0.558600  0.490200  0.777800  1
  C  C552  1  0.941400  0.009800  0.277800  1
  C  C553  1  0.396700  0.503400  0.250600  1
  C  C554  1  0.103300  0.996600  0.750600  1
  C  C555  1  0.603300  0.496600  0.749400  1
  C  C556  1  0.896700  0.003400  0.249400  1
  C  C557  1  0.404800  0.517200  0.290600  1
  C  C558  1  0.095200  0.982800  0.790600  1
  C  C559  1  0.595200  0.482800  0.709400  1
  C  C560  1  0.904800  0.017200  0.209400  1
  C  C561  1  0.383400  0.416100  0.950300  1
  C  C562  1  0.116600  0.083900  0.450300  1
  C  C563  1  0.616600  0.583900  0.049700  1
  C  C564  1  0.883400  0.916100  0.549700  1
  C  C565  1  0.430900  0.411400  0.922400  1
  C  C566  1  0.069100  0.088600  0.422400  1
  C  C567  1  0.569100  0.588600  0.077600  1
  C  C568  1  0.930900  0.911400  0.577600  1
  C  C569  1  0.489200  0.421300  0.932800  1
  C  C570  1  0.010800  0.078700  0.432800  1
  C  C571  1  0.510800  0.578700  0.067200  1
  C  C572  1  0.989200  0.921300  0.567200  1
  C  C573  1  0.500600  0.435600  0.971100  1
  C  C574  1  0.999400  0.064400  0.471100  1
  C  C575  1  0.499400  0.564400  0.028900  1
  C  C576  1  0.000600  0.935600  0.528900  1
  C  C577  1  0.452400  0.440200  0.997500  1
  C  C578  1  0.047600  0.059800  0.497500  1
  C  C579  1  0.547600  0.559800  0.002500  1
  C  C580  1  0.952400  0.940200  0.502500  1
  C  C581  1  0.458300  0.454000  0.038800  1
  C  C582  1  0.041700  0.046000  0.538800  1
  C  C583  1  0.541700  0.546000  0.961200  1
  C  C584  1  0.958300  0.954000  0.461200  1
  C  C585  1  0.414100  0.468300  0.101100  1
  C  C586  1  0.085900  0.031700  0.601100  1
  C  C587  1  0.585900  0.531700  0.898900  1
  C  C588  1  0.914100  0.968300  0.398900  1
  C  C589  1  0.398400  0.506900  0.111400  1
  C  C590  1  0.101600  0.993100  0.611400  1
  C  C591  1  0.601600  0.493100  0.888600  1
  C  C592  1  0.898400  0.006900  0.388600  1
  C  C593  1  0.403500  0.520800  0.150900  1
  C  C594  1  0.096500  0.979200  0.650900  1
  C  C595  1  0.596500  0.479200  0.849100  1
  C  C596  1  0.903500  0.020800  0.349100  1
  C  C597  1  0.429800  0.496100  0.180000  1
  C  C598  1  0.070200  0.003900  0.680000  1
  C  C599  1  0.570200  0.503900  0.820000  1
  C  C600  1  0.929800  0.996100  0.320000  1
  C  C601  1  0.445700  0.456600  0.168300  1
  C  C602  1  0.054300  0.043400  0.668300  1
  C  C603  1  0.554300  0.543400  0.831700  1
  C  C604  1  0.945700  0.956600  0.331700  1
  C  C605  1  0.438500  0.442300  0.129400  1
  C  C606  1  0.061500  0.057700  0.629400  1
  C  C607  1  0.561500  0.557700  0.870600  1
  C  C608  1  0.938500  0.942300  0.370600  1
  C  C609  1  0.591300  0.621600  0.369800  1
  C  C610  1  0.908700  0.878400  0.869800  1
  C  C611  1  0.408700  0.378400  0.630200  1
  C  C612  1  0.091300  0.121600  0.130200  1
  C  C613  1  0.640400  0.646600  0.356700  1
  C  C614  1  0.859600  0.853400  0.856700  1
  C  C615  1  0.359600  0.353400  0.643300  1
  C  C616  1  0.140400  0.146600  0.143300  1
  C  C617  1  0.684800  0.631100  0.333500  1
  C  C618  1  0.815200  0.868900  0.833500  1
  C  C619  1  0.315200  0.368900  0.666500  1
  C  C620  1  0.184800  0.131100  0.166500  1
  C  C621  1  0.680600  0.590300  0.322400  1
  C  C622  1  0.819400  0.909700  0.822400  1
  C  C623  1  0.319400  0.409700  0.677600  1
  C  C624  1  0.180600  0.090300  0.177600  1
  C  C625  1  0.632700  0.566900  0.336900  1
  C  C626  1  0.867300  0.933100  0.836900  1
  C  C627  1  0.367300  0.433100  0.663100  1
  C  C628  1  0.132700  0.066900  0.163100  1
  C  C629  1  0.625000  0.523300  0.329500  1
  C  C630  1  0.875000  0.976700  0.829500  1
  C  C631  1  0.375000  0.476700  0.670500  1
  C  C632  1  0.125000  0.023300  0.170500  1
  C  C633  1  0.573000  0.461900  0.340000  1
  C  C634  1  0.927000  0.038100  0.840000  1
  C  C635  1  0.427000  0.538100  0.660000  1
  C  C636  1  0.073000  0.961900  0.160000  1
  C  C637  1  0.579000  0.436000  0.372400  1
  C  C638  1  0.921000  0.064000  0.872400  1
  C  C639  1  0.421000  0.564000  0.627600  1
  C  C640  1  0.079000  0.936000  0.127600  1
  C  C641  1  0.572400  0.393500  0.367000  1
  C  C642  1  0.927600  0.106500  0.867000  1
  C  C643  1  0.427600  0.606500  0.633000  1
  C  C644  1  0.072400  0.893500  0.133000  1
  C  C645  1  0.562300  0.377300  0.329300  1
  C  C646  1  0.937700  0.122700  0.829300  1
  C  C647  1  0.437700  0.622700  0.670700  1
  C  C648  1  0.062300  0.877300  0.170700  1
  C  C649  1  0.555100  0.404100  0.297400  1
  C  C650  1  0.944900  0.095900  0.797400  1
  C  C651  1  0.444900  0.595900  0.702600  1
  C  C652  1  0.055100  0.904100  0.202600  1
  C  C653  1  0.559700  0.446400  0.302300  1
  C  C654  1  0.940300  0.053600  0.802300  1
  C  C655  1  0.440300  0.553600  0.697700  1
  C  C656  1  0.059700  0.946400  0.197700  1
  C  C657  1  0.563200  0.087700  0.282900  1
  C  C658  1  0.936800  0.412300  0.782900  1
  C  C659  1  0.436800  0.912300  0.717100  1
  C  C660  1  0.063200  0.587700  0.217100  1
  C  C661  1  0.548800  0.057600  0.311900  1
  C  C662  1  0.951200  0.442400  0.811900  1
  C  C663  1  0.451200  0.942400  0.688100  1
  C  C664  1  0.048800  0.557600  0.188100  1
  C  C665  1  0.533400  0.068400  0.350500  1
  C  C666  1  0.966600  0.431600  0.850500  1
  C  C667  1  0.466600  0.931600  0.649500  1
  C  C668  1  0.033400  0.568400  0.149500  1
  C  C669  1  0.531300  0.108700  0.359500  1
  C  C670  1  0.968700  0.391300  0.859500  1
  C  C671  1  0.468700  0.891300  0.640500  1
  C  C672  1  0.031300  0.608700  0.140500  1
  C  C673  1  0.546300  0.137700  0.329800  1
  C  C674  1  0.953700  0.362300  0.829800  1
  C  C675  1  0.453700  0.862300  0.670200  1
  C  C676  1  0.046300  0.637700  0.170200  1
  C  C677  1  0.544700  0.180700  0.336100  1
  C  C678  1  0.955300  0.319300  0.836100  1
  C  C679  1  0.455300  0.819300  0.663900  1
  C  C680  1  0.044700  0.680700  0.163900  1
  C  C681  1  0.557500  0.247400  0.311500  1
  C  C682  1  0.942500  0.252600  0.811500  1
  C  C683  1  0.442500  0.752600  0.688500  1
  C  C684  1  0.057500  0.747400  0.188500  1
  C  C685  1  0.611500  0.269600  0.305800  1
  C  C686  1  0.888500  0.230400  0.805800  1
  C  C687  1  0.388500  0.730400  0.694200  1
  C  C688  1  0.111500  0.769600  0.194200  1
  C  C689  1  0.613400  0.311700  0.310300  1
  C  C690  1  0.886600  0.188300  0.810300  1
  C  C691  1  0.386600  0.688300  0.689700  1
  C  C692  1  0.113400  0.811700  0.189700  1
  C  C693  1  0.560000  0.332300  0.321600  1
  C  C694  1  0.940000  0.167700  0.821600  1
  C  C695  1  0.440000  0.667700  0.678400  1
  C  C696  1  0.060000  0.832300  0.178400  1
  C  C697  1  0.506700  0.309900  0.328100  1
  C  C698  1  0.993300  0.190100  0.828100  1
  C  C699  1  0.493300  0.690100  0.671900  1
  C  C700  1  0.006700  0.809900  0.171900  1
  C  C701  1  0.504800  0.267500  0.321700  1
  C  C702  1  0.995200  0.232500  0.821700  1
  C  C703  1  0.495200  0.732500  0.678300  1
  C  C704  1  0.004800  0.767500  0.178300  1
  C  C705  1  0.993800  0.233000  0.374900  1
  C  C706  1  0.506200  0.267000  0.874900  1
  C  C707  1  0.006200  0.767000  0.625100  1
  C  C708  1  0.493800  0.733000  0.125100  1
  C  C709  1  0.972800  0.193500  0.367700  1
  C  C710  1  0.527200  0.306500  0.867700  1
  C  C711  1  0.027200  0.806500  0.632300  1
  C  C712  1  0.472800  0.693500  0.132300  1
  C  C713  1  0.972000  0.176700  0.331200  1
  C  C714  1  0.528000  0.323300  0.831200  1
  C  C715  1  0.028000  0.823300  0.668800  1
  C  C716  1  0.472000  0.676700  0.168800  1
  C  C717  1  0.993400  0.200500  0.299500  1
  C  C718  1  0.506600  0.299500  0.799500  1
  C  C719  1  0.006600  0.799500  0.700500  1
  C  C720  1  0.493400  0.700500  0.200500  1
  C  C721  1  0.015000  0.239800  0.307100  1
  C  C722  1  0.485000  0.260200  0.807100  1
  C  C723  1  0.985000  0.760200  0.692900  1
  C  C724  1  0.515000  0.739800  0.192900  1
  C  C725  1  0.042800  0.265900  0.276600  1
  C  C726  1  0.457200  0.234100  0.776600  1
  C  C727  1  0.957200  0.734100  0.723400  1
  C  C728  1  0.542800  0.765900  0.223400  1
  C  C729  1  0.096900  0.325000  0.259900  1
  C  C730  1  0.403100  0.175000  0.759900  1
  C  C731  1  0.903100  0.675000  0.740100  1
  C  C732  1  0.596900  0.825000  0.240100  1
  C  C733  1  0.072900  0.360600  0.245300  1
  C  C734  1  0.427100  0.139400  0.745300  1
  C  C735  1  0.927100  0.639400  0.754700  1
  C  C736  1  0.572900  0.860600  0.254700  1
  C  C737  1  0.103700  0.383700  0.217000  1
  C  C738  1  0.396300  0.116300  0.717000  1
  C  C739  1  0.896300  0.616300  0.783000  1
  C  C740  1  0.603700  0.883700  0.283000  1
  C  C741  1  0.158000  0.371000  0.200800  1
  C  C742  1  0.342000  0.129000  0.700800  1
  C  C743  1  0.842000  0.629000  0.799200  1
  C  C744  1  0.658000  0.871000  0.299200  1
  C  C745  1  0.182200  0.335500  0.216000  1
  C  C746  1  0.317800  0.164500  0.716000  1
  C  C747  1  0.817800  0.664500  0.784000  1
  C  C748  1  0.682200  0.835500  0.284000  1
  C  C749  1  0.153400  0.312500  0.245200  1
  C  C750  1  0.346600  0.187500  0.745200  1
  C  C751  1  0.846600  0.687500  0.754800  1
  C  C752  1  0.653400  0.812500  0.254800  1
  C  C753  1  0.349900  0.518600  0.983700  1
  C  C754  1  0.150100  0.981400  0.483700  1
  C  C755  1  0.650100  0.481400  0.016300  1
  C  C756  1  0.849900  0.018600  0.516300  1
  C  C757  1  0.341200  0.560200  0.976900  1
  C  C758  1  0.158800  0.939800  0.476900  1
  C  C759  1  0.658800  0.439800  0.023100  1
  C  C760  1  0.841200  0.060200  0.523100  1
  C  C761  1  0.307200  0.582100  0.003100  1
  C  C762  1  0.192800  0.917900  0.503100  1
  C  C763  1  0.692800  0.417900  0.996900  1
  C  C764  1  0.807200  0.082100  0.496900  1
  C  C765  1  0.280700  0.562100  0.035900  1
  C  C766  1  0.219300  0.937900  0.535900  1
  C  C767  1  0.719300  0.437900  0.964100  1
  C  C768  1  0.780700  0.062100  0.464100  1
  C  C769  1  0.290100  0.520600  0.040500  1
  C  C770  1  0.209900  0.979400  0.540500  1
  C  C771  1  0.709900  0.479400  0.959500  1
  C  C772  1  0.790100  0.020600  0.459500  1
  C  C773  1  0.265000  0.497000  0.072700  1
  C  C774  1  0.235000  0.003000  0.572700  1
  C  C775  1  0.735000  0.503000  0.927300  1
  C  C776  1  0.765000  0.997000  0.427300  1
  C  C777  1  0.251800  0.435100  0.106100  1
  C  C778  1  0.248200  0.064900  0.606100  1
  C  C779  1  0.748200  0.564900  0.893900  1
  C  C780  1  0.751800  0.935100  0.393900  1
  C  C781  1  0.211700  0.403400  0.097600  1
  C  C782  1  0.288300  0.096600  0.597600  1
  C  C783  1  0.788300  0.596600  0.902400  1
  C  C784  1  0.711700  0.903400  0.402400  1
  C  C785  1  0.182400  0.382100  0.126900  1
  C  C786  1  0.317600  0.117900  0.626900  1
  C  C787  1  0.817600  0.617900  0.873100  1
  C  C788  1  0.682400  0.882100  0.373100  1
  C  C789  1  0.191300  0.392800  0.167600  1
  C  C790  1  0.308700  0.107200  0.667600  1
  C  C791  1  0.808700  0.607200  0.832400  1
  C  C792  1  0.691300  0.892800  0.332400  1
  C  C793  1  0.232200  0.424400  0.175600  1
  C  C794  1  0.267800  0.075600  0.675600  1
  C  C795  1  0.767800  0.575600  0.824400  1
  C  C796  1  0.732200  0.924400  0.324400  1
  C  C797  1  0.262800  0.445700  0.145700  1
  C  C798  1  0.237200  0.054300  0.645700  1
  C  C799  1  0.737200  0.554300  0.854300  1
  C  C800  1  0.762800  0.945700  0.354300  1
  C  C801  1  0.984600  0.336400  0.421600  1
  C  C802  1  0.515400  0.163600  0.921600  1
  C  C803  1  0.015400  0.663600  0.578400  1
  C  C804  1  0.484600  0.836400  0.078400  1
  C  C805  1  0.978600  0.337900  0.463200  1
  C  C806  1  0.521400  0.162100  0.963200  1
  C  C807  1  0.021400  0.662100  0.536800  1
  C  C808  1  0.478600  0.837900  0.036800  1
  C  C809  1  0.022400  0.323000  0.486800  1
  C  C810  1  0.477600  0.177000  0.986800  1
  C  C811  1  0.977600  0.677000  0.513200  1
  C  C812  1  0.522400  0.823000  0.013200  1
  C  C813  1  0.073100  0.305300  0.470200  1
  C  C814  1  0.426900  0.194700  0.970200  1
  C  C815  1  0.926900  0.694700  0.529800  1
  C  C816  1  0.573100  0.805300  0.029800  1
  C  C817  1  0.077000  0.304600  0.428500  1
  C  C818  1  0.423000  0.195400  0.928500  1
  C  C819  1  0.923000  0.695400  0.571500  1
  C  C820  1  0.577000  0.804600  0.071500  1
  C  C821  1  0.127800  0.288400  0.406600  1
  C  C822  1  0.372200  0.211600  0.906600  1
  C  C823  1  0.872200  0.711600  0.593400  1
  C  C824  1  0.627800  0.788400  0.093400  1
  C  C825  1  0.179200  0.275700  0.347900  1
  C  C826  1  0.320800  0.224300  0.847900  1
  C  C827  1  0.820800  0.724300  0.652100  1
  C  C828  1  0.679200  0.775700  0.152100  1
  C  C829  1  0.172600  0.244300  0.320800  1
  C  C830  1  0.327400  0.255700  0.820800  1
  C  C831  1  0.827400  0.755700  0.679200  1
  C  C832  1  0.672600  0.744300  0.179200  1
  C  C833  1  0.223000  0.228400  0.301500  1
  C  C834  1  0.277000  0.271600  0.801500  1
  C  C835  1  0.777000  0.771600  0.698500  1
  C  C836  1  0.723000  0.728400  0.198500  1
  C  C837  1  0.282300  0.242700  0.310200  1
  C  C838  1  0.217700  0.257300  0.810200  1
  C  C839  1  0.717700  0.757300  0.689800  1
  C  C840  1  0.782300  0.742700  0.189800  1
  C  C841  1  0.287300  0.275600  0.337000  1
  C  C842  1  0.212700  0.224400  0.837000  1
  C  C843  1  0.712700  0.724400  0.663000  1
  C  C844  1  0.787300  0.775600  0.163000  1
  C  C845  1  0.236500  0.291800  0.355900  1
  C  C846  1  0.263500  0.208200  0.855900  1
  C  C847  1  0.763500  0.708200  0.644100  1
  C  C848  1  0.736500  0.791800  0.144100  1
  C  C849  1  0.640000  0.125300  0.191600  1
  C  C850  1  0.860000  0.374700  0.691600  1
  C  C851  1  0.360000  0.874700  0.808400  1
  C  C852  1  0.140000  0.625300  0.308400  1
  C  C853  1  0.640100  0.102200  0.157600  1
  C  C854  1  0.859900  0.397800  0.657600  1
  C  C855  1  0.359900  0.897800  0.842400  1
  C  C856  1  0.140100  0.602200  0.342400  1
  C  C857  1  0.586400  0.092200  0.138100  1
  C  C858  1  0.913600  0.407800  0.638100  1
  C  C859  1  0.413600  0.907800  0.861900  1
  C  C860  1  0.086400  0.592200  0.361900  1
  C  C861  1  0.531200  0.106200  0.154600  1
  C  C862  1  0.968800  0.393800  0.654600  1
  C  C863  1  0.468800  0.893800  0.845400  1
  C  C864  1  0.031200  0.606200  0.345400  1
  C  C865  1  0.534500  0.129600  0.189000  1
  C  C866  1  0.965500  0.370400  0.689000  1
  C  C867  1  0.465500  0.870400  0.811000  1
  C  C868  1  0.034500  0.629600  0.311000  1
  C  C869  1  0.481600  0.148600  0.207300  1
  C  C870  1  0.018400  0.351400  0.707300  1
  C  C871  1  0.518400  0.851400  0.792700  1
  C  C872  1  0.981600  0.648600  0.292700  1
  C  C873  1  0.440600  0.189900  0.256200  1
  C  C874  1  0.059400  0.310100  0.756200  1
  C  C875  1  0.559400  0.810100  0.743800  1
  C  C876  1  0.940600  0.689900  0.243800  1
  C  C877  1  0.417100  0.174000  0.291100  1
  C  C878  1  0.082900  0.326000  0.791100  1
  C  C879  1  0.582900  0.826000  0.708900  1
  C  C880  1  0.917100  0.674000  0.208900  1
  C  C881  1  0.367300  0.190900  0.309800  1
  C  C882  1  0.132700  0.309100  0.809800  1
  C  C883  1  0.632700  0.809100  0.690200  1
  C  C884  1  0.867300  0.690900  0.190200  1
  C  C885  1  0.338100  0.224800  0.292500  1
  C  C886  1  0.161900  0.275200  0.792500  1
  C  C887  1  0.661900  0.775200  0.707500  1
  C  C888  1  0.838100  0.724800  0.207500  1
  C  C889  1  0.362700  0.240200  0.257400  1
  C  C890  1  0.137300  0.259800  0.757400  1
  C  C891  1  0.637300  0.759800  0.742600  1
  C  C892  1  0.862700  0.740200  0.242600  1
  C  C893  1  0.412700  0.224300  0.239400  1
  C  C894  1  0.087300  0.275700  0.739400  1
  C  C895  1  0.587300  0.775700  0.760600  1
  C  C896  1  0.912700  0.724300  0.260600  1
  C  C897  1  0.227400  0.445600  0.974800  1
  C  C898  1  0.272600  0.054400  0.474800  1
  C  C899  1  0.772600  0.554400  0.025200  1
  C  C900  1  0.727400  0.945600  0.525200  1
  C  C901  1  0.177800  0.428700  0.952800  1
  C  C902  1  0.322200  0.071300  0.452800  1
  C  C903  1  0.822200  0.571300  0.047200  1
  C  C904  1  0.677800  0.928700  0.547200  1
  C  C905  1  0.165600  0.386800  0.954900  1
  C  C906  1  0.334400  0.113200  0.454900  1
  C  C907  1  0.834400  0.613200  0.045100  1
  C  C908  1  0.665600  0.886800  0.545100  1
  C  C909  1  0.201700  0.363400  0.978500  1
  C  C910  1  0.298300  0.136600  0.478500  1
  C  C911  1  0.798300  0.636600  0.021500  1
  C  C912  1  0.701700  0.863400  0.521500  1
  C  C913  1  0.249800  0.381500  0.999400  1
  C  C914  1  0.250200  0.118500  0.499400  1
  C  C915  1  0.750200  0.618500  0.000600  1
  C  C916  1  0.749800  0.881500  0.500600  1
  C  C917  1  0.290400  0.360400  0.025100  1
  C  C918  1  0.209600  0.139600  0.525100  1
  C  C919  1  0.709600  0.639600  0.974900  1
  C  C920  1  0.790400  0.860400  0.474900  1
  C  C921  1  0.370800  0.359700  0.070900  1
  C  C922  1  0.129200  0.140300  0.570900  1
  C  C923  1  0.629200  0.640300  0.929100  1
  C  C924  1  0.870800  0.859700  0.429100  1
  C  C925  1  0.432600  0.359800  0.062900  1
  C  C926  1  0.067400  0.140200  0.562900  1
  C  C927  1  0.567400  0.640200  0.937100  1
  C  C928  1  0.932600  0.859800  0.437100  1
  C  C929  1  0.472200  0.339800  0.088100  1
  C  C930  1  0.027800  0.160200  0.588100  1
  C  C931  1  0.527800  0.660200  0.911900  1
  C  C932  1  0.972200  0.839800  0.411900  1
  C  C933  1  0.449600  0.316900  0.120400  1
  C  C934  1  0.050400  0.183100  0.620400  1
  C  C935  1  0.550400  0.683100  0.879600  1
  C  C936  1  0.949600  0.816900  0.379600  1
  C  C937  1  0.388400  0.317400  0.127200  1
  C  C938  1  0.111600  0.182600  0.627200  1
  C  C939  1  0.611600  0.682600  0.872800  1
  C  C940  1  0.888400  0.817400  0.372800  1
  C  C941  1  0.347600  0.338700  0.103000  1
  C  C942  1  0.152400  0.161300  0.603000  1
  C  C943  1  0.652400  0.661300  0.897000  1
  C  C944  1  0.847600  0.838700  0.397000  1
  C  C945  1  0.696600  0.153000  0.294200  1
  C  C946  1  0.803400  0.347000  0.794200  1
  C  C947  1  0.303400  0.847000  0.705800  1
  C  C948  1  0.196600  0.653000  0.205800  1
  C  C949  1  0.761800  0.158800  0.301100  1
  C  C950  1  0.738200  0.341200  0.801100  1
  C  C951  1  0.238200  0.841200  0.698900  1
  C  C952  1  0.261800  0.658800  0.198900  1
  C  C953  1  0.790700  0.187400  0.280500  1
  C  C954  1  0.709300  0.312600  0.780500  1
  C  C955  1  0.209300  0.812600  0.719500  1
  C  C956  1  0.290700  0.687400  0.219500  1
  C  C957  1  0.760300  0.213100  0.254400  1
  C  C958  1  0.739700  0.286900  0.754400  1
  C  C959  1  0.239700  0.786900  0.745600  1
  C  C960  1  0.260300  0.713100  0.245600  1
  C  C961  1  0.697900  0.205600  0.249100  1
  C  C962  1  0.802100  0.294400  0.749100  1
  C  C963  1  0.302100  0.794400  0.750900  1
  C  C964  1  0.197900  0.705600  0.250900  1
  C  C965  1  0.659400  0.229700  0.222300  1
  C  C966  1  0.840600  0.270300  0.722300  1
  C  C967  1  0.340600  0.770300  0.777700  1
  C  C968  1  0.159400  0.729700  0.277700  1
  C  C969  1  0.564100  0.246600  0.197700  1
  C  C970  1  0.935900  0.253400  0.697700  1
  C  C971  1  0.435900  0.753400  0.802300  1
  C  C972  1  0.064100  0.746600  0.302300  1
  C  C973  1  0.540600  0.229200  0.163700  1
  C  C974  1  0.959400  0.270800  0.663700  1
  C  C975  1  0.459400  0.770800  0.836300  1
  C  C976  1  0.040600  0.729200  0.336300  1
  C  C977  1  0.504000  0.251200  0.139000  1
  C  C978  1  0.996000  0.248800  0.639000  1
  C  C979  1  0.496000  0.748800  0.861000  1
  C  C980  1  0.004000  0.751200  0.361000  1
  C  C981  1  0.490100  0.292400  0.147200  1
  C  C982  1  0.009900  0.207600  0.647200  1
  C  C983  1  0.509900  0.707600  0.852800  1
  C  C984  1  0.990100  0.792400  0.352800  1
  C  C985  1  0.514600  0.308200  0.181200  1
  C  C986  1  0.985400  0.191800  0.681200  1
  C  C987  1  0.485400  0.691800  0.818800  1
  C  C988  1  0.014600  0.808200  0.318800  1
  C  C989  1  0.550300  0.286000  0.207300  1
  C  C990  1  0.949700  0.214000  0.707300  1
  C  C991  1  0.449700  0.714000  0.792700  1
  C  C992  1  0.050300  0.786000  0.292700  1
  C  C993  1  0.427000  0.372000  0.239000  1
  C  C994  1  0.073000  0.128000  0.739000  1
  C  C995  1  0.573000  0.628000  0.761000  1
  C  C996  1  0.927000  0.872000  0.261000  1
  C  C997  1  0.348000  0.386000  0.243000  1
  C  C998  1  0.152000  0.114000  0.743000  1
  C  C999  1  0.652000  0.614000  0.757000  1
  C  C1000  1  0.848000  0.886000  0.257000  1
  C  C1001  1  0.410000  0.355000  0.243000  1
  C  C1002  1  0.090000  0.145000  0.743000  1
  C  C1003  1  0.590000  0.645000  0.757000  1
  C  C1004  1  0.910000  0.855000  0.257000  1
  C  C1005  1  0.341000  0.381000  0.264000  1
  C  C1006  1  0.159000  0.119000  0.764000  1
  C  C1007  1  0.659000  0.619000  0.736000  1
  C  C1008  1  0.841000  0.881000  0.236000  1
  C  C1009  1  0.380000  0.375000  0.224000  1
  C  C1010  1  0.120000  0.125000  0.724000  1
  C  C1011  1  0.620000  0.625000  0.776000  1
  C  C1012  1  0.880000  0.875000  0.276000  1
  C  C1013  1  0.322000  0.354000  0.285000  1
  C  C1014  1  0.178000  0.146000  0.785000  1
  C  C1015  1  0.678000  0.646000  0.715000  1
  C  C1016  1  0.822000  0.854000  0.215000  1
  C  C1017  1  0.337000  0.335000  0.221000  1
  C  C1018  1  0.163000  0.165000  0.721000  1
  C  C1019  1  0.663000  0.665000  0.779000  1
  C  C1020  1  0.837000  0.835000  0.279000  1
  C  C1021  1  0.336000  0.361000  0.256000  1
  C  C1022  1  0.164000  0.139000  0.756000  1
  C  C1023  1  0.664000  0.639000  0.744000  1
  C  C1024  1  0.836000  0.861000  0.244000  1
  C  C1025  1  0.380000  0.392000  0.260000  1
  C  C1026  1  0.120000  0.108000  0.760000  1
  C  C1027  1  0.620000  0.608000  0.740000  1
  C  C1028  1  0.880000  0.892000  0.240000  1
  C  C1029  1  0.393000  0.377000  0.261000  1
  C  C1030  1  0.107000  0.123000  0.761000  1
  C  C1031  1  0.607000  0.623000  0.739000  1
  C  C1032  1  0.893000  0.877000  0.239000  1
  C  C1033  1  0.395000  0.353000  0.267000  1
  C  C1034  1  0.105000  0.147000  0.767000  1
  C  C1035  1  0.605000  0.647000  0.733000  1
  C  C1036  1  0.895000  0.853000  0.233000  1
  C  C1037  1  0.354000  0.347000  0.291000  1
  C  C1038  1  0.146000  0.153000  0.791000  1
  C  C1039  1  0.646000  0.653000  0.709000  1
  C  C1040  1  0.854000  0.847000  0.209000  1
  S  S1041  1  0.251400  0.517410  0.390420  1
  S  S1042  1  0.248600  0.982590  0.890420  1
  S  S1043  1  0.748600  0.482590  0.609580  1
  S  S1044  1  0.751400  0.017410  0.109580  1
  S  S1045  1  0.253280  0.390030  0.441380  1
  S  S1046  1  0.246720  0.109970  0.941380  1
  S  S1047  1  0.746720  0.609970  0.558620  1
  S  S1048  1  0.753280  0.890030  0.058620  1
  S  S1049  1  0.558550  0.536010  0.200230  1
  S  S1050  1  0.941450  0.963990  0.700230  1
  S  S1051  1  0.441450  0.463990  0.799770  1
  S  S1052  1  0.058550  0.036010  0.299770  1
  S  S1053  1  0.370860  0.569500  0.160550  1
  S  S1054  1  0.129140  0.930500  0.660550  1
  S  S1055  1  0.629140  0.430500  0.839450  1
  S  S1056  1  0.870860  0.069500  0.339450  1
  S  S1057  1  0.566980  0.364240  0.412120  1
  S  S1058  1  0.933020  0.135760  0.912120  1
  S  S1059  1  0.433020  0.635760  0.587880  1
  S  S1060  1  0.066980  0.864240  0.087880  1
  S  S1061  1  0.681810  0.337990  0.296900  1
  S  S1062  1  0.818190  0.162010  0.796900  1
  S  S1063  1  0.318190  0.662010  0.703100  1
  S  S1064  1  0.181810  0.837990  0.203100  1
  S  S1065  1  0.074400  0.433330  0.205960  1
  S  S1066  1  0.425600  0.066670  0.705960  1
  S  S1067  1  0.925600  0.566670  0.794040  1
  S  S1068  1  0.574400  0.933330  0.294040  1
  S  S1069  1  0.137010  0.338740  0.112460  1
  S  S1070  1  0.362990  0.161260  0.612460  1
  S  S1071  1  0.862990  0.661260  0.887540  1
  S  S1072  1  0.637010  0.838740  0.387540  1
  S  S1073  1  0.207330  0.191990  0.262300  1
  S  S1074  1  0.292670  0.308010  0.762300  1
  S  S1075  1  0.792670  0.808010  0.737700  1
  S  S1076  1  0.707330  0.691990  0.237700  1
  S  S1077  1  0.354500  0.183100  0.361800  1
  S  S1078  1  0.145500  0.316900  0.861800  1
  S  S1079  1  0.645500  0.816900  0.638200  1
  S  S1080  1  0.854500  0.683100  0.138200  1
  S  S1081  1  0.551680  0.350000  0.080510  1
  S  S1082  1  0.948320  0.150000  0.580510  1
  S  S1083  1  0.448320  0.650000  0.919490  1
  S  S1084  1  0.051680  0.850000  0.419490  1
  S  S1085  1  0.467900  0.223490  0.098930  1
  S  S1086  1  0.032100  0.276510  0.598930  1
  S  S1087  1  0.532100  0.776510  0.901070  1
  S  S1088  1  0.967900  0.723490  0.401070  1
  S  S1089  1  0.345600  0.164350  0.355950  1
  S  S1090  1  0.154400  0.335650  0.855950  1
  S  S1091  1  0.654400  0.835650  0.644050  1
  S  S1092  1  0.845600  0.664350  0.144050  1
  N  N1093  1  0.583000  0.528600  0.427870  1
  N  N1094  1  0.917000  0.971400  0.927870  1
  N  N1095  1  0.417000  0.471400  0.572130  1
  N  N1096  1  0.083000  0.028600  0.072130  1
  N  N1097  1  0.480900  0.496250  0.405970  1
  N  N1098  1  0.019100  0.003750  0.905970  1
  N  N1099  1  0.519100  0.503750  0.594030  1
  N  N1100  1  0.980900  0.996250  0.094030  1
  N  N1101  1  0.971700  0.337500  0.330500  1
  N  N1102  1  0.528300  0.162500  0.830500  1
  N  N1103  1  0.028300  0.662500  0.669500  1
  N  N1104  1  0.471700  0.837500  0.169500  1
  N  N1105  1  0.076600  0.370740  0.342200  1
  N  N1106  1  0.423400  0.129260  0.842200  1
  N  N1107  1  0.923400  0.629260  0.657800  1
  N  N1108  1  0.576600  0.870740  0.157800  1
  N  N1109  1  0.483000  0.581300  0.411820  1
  N  N1110  1  0.017000  0.918700  0.911820  1
  N  N1111  1  0.517000  0.418700  0.588180  1
  N  N1112  1  0.983000  0.081300  0.088180  1
  N  N1113  1  0.467500  0.553720  0.340420  1
  N  N1114  1  0.032500  0.946280  0.840420  1
  N  N1115  1  0.532500  0.446280  0.659580  1
  N  N1116  1  0.967500  0.053720  0.159580  1
  N  N1117  1  0.393300  0.430800  0.987400  1
  N  N1118  1  0.106700  0.069200  0.487400  1
  N  N1119  1  0.606700  0.569200  0.012600  1
  N  N1120  1  0.893300  0.930800  0.512600  1
  N  N1121  1  0.408800  0.455310  0.059500  1
  N  N1122  1  0.091200  0.044690  0.559500  1
  N  N1123  1  0.591200  0.544690  0.940500  1
  N  N1124  1  0.908800  0.955310  0.440500  1
  N  N1125  1  0.588200  0.582200  0.360550  1
  N  N1126  1  0.911800  0.917800  0.860550  1
  N  N1127  1  0.411800  0.417800  0.639450  1
  N  N1128  1  0.088200  0.082200  0.139450  1
  N  N1129  1  0.579300  0.505230  0.346670  1
  N  N1130  1  0.920700  0.994770  0.846670  1
  N  N1131  1  0.420700  0.494770  0.653330  1
  N  N1132  1  0.079300  0.005230  0.153330  1
  N  N1133  1  0.560800  0.127300  0.291700  1
  N  N1134  1  0.939200  0.372700  0.791700  1
  N  N1135  1  0.439200  0.872700  0.708300  1
  N  N1136  1  0.060800  0.627300  0.208300  1
  N  N1137  1  0.559100  0.204300  0.305800  1
  N  N1138  1  0.940900  0.295700  0.805800  1
  N  N1139  1  0.440900  0.795700  0.694200  1
  N  N1140  1  0.059100  0.704300  0.194200  1
  N  N1141  1  0.015600  0.256900  0.344800  1
  N  N1142  1  0.484400  0.243100  0.844800  1
  N  N1143  1  0.984400  0.743100  0.655200  1
  N  N1144  1  0.515600  0.756900  0.155200  1
  N  N1145  1  0.065100  0.300400  0.289100  1
  N  N1146  1  0.434900  0.199600  0.789100  1
  N  N1147  1  0.934900  0.699600  0.710900  1
  N  N1148  1  0.565100  0.800400  0.210900  1
  N  N1149  1  0.325200  0.498700  0.014710  1
  N  N1150  1  0.174800  0.001300  0.514710  1
  N  N1151  1  0.674800  0.501300  0.985290  1
  N  N1152  1  0.825200  0.998700  0.485290  1
  N  N1153  1  0.278400  0.458900  0.073930  1
  N  N1154  1  0.221600  0.041100  0.573930  1
  N  N1155  1  0.721600  0.541100  0.926070  1
  N  N1156  1  0.778400  0.958900  0.426070  1
  N  N1157  1  0.032000  0.319400  0.403900  1
  N  N1158  1  0.468000  0.180600  0.903900  1
  N  N1159  1  0.968000  0.680600  0.596100  1
  N  N1160  1  0.532000  0.819400  0.096100  1
  N  N1161  1  0.126600  0.290600  0.368400  1
  N  N1162  1  0.373400  0.209400  0.868400  1
  N  N1163  1  0.873400  0.709400  0.631600  1
  N  N1164  1  0.626600  0.790600  0.131600  1
  N  N1165  1  0.587600  0.139400  0.207800  1
  N  N1166  1  0.912400  0.360600  0.707800  1
  N  N1167  1  0.412400  0.860600  0.792200  1
  N  N1168  1  0.087600  0.639400  0.292200  1
  N  N1169  1  0.492200  0.171300  0.237800  1
  N  N1170  1  0.007800  0.328700  0.737800  1
  N  N1171  1  0.507800  0.828700  0.762200  1
  N  N1172  1  0.992200  0.671300  0.262200  1
  N  N1173  1  0.262600  0.422900  0.997500  1
  N  N1174  1  0.237400  0.077100  0.497500  1
  N  N1175  1  0.737400  0.577100  0.002500  1
  N  N1176  1  0.762600  0.922900  0.502500  1
  N  N1177  1  0.331800  0.382000  0.043700  1
  N  N1178  1  0.168200  0.118000  0.543700  1
  N  N1179  1  0.668200  0.618000  0.956300  1
  N  N1180  1  0.831800  0.882000  0.456300  1
  N  N1181  1  0.665700  0.176000  0.268700  1
  N  N1182  1  0.834300  0.324000  0.768700  1
  N  N1183  1  0.334300  0.824000  0.731300  1
  N  N1184  1  0.165700  0.676000  0.231300  1
  N  N1185  1  0.603000  0.222000  0.223300  1
  N  N1186  1  0.897000  0.278000  0.723300  1
  N  N1187  1  0.397000  0.778000  0.776700  1
  N  N1188  1  0.103000  0.722000  0.276700  1
  Cl  Cl1189  1  0.349000  0.360000  0.210100  1
  Cl  Cl1190  1  0.151000  0.140000  0.710100  1
  Cl  Cl1191  1  0.651000  0.640000  0.789900  1
  Cl  Cl1192  1  0.849000  0.860000  0.289900  1
  Cl  Cl1193  1  0.427000  0.401200  0.267300  1
  Cl  Cl1194  1  0.073000  0.098800  0.767300  1
  Cl  Cl1195  1  0.573000  0.598800  0.732700  1
  Cl  Cl1196  1  0.927000  0.901200  0.232700  1
  O  O1197  1  0.207100  0.496900  0.414700  1
  O  O1198  1  0.292900  0.003100  0.914700  1
  O  O1199  1  0.792900  0.503100  0.585300  1
  O  O1200  1  0.707100  0.996900  0.085300  1
  O  O1201  1  0.227400  0.520300  0.350600  1
  O  O1202  1  0.272600  0.979700  0.850600  1
  O  O1203  1  0.772600  0.479700  0.649400  1
  O  O1204  1  0.727400  0.020300  0.149400  1
  O  O1205  1  0.272500  0.554400  0.405900  1
  O  O1206  1  0.227500  0.945600  0.905900  1
  O  O1207  1  0.727500  0.445600  0.594100  1
  O  O1208  1  0.772500  0.054400  0.094100  1
  O  O1209  1  0.216000  0.358900  0.459900  1
  O  O1210  1  0.284000  0.141100  0.959900  1
  O  O1211  1  0.784000  0.641100  0.540100  1
  O  O1212  1  0.716000  0.858900  0.040100  1
  O  O1213  1  0.312100  0.376900  0.431600  1
  O  O1214  1  0.187900  0.123100  0.931600  1
  O  O1215  1  0.687900  0.623100  0.568400  1
  O  O1216  1  0.812100  0.876900  0.068400  1
  O  O1217  1  0.239000  0.428900  0.453900  1
  O  O1218  1  0.261000  0.071100  0.953900  1
  O  O1219  1  0.761000  0.571100  0.546100  1
  O  O1220  1  0.739000  0.928900  0.046100  1
  O  O1221  1  0.536600  0.560300  0.168000  1
  O  O1222  1  0.963400  0.939700  0.668000  1
  O  O1223  1  0.463400  0.439700  0.832000  1
  O  O1224  1  0.036600  0.060300  0.332000  1
  O  O1225  1  0.576100  0.496500  0.189300  1
  O  O1226  1  0.923900  0.003500  0.689300  1
  O  O1227  1  0.423900  0.503500  0.810700  1
  O  O1228  1  0.076100  0.996500  0.310700  1
  O  O1229  1  0.605500  0.556900  0.222400  1
  O  O1230  1  0.894500  0.943100  0.722400  1
  O  O1231  1  0.394500  0.443100  0.777600  1
  O  O1232  1  0.105500  0.056900  0.277600  1
  O  O1233  1  0.399900  0.587000  0.194700  1
  O  O1234  1  0.100100  0.913000  0.694700  1
  O  O1235  1  0.600100  0.413000  0.805300  1
  O  O1236  1  0.899900  0.087000  0.305300  1
  O  O1237  1  0.309100  0.559800  0.166400  1
  O  O1238  1  0.190900  0.940200  0.666400  1
  O  O1239  1  0.690900  0.440200  0.833600  1
  O  O1240  1  0.809100  0.059800  0.333600  1
  O  O1241  1  0.381400  0.593900  0.125300  1
  O  O1242  1  0.118600  0.906100  0.625300  1
  O  O1243  1  0.618600  0.406100  0.874700  1
  O  O1244  1  0.881400  0.093900  0.374700  1
  O  O1245  1  0.600400  0.327900  0.405800  1
  O  O1246  1  0.899600  0.172100  0.905800  1
  O  O1247  1  0.399600  0.672100  0.594200  1
  O  O1248  1  0.100400  0.827900  0.094200  1
  O  O1249  1  0.501300  0.355800  0.417600  1
  O  O1250  1  0.998700  0.144200  0.917600  1
  O  O1251  1  0.498700  0.644200  0.582400  1
  O  O1252  1  0.001300  0.855800  0.082400  1
  O  O1253  1  0.590700  0.390800  0.443310  1
  O  O1254  1  0.909300  0.109200  0.943310  1
  O  O1255  1  0.409300  0.609200  0.556690  1
  O  O1256  1  0.090700  0.890800  0.056690  1
  O  O1257  1  0.698200  0.365800  0.327800  1
  O  O1258  1  0.801800  0.134200  0.827800  1
  O  O1259  1  0.301800  0.634200  0.672200  1
  O  O1260  1  0.198200  0.865800  0.172200  1
  O  O1261  1  0.667100  0.360700  0.260000  1
  O  O1262  1  0.832900  0.139300  0.760000  1
  O  O1263  1  0.332900  0.639300  0.740000  1
  O  O1264  1  0.167100  0.860700  0.240000  1
  O  O1265  1  0.725000  0.306700  0.289800  1
  O  O1266  1  0.775000  0.193300  0.789800  1
  O  O1267  1  0.275000  0.693300  0.710200  1
  O  O1268  1  0.225000  0.806700  0.210200  1
  O  O1269  1  0.073400  0.438500  0.164700  1
  O  O1270  1  0.426600  0.061500  0.664700  1
  O  O1271  1  0.926600  0.561500  0.835300  1
  O  O1272  1  0.573400  0.938500  0.335300  1
  O  O1273  1  0.119800  0.462800  0.224100  1
  O  O1274  1  0.380200  0.037200  0.724100  1
  O  O1275  1  0.880200  0.537200  0.775900  1
  O  O1276  1  0.619800  0.962800  0.275900  1
  O  O1277  1  0.017600  0.435100  0.226800  1
  O  O1278  1  0.482400  0.064900  0.726800  1
  O  O1279  1  0.982400  0.564900  0.773200  1
  O  O1280  1  0.517600  0.935100  0.273200  1
  O  O1281  1  0.084300  0.336600  0.136600  1
  O  O1282  1  0.415700  0.163400  0.636600  1
  O  O1283  1  0.915700  0.663400  0.863400  1
  O  O1284  1  0.584300  0.836600  0.363400  1
  O  O1285  1  0.175700  0.304500  0.118200  1
  O  O1286  1  0.324300  0.195500  0.618200  1
  O  O1287  1  0.824300  0.695500  0.881800  1
  O  O1288  1  0.675700  0.804500  0.381800  1
  O  O1289  1  0.124700  0.345000  0.070100  1
  O  O1290  1  0.375300  0.155000  0.570100  1
  O  O1291  1  0.875300  0.655000  0.929900  1
  O  O1292  1  0.624700  0.845000  0.429900  1
  O  O1293  1  0.234900  0.155700  0.273400  1
  O  O1294  1  0.265100  0.344300  0.773400  1
  O  O1295  1  0.765100  0.844300  0.726600  1
  O  O1296  1  0.734900  0.655700  0.226600  1
  O  O1297  1  0.231500  0.209100  0.227200  1
  O  O1298  1  0.268500  0.290900  0.727200  1
  O  O1299  1  0.768500  0.790900  0.772800  1
  O  O1300  1  0.731500  0.709100  0.272800  1
  O  O1301  1  0.143500  0.186400  0.262000  1
  O  O1302  1  0.356500  0.313600  0.762000  1
  O  O1303  1  0.856500  0.813600  0.738000  1
  O  O1304  1  0.643500  0.686400  0.238000  1
  O  O1305  1  0.371200  0.218400  0.383300  1
  O  O1306  1  0.128800  0.281600  0.883300  1
  O  O1307  1  0.628800  0.781600  0.616700  1
  O  O1308  1  0.871200  0.718400  0.116700  1
  O  O1309  1  0.393200  0.147900  0.367500  1
  O  O1310  1  0.106800  0.352100  0.867500  1
  O  O1311  1  0.606800  0.852100  0.632500  1
  O  O1312  1  0.893200  0.647900  0.132500  1
  O  O1313  1  0.291500  0.170700  0.363500  1
  O  O1314  1  0.208500  0.329300  0.863500  1
  O  O1315  1  0.708500  0.829300  0.636500  1
  O  O1316  1  0.791500  0.670700  0.136500  1
  O  O1317  1  0.583500  0.313200  0.084600  1
  O  O1318  1  0.916500  0.186800  0.584600  1
  O  O1319  1  0.416500  0.686800  0.915400  1
  O  O1320  1  0.083500  0.813200  0.415400  1
  O  O1321  1  0.568000  0.380800  0.111500  1
  O  O1322  1  0.932000  0.119200  0.611500  1
  O  O1323  1  0.432000  0.619200  0.888500  1
  O  O1324  1  0.068000  0.880800  0.388500  1
  O  O1325  1  0.556600  0.368100  0.041500  1
  O  O1326  1  0.943400  0.131900  0.541500  1
  O  O1327  1  0.443400  0.631900  0.958500  1
  O  O1328  1  0.056600  0.868100  0.458500  1
  O  O1329  1  0.454700  0.248100  0.067000  1
  O  O1330  1  0.045300  0.251900  0.567000  1
  O  O1331  1  0.545300  0.751900  0.933000  1
  O  O1332  1  0.954700  0.748100  0.433000  1
  O  O1333  1  0.409200  0.209600  0.117900  1
  O  O1334  1  0.090800  0.290400  0.617900  1
  O  O1335  1  0.590800  0.790400  0.882100  1
  O  O1336  1  0.909200  0.709600  0.382100  1
  O  O1337  1  0.504400  0.187900  0.092100  1
  O  O1338  1  0.995600  0.312100  0.592100  1
  O  O1339  1  0.495600  0.812100  0.907900  1
  O  O1340  1  0.004400  0.687900  0.407900  1
  O  O1341  1  0.376000  0.050600  0.325800  1
  O  O1342  1  0.124000  0.449400  0.825800  1
  O  O1343  1  0.624000  0.949400  0.674200  1
  O  O1344  1  0.876000  0.550600  0.174200  1
  O  O1345  1  0.851000  0.525200  0.244500  1
  O  O1346  1  0.649000  0.974800  0.744500  1
  O  O1347  1  0.149000  0.474800  0.755500  1
  O  O1348  1  0.351000  0.025200  0.255500  1
  O  O1349  1  0.730000  0.445500  0.334100  1
  O  O1350  1  0.770000  0.054500  0.834100  1
  O  O1351  1  0.270000  0.554500  0.665900  1
  O  O1352  1  0.230000  0.945500  0.165900  1
  O  O1353  1  0.757900  0.716300  0.521800  1
  O  O1354  1  0.742100  0.783700  0.021800  1
  O  O1355  1  0.242100  0.283700  0.478200  1
  O  O1356  1  0.257900  0.216300  0.978200  1
  O  O1357  1  0.706900  0.760200  0.452000  1
  O  O1358  1  0.793100  0.739800  0.952000  1
  O  O1359  1  0.293100  0.239800  0.548000  1
  O  O1360  1  0.206900  0.260200  0.048000  1
  O  O1361  1  0.840600  0.760700  0.466800  1
  O  O1362  1  0.659400  0.739300  0.966800  1
  O  O1363  1  0.159400  0.239300  0.533200  1
  O  O1364  1  0.340600  0.260700  0.033200  1
  O  O1365  1  0.792800  0.713900  0.397000  1
  O  O1366  1  0.707200  0.786100  0.897000  1
  O  O1367  1  0.207200  0.286100  0.603000  1
  O  O1368  1  0.292800  0.213900  0.103000  1
  O  O1369  1  0.839800  0.667700  0.469300  1
  O  O1370  1  0.660200  0.832300  0.969300  1
  O  O1371  1  0.160200  0.332300  0.530700  1
  O  O1372  1  0.339800  0.167700  0.030700  1
  O  O1373  1  0.710600  0.667500  0.450400  1
  O  O1374  1  0.789400  0.832500  0.950400  1
  O  O1375  1  0.289400  0.332500  0.549600  1
  O  O1376  1  0.210600  0.167500  0.049600  1
  O  O1377  1  0.420500  0.399300  0.471430  1
  O  O1378  1  0.079500  0.100700  0.971430  1
  O  O1379  1  0.579500  0.600700  0.528570  1
  O  O1380  1  0.920500  0.899300  0.028570  1
  O  O1381  1  0.135200  0.502100  0.121700  1
  O  O1382  1  0.364800  0.997900  0.621700  1
  O  O1383  1  0.864800  0.497900  0.878300  1
  O  O1384  1  0.635200  0.002100  0.378300  1
  O  O1385  1  0.418800  0.525200  0.898300  1
  O  O1386  1  0.081200  0.974800  0.398300  1
  O  O1387  1  0.581200  0.474800  0.101700  1
  O  O1388  1  0.918800  0.025200  0.601700  1
  O  O1389  1  0.692800  0.076100  0.360400  1
  O  O1390  1  0.807200  0.423900  0.860400  1
  O  O1391  1  0.307200  0.923900  0.639600  1
  O  O1392  1  0.192800  0.576100  0.139600  1
  O  O1393  1  0.323500  0.654700  0.086000  1
  O  O1394  1  0.176500  0.845300  0.586000  1
  O  O1395  1  0.676500  0.345300  0.914000  1
  O  O1396  1  0.823500  0.154700  0.414000  1
  O  O1397  1  0.924600  0.132000  0.236400  1
  O  O1398  1  0.575400  0.368000  0.736400  1
  O  O1399  1  0.075400  0.868000  0.763600  1
  O  O1400  1  0.424600  0.632000  0.263600  1
  O  O1401  1  0.198200  0.638700  0.086400  1
  O  O1402  1  0.301800  0.861300  0.586400  1
  O  O1403  1  0.801800  0.361300  0.913600  1
  O  O1404  1  0.698200  0.138700  0.413600  1
  O  O1405  1  0.296200  0.494900  0.889900  1
  O  O1406  1  0.203800  0.005100  0.389900  1
  O  O1407  1  0.703800  0.505100  0.110100  1
  O  O1408  1  0.796200  0.994900  0.610100  1
  O  O1409  1  0.378300  0.368200  0.835600  1
  O  O1410  1  0.121700  0.131800  0.335600  1
  O  O1411  1  0.621700  0.631800  0.164400  1
  O  O1412  1  0.878300  0.868200  0.664400  1
  O  O1413  1  0.561300  0.633700  0.268300  1
  O  O1414  1  0.938700  0.866300  0.768300  1
  O  O1415  1  0.438700  0.366300  0.731700  1
  O  O1416  1  0.061300  0.133700  0.231700  1
  O  O1417  1  0.879200  0.804200  0.529300  1
  O  O1418  1  0.620800  0.695800  0.029300  1
  O  O1419  1  0.120800  0.195800  0.470700  1
  O  O1420  1  0.379200  0.304200  0.970700  1
  O  O1421  1  0.828300  0.821900  0.601000  1
  O  O1422  1  0.671700  0.678100  0.101000  1
  O  O1423  1  0.171700  0.178100  0.399000  1
  O  O1424  1  0.328300  0.321900  0.899000  1
  O  O1425  1  0.602100  0.658800  0.467900  1
  O  O1426  1  0.897900  0.841200  0.967900  1
  O  O1427  1  0.397900  0.341200  0.532100  1
  O  O1428  1  0.102100  0.158800  0.032100  1
  O  O1429  1  0.388300  0.311000  0.404500  1
  O  O1430  1  0.111700  0.189000  0.904500  1
  O  O1431  1  0.611700  0.689000  0.595500  1
  O  O1432  1  0.888300  0.811000  0.095500  1
  O  O1433  1  0.086400  0.488600  0.356500  1
  O  O1434  1  0.413600  0.011400  0.856500  1
  O  O1435  1  0.913600  0.511400  0.643500  1
  O  O1436  1  0.586400  0.988600  0.143500  1
  O  O1437  1  0.756400  0.594700  0.419100  1
  O  O1438  1  0.743600  0.905300  0.919100  1
  O  O1439  1  0.243600  0.405300  0.580900  1
  O  O1440  1  0.256400  0.094700  0.080900  1
  O  O1441  1  0.670300  0.760300  0.559500  1
  O  O1442  1  0.829700  0.739700  0.059500  1
  O  O1443  1  0.329700  0.239700  0.440500  1
  O  O1444  1  0.170300  0.260300  0.940500  1
  O  O1445  1  0.030900  0.277200  0.178900  1
  O  O1446  1  0.469100  0.222800  0.678900  1
  O  O1447  1  0.969100  0.722800  0.821100  1
  O  O1448  1  0.530900  0.777200  0.321100  1
  O  O1449  1  0.561900  0.248100  0.426300  1
  O  O1450  1  0.938100  0.251900  0.926300  1
  O  O1451  1  0.438100  0.751900  0.573700  1
  O  O1452  1  0.061900  0.748100  0.073700  1
  O  O1453  1  0.283300  0.415400  0.874500  1
  O  O1454  1  0.216700  0.084600  0.374500  1
  O  O1455  1  0.716700  0.584600  0.125500  1
  O  O1456  1  0.783300  0.915400  0.625500  1
  O  O1457  1  0.703500  0.735700  0.340100  1
  O  O1458  1  0.796500  0.764300  0.840100  1
  O  O1459  1  0.296500  0.264300  0.659900  1
  O  O1460  1  0.203500  0.235700  0.159900  1
  O  O1461  1  0.652600  0.209100  0.386100  1
  O  O1462  1  0.847400  0.290900  0.886100  1
  O  O1463  1  0.347400  0.790900  0.613900  1
  O  O1464  1  0.152600  0.709100  0.113900  1
  O  O1465  1  0.990600  0.377000  0.969900  1
  O  O1466  1  0.509400  0.123000  0.469900  1
  O  O1467  1  0.009400  0.623000  0.030100  1
  O  O1468  1  0.490600  0.877000  0.530100  1
  O  O1469  1  0.012800  0.457800  0.945200  1
  O  O1470  1  0.487200  0.042200  0.445200  1
  O  O1471  1  0.987200  0.542200  0.054800  1
  O  O1472  1  0.512800  0.957800  0.554800  1
  O  O1473  1  0.056800  0.411800  0.038100  1
  O  O1474  1  0.443200  0.088200  0.538100  1
  O  O1475  1  0.943200  0.588200  0.961900  1
  O  O1476  1  0.556800  0.911800  0.461900  1
  O  O1477  1  0.413200  0.124800  0.083900  1
  O  O1478  1  0.086800  0.375200  0.583900  1
  O  O1479  1  0.586800  0.875200  0.916100  1
  O  O1480  1  0.913200  0.624800  0.416100  1
  O  O1481  1  0.445900  0.057200  0.056500  1
  O  O1482  1  0.054100  0.442800  0.556500  1
  O  O1483  1  0.554100  0.942800  0.943500  1
  O  O1484  1  0.945900  0.557200  0.443500  1
  O  O1485  1  0.554000  0.062000  0.032100  1
  O  O1486  1  0.946000  0.438000  0.532100  1
  O  O1487  1  0.446000  0.938000  0.967900  1
  O  O1488  1  0.054000  0.562000  0.467900  1
  O  O1489  1  0.898500  0.199400  0.196300  1
  O  O1490  1  0.601500  0.300600  0.696300  1
  O  O1491  1  0.101500  0.800600  0.803700  1
  O  O1492  1  0.398500  0.699400  0.303700  1
  O  O1493  1  0.464100  0.200700  0.444100  1
  O  O1494  1  0.035900  0.299300  0.944100  1
  O  O1495  1  0.535900  0.799300  0.555900  1
  O  O1496  1  0.964100  0.700700  0.055900  1
  O  O1497  1  0.829400  0.555600  0.475900  1
  O  O1498  1  0.670600  0.944400  0.975900  1
  O  O1499  1  0.170600  0.444400  0.524100  1
  O  O1500  1  0.329400  0.055600  0.024100  1
  O  O1501  1  0.916600  0.574400  0.238600  1
  O  O1502  1  0.583400  0.925600  0.738600  1
  O  O1503  1  0.083400  0.425600  0.761400  1
  O  O1504  1  0.416600  0.074400  0.261400  1
  O  O1505  1  0.802700  0.591400  0.250500  1
  O  O1506  1  0.697300  0.908600  0.750500  1
  O  O1507  1  0.197300  0.408600  0.749500  1
  O  O1508  1  0.302700  0.091400  0.249500  1
  O  O1509  1  0.197600  0.533300  0.922700  1
  O  O1510  1  0.302400  0.966700  0.422700  1
  O  O1511  1  0.802400  0.466700  0.077300  1
  O  O1512  1  0.697600  0.033300  0.577300  1
  O  O1513  1  0.014000  0.569000  0.894300  1
  O  O1514  1  0.486000  0.931000  0.394300  1
  O  O1515  1  0.986000  0.431000  0.105700  1
  O  O1516  1  0.514000  0.069000  0.605700  1
  O  O1517  1  0.137200  0.620100  0.018100  1
  O  O1518  1  0.362800  0.879900  0.518100  1
  O  O1519  1  0.862800  0.379900  0.981900  1
  O  O1520  1  0.637200  0.120100  0.481900  1
  O  O1521  1  0.289700  0.610700  0.319300  1
  O  O1522  1  0.210300  0.889300  0.819300  1
  O  O1523  1  0.710300  0.389300  0.680700  1
  O  O1524  1  0.789700  0.110700  0.180700  1
  O  O1525  1  0.150800  0.539500  0.987300  1
  O  O1526  1  0.349200  0.960500  0.487300  1
  O  O1527  1  0.849200  0.460500  0.012700  1
  O  O1528  1  0.650800  0.039500  0.512700  1
  O  O1529  1  0.998700  0.219400  0.480100  1
  O  O1530  1  0.501300  0.280600  0.980100  1
  O  O1531  1  0.001300  0.780600  0.519900  1
  O  O1532  1  0.498700  0.719400  0.019900  1
  O  O1533  1  0.916500  0.161800  0.472800  1
  O  O1534  1  0.583500  0.338200  0.972800  1
  O  O1535  1  0.083500  0.838200  0.527200  1
  O  O1536  1  0.416500  0.661800  0.027200  1
  O  O1537  1  0.083800  0.499400  0.897700  1
  O  O1538  1  0.416200  0.000600  0.397700  1
  O  O1539  1  0.916200  0.500600  0.102300  1
  O  O1540  1  0.583800  0.999400  0.602300  1
  O  O1541  1  0.343500  0.097700  0.145200  1
  O  O1542  1  0.156500  0.402300  0.645200  1
  O  O1543  1  0.656500  0.902300  0.854800  1
  O  O1544  1  0.843500  0.597700  0.354800  1
  O  O1545  1  0.832400  0.636500  0.293000  1
  O  O1546  1  0.667600  0.863500  0.793000  1
  O  O1547  1  0.167600  0.363500  0.707000  1
  O  O1548  1  0.332400  0.136500  0.207000  1
  O  O1549  1  0.885500  0.227700  0.447800  1
  O  O1550  1  0.614500  0.272300  0.947800  1
  O  O1551  1  0.114500  0.772300  0.552200  1
  O  O1552  1  0.385500  0.727700  0.052200  1
  O  O1553  1  0.261500  0.577500  0.254200  1
  O  O1554  1  0.238500  0.922500  0.754200  1
  O  O1555  1  0.738500  0.422500  0.745800  1
  O  O1556  1  0.761500  0.077500  0.245800  1
  O  O1557  1  0.495800  0.706200  0.361300  1
  O  O1558  1  0.004200  0.793800  0.861300  1
  O  O1559  1  0.504200  0.293800  0.638700  1
  O  O1560  1  0.995800  0.206200  0.138700  1
  O  O1561  1  0.740100  0.261100  0.367100  1
  O  O1562  1  0.759900  0.238900  0.867100  1
  O  O1563  1  0.259900  0.738900  0.632900  1
  O  O1564  1  0.240100  0.761100  0.132900  1
  O  O1565  1  0.848700  0.233000  0.375900  1
  O  O1566  1  0.651300  0.267000  0.875900  1
  O  O1567  1  0.151300  0.767000  0.624100  1
  O  O1568  1  0.348700  0.733000  0.124100  1
  O  O1569  1  0.547000  0.012500  0.217100  1
  O  O1570  1  0.953000  0.487500  0.717100  1
  O  O1571  1  0.453000  0.987500  0.782900  1
  O  O1572  1  0.047000  0.512500  0.282900  1
  O  O1573  1  0.678000  0.296600  0.138400  1
  O  O1574  1  0.822000  0.203400  0.638400  1
  O  O1575  1  0.322000  0.703400  0.861600  1
  O  O1576  1  0.178000  0.796600  0.361600  1
  O  O1577  1  0.805100  0.480000  0.503900  1
  O  O1578  1  0.694900  0.020000  0.003900  1
  O  O1579  1  0.194900  0.520000  0.496100  1
  O  O1580  1  0.305100  0.980000  0.996100  1
  O  O1581  1  0.244300  0.621000  0.449600  1
  O  O1582  1  0.255700  0.879000  0.949600  1
  O  O1583  1  0.755700  0.379000  0.550400  1
  O  O1584  1  0.744300  0.121000  0.050400  1
  O  O1585  1  0.593600  0.776000  0.485400  1
  O  O1586  1  0.906400  0.724000  0.985400  1
  O  O1587  1  0.406400  0.224000  0.514600  1
  O  O1588  1  0.093600  0.276000  0.014600  1
  O  O1589  1  0.759300  0.348100  0.400300  1
  O  O1590  1  0.740700  0.151900  0.900300  1
  O  O1591  1  0.240700  0.651900  0.599700  1
  O  O1592  1  0.259300  0.848100  0.099700  1
  O  O1593  1  0.108100  0.489800  0.040900  1
  O  O1594  1  0.391900  0.010200  0.540900  1
  O  O1595  1  0.891900  0.510200  0.959100  1
  O  O1596  1  0.608100  0.989800  0.459100  1
  O  O1597  1  0.590500  0.395900  0.195700  1
  O  O1598  1  0.909500  0.104100  0.695700  1
  O  O1599  1  0.409500  0.604100  0.804300  1
  O  O1600  1  0.090500  0.895900  0.304300  1
  O  O1601  1  0.536000  0.700000  0.417000  1
  O  O1602  1  0.964000  0.800000  0.917000  1
  O  O1603  1  0.464000  0.300000  0.583000  1
  O  O1604  1  0.036000  0.200000  0.083000  1
  O  O1605  1  0.803900  0.312900  0.221400  1
  O  O1606  1  0.696100  0.187100  0.721400  1
  O  O1607  1  0.196100  0.687100  0.778600  1
  O  O1608  1  0.303900  0.812900  0.278600  1
  O  O1609  1  0.746000  0.340300  0.153700  1
  O  O1610  1  0.754000  0.159700  0.653700  1
  O  O1611  1  0.254000  0.659700  0.846300  1
  O  O1612  1  0.246000  0.840300  0.346300  1
  O  O1613  1  0.621700  0.719500  0.477200  1
  O  O1614  1  0.878300  0.780500  0.977200  1
  O  O1615  1  0.378300  0.280500  0.522800  1
  O  O1616  1  0.121700  0.219500  0.022800  1
  O  O1617  1  0.877200  0.404600  0.413700  1
  O  O1618  1  0.622800  0.095400  0.913700  1
  O  O1619  1  0.122800  0.595400  0.586300  1
  O  O1620  1  0.377200  0.904600  0.086300  1
  O  O1621  1  0.022400  0.500000  0.422900  1
  O  O1622  1  0.477600  0.000000  0.922900  1
  O  O1623  1  0.977600  0.500000  0.577100  1
  O  O1624  1  0.522400  0.000000  0.077100  1
  O  O1625  1  0.246500  0.512000  0.231100  1
  O  O1626  1  0.253500  0.988000  0.731100  1
  O  O1627  1  0.753500  0.488000  0.768900  1
  O  O1628  1  0.746500  0.012000  0.268900  1
  O  O1629  1  0.678300  0.214600  0.128900  1
  O  O1630  1  0.821700  0.285400  0.628900  1
  O  O1631  1  0.321700  0.785400  0.871100  1
  O  O1632  1  0.178300  0.714600  0.371100  1
  O  O1633  1  0.891000  0.516500  0.322900  1
  O  O1634  1  0.609000  0.983500  0.822900  1
  O  O1635  1  0.109000  0.483500  0.677100  1
  O  O1636  1  0.391000  0.016500  0.177100  1
  O  O1637  1  0.929000  0.304500  0.220100  1
  O  O1638  1  0.571000  0.195500  0.720100  1
  O  O1639  1  0.071000  0.695500  0.779900  1
  O  O1640  1  0.429000  0.804500  0.279900  1
  O  O1641  1  0.286300  0.673300  0.339700  1
  O  O1642  1  0.213700  0.826700  0.839700  1
  O  O1643  1  0.713700  0.326700  0.660300  1
  O  O1644  1  0.786300  0.173300  0.160300  1
  O  O1645  1  0.845200  0.356600  0.434200  1
  O  O1646  1  0.654800  0.143400  0.934200  1
  O  O1647  1  0.154800  0.643400  0.565800  1
  O  O1648  1  0.345200  0.856600  0.065800  1
  O  O1649  1  0.980200  0.155000  0.189500  1
  O  O1650  1  0.519800  0.345000  0.689500  1
  O  O1651  1  0.019800  0.845000  0.810500  1
  O  O1652  1  0.480200  0.655000  0.310500  1
  O  O1653  1  0.612900  0.193100  0.063200  1
  O  O1654  1  0.887100  0.306900  0.563200  1
  O  O1655  1  0.387100  0.806900  0.936800  1
  O  O1656  1  0.112900  0.693100  0.436800  1
  O  O1657  1  0.290900  0.606300  0.531800  1
  O  O1658  1  0.209100  0.893700  0.031800  1
  O  O1659  1  0.709100  0.393700  0.468200  1
  O  O1660  1  0.790900  0.106300  0.968200  1
  O  O1661  1  0.908600  0.483600  0.394000  1
  O  O1662  1  0.591400  0.016400  0.894000  1
  O  O1663  1  0.091400  0.516400  0.606000  1
  O  O1664  1  0.408600  0.983600  0.106000  1
  O  O1665  1  0.122700  0.590400  0.495600  1
  O  O1666  1  0.377300  0.909600  0.995600  1
  O  O1667  1  0.877300  0.409600  0.504400  1
  O  O1668  1  0.622700  0.090400  0.004400  1
  O  O1669  1  0.588900  0.269800  0.505000  1
  O  O1670  1  0.911100  0.230200  0.005000  1
  O  O1671  1  0.411100  0.730200  0.495000  1
  O  O1672  1  0.088900  0.769800  0.995000  1
  O  O1673  1  0.908200  0.460000  0.205700  1
  O  O1674  1  0.591800  0.040000  0.705700  1
  O  O1675  1  0.091800  0.540000  0.794300  1
  O  O1676  1  0.408200  0.960000  0.294300  1
  O  O1677  1  0.627000  0.257500  0.020000  1
  O  O1678  1  0.873000  0.242500  0.520000  1
  O  O1679  1  0.373000  0.742500  0.980000  1
  O  O1680  1  0.127000  0.757500  0.480000  1
  O  O1681  1  0.727000  0.456400  0.410900  1
  O  O1682  1  0.773000  0.043600  0.910900  1
  O  O1683  1  0.273000  0.543600  0.589100  1
  O  O1684  1  0.227000  0.956400  0.089100  1
  O  O1685  1  0.965000  0.321600  0.164000  1
  O  O1686  1  0.535000  0.178400  0.664000  1
  O  O1687  1  0.035000  0.678400  0.836000  1
  O  O1688  1  0.465000  0.821600  0.336000  1
  O  O1689  1  0.085000  0.435600  0.474800  1
  O  O1690  1  0.415000  0.064400  0.974800  1
  O  O1691  1  0.915000  0.564400  0.525200  1
  O  O1692  1  0.585000  0.935600  0.025200  1
  O  O1693  1  0.356000  0.730200  0.374200  1
  O  O1694  1  0.144000  0.769800  0.874200  1
  O  O1695  1  0.644000  0.269800  0.625800  1
  O  O1696  1  0.856000  0.230200  0.125800  1
  O  O1697  1  0.781000  0.386100  0.092400  1
  O  O1698  1  0.719000  0.113900  0.592400  1
  O  O1699  1  0.219000  0.613900  0.907600  1
  O  O1700  1  0.281000  0.886100  0.407600  1
  O  O1701  1  0.294300  0.420800  0.453100  1
  O  O1702  1  0.205700  0.079200  0.953100  1
  O  O1703  1  0.705700  0.579200  0.546900  1
  O  O1704  1  0.794300  0.920800  0.046900  1
  O  O1705  1  0.283100  0.351000  0.435000  1
  O  O1706  1  0.216900  0.149000  0.935000  1
  O  O1707  1  0.716900  0.649000  0.565000  1
  O  O1708  1  0.783100  0.851000  0.065000  1
  O  O1709  1  0.199700  0.385900  0.468200  1
  O  O1710  1  0.300300  0.114100  0.968200  1
  O  O1711  1  0.800300  0.614100  0.531800  1
  O  O1712  1  0.699700  0.885900  0.031800  1
  O  O1713  1  0.328600  0.123600  0.346600  1
  O  O1714  1  0.171400  0.376400  0.846600  1
  O  O1715  1  0.671400  0.876400  0.653400  1
  O  O1716  1  0.828600  0.623600  0.153400  1
  O  O1717  1  0.297700  0.187300  0.375100  1
  O  O1718  1  0.202300  0.312700  0.875100  1
  O  O1719  1  0.702300  0.812700  0.624900  1
  O  O1720  1  0.797700  0.687300  0.124900  1
  O  O1721  1  0.401100  0.167200  0.379500  1
  O  O1722  1  0.098900  0.332800  0.879500  1
  O  O1723  1  0.598900  0.832800  0.620500  1
  O  O1724  1  0.901100  0.667200  0.120500  1
  O  O1725  1  0.721300  0.527400  0.244500  1
  O  O1726  1  0.778700  0.972600  0.744500  1
  O  O1727  1  0.278700  0.472600  0.755500  1
  O  O1728  1  0.221300  0.027400  0.255500  1
  O  O1729  1  0.780500  0.483700  0.177900  1
  O  O1730  1  0.719500  0.016300  0.677900  1
  O  O1731  1  0.219500  0.516300  0.822100  1
  O  O1732  1  0.280500  0.983700  0.322100  1
  O  O1733  1  0.835600  0.478700  0.261700  1
  O  O1734  1  0.664400  0.021300  0.761700  1
  O  O1735  1  0.164400  0.521300  0.738300  1
  O  O1736  1  0.335600  0.978700  0.238300  1
  O  O1737  1  0.778200  0.405700  0.225700  1
  O  O1738  1  0.721800  0.094300  0.725700  1
  O  O1739  1  0.221800  0.594300  0.774300  1
  O  O1740  1  0.278200  0.905700  0.274300  1
  O  O1741  1  0.720200  0.449000  0.293500  1
  O  O1742  1  0.779800  0.051000  0.793500  1
  O  O1743  1  0.279800  0.551000  0.706500  1
  O  O1744  1  0.220200  0.949000  0.206500  1
  O  O1745  1  0.663000  0.453300  0.211300  1
  O  O1746  1  0.837000  0.046700  0.711300  1
  O  O1747  1  0.337000  0.546700  0.788700  1
  O  O1748  1  0.163000  0.953300  0.288700  1
  O  O1749  1  0.217400  0.499600  0.258900  1
  O  O1750  1  0.282600  0.000400  0.758900  1
  O  O1751  1  0.782600  0.500400  0.741100  1
  O  O1752  1  0.717400  0.999600  0.241100  1
  O  O1753  1  0.912500  0.273400  0.227600  1
  O  O1754  1  0.587500  0.226600  0.727600  1
  O  O1755  1  0.087500  0.726600  0.772400  1
  O  O1756  1  0.412500  0.773400  0.272400  1
  O  O1757  1  0.272000  0.672900  0.367300  1
  O  O1758  1  0.228000  0.827100  0.867300  1
  O  O1759  1  0.728000  0.327100  0.632700  1
  O  O1760  1  0.772000  0.172900  0.132700  1
  O  O1761  1  0.299700  0.641300  0.524700  1
  O  O1762  1  0.200300  0.858700  0.024700  1
  O  O1763  1  0.700300  0.358700  0.475300  1
  O  O1764  1  0.799700  0.141300  0.975300  1
  O  O1765  1  0.145000  0.627300  0.480200  1
  O  O1766  1  0.355000  0.872700  0.980200  1
  O  O1767  1  0.855000  0.372700  0.519800  1
  O  O1768  1  0.645000  0.127300  0.019800  1
  O  O1769  1  0.745000  0.480200  0.379500  1
  O  O1770  1  0.755000  0.019800  0.879500  1
  O  O1771  1  0.255000  0.519800  0.620500  1
  O  O1772  1  0.245000  0.980200  0.120500  1
  O  O1773  1  0.050000  0.435500  0.444700  1
  O  O1774  1  0.450000  0.064500  0.944700  1
  O  O1775  1  0.950000  0.564500  0.555300  1
  O  O1776  1  0.550000  0.935500  0.055300  1
  O  O1777  1  0.992100  0.182300  0.467500  1
  O  O1778  1  0.507900  0.317700  0.967500  1
  O  O1779  1  0.007900  0.817700  0.532500  1
  O  O1780  1  0.492100  0.682300  0.032500  1
  O  O1781  1  0.725000  0.714200  0.462200  1
  O  O1782  1  0.775000  0.785800  0.962200  1
  O  O1783  1  0.275000  0.285800  0.537800  1
  O  O1784  1  0.225000  0.214200  0.037800  1
  O  O1785  1  0.765600  0.759700  0.332800  1
  O  O1786  1  0.734400  0.740300  0.832800  1
  O  O1787  1  0.234400  0.240300  0.667200  1
  O  O1788  1  0.265600  0.259700  0.167200  1
  O  O1789  1  0.520400  0.717700  0.449700  1
  O  O1790  1  0.979600  0.782300  0.949700  1
  O  O1791  1  0.479600  0.282300  0.550300  1
  O  O1792  1  0.020400  0.217700  0.050300  1
  O  O1793  1  0.471000  0.174300  0.444200  1
  O  O1794  1  0.029000  0.325700  0.944200  1
  O  O1795  1  0.529000  0.825700  0.555800  1
  O  O1796  1  0.971000  0.674300  0.055800  1
  O  O1797  1  0.363000  0.075100  0.346900  1
  O  O1798  1  0.137000  0.424900  0.846900  1
  O  O1799  1  0.637000  0.924900  0.653100  1
  O  O1800  1  0.863000  0.575100  0.153100  1
  O  O1801  1  0.383000  0.044500  0.345400  1
  O  O1802  1  0.117000  0.455500  0.845400  1
  O  O1803  1  0.617000  0.955500  0.654600  1
  O  O1804  1  0.883000  0.544500  0.154600  1
  O  O1805  1  0.435000  0.104000  0.067000  1
  O  O1806  1  0.065000  0.396000  0.567000  1
  O  O1807  1  0.565000  0.896000  0.933000  1
  O  O1808  1  0.935000  0.604000  0.433000  1
  O  O1809  1  0.498000  0.073700  0.042700  1
  O  O1810  1  0.002000  0.426300  0.542700  1
  O  O1811  1  0.502000  0.926300  0.957300  1
  O  O1812  1  0.998000  0.573700  0.457300  1
  O  O1813  1  0.090900  0.247700  0.182500  1
  O  O1814  1  0.409100  0.252300  0.682500  1
  O  O1815  1  0.909100  0.752300  0.817500  1
  O  O1816  1  0.590900  0.747700  0.317500  1
  O  O1817  1  0.740000  0.328700  0.200400  1
  O  O1818  1  0.760000  0.171300  0.700400  1
  O  O1819  1  0.260000  0.671300  0.799600  1
  O  O1820  1  0.240000  0.828700  0.299600  1
  O  O1821  1  0.799000  0.250500  0.365800  1
  O  O1822  1  0.701000  0.249500  0.865800  1
  O  O1823  1  0.201000  0.749500  0.634200  1
  O  O1824  1  0.299000  0.750500  0.134200  1
  O  O1825  1  0.837300  0.279800  0.393100  1
  O  O1826  1  0.662700  0.220200  0.893100  1
  O  O1827  1  0.162700  0.720200  0.606900  1
  O  O1828  1  0.337300  0.779800  0.106900  1
  O  O1829  1  0.010000  0.424000  0.958000  1
  O  O1830  1  0.490000  0.076000  0.458000  1
  O  O1831  1  0.990000  0.576000  0.042000  1
  O  O1832  1  0.510000  0.924000  0.542000  1
