# generated using pymatgen
data_FeH16C27S4N4O39
_symmetry_space_group_name_H-M   'P 1'
_cell_length_a   25.33167617
_cell_length_b   25.33167617
_cell_length_c   25.33167617
_cell_angle_alpha   60.00000000
_cell_angle_beta   60.00000000
_cell_angle_gamma   60.00000000
_symmetry_Int_Tables_number   1
_chemical_formula_structural   FeH16C27S4N4O39
_chemical_formula_sum   'Fe12 H192 C324 S48 N48 O468'
_cell_volume   11494.14800105
_cell_formula_units_Z   12
loop_
 _symmetry_equiv_pos_site_id
 _symmetry_equiv_pos_as_xyz
  1  'x, y, z'
loop_
 _atom_site_type_symbol
 _atom_site_label
 _atom_site_symmetry_multiplicity
 _atom_site_fract_x
 _atom_site_fract_y
 _atom_site_fract_z
 _atom_site_occupancy
  C  C1  1  0.865800  0.883000  0.810600  1
  C  C2  1  0.940600  0.810600  0.883000  1
  C  C3  1  0.883000  0.865800  0.940600  1
  C  C4  1  0.810600  0.940600  0.865800  1
  C  C5  1  0.810600  0.865800  0.883000  1
  C  C6  1  0.940600  0.883000  0.865800  1
  C  C7  1  0.865800  0.810600  0.940600  1
  C  C8  1  0.883000  0.940600  0.810600  1
  C  C9  1  0.883000  0.810600  0.865800  1
  C  C10  1  0.865800  0.940600  0.883000  1
  C  C11  1  0.940600  0.865800  0.810600  1
  C  C12  1  0.810600  0.883000  0.940600  1
  C  C13  1  0.134200  0.117000  0.189400  1
  C  C14  1  0.059400  0.189400  0.117000  1
  C  C15  1  0.117000  0.134200  0.059400  1
  C  C16  1  0.189400  0.059400  0.134200  1
  C  C17  1  0.189400  0.134200  0.117000  1
  C  C18  1  0.059400  0.117000  0.134200  1
  C  C19  1  0.134200  0.189400  0.059400  1
  C  C20  1  0.117000  0.059400  0.189400  1
  C  C21  1  0.117000  0.189400  0.134200  1
  C  C22  1  0.134200  0.059400  0.117000  1
  C  C23  1  0.059400  0.134200  0.189400  1
  C  C24  1  0.189400  0.117000  0.059400  1
  C  C25  1  0.857000  0.893000  0.857000  1
  C  C26  1  0.893000  0.857000  0.893000  1
  C  C27  1  0.857000  0.857000  0.893000  1
  C  C28  1  0.893000  0.893000  0.857000  1
  C  C29  1  0.893000  0.857000  0.857000  1
  C  C30  1  0.857000  0.893000  0.893000  1
  C  C31  1  0.143000  0.107000  0.143000  1
  C  C32  1  0.107000  0.143000  0.107000  1
  C  C33  1  0.143000  0.143000  0.107000  1
  C  C34  1  0.107000  0.107000  0.143000  1
  C  C35  1  0.107000  0.143000  0.143000  1
  C  C36  1  0.143000  0.107000  0.107000  1
  C  C37  1  0.809200  0.675200  0.657800  1.0
  C  C38  1  0.357800  0.657800  0.675200  1.0
  C  C39  1  0.675200  0.809200  0.357800  1.0
  C  C40  1  0.657800  0.357800  0.809200  1.0
  C  C41  1  0.657800  0.809200  0.675200  1.0
  C  C42  1  0.357800  0.675200  0.809200  1.0
  C  C43  1  0.809200  0.657800  0.357800  1.0
  C  C44  1  0.675200  0.357800  0.657800  1.0
  C  C45  1  0.675200  0.657800  0.809200  1.0
  C  C46  1  0.809200  0.357800  0.675200  1.0
  C  C47  1  0.357800  0.809200  0.657800  1.0
  C  C48  1  0.657800  0.675200  0.357800  1.0
  C  C49  1  0.190800  0.324800  0.342200  1.0
  C  C50  1  0.642200  0.342200  0.324800  1.0
  C  C51  1  0.324800  0.190800  0.642200  1.0
  C  C52  1  0.342200  0.642200  0.190800  1.0
  C  C53  1  0.342200  0.190800  0.324800  1.0
  C  C54  1  0.642200  0.324800  0.190800  1.0
  C  C55  1  0.190800  0.342200  0.642200  1.0
  C  C56  1  0.324800  0.642200  0.342200  1.0
  C  C57  1  0.324800  0.342200  0.190800  1.0
  C  C58  1  0.190800  0.642200  0.324800  1.0
  C  C59  1  0.642200  0.190800  0.342200  1.0
  C  C60  1  0.342200  0.324800  0.642200  1.0
  C  C61  1  0.845900  0.667900  0.596100  1.0
  C  C62  1  0.390100  0.596100  0.667900  1.0
  C  C63  1  0.667900  0.845900  0.390100  1.0
  C  C64  1  0.596100  0.390100  0.845900  1.0
  C  C65  1  0.596100  0.845900  0.667900  1.0
  C  C66  1  0.390100  0.667900  0.845900  1.0
  C  C67  1  0.845900  0.596100  0.390100  1.0
  C  C68  1  0.667900  0.390100  0.596100  1.0
  C  C69  1  0.667900  0.596100  0.845900  1.0
  C  C70  1  0.845900  0.390100  0.667900  1.0
  C  C71  1  0.390100  0.845900  0.596100  1.0
  C  C72  1  0.596100  0.667900  0.390100  1.0
  C  C73  1  0.154100  0.332100  0.403900  1.0
  C  C74  1  0.609900  0.403900  0.332100  1.0
  C  C75  1  0.332100  0.154100  0.609900  1.0
  C  C76  1  0.403900  0.609900  0.154100  1.0
  C  C77  1  0.403900  0.154100  0.332100  1.0
  C  C78  1  0.609900  0.332100  0.154100  1.0
  C  C79  1  0.154100  0.403900  0.609900  1.0
  C  C80  1  0.332100  0.609900  0.403900  1.0
  C  C81  1  0.332100  0.403900  0.154100  1.0
  C  C82  1  0.154100  0.609900  0.332100  1.0
  C  C83  1  0.609900  0.154100  0.403900  1.0
  C  C84  1  0.403900  0.332100  0.609900  1.0
  C  C85  1  0.872800  0.714400  0.545000  1.0
  C  C86  1  0.367800  0.545000  0.714400  1.0
  C  C87  1  0.714400  0.872800  0.367800  1.0
  C  C88  1  0.545000  0.367800  0.872800  1.0
  C  C89  1  0.545000  0.872800  0.714400  1.0
  C  C90  1  0.367800  0.714400  0.872800  1.0
  C  C91  1  0.872800  0.545000  0.367800  1.0
  C  C92  1  0.714400  0.367800  0.545000  1.0
  C  C93  1  0.714400  0.545000  0.872800  1.0
  C  C94  1  0.872800  0.367800  0.714400  1.0
  C  C95  1  0.367800  0.872800  0.545000  1.0
  C  C96  1  0.545000  0.714400  0.367800  1.0
  C  C97  1  0.127200  0.285600  0.455000  1.0
  C  C98  1  0.632200  0.455000  0.285600  1.0
  C  C99  1  0.285600  0.127200  0.632200  1.0
  C  C100  1  0.455000  0.632200  0.127200  1.0
  C  C101  1  0.455000  0.127200  0.285600  1.0
  C  C102  1  0.632200  0.285600  0.127200  1.0
  C  C103  1  0.127200  0.455000  0.632200  1.0
  C  C104  1  0.285600  0.632200  0.455000  1.0
  C  C105  1  0.285600  0.455000  0.127200  1.0
  C  C106  1  0.127200  0.632200  0.285600  1.0
  C  C107  1  0.632200  0.127200  0.455000  1.0
  C  C108  1  0.455000  0.285600  0.632200  1.0
  C  C109  1  0.862300  0.767900  0.555100  1.0
  C  C110  1  0.314700  0.555100  0.767900  1.0
  C  C111  1  0.767900  0.862300  0.314700  1.0
  C  C112  1  0.555100  0.314700  0.862300  1.0
  C  C113  1  0.555100  0.862300  0.767900  1.0
  C  C114  1  0.314700  0.767900  0.862300  1.0
  C  C115  1  0.862300  0.555100  0.314700  1.0
  C  C116  1  0.767900  0.314700  0.555100  1.0
  C  C117  1  0.767900  0.555100  0.862300  1.0
  C  C118  1  0.862300  0.314700  0.767900  1.0
  C  C119  1  0.314700  0.862300  0.555100  1.0
  C  C120  1  0.555100  0.767900  0.314700  1.0
  C  C121  1  0.137700  0.232100  0.444900  1.0
  C  C122  1  0.685300  0.444900  0.232100  1.0
  C  C123  1  0.232100  0.137700  0.685300  1.0
  C  C124  1  0.444900  0.685300  0.137700  1.0
  C  C125  1  0.444900  0.137700  0.232100  1.0
  C  C126  1  0.685300  0.232100  0.137700  1.0
  C  C127  1  0.137700  0.444900  0.685300  1.0
  C  C128  1  0.232100  0.685300  0.444900  1.0
  C  C129  1  0.232100  0.444900  0.137700  1.0
  C  C130  1  0.137700  0.685300  0.232100  1.0
  C  C131  1  0.685300  0.137700  0.444900  1.0
  C  C132  1  0.444900  0.232100  0.685300  1.0
  C  C133  1  0.826190  0.773010  0.615410  1.0
  C  C134  1  0.285390  0.615410  0.773010  1.0
  C  C135  1  0.773010  0.826190  0.285390  1.0
  C  C136  1  0.615410  0.285390  0.826190  1.0
  C  C137  1  0.615410  0.826190  0.773010  1.0
  C  C138  1  0.285390  0.773010  0.826190  1.0
  C  C139  1  0.826190  0.615410  0.285390  1.0
  C  C140  1  0.773010  0.285390  0.615410  1.0
  C  C141  1  0.773010  0.615410  0.826190  1.0
  C  C142  1  0.826190  0.285390  0.773010  1.0
  C  C143  1  0.285390  0.826190  0.615410  1.0
  C  C144  1  0.615410  0.773010  0.285390  1.0
  C  C145  1  0.173810  0.226990  0.384590  1.0
  C  C146  1  0.714610  0.384590  0.226990  1.0
  C  C147  1  0.226990  0.173810  0.714610  1.0
  C  C148  1  0.384590  0.714610  0.173810  1.0
  C  C149  1  0.384590  0.173810  0.226990  1.0
  C  C150  1  0.714610  0.226990  0.173810  1.0
  C  C151  1  0.173810  0.384590  0.714610  1.0
  C  C152  1  0.226990  0.714610  0.384590  1.0
  C  C153  1  0.226990  0.384590  0.173810  1.0
  C  C154  1  0.173810  0.714610  0.226990  1.0
  C  C155  1  0.714610  0.173810  0.384590  1.0
  C  C156  1  0.384590  0.226990  0.714610  1.0
  C  C157  1  0.812410  0.826710  0.632630  1.0
  C  C158  1  0.228250  0.632630  0.826710  1.0
  C  C159  1  0.826710  0.812410  0.228250  1.0
  C  C160  1  0.632630  0.228250  0.812410  1.0
  C  C161  1  0.632630  0.812410  0.826710  1.0
  C  C162  1  0.228250  0.826710  0.812410  1.0
  C  C163  1  0.812410  0.632630  0.228250  1.0
  C  C164  1  0.826710  0.228250  0.632630  1.0
  C  C165  1  0.826710  0.632630  0.812410  1.0
  C  C166  1  0.812410  0.228250  0.826710  1.0
  C  C167  1  0.228250  0.812410  0.632630  1.0
  C  C168  1  0.632630  0.826710  0.228250  1.0
  C  C169  1  0.187590  0.173290  0.367370  1.0
  C  C170  1  0.771750  0.367370  0.173290  1.0
  C  C171  1  0.173290  0.187590  0.771750  1.0
  C  C172  1  0.367370  0.771750  0.187590  1.0
  C  C173  1  0.367370  0.187590  0.173290  1.0
  C  C174  1  0.771750  0.173290  0.187590  1.0
  C  C175  1  0.187590  0.367370  0.771750  1.0
  C  C176  1  0.173290  0.771750  0.367370  1.0
  C  C177  1  0.173290  0.367370  0.187590  1.0
  C  C178  1  0.187590  0.771750  0.173290  1.0
  C  C179  1  0.771750  0.187590  0.367370  1.0
  C  C180  1  0.367370  0.173290  0.771750  1.0
  C  C181  1  0.766660  0.876260  0.707640  1.0
  C  C182  1  0.149440  0.707640  0.876260  1.0
  C  C183  1  0.876260  0.766660  0.149440  1.0
  C  C184  1  0.707640  0.149440  0.766660  1.0
  C  C185  1  0.707640  0.766660  0.876260  1.0
  C  C186  1  0.149440  0.876260  0.766660  1.0
  C  C187  1  0.766660  0.707640  0.149440  1.0
  C  C188  1  0.876260  0.149440  0.707640  1.0
  C  C189  1  0.876260  0.707640  0.766660  1.0
  C  C190  1  0.766660  0.149440  0.876260  1.0
  C  C191  1  0.149440  0.766660  0.707640  1.0
  C  C192  1  0.707640  0.876260  0.149440  1.0
  C  C193  1  0.233340  0.123740  0.292360  1.0
  C  C194  1  0.850560  0.292360  0.123740  1.0
  C  C195  1  0.123740  0.233340  0.850560  1.0
  C  C196  1  0.292360  0.850560  0.233340  1.0
  C  C197  1  0.292360  0.233340  0.123740  1.0
  C  C198  1  0.850560  0.123740  0.233340  1.0
  C  C199  1  0.233340  0.292360  0.850560  1.0
  C  C200  1  0.123740  0.850560  0.292360  1.0
  C  C201  1  0.123740  0.292360  0.233340  1.0
  C  C202  1  0.233340  0.850560  0.123740  1.0
  C  C203  1  0.850560  0.233340  0.292360  1.0
  C  C204  1  0.292360  0.123740  0.850560  1.0
  C  C205  1  0.705120  0.919500  0.721380  1.0
  C  C206  1  0.154000  0.721380  0.919500  1.0
  C  C207  1  0.919500  0.705120  0.154000  1.0
  C  C208  1  0.721380  0.154000  0.705120  1.0
  C  C209  1  0.721380  0.705120  0.919500  1.0
  C  C210  1  0.154000  0.919500  0.705120  1.0
  C  C211  1  0.705120  0.721380  0.154000  1.0
  C  C212  1  0.919500  0.154000  0.721380  1.0
  C  C213  1  0.919500  0.721380  0.705120  1.0
  C  C214  1  0.705120  0.154000  0.919500  1.0
  C  C215  1  0.154000  0.705120  0.721380  1.0
  C  C216  1  0.721380  0.919500  0.154000  1.0
  C  C217  1  0.294880  0.080500  0.278620  1.0
  C  C218  1  0.846000  0.278620  0.080500  1.0
  C  C219  1  0.080500  0.294880  0.846000  1.0
  C  C220  1  0.278620  0.846000  0.294880  1.0
  C  C221  1  0.278620  0.294880  0.080500  1.0
  C  C222  1  0.846000  0.080500  0.294880  1.0
  C  C223  1  0.294880  0.278620  0.846000  1.0
  C  C224  1  0.080500  0.846000  0.278620  1.0
  C  C225  1  0.080500  0.278620  0.294880  1.0
  C  C226  1  0.294880  0.846000  0.080500  1.0
  C  C227  1  0.846000  0.294880  0.278620  1.0
  C  C228  1  0.278620  0.080500  0.846000  1.0
  C  C229  1  0.691760  0.972560  0.734200  1.0
  C  C230  1  0.101480  0.734200  0.972560  1.0
  C  C231  1  0.972560  0.691760  0.101480  1.0
  C  C232  1  0.734200  0.101480  0.691760  1.0
  C  C233  1  0.734200  0.691760  0.972560  1.0
  C  C234  1  0.101480  0.972560  0.691760  1.0
  C  C235  1  0.691760  0.734200  0.101480  1.0
  C  C236  1  0.972560  0.101480  0.734200  1.0
  C  C237  1  0.972560  0.734200  0.691760  1.0
  C  C238  1  0.691760  0.101480  0.972560  1.0
  C  C239  1  0.101480  0.691760  0.734200  1.0
  C  C240  1  0.734200  0.972560  0.101480  1.0
  C  C241  1  0.308240  0.027440  0.265800  1.0
  C  C242  1  0.898520  0.265800  0.027440  1.0
  C  C243  1  0.027440  0.308240  0.898520  1.0
  C  C244  1  0.265800  0.898520  0.308240  1.0
  C  C245  1  0.265800  0.308240  0.027440  1.0
  C  C246  1  0.898520  0.027440  0.308240  1.0
  C  C247  1  0.308240  0.265800  0.898520  1.0
  C  C248  1  0.027440  0.898520  0.265800  1.0
  C  C249  1  0.027440  0.265800  0.308240  1.0
  C  C250  1  0.308240  0.898520  0.027440  1.0
  C  C251  1  0.898520  0.308240  0.265800  1.0
  C  C252  1  0.265800  0.027440  0.898520  1.0
  C  C253  1  0.741540  0.984480  0.731720  1.0
  C  C254  1  0.042260  0.731720  0.984480  1.0
  C  C255  1  0.984480  0.741540  0.042260  1.0
  C  C256  1  0.731720  0.042260  0.741540  1.0
  C  C257  1  0.731720  0.741540  0.984480  1.0
  C  C258  1  0.042260  0.984480  0.741540  1.0
  C  C259  1  0.741540  0.731720  0.042260  1.0
  C  C260  1  0.984480  0.042260  0.731720  1.0
  C  C261  1  0.984480  0.731720  0.741540  1.0
  C  C262  1  0.741540  0.042260  0.984480  1.0
  C  C263  1  0.042260  0.741540  0.731720  1.0
  C  C264  1  0.731720  0.984480  0.042260  1.0
  C  C265  1  0.258460  0.015520  0.268280  1.0
  C  C266  1  0.957740  0.268280  0.015520  1.0
  C  C267  1  0.015520  0.258460  0.957740  1.0
  C  C268  1  0.268280  0.957740  0.258460  1.0
  C  C269  1  0.268280  0.258460  0.015520  1.0
  C  C270  1  0.957740  0.015520  0.258460  1.0
  C  C271  1  0.258460  0.268280  0.957740  1.0
  C  C272  1  0.015520  0.957740  0.268280  1.0
  C  C273  1  0.015520  0.268280  0.258460  1.0
  C  C274  1  0.258460  0.957740  0.015520  1.0
  C  C275  1  0.957740  0.258460  0.268280  1.0
  C  C276  1  0.268280  0.015520  0.957740  1.0
  C  C277  1  0.803020  0.939580  0.718820  1.0
  C  C278  1  0.038580  0.718820  0.939580  1.0
  C  C279  1  0.939580  0.803020  0.038580  1.0
  C  C280  1  0.718820  0.038580  0.803020  1.0
  C  C281  1  0.718820  0.803020  0.939580  1.0
  C  C282  1  0.038580  0.939580  0.803020  1.0
  C  C283  1  0.803020  0.718820  0.038580  1.0
  C  C284  1  0.939580  0.038580  0.718820  1.0
  C  C285  1  0.939580  0.718820  0.803020  1.0
  C  C286  1  0.803020  0.038580  0.939580  1.0
  C  C287  1  0.038580  0.803020  0.718820  1.0
  C  C288  1  0.718820  0.939580  0.038580  1.0
  C  C289  1  0.196980  0.060420  0.281180  1.0
  C  C290  1  0.961420  0.281180  0.060420  1.0
  C  C291  1  0.060420  0.196980  0.961420  1.0
  C  C292  1  0.281180  0.961420  0.196980  1.0
  C  C293  1  0.281180  0.196980  0.060420  1.0
  C  C294  1  0.961420  0.060420  0.196980  1.0
  C  C295  1  0.196980  0.281180  0.961420  1.0
  C  C296  1  0.060420  0.961420  0.281180  1.0
  C  C297  1  0.060420  0.281180  0.196980  1.0
  C  C298  1  0.196980  0.961420  0.060420  1.0
  C  C299  1  0.961420  0.196980  0.281180  1.0
  C  C300  1  0.281180  0.060420  0.961420  1.0
  C  C301  1  0.815630  0.885770  0.707810  1.0
  C  C302  1  0.090790  0.707810  0.885770  1.0
  C  C303  1  0.885770  0.815630  0.090790  1.0
  C  C304  1  0.707810  0.090790  0.815630  1.0
  C  C305  1  0.707810  0.815630  0.885770  1.0
  C  C306  1  0.090790  0.885770  0.815630  1.0
  C  C307  1  0.815630  0.707810  0.090790  1.0
  C  C308  1  0.885770  0.090790  0.707810  1.0
  C  C309  1  0.885770  0.707810  0.815630  1.0
  C  C310  1  0.815630  0.090790  0.885770  1.0
  C  C311  1  0.090790  0.815630  0.707810  1.0
  C  C312  1  0.707810  0.885770  0.090790  1.0
  C  C313  1  0.184370  0.114230  0.292190  1.0
  C  C314  1  0.909210  0.292190  0.114230  1.0
  C  C315  1  0.114230  0.184370  0.909210  1.0
  C  C316  1  0.292190  0.909210  0.184370  1.0
  C  C317  1  0.292190  0.184370  0.114230  1.0
  C  C318  1  0.909210  0.114230  0.184370  1.0
  C  C319  1  0.184370  0.292190  0.909210  1.0
  C  C320  1  0.114230  0.909210  0.292190  1.0
  C  C321  1  0.114230  0.292190  0.184370  1.0
  C  C322  1  0.184370  0.909210  0.114230  1.0
  C  C323  1  0.909210  0.184370  0.292190  1.0
  C  C324  1  0.292190  0.114230  0.909210  1.0
  Fe  Fe325  1  0.500000  0.000000  0.000000  1
  Fe  Fe326  1  0.000000  0.000000  0.000000  1
  Fe  Fe327  1  0.000000  0.500000  0.000000  1
  Fe  Fe328  1  0.000000  0.000000  0.500000  1
  Fe  Fe329  1  0.748410  0.748410  0.748410  1.0
  Fe  Fe330  1  0.254770  0.748410  0.748410  1.0
  Fe  Fe331  1  0.748410  0.748410  0.254770  1.0
  Fe  Fe332  1  0.748410  0.254770  0.748410  1.0
  Fe  Fe333  1  0.251590  0.251590  0.251590  1.0
  Fe  Fe334  1  0.745230  0.251590  0.251590  1.0
  Fe  Fe335  1  0.251590  0.251590  0.745230  1.0
  Fe  Fe336  1  0.251590  0.745230  0.251590  1.0
  H  H337  1  0.791900  0.643500  0.691900  1.0
  H  H338  1  0.372700  0.691900  0.643500  1.0
  H  H339  1  0.643500  0.791900  0.372700  1.0
  H  H340  1  0.691900  0.372700  0.791900  1.0
  H  H341  1  0.691900  0.791900  0.643500  1.0
  H  H342  1  0.372700  0.643500  0.791900  1.0
  H  H343  1  0.791900  0.691900  0.372700  1.0
  H  H344  1  0.643500  0.372700  0.691900  1.0
  H  H345  1  0.643500  0.691900  0.791900  1.0
  H  H346  1  0.791900  0.372700  0.643500  1.0
  H  H347  1  0.372700  0.791900  0.691900  1.0
  H  H348  1  0.691900  0.643500  0.372700  1.0
  H  H349  1  0.208100  0.356500  0.308100  1.0
  H  H350  1  0.627300  0.308100  0.356500  1.0
  H  H351  1  0.356500  0.208100  0.627300  1.0
  H  H352  1  0.308100  0.627300  0.208100  1.0
  H  H353  1  0.308100  0.208100  0.356500  1.0
  H  H354  1  0.627300  0.356500  0.208100  1.0
  H  H355  1  0.208100  0.308100  0.627300  1.0
  H  H356  1  0.356500  0.627300  0.308100  1.0
  H  H357  1  0.356500  0.308100  0.208100  1.0
  H  H358  1  0.208100  0.627300  0.356500  1.0
  H  H359  1  0.627300  0.208100  0.308100  1.0
  H  H360  1  0.308100  0.356500  0.627300  1.0
  H  H361  1  0.852200  0.631800  0.589800  1.0
  H  H362  1  0.426200  0.589800  0.631800  1.0
  H  H363  1  0.631800  0.852200  0.426200  1.0
  H  H364  1  0.589800  0.426200  0.852200  1.0
  H  H365  1  0.589800  0.852200  0.631800  1.0
  H  H366  1  0.426200  0.631800  0.852200  1.0
  H  H367  1  0.852200  0.589800  0.426200  1.0
  H  H368  1  0.631800  0.426200  0.589800  1.0
  H  H369  1  0.631800  0.589800  0.852200  1.0
  H  H370  1  0.852200  0.426200  0.631800  1.0
  H  H371  1  0.426200  0.852200  0.589800  1.0
  H  H372  1  0.589800  0.631800  0.426200  1.0
  H  H373  1  0.147800  0.368200  0.410200  1.0
  H  H374  1  0.573800  0.410200  0.368200  1.0
  H  H375  1  0.368200  0.147800  0.573800  1.0
  H  H376  1  0.410200  0.573800  0.147800  1.0
  H  H377  1  0.410200  0.147800  0.368200  1.0
  H  H378  1  0.573800  0.368200  0.147800  1.0
  H  H379  1  0.147800  0.410200  0.573800  1.0
  H  H380  1  0.368200  0.573800  0.410200  1.0
  H  H381  1  0.368200  0.410200  0.147800  1.0
  H  H382  1  0.147800  0.573800  0.368200  1.0
  H  H383  1  0.573800  0.147800  0.410200  1.0
  H  H384  1  0.410200  0.368200  0.573800  1.0
  H  H385  1  0.897500  0.709500  0.504700  1.0
  H  H386  1  0.388300  0.504700  0.709500  1.0
  H  H387  1  0.709500  0.897500  0.388300  1.0
  H  H388  1  0.504700  0.388300  0.897500  1.0
  H  H389  1  0.504700  0.897500  0.709500  1.0
  H  H390  1  0.388300  0.709500  0.897500  1.0
  H  H391  1  0.897500  0.504700  0.388300  1.0
  H  H392  1  0.709500  0.388300  0.504700  1.0
  H  H393  1  0.709500  0.504700  0.897500  1.0
  H  H394  1  0.897500  0.388300  0.709500  1.0
  H  H395  1  0.388300  0.897500  0.504700  1.0
  H  H396  1  0.504700  0.709500  0.388300  1.0
  H  H397  1  0.102500  0.290500  0.495300  1.0
  H  H398  1  0.611700  0.495300  0.290500  1.0
  H  H399  1  0.290500  0.102500  0.611700  1.0
  H  H400  1  0.495300  0.611700  0.102500  1.0
  H  H401  1  0.495300  0.102500  0.290500  1.0
  H  H402  1  0.611700  0.290500  0.102500  1.0
  H  H403  1  0.102500  0.495300  0.611700  1.0
  H  H404  1  0.290500  0.611700  0.495300  1.0
  H  H405  1  0.290500  0.495300  0.102500  1.0
  H  H406  1  0.102500  0.611700  0.290500  1.0
  H  H407  1  0.611700  0.102500  0.495300  1.0
  H  H408  1  0.495300  0.290500  0.611700  1.0
  H  H409  1  0.879300  0.800100  0.521500  1.0
  H  H410  1  0.299100  0.521500  0.800100  1.0
  H  H411  1  0.800100  0.879300  0.299100  1.0
  H  H412  1  0.521500  0.299100  0.879300  1.0
  H  H413  1  0.521500  0.879300  0.800100  1.0
  H  H414  1  0.299100  0.800100  0.879300  1.0
  H  H415  1  0.879300  0.521500  0.299100  1.0
  H  H416  1  0.800100  0.299100  0.521500  1.0
  H  H417  1  0.800100  0.521500  0.879300  1.0
  H  H418  1  0.879300  0.299100  0.800100  1.0
  H  H419  1  0.299100  0.879300  0.521500  1.0
  H  H420  1  0.521500  0.800100  0.299100  1.0
  H  H421  1  0.120700  0.199900  0.478500  1.0
  H  H422  1  0.700900  0.478500  0.199900  1.0
  H  H423  1  0.199900  0.120700  0.700900  1.0
  H  H424  1  0.478500  0.700900  0.120700  1.0
  H  H425  1  0.478500  0.120700  0.199900  1.0
  H  H426  1  0.700900  0.199900  0.120700  1.0
  H  H427  1  0.120700  0.478500  0.700900  1.0
  H  H428  1  0.199900  0.700900  0.478500  1.0
  H  H429  1  0.199900  0.478500  0.120700  1.0
  H  H430  1  0.120700  0.700900  0.199900  1.0
  H  H431  1  0.700900  0.120700  0.478500  1.0
  H  H432  1  0.478500  0.199900  0.700900  1.0
  H  H433  1  0.826800  0.861600  0.602400  1.0
  H  H434  1  0.209200  0.602400  0.861600  1.0
  H  H435  1  0.861600  0.826800  0.209200  1.0
  H  H436  1  0.602400  0.209200  0.826800  1.0
  H  H437  1  0.602400  0.826800  0.861600  1.0
  H  H438  1  0.209200  0.861600  0.826800  1.0
  H  H439  1  0.826800  0.602400  0.209200  1.0
  H  H440  1  0.861600  0.209200  0.602400  1.0
  H  H441  1  0.861600  0.602400  0.826800  1.0
  H  H442  1  0.826800  0.209200  0.861600  1.0
  H  H443  1  0.209200  0.826800  0.602400  1.0
  H  H444  1  0.602400  0.861600  0.209200  1.0
  H  H445  1  0.173200  0.138400  0.397600  1.0
  H  H446  1  0.790800  0.397600  0.138400  1.0
  H  H447  1  0.138400  0.173200  0.790800  1.0
  H  H448  1  0.397600  0.790800  0.173200  1.0
  H  H449  1  0.397600  0.173200  0.138400  1.0
  H  H450  1  0.790800  0.138400  0.173200  1.0
  H  H451  1  0.173200  0.397600  0.790800  1.0
  H  H452  1  0.138400  0.790800  0.397600  1.0
  H  H453  1  0.138400  0.397600  0.173200  1.0
  H  H454  1  0.173200  0.790800  0.138400  1.0
  H  H455  1  0.790800  0.173200  0.397600  1.0
  H  H456  1  0.397600  0.138400  0.790800  1.0
  H  H457  1  0.671800  0.913000  0.722000  1.0
  H  H458  1  0.193200  0.722000  0.913000  1.0
  H  H459  1  0.913000  0.671800  0.193200  1.0
  H  H460  1  0.722000  0.193200  0.671800  1.0
  H  H461  1  0.722000  0.671800  0.913000  1.0
  H  H462  1  0.193200  0.913000  0.671800  1.0
  H  H463  1  0.671800  0.722000  0.193200  1.0
  H  H464  1  0.913000  0.193200  0.722000  1.0
  H  H465  1  0.913000  0.722000  0.671800  1.0
  H  H466  1  0.671800  0.193200  0.913000  1.0
  H  H467  1  0.193200  0.671800  0.722000  1.0
  H  H468  1  0.722000  0.913000  0.193200  1.0
  H  H469  1  0.328200  0.087000  0.278000  1.0
  H  H470  1  0.806800  0.278000  0.087000  1.0
  H  H471  1  0.087000  0.328200  0.806800  1.0
  H  H472  1  0.278000  0.806800  0.328200  1.0
  H  H473  1  0.278000  0.328200  0.087000  1.0
  H  H474  1  0.806800  0.087000  0.328200  1.0
  H  H475  1  0.328200  0.278000  0.806800  1.0
  H  H476  1  0.087000  0.806800  0.278000  1.0
  H  H477  1  0.087000  0.278000  0.328200  1.0
  H  H478  1  0.328200  0.806800  0.087000  1.0
  H  H479  1  0.806800  0.328200  0.278000  1.0
  H  H480  1  0.278000  0.087000  0.806800  1.0
  H  H481  1  0.836800  0.946000  0.717600  1.0
  H  H482  1  0.999600  0.717600  0.946000  1.0
  H  H483  1  0.946000  0.836800  0.999600  1.0
  H  H484  1  0.717600  0.999600  0.836800  1.0
  H  H485  1  0.717600  0.836800  0.946000  1.0
  H  H486  1  0.999600  0.946000  0.836800  1.0
  H  H487  1  0.836800  0.717600  0.999600  1.0
  H  H488  1  0.946000  0.999600  0.717600  1.0
  H  H489  1  0.946000  0.717600  0.836800  1.0
  H  H490  1  0.836800  0.999600  0.946000  1.0
  H  H491  1  0.999600  0.836800  0.717600  1.0
  H  H492  1  0.717600  0.946000  0.999600  1.0
  H  H493  1  0.163200  0.054000  0.282400  1.0
  H  H494  1  0.000400  0.282400  0.054000  1.0
  H  H495  1  0.054000  0.163200  0.000400  1.0
  H  H496  1  0.282400  0.000400  0.163200  1.0
  H  H497  1  0.282400  0.163200  0.054000  1.0
  H  H498  1  0.000400  0.054000  0.163200  1.0
  H  H499  1  0.163200  0.282400  0.000400  1.0
  H  H500  1  0.054000  0.000400  0.282400  1.0
  H  H501  1  0.054000  0.282400  0.163200  1.0
  H  H502  1  0.163200  0.000400  0.054000  1.0
  H  H503  1  0.000400  0.163200  0.282400  1.0
  H  H504  1  0.282400  0.054000  0.000400  1.0
  H  H505  1  0.857100  0.855900  0.700500  1.0
  H  H506  1  0.086500  0.700500  0.855900  1.0
  H  H507  1  0.855900  0.857100  0.086500  1.0
  H  H508  1  0.700500  0.086500  0.857100  1.0
  H  H509  1  0.700500  0.857100  0.855900  1.0
  H  H510  1  0.086500  0.855900  0.857100  1.0
  H  H511  1  0.857100  0.700500  0.086500  1.0
  H  H512  1  0.855900  0.086500  0.700500  1.0
  H  H513  1  0.855900  0.700500  0.857100  1.0
  H  H514  1  0.857100  0.086500  0.855900  1.0
  H  H515  1  0.086500  0.857100  0.700500  1.0
  H  H516  1  0.700500  0.855900  0.086500  1.0
  H  H517  1  0.142900  0.144100  0.299500  1.0
  H  H518  1  0.913500  0.299500  0.144100  1.0
  H  H519  1  0.144100  0.142900  0.913500  1.0
  H  H520  1  0.299500  0.913500  0.142900  1.0
  H  H521  1  0.299500  0.142900  0.144100  1.0
  H  H522  1  0.913500  0.144100  0.142900  1.0
  H  H523  1  0.142900  0.299500  0.913500  1.0
  H  H524  1  0.144100  0.913500  0.299500  1.0
  H  H525  1  0.144100  0.299500  0.142900  1.0
  H  H526  1  0.142900  0.913500  0.144100  1.0
  H  H527  1  0.913500  0.142900  0.299500  1.0
  H  H528  1  0.299500  0.144100  0.913500  1.0
  N  N529  1  0.799230  0.727130  0.667210  1.0
  N  N530  1  0.306430  0.667210  0.727130  1.0
  N  N531  1  0.727130  0.799230  0.306430  1.0
  N  N532  1  0.667210  0.306430  0.799230  1.0
  N  N533  1  0.667210  0.799230  0.727130  1.0
  N  N534  1  0.306430  0.727130  0.799230  1.0
  N  N535  1  0.799230  0.667210  0.306430  1.0
  N  N536  1  0.727130  0.306430  0.667210  1.0
  N  N537  1  0.727130  0.667210  0.799230  1.0
  N  N538  1  0.799230  0.306430  0.727130  1.0
  N  N539  1  0.306430  0.799230  0.667210  1.0
  N  N540  1  0.667210  0.727130  0.306430  1.0
  N  N541  1  0.200770  0.272870  0.332790  1.0
  N  N542  1  0.693570  0.332790  0.272870  1.0
  N  N543  1  0.272870  0.200770  0.693570  1.0
  N  N544  1  0.332790  0.693570  0.200770  1.0
  N  N545  1  0.332790  0.200770  0.272870  1.0
  N  N546  1  0.693570  0.272870  0.200770  1.0
  N  N547  1  0.200770  0.332790  0.693570  1.0
  N  N548  1  0.272870  0.693570  0.332790  1.0
  N  N549  1  0.272870  0.332790  0.200770  1.0
  N  N550  1  0.200770  0.693570  0.272870  1.0
  N  N551  1  0.693570  0.200770  0.332790  1.0
  N  N552  1  0.332790  0.272870  0.693570  1.0
  N  N553  1  0.779240  0.823100  0.691900  1.0
  N  N554  1  0.205760  0.691900  0.823100  1.0
  N  N555  1  0.823100  0.779240  0.205760  1.0
  N  N556  1  0.691900  0.205760  0.779240  1.0
  N  N557  1  0.691900  0.779240  0.823100  1.0
  N  N558  1  0.205760  0.823100  0.779240  1.0
  N  N559  1  0.779240  0.691900  0.205760  1.0
  N  N560  1  0.823100  0.205760  0.691900  1.0
  N  N561  1  0.823100  0.691900  0.779240  1.0
  N  N562  1  0.779240  0.205760  0.823100  1.0
  N  N563  1  0.205760  0.779240  0.691900  1.0
  N  N564  1  0.691900  0.823100  0.205760  1.0
  N  N565  1  0.220760  0.176900  0.308100  1.0
  N  N566  1  0.794240  0.308100  0.176900  1.0
  N  N567  1  0.176900  0.220760  0.794240  1.0
  N  N568  1  0.308100  0.794240  0.220760  1.0
  N  N569  1  0.308100  0.220760  0.176900  1.0
  N  N570  1  0.794240  0.176900  0.220760  1.0
  N  N571  1  0.220760  0.308100  0.794240  1.0
  N  N572  1  0.176900  0.794240  0.308100  1.0
  N  N573  1  0.176900  0.308100  0.220760  1.0
  N  N574  1  0.220760  0.794240  0.176900  1.0
  N  N575  1  0.794240  0.220760  0.308100  1.0
  N  N576  1  0.308100  0.176900  0.794240  1.0
  O  O577  1  0.762300  0.982100  0.560500  1
  O  O578  1  0.195100  0.560500  0.982100  1
  O  O579  1  0.982100  0.762300  0.195100  1
  O  O580  1  0.560500  0.195100  0.762300  1
  O  O581  1  0.560500  0.762300  0.982100  1
  O  O582  1  0.195100  0.982100  0.762300  1
  O  O583  1  0.762300  0.560500  0.195100  1
  O  O584  1  0.982100  0.195100  0.560500  1
  O  O585  1  0.982100  0.560500  0.762300  1
  O  O586  1  0.762300  0.195100  0.982100  1
  O  O587  1  0.195100  0.762300  0.560500  1
  O  O588  1  0.560500  0.982100  0.195100  1
  O  O589  1  0.237700  0.017900  0.439500  1
  O  O590  1  0.804900  0.439500  0.017900  1
  O  O591  1  0.017900  0.237700  0.804900  1
  O  O592  1  0.439500  0.804900  0.237700  1
  O  O593  1  0.439500  0.237700  0.017900  1
  O  O594  1  0.804900  0.017900  0.237700  1
  O  O595  1  0.237700  0.439500  0.804900  1
  O  O596  1  0.017900  0.804900  0.439500  1
  O  O597  1  0.017900  0.439500  0.237700  1
  O  O598  1  0.237700  0.804900  0.017900  1
  O  O599  1  0.804900  0.237700  0.439500  1
  O  O600  1  0.439500  0.017900  0.804900  1
  O  O601  1  0.799600  0.566800  0.566800  1
  O  O602  1  0.566800  0.566800  0.566800  1
  O  O603  1  0.566800  0.799600  0.566800  1
  O  O604  1  0.566800  0.566800  0.799600  1
  O  O605  1  0.200400  0.433200  0.433200  1
  O  O606  1  0.433200  0.433200  0.433200  1
  O  O607  1  0.433200  0.200400  0.433200  1
  O  O608  1  0.433200  0.433200  0.200400  1
  O  O609  1  0.792700  0.540900  0.701100  1
  O  O610  1  0.465300  0.701100  0.540900  1
  O  O611  1  0.540900  0.792700  0.465300  1
  O  O612  1  0.701100  0.465300  0.792700  1
  O  O613  1  0.701100  0.792700  0.540900  1
  O  O614  1  0.465300  0.540900  0.792700  1
  O  O615  1  0.792700  0.701100  0.465300  1
  O  O616  1  0.540900  0.465300  0.701100  1
  O  O617  1  0.540900  0.701100  0.792700  1
  O  O618  1  0.792700  0.465300  0.540900  1
  O  O619  1  0.465300  0.792700  0.701100  1
  O  O620  1  0.701100  0.540900  0.465300  1
  O  O621  1  0.207300  0.459100  0.298900  1
  O  O622  1  0.534700  0.298900  0.459100  1
  O  O623  1  0.459100  0.207300  0.534700  1
  O  O624  1  0.298900  0.534700  0.207300  1
  O  O625  1  0.298900  0.207300  0.459100  1
  O  O626  1  0.534700  0.459100  0.207300  1
  O  O627  1  0.207300  0.298900  0.534700  1
  O  O628  1  0.459100  0.534700  0.298900  1
  O  O629  1  0.459100  0.298900  0.207300  1
  O  O630  1  0.207300  0.534700  0.459100  1
  O  O631  1  0.534700  0.207300  0.298900  1
  O  O632  1  0.298900  0.459100  0.534700  1
  O  O633  1  0.927500  0.503700  0.681300  1
  O  O634  1  0.387500  0.681300  0.503700  1
  O  O635  1  0.503700  0.927500  0.387500  1
  O  O636  1  0.681300  0.387500  0.927500  1
  O  O637  1  0.681300  0.927500  0.503700  1
  O  O638  1  0.387500  0.503700  0.927500  1
  O  O639  1  0.927500  0.681300  0.387500  1
  O  O640  1  0.503700  0.387500  0.681300  1
  O  O641  1  0.503700  0.681300  0.927500  1
  O  O642  1  0.927500  0.387500  0.503700  1
  O  O643  1  0.387500  0.927500  0.681300  1
  O  O644  1  0.681300  0.503700  0.387500  1
  O  O645  1  0.072500  0.496300  0.318700  1
  O  O646  1  0.612500  0.318700  0.496300  1
  O  O647  1  0.496300  0.072500  0.612500  1
  O  O648  1  0.318700  0.612500  0.072500  1
  O  O649  1  0.318700  0.072500  0.496300  1
  O  O650  1  0.612500  0.496300  0.072500  1
  O  O651  1  0.072500  0.318700  0.612500  1
  O  O652  1  0.496300  0.612500  0.318700  1
  O  O653  1  0.496300  0.318700  0.072500  1
  O  O654  1  0.072500  0.612500  0.496300  1
  O  O655  1  0.612500  0.072500  0.318700  1
  O  O656  1  0.318700  0.496300  0.612500  1
  O  O657  1  0.895200  0.499400  0.712400  1
  O  O658  1  0.393000  0.712400  0.499400  1
  O  O659  1  0.499400  0.895200  0.393000  1
  O  O660  1  0.712400  0.393000  0.895200  1
  O  O661  1  0.712400  0.895200  0.499400  1
  O  O662  1  0.393000  0.499400  0.895200  1
  O  O663  1  0.895200  0.712400  0.393000  1
  O  O664  1  0.499400  0.393000  0.712400  1
  O  O665  1  0.499400  0.712400  0.895200  1
  O  O666  1  0.895200  0.393000  0.499400  1
  O  O667  1  0.393000  0.895200  0.712400  1
  O  O668  1  0.712400  0.499400  0.393000  1
  O  O669  1  0.104800  0.500600  0.287600  1
  O  O670  1  0.607000  0.287600  0.500600  1
  O  O671  1  0.500600  0.104800  0.607000  1
  O  O672  1  0.287600  0.607000  0.104800  1
  O  O673  1  0.287600  0.104800  0.500600  1
  O  O674  1  0.607000  0.500600  0.104800  1
  O  O675  1  0.104800  0.287600  0.607000  1
  O  O676  1  0.500600  0.607000  0.287600  1
  O  O677  1  0.500600  0.287600  0.104800  1
  O  O678  1  0.104800  0.607000  0.500600  1
  O  O679  1  0.607000  0.104800  0.287600  1
  O  O680  1  0.287600  0.500600  0.607000  1
  O  O681  1  0.674600  0.674600  0.674600  1
  O  O682  1  0.476200  0.674600  0.674600  1
  O  O683  1  0.674600  0.674600  0.476200  1
  O  O684  1  0.674600  0.476200  0.674600  1
  O  O685  1  0.325400  0.325400  0.325400  1
  O  O686  1  0.523800  0.325400  0.325400  1
  O  O687  1  0.325400  0.325400  0.523800  1
  O  O688  1  0.325400  0.523800  0.325400  1
  O  O689  1  0.844200  0.844200  0.405800  1
  O  O690  1  0.405800  0.405800  0.844200  1
  O  O691  1  0.405800  0.844200  0.844200  1
  O  O692  1  0.844200  0.405800  0.405800  1
  O  O693  1  0.844200  0.405800  0.844200  1
  O  O694  1  0.405800  0.844200  0.405800  1
  O  O695  1  0.155800  0.155800  0.594200  1
  O  O696  1  0.594200  0.594200  0.155800  1
  O  O697  1  0.594200  0.155800  0.155800  1
  O  O698  1  0.155800  0.594200  0.594200  1
  O  O699  1  0.155800  0.594200  0.155800  1
  O  O700  1  0.594200  0.155800  0.594200  1
  O  O701  1  0.711400  0.949800  0.559000  1
  O  O702  1  0.279800  0.559000  0.949800  1
  O  O703  1  0.949800  0.711400  0.279800  1
  O  O704  1  0.559000  0.279800  0.711400  1
  O  O705  1  0.559000  0.711400  0.949800  1
  O  O706  1  0.279800  0.949800  0.711400  1
  O  O707  1  0.711400  0.559000  0.279800  1
  O  O708  1  0.949800  0.279800  0.559000  1
  O  O709  1  0.949800  0.559000  0.711400  1
  O  O710  1  0.711400  0.279800  0.949800  1
  O  O711  1  0.279800  0.711400  0.559000  1
  O  O712  1  0.559000  0.949800  0.279800  1
  O  O713  1  0.288600  0.050200  0.441000  1
  O  O714  1  0.720200  0.441000  0.050200  1
  O  O715  1  0.050200  0.288600  0.720200  1
  O  O716  1  0.441000  0.720200  0.288600  1
  O  O717  1  0.441000  0.288600  0.050200  1
  O  O718  1  0.720200  0.050200  0.288600  1
  O  O719  1  0.288600  0.441000  0.720200  1
  O  O720  1  0.050200  0.720200  0.441000  1
  O  O721  1  0.050200  0.441000  0.288600  1
  O  O722  1  0.288600  0.720200  0.050200  1
  O  O723  1  0.720200  0.288600  0.441000  1
  O  O724  1  0.441000  0.050200  0.720200  1
  O  O725  1  0.939800  0.572200  0.485600  1
  O  O726  1  0.502400  0.485600  0.572200  1
  O  O727  1  0.572200  0.939800  0.502400  1
  O  O728  1  0.485600  0.502400  0.939800  1
  O  O729  1  0.485600  0.939800  0.572200  1
  O  O730  1  0.502400  0.572200  0.939800  1
  O  O731  1  0.939800  0.485600  0.502400  1
  O  O732  1  0.572200  0.502400  0.485600  1
  O  O733  1  0.572200  0.485600  0.939800  1
  O  O734  1  0.939800  0.502400  0.572200  1
  O  O735  1  0.502400  0.939800  0.485600  1
  O  O736  1  0.485600  0.572200  0.502400  1
  O  O737  1  0.060200  0.427800  0.514400  1
  O  O738  1  0.497600  0.514400  0.427800  1
  O  O739  1  0.427800  0.060200  0.497600  1
  O  O740  1  0.514400  0.497600  0.060200  1
  O  O741  1  0.514400  0.060200  0.427800  1
  O  O742  1  0.497600  0.427800  0.060200  1
  O  O743  1  0.060200  0.514400  0.497600  1
  O  O744  1  0.427800  0.497600  0.514400  1
  O  O745  1  0.427800  0.514400  0.060200  1
  O  O746  1  0.060200  0.497600  0.427800  1
  O  O747  1  0.497600  0.060200  0.514400  1
  O  O748  1  0.514400  0.427800  0.497600  1
  O  O749  1  0.591100  0.027500  0.693500  1
  O  O750  1  0.187900  0.693500  0.027500  1
  O  O751  1  0.027500  0.591100  0.187900  1
  O  O752  1  0.693500  0.187900  0.591100  1
  O  O753  1  0.693500  0.591100  0.027500  1
  O  O754  1  0.187900  0.027500  0.591100  1
  O  O755  1  0.591100  0.693500  0.187900  1
  O  O756  1  0.027500  0.187900  0.693500  1
  O  O757  1  0.027500  0.693500  0.591100  1
  O  O758  1  0.591100  0.187900  0.027500  1
  O  O759  1  0.187900  0.591100  0.693500  1
  O  O760  1  0.693500  0.027500  0.187900  1
  O  O761  1  0.408900  0.972500  0.306500  1
  O  O762  1  0.812100  0.306500  0.972500  1
  O  O763  1  0.972500  0.408900  0.812100  1
  O  O764  1  0.306500  0.812100  0.408900  1
  O  O765  1  0.306500  0.408900  0.972500  1
  O  O766  1  0.812100  0.972500  0.408900  1
  O  O767  1  0.408900  0.306500  0.812100  1
  O  O768  1  0.972500  0.812100  0.306500  1
  O  O769  1  0.972500  0.306500  0.408900  1
  O  O770  1  0.408900  0.812100  0.972500  1
  O  O771  1  0.812100  0.408900  0.306500  1
  O  O772  1  0.306500  0.972500  0.812100  1
  O  O773  1  0.602600  0.083000  0.739200  1
  O  O774  1  0.075200  0.739200  0.083000  1
  O  O775  1  0.083000  0.602600  0.075200  1
  O  O776  1  0.739200  0.075200  0.602600  1
  O  O777  1  0.739200  0.602600  0.083000  1
  O  O778  1  0.075200  0.083000  0.602600  1
  O  O779  1  0.602600  0.739200  0.075200  1
  O  O780  1  0.083000  0.075200  0.739200  1
  O  O781  1  0.083000  0.739200  0.602600  1
  O  O782  1  0.602600  0.075200  0.083000  1
  O  O783  1  0.075200  0.602600  0.739200  1
  O  O784  1  0.739200  0.083000  0.075200  1
  O  O785  1  0.397400  0.917000  0.260800  1
  O  O786  1  0.924800  0.260800  0.917000  1
  O  O787  1  0.917000  0.397400  0.924800  1
  O  O788  1  0.260800  0.924800  0.397400  1
  O  O789  1  0.260800  0.397400  0.917000  1
  O  O790  1  0.924800  0.917000  0.397400  1
  O  O791  1  0.397400  0.260800  0.924800  1
  O  O792  1  0.917000  0.924800  0.260800  1
  O  O793  1  0.917000  0.260800  0.397400  1
  O  O794  1  0.397400  0.924800  0.917000  1
  O  O795  1  0.924800  0.397400  0.260800  1
  O  O796  1  0.260800  0.917000  0.924800  1
  O  O797  1  0.576300  0.985300  0.807500  1
  O  O798  1  0.130900  0.807500  0.985300  1
  O  O799  1  0.985300  0.576300  0.130900  1
  O  O800  1  0.807500  0.130900  0.576300  1
  O  O801  1  0.807500  0.576300  0.985300  1
  O  O802  1  0.130900  0.985300  0.576300  1
  O  O803  1  0.576300  0.807500  0.130900  1
  O  O804  1  0.985300  0.130900  0.807500  1
  O  O805  1  0.985300  0.807500  0.576300  1
  O  O806  1  0.576300  0.130900  0.985300  1
  O  O807  1  0.130900  0.576300  0.807500  1
  O  O808  1  0.807500  0.985300  0.130900  1
  O  O809  1  0.423700  0.014700  0.192500  1
  O  O810  1  0.869100  0.192500  0.014700  1
  O  O811  1  0.014700  0.423700  0.869100  1
  O  O812  1  0.192500  0.869100  0.423700  1
  O  O813  1  0.192500  0.423700  0.014700  1
  O  O814  1  0.869100  0.014700  0.423700  1
  O  O815  1  0.423700  0.192500  0.869100  1
  O  O816  1  0.014700  0.869100  0.192500  1
  O  O817  1  0.014700  0.192500  0.423700  1
  O  O818  1  0.423700  0.869100  0.014700  1
  O  O819  1  0.869100  0.423700  0.192500  1
  O  O820  1  0.192500  0.014700  0.869100  1
  O  O821  1  0.829000  0.557000  0.557000  1
  O  O822  1  0.557000  0.557000  0.557000  1
  O  O823  1  0.557000  0.829000  0.557000  1
  O  O824  1  0.557000  0.557000  0.829000  1
  O  O825  1  0.171000  0.443000  0.443000  1
  O  O826  1  0.443000  0.443000  0.443000  1
  O  O827  1  0.443000  0.171000  0.443000  1
  O  O828  1  0.443000  0.443000  0.171000  1
  O  O829  1  0.818980  0.975820  0.553220  1
  O  O830  1  0.151980  0.553220  0.975820  1
  O  O831  1  0.975820  0.818980  0.151980  1
  O  O832  1  0.553220  0.151980  0.818980  1
  O  O833  1  0.553220  0.818980  0.975820  1
  O  O834  1  0.151980  0.975820  0.818980  1
  O  O835  1  0.818980  0.553220  0.151980  1
  O  O836  1  0.975820  0.151980  0.553220  1
  O  O837  1  0.975820  0.553220  0.818980  1
  O  O838  1  0.818980  0.151980  0.975820  1
  O  O839  1  0.151980  0.818980  0.553220  1
  O  O840  1  0.553220  0.975820  0.151980  1
  O  O841  1  0.181020  0.024180  0.446780  1
  O  O842  1  0.848020  0.446780  0.024180  1
  O  O843  1  0.024180  0.181020  0.848020  1
  O  O844  1  0.446780  0.848020  0.181020  1
  O  O845  1  0.446780  0.181020  0.024180  1
  O  O846  1  0.848020  0.024180  0.181020  1
  O  O847  1  0.181020  0.446780  0.848020  1
  O  O848  1  0.024180  0.848020  0.446780  1
  O  O849  1  0.024180  0.446780  0.181020  1
  O  O850  1  0.181020  0.848020  0.024180  1
  O  O851  1  0.848020  0.181020  0.446780  1
  O  O852  1  0.446780  0.024180  0.848020  1
  O  O853  1  0.680800  0.970800  0.582200  1
  O  O854  1  0.266200  0.582200  0.970800  1
  O  O855  1  0.970800  0.680800  0.266200  1
  O  O856  1  0.582200  0.266200  0.680800  1
  O  O857  1  0.582200  0.680800  0.970800  1
  O  O858  1  0.266200  0.970800  0.680800  1
  O  O859  1  0.680800  0.582200  0.266200  1
  O  O860  1  0.970800  0.266200  0.582200  1
  O  O861  1  0.970800  0.582200  0.680800  1
  O  O862  1  0.680800  0.266200  0.970800  1
  O  O863  1  0.266200  0.680800  0.582200  1
  O  O864  1  0.582200  0.970800  0.266200  1
  O  O865  1  0.319200  0.029200  0.417800  1
  O  O866  1  0.733800  0.417800  0.029200  1
  O  O867  1  0.029200  0.319200  0.733800  1
  O  O868  1  0.417800  0.733800  0.319200  1
  O  O869  1  0.417800  0.319200  0.029200  1
  O  O870  1  0.733800  0.029200  0.319200  1
  O  O871  1  0.319200  0.417800  0.733800  1
  O  O872  1  0.029200  0.733800  0.417800  1
  O  O873  1  0.029200  0.417800  0.319200  1
  O  O874  1  0.319200  0.733800  0.029200  1
  O  O875  1  0.733800  0.319200  0.417800  1
  O  O876  1  0.417800  0.029200  0.733800  1
  O  O877  1  0.992700  0.602300  0.463700  1
  O  O878  1  0.441300  0.463700  0.602300  1
  O  O879  1  0.602300  0.992700  0.441300  1
  O  O880  1  0.463700  0.441300  0.992700  1
  O  O881  1  0.463700  0.992700  0.602300  1
  O  O882  1  0.441300  0.602300  0.992700  1
  O  O883  1  0.992700  0.463700  0.441300  1
  O  O884  1  0.602300  0.441300  0.463700  1
  O  O885  1  0.602300  0.463700  0.992700  1
  O  O886  1  0.992700  0.441300  0.602300  1
  O  O887  1  0.441300  0.992700  0.463700  1
  O  O888  1  0.463700  0.602300  0.441300  1
  O  O889  1  0.007300  0.397700  0.536300  1
  O  O890  1  0.558700  0.536300  0.397700  1
  O  O891  1  0.397700  0.007300  0.558700  1
  O  O892  1  0.536300  0.558700  0.007300  1
  O  O893  1  0.536300  0.007300  0.397700  1
  O  O894  1  0.558700  0.397700  0.007300  1
  O  O895  1  0.007300  0.536300  0.558700  1
  O  O896  1  0.397700  0.558700  0.536300  1
  O  O897  1  0.397700  0.536300  0.007300  1
  O  O898  1  0.007300  0.558700  0.397700  1
  O  O899  1  0.558700  0.007300  0.536300  1
  O  O900  1  0.536300  0.397700  0.558700  1
  O  O901  1  0.840800  0.517000  0.735000  1
  O  O902  1  0.407200  0.735000  0.517000  1
  O  O903  1  0.517000  0.840800  0.407200  1
  O  O904  1  0.735000  0.407200  0.840800  1
  O  O905  1  0.735000  0.840800  0.517000  1
  O  O906  1  0.407200  0.517000  0.840800  1
  O  O907  1  0.840800  0.735000  0.407200  1
  O  O908  1  0.517000  0.407200  0.735000  1
  O  O909  1  0.517000  0.735000  0.840800  1
  O  O910  1  0.840800  0.407200  0.517000  1
  O  O911  1  0.407200  0.840800  0.735000  1
  O  O912  1  0.735000  0.517000  0.407200  1
  O  O913  1  0.159200  0.483000  0.265000  1
  O  O914  1  0.592800  0.265000  0.483000  1
  O  O915  1  0.483000  0.159200  0.592800  1
  O  O916  1  0.265000  0.592800  0.159200  1
  O  O917  1  0.265000  0.159200  0.483000  1
  O  O918  1  0.592800  0.483000  0.159200  1
  O  O919  1  0.159200  0.265000  0.592800  1
  O  O920  1  0.483000  0.592800  0.265000  1
  O  O921  1  0.483000  0.265000  0.159200  1
  O  O922  1  0.159200  0.592800  0.483000  1
  O  O923  1  0.592800  0.159200  0.265000  1
  O  O924  1  0.265000  0.483000  0.592800  1
  O  O925  1  0.764100  0.552700  0.685300  1
  O  O926  1  0.497900  0.685300  0.552700  1
  O  O927  1  0.552700  0.764100  0.497900  1
  O  O928  1  0.685300  0.497900  0.764100  1
  O  O929  1  0.685300  0.764100  0.552700  1
  O  O930  1  0.497900  0.552700  0.764100  1
  O  O931  1  0.764100  0.685300  0.497900  1
  O  O932  1  0.552700  0.497900  0.685300  1
  O  O933  1  0.552700  0.685300  0.764100  1
  O  O934  1  0.764100  0.497900  0.552700  1
  O  O935  1  0.497900  0.764100  0.685300  1
  O  O936  1  0.685300  0.552700  0.497900  1
  O  O937  1  0.235900  0.447300  0.314700  1
  O  O938  1  0.502100  0.314700  0.447300  1
  O  O939  1  0.447300  0.235900  0.502100  1
  O  O940  1  0.314700  0.502100  0.235900  1
  O  O941  1  0.314700  0.235900  0.447300  1
  O  O942  1  0.502100  0.447300  0.235900  1
  O  O943  1  0.235900  0.314700  0.502100  1
  O  O944  1  0.447300  0.502100  0.314700  1
  O  O945  1  0.447300  0.314700  0.235900  1
  O  O946  1  0.235900  0.502100  0.447300  1
  O  O947  1  0.502100  0.235900  0.314700  1
  O  O948  1  0.314700  0.447300  0.502100  1
  O  O949  1  0.557880  0.938520  0.942560  1.0
  O  O950  1  0.061040  0.942560  0.938520  1.0
  O  O951  1  0.938520  0.557880  0.061040  1.0
  O  O952  1  0.942560  0.061040  0.557880  1.0
  O  O953  1  0.942560  0.557880  0.938520  1.0
  O  O954  1  0.061040  0.938520  0.557880  1.0
  O  O955  1  0.557880  0.942560  0.061040  1.0
  O  O956  1  0.938520  0.061040  0.942560  1.0
  O  O957  1  0.938520  0.942560  0.557880  1.0
  O  O958  1  0.557880  0.061040  0.938520  1.0
  O  O959  1  0.061040  0.557880  0.942560  1.0
  O  O960  1  0.942560  0.938520  0.061040  1.0
  O  O961  1  0.442120  0.061480  0.057440  1.0
  O  O962  1  0.938960  0.057440  0.061480  1.0
  O  O963  1  0.061480  0.442120  0.938960  1.0
  O  O964  1  0.057440  0.938960  0.442120  1.0
  O  O965  1  0.057440  0.442120  0.061480  1.0
  O  O966  1  0.938960  0.061480  0.442120  1.0
  O  O967  1  0.442120  0.057440  0.938960  1.0
  O  O968  1  0.061480  0.938960  0.057440  1.0
  O  O969  1  0.061480  0.057440  0.442120  1.0
  O  O970  1  0.442120  0.938960  0.061480  1.0
  O  O971  1  0.938960  0.442120  0.057440  1.0
  O  O972  1  0.057440  0.061480  0.938960  1.0
  O  O973  1  0.574400  0.991800  0.766200  1.0
  O  O974  1  0.167600  0.766200  0.991800  1.0
  O  O975  1  0.991800  0.574400  0.167600  1.0
  O  O976  1  0.766200  0.167600  0.574400  1.0
  O  O977  1  0.766200  0.574400  0.991800  1.0
  O  O978  1  0.167600  0.991800  0.574400  1.0
  O  O979  1  0.574400  0.766200  0.167600  1.0
  O  O980  1  0.991800  0.167600  0.766200  1.0
  O  O981  1  0.991800  0.766200  0.574400  1.0
  O  O982  1  0.574400  0.167600  0.991800  1.0
  O  O983  1  0.167600  0.574400  0.766200  1.0
  O  O984  1  0.766200  0.991800  0.167600  1.0
  O  O985  1  0.425600  0.008200  0.233800  1.0
  O  O986  1  0.832400  0.233800  0.008200  1.0
  O  O987  1  0.008200  0.425600  0.832400  1.0
  O  O988  1  0.233800  0.832400  0.425600  1.0
  O  O989  1  0.233800  0.425600  0.008200  1.0
  O  O990  1  0.832400  0.008200  0.425600  1.0
  O  O991  1  0.425600  0.233800  0.832400  1.0
  O  O992  1  0.008200  0.832400  0.233800  1.0
  O  O993  1  0.008200  0.233800  0.425600  1.0
  O  O994  1  0.425600  0.832400  0.008200  1.0
  O  O995  1  0.832400  0.425600  0.233800  1.0
  O  O996  1  0.233800  0.008200  0.832400  1.0
  O  O997  1  0.601700  0.087300  0.723900  1.0
  O  O998  1  0.087100  0.723900  0.087300  1.0
  O  O999  1  0.087300  0.601700  0.087100  1.0
  O  O1000  1  0.723900  0.087100  0.601700  1.0
  O  O1001  1  0.723900  0.601700  0.087300  1.0
  O  O1002  1  0.087100  0.087300  0.601700  1.0
  O  O1003  1  0.601700  0.723900  0.087100  1.0
  O  O1004  1  0.087300  0.087100  0.723900  1.0
  O  O1005  1  0.087300  0.723900  0.601700  1.0
  O  O1006  1  0.601700  0.087100  0.087300  1.0
  O  O1007  1  0.087100  0.601700  0.723900  1.0
  O  O1008  1  0.723900  0.087300  0.087100  1.0
  O  O1009  1  0.398300  0.912700  0.276100  1.0
  O  O1010  1  0.912900  0.276100  0.912700  1.0
  O  O1011  1  0.912700  0.398300  0.912900  1.0
  O  O1012  1  0.276100  0.912900  0.398300  1.0
  O  O1013  1  0.276100  0.398300  0.912700  1.0
  O  O1014  1  0.912900  0.912700  0.398300  1.0
  O  O1015  1  0.398300  0.276100  0.912900  1.0
  O  O1016  1  0.912700  0.912900  0.276100  1.0
  O  O1017  1  0.912700  0.276100  0.398300  1.0
  O  O1018  1  0.398300  0.912900  0.912700  1.0
  O  O1019  1  0.912900  0.398300  0.276100  1.0
  O  O1020  1  0.276100  0.912700  0.912900  1.0
  O  O1021  1  0.603100  0.014300  0.828900  1.0
  O  O1022  1  0.053700  0.828900  0.014300  1.0
  O  O1023  1  0.014300  0.603100  0.053700  1.0
  O  O1024  1  0.828900  0.053700  0.603100  1.0
  O  O1025  1  0.828900  0.603100  0.014300  1.0
  O  O1026  1  0.053700  0.014300  0.603100  1.0
  O  O1027  1  0.603100  0.828900  0.053700  1.0
  O  O1028  1  0.014300  0.053700  0.828900  1.0
  O  O1029  1  0.014300  0.828900  0.603100  1.0
  O  O1030  1  0.603100  0.053700  0.014300  1.0
  O  O1031  1  0.053700  0.603100  0.828900  1.0
  O  O1032  1  0.828900  0.014300  0.053700  1.0
  O  O1033  1  0.396900  0.985700  0.171100  1.0
  O  O1034  1  0.946300  0.171100  0.985700  1.0
  O  O1035  1  0.985700  0.396900  0.946300  1.0
  O  O1036  1  0.171100  0.946300  0.396900  1.0
  O  O1037  1  0.171100  0.396900  0.985700  1.0
  O  O1038  1  0.946300  0.985700  0.396900  1.0
  O  O1039  1  0.396900  0.171100  0.946300  1.0
  O  O1040  1  0.985700  0.946300  0.171100  1.0
  O  O1041  1  0.985700  0.171100  0.396900  1.0
  O  O1042  1  0.396900  0.946300  0.985700  1.0
  O  O1043  1  0.946300  0.396900  0.171100  1.0
  O  O1044  1  0.171100  0.985700  0.946300  1.0
  S  S1045  1  0.608400  0.022000  0.742600  1
  S  S1046  1  0.127000  0.742600  0.022000  1
  S  S1047  1  0.022000  0.608400  0.127000  1
  S  S1048  1  0.742600  0.127000  0.608400  1
  S  S1049  1  0.742600  0.608400  0.022000  1
  S  S1050  1  0.127000  0.022000  0.608400  1
  S  S1051  1  0.608400  0.742600  0.127000  1
  S  S1052  1  0.022000  0.127000  0.742600  1
  S  S1053  1  0.022000  0.742600  0.608400  1
  S  S1054  1  0.608400  0.127000  0.022000  1
  S  S1055  1  0.127000  0.608400  0.742600  1
  S  S1056  1  0.742600  0.022000  0.127000  1
  S  S1057  1  0.391600  0.978000  0.257400  1
  S  S1058  1  0.873000  0.257400  0.978000  1
  S  S1059  1  0.978000  0.391600  0.873000  1
  S  S1060  1  0.257400  0.873000  0.391600  1
  S  S1061  1  0.257400  0.391600  0.978000  1
  S  S1062  1  0.873000  0.978000  0.391600  1
  S  S1063  1  0.391600  0.257400  0.873000  1
  S  S1064  1  0.978000  0.873000  0.257400  1
  S  S1065  1  0.978000  0.257400  0.391600  1
  S  S1066  1  0.391600  0.873000  0.978000  1
  S  S1067  1  0.873000  0.391600  0.257400  1
  S  S1068  1  0.257400  0.978000  0.873000  1
  S  S1069  1  0.611070  0.021030  0.765930  1.0
  S  S1070  1  0.101970  0.765930  0.021030  1.0
  S  S1071  1  0.021030  0.611070  0.101970  1.0
  S  S1072  1  0.765930  0.101970  0.611070  1.0
  S  S1073  1  0.765930  0.611070  0.021030  1.0
  S  S1074  1  0.101970  0.021030  0.611070  1.0
  S  S1075  1  0.611070  0.765930  0.101970  1.0
  S  S1076  1  0.021030  0.101970  0.765930  1.0
  S  S1077  1  0.021030  0.765930  0.611070  1.0
  S  S1078  1  0.611070  0.101970  0.021030  1.0
  S  S1079  1  0.101970  0.611070  0.765930  1.0
  S  S1080  1  0.765930  0.021030  0.101970  1.0
  S  S1081  1  0.388930  0.978970  0.234070  1.0
  S  S1082  1  0.898030  0.234070  0.978970  1.0
  S  S1083  1  0.978970  0.388930  0.898030  1.0
  S  S1084  1  0.234070  0.898030  0.388930  1.0
  S  S1085  1  0.234070  0.388930  0.978970  1.0
  S  S1086  1  0.898030  0.978970  0.388930  1.0
  S  S1087  1  0.388930  0.234070  0.898030  1.0
  S  S1088  1  0.978970  0.898030  0.234070  1.0
  S  S1089  1  0.978970  0.234070  0.388930  1.0
  S  S1090  1  0.388930  0.898030  0.978970  1.0
  S  S1091  1  0.898030  0.388930  0.234070  1.0
  S  S1092  1  0.234070  0.978970  0.898030  1.0
