
#######################################################################
#
#                 Cambridge Crystallographic Data Centre
#                                CCDC 
#
#######################################################################
#
# If this CIF has been generated from an entry in the Cambridge 
# Structural Database, then it will include bibliographic, chemical, 
# crystal, experimental, refinement or atomic coordinate data resulting 
# from the CCDC's data processing and validation procedures.
#
#######################################################################

data_GIDHAE
_chemical_formula_moiety         
'C144 H96 Fe4 N24 O36 S12 4-,2(H12 Fe1 O6 2+),49.68(H2 O1)'
_chemical_name_systematic        
"bis(Hexa-aqua-iron) hexakis(\m~2~-4,4'-bis((pyridin-2-ylmethylene)amino)biphenyl-2,2'-disulfonate)-tetra-iron unknown clathrate hydrate"
_symmetry_cell_setting           cubic
_symmetry_space_group_name_H-M   'F d -3'
_symmetry_Int_Tables_number      203
_space_group_name_Hall           '-F 2uv 2vw 3'
loop_
_symmetry_equiv_pos_site_id
_symmetry_equiv_pos_as_xyz
1 x,y,z
2 1/4-x,1/4-y,z
3 x,1/4-y,1/4-z
4 1/4-x,y,1/4-z
5 y,z,x
6 1/4-y,1/4-z,x
7 y,1/4-z,1/4-x
8 1/4-y,z,1/4-x
9 z,x,y
10 1/4-z,x,1/4-y
11 1/4-z,1/4-x,y
12 z,1/4-x,1/4-y
13 x,1/2+y,1/2+z
14 1/4-x,3/4-y,1/2+z
15 x,3/4-y,3/4-z
16 1/4-x,1/2+y,3/4-z
17 y,1/2+z,1/2+x
18 1/4-y,3/4-z,1/2+x
19 y,3/4-z,3/4-x
20 1/4-y,1/2+z,3/4-x
21 z,1/2+x,1/2+y
22 1/4-z,1/2+x,3/4-y
23 1/4-z,3/4-x,1/2+y
24 z,3/4-x,3/4-y
25 1/2+x,y,1/2+z
26 3/4-x,1/4-y,1/2+z
27 1/2+x,1/4-y,3/4-z
28 3/4-x,y,3/4-z
29 1/2+y,z,1/2+x
30 3/4-y,1/4-z,1/2+x
31 1/2+y,1/4-z,3/4-x
32 3/4-y,z,3/4-x
33 1/2+z,x,1/2+y
34 3/4-z,x,3/4-y
35 3/4-z,1/4-x,1/2+y
36 1/2+z,1/4-x,3/4-y
37 1/2+x,1/2+y,z
38 3/4-x,3/4-y,z
39 1/2+x,3/4-y,1/4-z
40 3/4-x,1/2+y,1/4-z
41 1/2+y,1/2+z,x
42 3/4-y,3/4-z,x
43 1/2+y,3/4-z,1/4-x
44 3/4-y,1/2+z,1/4-x
45 1/2+z,1/2+x,y
46 3/4-z,1/2+x,1/4-y
47 3/4-z,3/4-x,y
48 1/2+z,3/4-x,1/4-y
49 -x,-y,-z
50 3/4+x,3/4+y,-z
51 -x,3/4+y,3/4+z
52 3/4+x,-y,3/4+z
53 -y,-z,-x
54 3/4+y,3/4+z,-x
55 -y,3/4+z,3/4+x
56 3/4+y,-z,3/4+x
57 -z,-x,-y
58 3/4+z,-x,3/4+y
59 3/4+z,3/4+x,-y
60 -z,3/4+x,3/4+y
61 -x,1/2-y,1/2-z
62 3/4+x,1/4+y,1/2-z
63 -x,1/4+y,1/4+z
64 3/4+x,1/2-y,1/4+z
65 -y,1/2-z,1/2-x
66 3/4+y,1/4+z,1/2-x
67 -y,1/4+z,1/4+x
68 3/4+y,1/2-z,1/4+x
69 -z,1/2-x,1/2-y
70 3/4+z,1/2-x,1/4+y
71 3/4+z,1/4+x,1/2-y
72 -z,1/4+x,1/4+y
73 1/2-x,-y,1/2-z
74 1/4+x,3/4+y,1/2-z
75 1/2-x,3/4+y,1/4+z
76 1/4+x,-y,1/4+z
77 1/2-y,-z,1/2-x
78 1/4+y,3/4+z,1/2-x
79 1/2-y,3/4+z,1/4+x
80 1/4+y,-z,1/4+x
81 1/2-z,-x,1/2-y
82 1/4+z,-x,1/4+y
83 1/4+z,3/4+x,1/2-y
84 1/2-z,3/4+x,1/4+y
85 1/2-x,1/2-y,-z
86 1/4+x,1/4+y,-z
87 1/2-x,1/4+y,3/4+z
88 1/4+x,1/2-y,3/4+z
89 1/2-y,1/2-z,-x
90 1/4+y,1/4+z,-x
91 1/2-y,1/4+z,3/4+x
92 1/4+y,1/2-z,3/4+x
93 1/2-z,1/2-x,-y
94 1/4+z,1/2-x,3/4+y
95 1/4+z,1/4+x,-y
96 1/2-z,1/4+x,3/4+y
_cell_length_a                   35.8244(5)
_cell_length_b                   35.8244(5)
_cell_length_c                   35.8244(5)
_cell_angle_alpha                90
_cell_angle_beta                 90
_cell_angle_gamma                90
_cell_volume                     45976.6
_exptl_crystal_colour            purple
_exptl_crystal_description       prism
_cell_formula_units_Z            8
loop_
_atom_site_label
_atom_site_type_symbol
_atom_site_fract_x
_atom_site_fract_y
_atom_site_fract_z
S1 S 0.18395(15) 0.3115(2) 0.10652(15)
O1 O 0.2169(3) 0.3297(4) 0.1210(3)
O2 O 0.1555(4) 0.3372(5) 0.0944(6)
O3 O 0.1913(3) 0.2840(3) 0.0784(3)
N1 N 0.23682(17) 0.26678(16) 0.30283(15)
N2 N 0.19883(14) 0.26443(14) 0.24250(14)
C1 C 0.2578(3) 0.2665(2) 0.3335(2)
H1 H 0.2823 0.2581 0.3323
C2 C 0.2431(3) 0.2790(3) 0.3680(2)
H2 H 0.2580 0.2790 0.3892
C3 C 0.2064(3) 0.2911(3) 0.3703(3)
H3 H 0.1965 0.2989 0.3929
C4 C 0.1849(3) 0.2913(2) 0.3385(2)
H4 H 0.1603 0.2996 0.3392
C5 C 0.2004(2) 0.2792(2) 0.30579(19)
C6 C 0.18044(19) 0.27748(18) 0.27033(18)
H5 H 0.1558 0.2854 0.2680
C7 C 0.17854(17) 0.26285(16) 0.20805(17)
C8 C 0.18769(17) 0.28675(17) 0.17956(17)
H6 H 0.2076 0.3031 0.1825
C9 C 0.16784(17) 0.28702(17) 0.14662(18)
C10 C 0.13699(19) 0.26337(17) 0.14190(17)
C11 C 0.1287(2) 0.23908(19) 0.1708(2)
H7 H 0.1086 0.2228 0.1682
C12 C 0.1493(2) 0.23828(19) 0.20321(18)
H8 H 0.1435 0.2212 0.2218
Fe1 Fe 0.25159(2) 0.25159(2) 0.25159(2)
S1C S 0.06605(15) 0.3115(2) 0.14348(15)
O1C O 0.0331(3) 0.3297(4) 0.1290(3)
O2C O 0.0945(4) 0.3372(5) 0.1556(6)
O3C O 0.0587(3) 0.2840(3) 0.1716(3)
N1C N 0.01318(17) 0.26678(16) -0.05283(15)
N2C N 0.05117(14) 0.26443(14) 0.00750(14)
C1C C -0.0078(3) 0.2665(2) -0.0835(2)
H1C H -0.0323 0.2581 -0.0823
C2C C 0.0069(3) 0.2790(3) -0.1180(2)
H2C H -0.0080 0.2790 -0.1392
C3C C 0.0436(3) 0.2911(3) -0.1203(3)
H3C H 0.0535 0.2989 -0.1429
C4C C 0.0651(3) 0.2913(2) -0.0885(2)
H4C H 0.0897 0.2996 -0.0892
C5C C 0.0496(2) 0.2792(2) -0.05579(19)
C6C C 0.06956(19) 0.27748(18) -0.02033(18)
H5C H 0.0942 0.2854 -0.0180
C7C C 0.07146(17) 0.26285(16) 0.04195(17)
C8C C 0.06231(17) 0.28675(17) 0.07044(17)
H6C H 0.0424 0.3031 0.0675
C9C C 0.08216(17) 0.28702(17) 0.10338(18)
C10C C 0.11301(19) 0.26337(17) 0.10810(17)
C11C C 0.1213(2) 0.23908(19) 0.0792(2)
H7C H 0.1414 0.2228 0.0818
C12C C 0.1007(2) 0.23828(19) 0.04679(18)
H8C H 0.1065 0.2212 0.0282
Fe1C Fe -0.00159(2) 0.25159(2) -0.00159(2)
S1D S 0.3115(2) 0.10652(15) 0.18395(15)
O1D O 0.3297(4) 0.1210(3) 0.2169(3)
O2D O 0.3372(5) 0.0944(6) 0.1555(4)
O3D O 0.2840(3) 0.0784(3) 0.1913(3)
N1D N 0.26678(16) 0.30283(15) 0.23682(17)
N2D N 0.26443(14) 0.24250(14) 0.19883(14)
C1D C 0.2665(2) 0.3335(2) 0.2578(3)
H1D H 0.2581 0.3323 0.2823
C2D C 0.2790(3) 0.3680(2) 0.2431(3)
H2D H 0.2790 0.3892 0.2580
C3D C 0.2911(3) 0.3703(3) 0.2064(3)
H3D H 0.2989 0.3929 0.1965
C4D C 0.2913(2) 0.3385(2) 0.1849(3)
H4D H 0.2996 0.3392 0.1603
C5D C 0.2792(2) 0.30579(19) 0.2004(2)
C6D C 0.27748(18) 0.27033(18) 0.18044(19)
H5D H 0.2854 0.2680 0.1558
C7D C 0.26285(16) 0.20805(17) 0.17854(17)
C8D C 0.28675(17) 0.17956(17) 0.18769(17)
H6D H 0.3031 0.1825 0.2076
C9D C 0.28702(17) 0.14662(18) 0.16784(17)
C10D C 0.26337(17) 0.14190(17) 0.13699(19)
C11D C 0.23908(19) 0.1708(2) 0.1287(2)
H7D H 0.2228 0.1682 0.1086
C12D C 0.23828(19) 0.20321(18) 0.1493(2)
H8D H 0.2212 0.2218 0.1435
S1F S 0.3115(2) 0.14348(15) 0.06605(15)
O1F O 0.3297(4) 0.1290(3) 0.0331(3)
O2F O 0.3372(5) 0.1556(6) 0.0945(4)
O3F O 0.2840(3) 0.1716(3) 0.0587(3)
N1F N 0.26678(16) -0.05283(15) 0.01318(17)
N2F N 0.26443(14) 0.00750(14) 0.05117(14)
C1F C 0.2665(2) -0.0835(2) -0.0078(3)
H1F H 0.2581 -0.0823 -0.0323
C2F C 0.2790(3) -0.1180(2) 0.0069(3)
H2F H 0.2790 -0.1392 -0.0080
C3F C 0.2911(3) -0.1203(3) 0.0436(3)
H3F H 0.2989 -0.1429 0.0535
C4F C 0.2913(2) -0.0885(2) 0.0651(3)
H4F H 0.2996 -0.0892 0.0897
C5F C 0.2792(2) -0.05579(19) 0.0496(2)
C6F C 0.27748(18) -0.02033(18) 0.06956(19)
H5F H 0.2854 -0.0180 0.0942
C7F C 0.26285(16) 0.04195(17) 0.07146(17)
C8F C 0.28675(17) 0.07044(17) 0.06231(17)
H6F H 0.3031 0.0675 0.0424
C9F C 0.28702(17) 0.10338(18) 0.08216(17)
C10F C 0.26337(17) 0.10810(17) 0.11301(19)
C11F C 0.23908(19) 0.0792(2) 0.1213(2)
H7F H 0.2228 0.0818 0.1414
C12F C 0.23828(19) 0.04679(18) 0.1007(2)
H8F H 0.2212 0.0282 0.1065
S1E S -0.0615(2) 0.14348(15) 0.18395(15)
O1E O -0.0797(4) 0.1290(3) 0.2169(3)
O2E O -0.0872(5) 0.1556(6) 0.1555(4)
O3E O -0.0340(3) 0.1716(3) 0.1913(3)
N1E N -0.01678(16) -0.05283(15) 0.23682(17)
N2E N -0.01443(14) 0.00750(14) 0.19883(14)
C1E C -0.0165(2) -0.0835(2) 0.2578(3)
H1E H -0.0081 -0.0823 0.2823
C2E C -0.0290(3) -0.1180(2) 0.2431(3)
H2E H -0.0290 -0.1392 0.2580
C3E C -0.0411(3) -0.1203(3) 0.2064(3)
H3E H -0.0489 -0.1429 0.1965
C4E C -0.0413(2) -0.0885(2) 0.1849(3)
H4E H -0.0496 -0.0892 0.1603
C5E C -0.0292(2) -0.05579(19) 0.2004(2)
C6E C -0.02748(18) -0.02033(18) 0.18044(19)
H5E H -0.0354 -0.0180 0.1558
C7E C -0.01285(16) 0.04195(17) 0.17854(17)
C8E C -0.03675(17) 0.07044(17) 0.18769(17)
H6E H -0.0531 0.0675 0.2076
C9E C -0.03702(17) 0.10338(18) 0.16784(17)
C10E C -0.01337(17) 0.10810(17) 0.13699(19)
C11E C 0.01092(19) 0.0792(2) 0.1287(2)
H7E H 0.0272 0.0818 0.1086
C12E C 0.01172(19) 0.04679(18) 0.1493(2)
H8E H 0.0288 0.0282 0.1435
Fe1A Fe -0.00159(2) -0.00159(2) 0.25159(2)
S1G S -0.0615(2) 0.10652(15) 0.06605(15)
O1G O -0.0797(4) 0.1210(3) 0.0331(3)
O2G O -0.0872(5) 0.0944(6) 0.0945(4)
O3G O -0.0340(3) 0.0784(3) 0.0587(3)
N1G N -0.01678(16) 0.30283(15) 0.01318(17)
N2G N -0.01443(14) 0.24250(14) 0.05117(14)
C1G C -0.0165(2) 0.3335(2) -0.0078(3)
H1G H -0.0081 0.3323 -0.0323
C2G C -0.0290(3) 0.3680(2) 0.0069(3)
H2G H -0.0290 0.3892 -0.0080
C3G C -0.0411(3) 0.3703(3) 0.0436(3)
H3G H -0.0489 0.3929 0.0535
C4G C -0.0413(2) 0.3385(2) 0.0651(3)
H4G H -0.0496 0.3392 0.0897
C5G C -0.0292(2) 0.30579(19) 0.0496(2)
C6G C -0.02748(18) 0.27033(18) 0.06956(19)
H5G H -0.0354 0.2680 0.0942
C7G C -0.01285(16) 0.20805(17) 0.07146(17)
C8G C -0.03675(17) 0.17956(17) 0.06231(17)
H6G H -0.0531 0.1825 0.0424
C9G C -0.03702(17) 0.14662(18) 0.08216(17)
C10G C -0.01337(17) 0.14190(17) 0.11301(19)
C11G C 0.01092(19) 0.1708(2) 0.1213(2)
H7G H 0.0272 0.1682 0.1414
C12G C 0.01172(19) 0.20321(18) 0.1007(2)
H8G H 0.0288 0.2218 0.1065
Fe1B Fe 0.25159(2) -0.00159(2) -0.00159(2)
S1H S 0.10652(15) 0.18395(15) 0.3115(2)
O1H O 0.1210(3) 0.2169(3) 0.3297(4)
O2H O 0.0944(6) 0.1555(4) 0.3372(5)
O3H O 0.0784(3) 0.1913(3) 0.2840(3)
N1H N 0.30283(15) 0.23682(17) 0.26678(16)
N2H N 0.24250(14) 0.19883(14) 0.26443(14)
C1H C 0.3335(2) 0.2578(3) 0.2665(2)
H1H H 0.3323 0.2823 0.2581
C2H C 0.3680(2) 0.2431(3) 0.2790(3)
H2H H 0.3892 0.2580 0.2790
C3H C 0.3703(3) 0.2064(3) 0.2911(3)
H3H H 0.3929 0.1965 0.2989
C4H C 0.3385(2) 0.1849(3) 0.2913(2)
H4H H 0.3392 0.1603 0.2996
C5H C 0.30579(19) 0.2004(2) 0.2792(2)
C6H C 0.27033(18) 0.18044(19) 0.27748(18)
H5H H 0.2680 0.1558 0.2854
C7H C 0.20805(17) 0.17854(17) 0.26285(16)
C8H C 0.17956(17) 0.18769(17) 0.28675(17)
H6H H 0.1825 0.2076 0.3031
C9H C 0.14662(18) 0.16784(17) 0.28702(17)
C10H C 0.14190(17) 0.13699(19) 0.26337(17)
C11H C 0.1708(2) 0.1287(2) 0.23908(19)
H7H H 0.1682 0.1086 0.2228
C12H C 0.20321(18) 0.1493(2) 0.23828(19)
H8H H 0.2218 0.1435 0.2212
S1J S 0.14348(15) 0.06605(15) 0.3115(2)
O1J O 0.1290(3) 0.0331(3) 0.3297(4)
O2J O 0.1556(6) 0.0945(4) 0.3372(5)
O3J O 0.1716(3) 0.0587(3) 0.2840(3)
N1J N -0.05283(15) 0.01318(17) 0.26678(16)
N2J N 0.00750(14) 0.05117(14) 0.26443(14)
C1J C -0.0835(2) -0.0078(3) 0.2665(2)
H1J H -0.0823 -0.0323 0.2581
C2J C -0.1180(2) 0.0069(3) 0.2790(3)
H2J H -0.1392 -0.0080 0.2790
C3J C -0.1203(3) 0.0436(3) 0.2911(3)
H3J H -0.1429 0.0535 0.2989
C4J C -0.0885(2) 0.0651(3) 0.2913(2)
H4J H -0.0892 0.0897 0.2996
C5J C -0.05579(19) 0.0496(2) 0.2792(2)
C6J C -0.02033(18) 0.06956(19) 0.27748(18)
H5J H -0.0180 0.0942 0.2854
C7J C 0.04195(17) 0.07146(17) 0.26285(16)
C8J C 0.07044(17) 0.06231(17) 0.28675(17)
H6J H 0.0675 0.0424 0.3031
C9J C 0.10338(18) 0.08216(17) 0.28702(17)
C10J C 0.10810(17) 0.11301(19) 0.26337(17)
C11J C 0.0792(2) 0.1213(2) 0.23908(19)
H7J H 0.0818 0.1414 0.2228
C12J C 0.04679(18) 0.1007(2) 0.23828(19)
H8J H 0.0282 0.1065 0.2212
S1I S 0.14348(15) 0.18395(15) -0.0615(2)
O1I O 0.1290(3) 0.2169(3) -0.0797(4)
O2I O 0.1556(6) 0.1555(4) -0.0872(5)
O3I O 0.1716(3) 0.1913(3) -0.0340(3)
N1I N -0.05283(15) 0.23682(17) -0.01678(16)
N2I N 0.00750(14) 0.19883(14) -0.01443(14)
C1I C -0.0835(2) 0.2578(3) -0.0165(2)
H1I H -0.0823 0.2823 -0.0081
C2I C -0.1180(2) 0.2431(3) -0.0290(3)
H2I H -0.1392 0.2580 -0.0290
C3I C -0.1203(3) 0.2064(3) -0.0411(3)
H3I H -0.1429 0.1965 -0.0489
C4I C -0.0885(2) 0.1849(3) -0.0413(2)
H4I H -0.0892 0.1603 -0.0496
C5I C -0.05579(19) 0.2004(2) -0.0292(2)
C6I C -0.02033(18) 0.18044(19) -0.02748(18)
H5I H -0.0180 0.1558 -0.0354
C7I C 0.04195(17) 0.17854(17) -0.01285(16)
C8I C 0.07044(17) 0.18769(17) -0.03675(17)
H6I H 0.0675 0.2076 -0.0531
C9I C 0.10338(18) 0.16784(17) -0.03702(17)
C10I C 0.10810(17) 0.13699(19) -0.01337(17)
C11I C 0.0792(2) 0.1287(2) 0.01092(19)
H7I H 0.0818 0.1086 0.0272
C12I C 0.04679(18) 0.1493(2) 0.01172(19)
H8I H 0.0282 0.1435 0.0288
S1K S 0.10652(15) 0.06605(15) -0.0615(2)
O1K O 0.1210(3) 0.0331(3) -0.0797(4)
O2K O 0.0944(6) 0.0945(4) -0.0872(5)
O3K O 0.0784(3) 0.0587(3) -0.0340(3)
N1K N 0.30283(15) 0.01318(17) -0.01678(16)
N2K N 0.24250(14) 0.05117(14) -0.01443(14)
C1K C 0.3335(2) -0.0078(3) -0.0165(2)
H1K H 0.3323 -0.0323 -0.0081
C2K C 0.3680(2) 0.0069(3) -0.0290(3)
H2K H 0.3892 -0.0080 -0.0290
C3K C 0.3703(3) 0.0436(3) -0.0411(3)
H3K H 0.3929 0.0535 -0.0489
C4K C 0.3385(2) 0.0651(3) -0.0413(2)
H4K H 0.3392 0.0897 -0.0496
C5K C 0.30579(19) 0.0496(2) -0.0292(2)
C6K C 0.27033(18) 0.06956(19) -0.02748(18)
H5K H 0.2680 0.0942 -0.0354
C7K C 0.20805(17) 0.07146(17) -0.01285(16)
C8K C 0.17956(17) 0.06231(17) -0.03675(17)
H6K H 0.1825 0.0424 -0.0531
C9K C 0.14662(18) 0.08216(17) -0.03702(17)
C10K C 0.14190(17) 0.11301(19) -0.01337(17)
C11K C 0.1708(2) 0.1213(2) 0.01092(19)
H7K H 0.1682 0.1414 0.0272
C12K C 0.20321(18) 0.1007(2) 0.01172(19)
H8K H 0.2218 0.1065 0.0288
S1A S 0.06605(15) -0.0615(2) 0.10652(15)
O1A O 0.0331(3) -0.0797(4) 0.1210(3)
O2A O 0.0945(4) -0.0872(5) 0.0944(6)
O3A O 0.0587(3) -0.0340(3) 0.0784(3)
N1A N 0.01318(17) -0.01678(16) 0.30283(15)
N2A N 0.05117(14) -0.01443(14) 0.24250(14)
C1A C -0.0078(3) -0.0165(2) 0.3335(2)
H1A H -0.0323 -0.0081 0.3323
C2A C 0.0069(3) -0.0290(3) 0.3680(2)
H2A H -0.0080 -0.0290 0.3892
C3A C 0.0436(3) -0.0411(3) 0.3703(3)
H3A H 0.0535 -0.0489 0.3929
C4A C 0.0651(3) -0.0413(2) 0.3385(2)
H4A H 0.0897 -0.0496 0.3392
C5A C 0.0496(2) -0.0292(2) 0.30579(19)
C6A C 0.06956(19) -0.02748(18) 0.27033(18)
H5A H 0.0942 -0.0354 0.2680
C7A C 0.07146(17) -0.01285(16) 0.20805(17)
C8A C 0.06231(17) -0.03675(17) 0.17956(17)
H6A H 0.0424 -0.0531 0.1825
C9A C 0.08216(17) -0.03702(17) 0.14662(18)
C10A C 0.11301(19) -0.01337(17) 0.14190(17)
C11A C 0.1213(2) 0.01092(19) 0.1708(2)
H7A H 0.1414 0.0272 0.1682
C12A C 0.1007(2) 0.01172(19) 0.20321(18)
H8A H 0.1065 0.0288 0.2218
S1B S 0.18395(15) -0.0615(2) 0.14348(15)
O1B O 0.2169(3) -0.0797(4) 0.1290(3)
O2B O 0.1555(4) -0.0872(5) 0.1556(6)
O3B O 0.1913(3) -0.0340(3) 0.1716(3)
N1B N 0.23682(17) -0.01678(16) -0.05283(15)
N2B N 0.19883(14) -0.01443(14) 0.00750(14)
C1B C 0.2578(3) -0.0165(2) -0.0835(2)
H1B H 0.2823 -0.0081 -0.0823
C2B C 0.2431(3) -0.0290(3) -0.1180(2)
H2B H 0.2580 -0.0290 -0.1392
C3B C 0.2064(3) -0.0411(3) -0.1203(3)
H3B H 0.1965 -0.0489 -0.1429
C4B C 0.1849(3) -0.0413(2) -0.0885(2)
H4B H 0.1603 -0.0496 -0.0892
C5B C 0.2004(2) -0.0292(2) -0.05579(19)
C6B C 0.18044(19) -0.02748(18) -0.02033(18)
H5B H 0.1558 -0.0354 -0.0180
C7B C 0.17854(17) -0.01285(16) 0.04195(17)
C8B C 0.18769(17) -0.03675(17) 0.07044(17)
H6B H 0.2076 -0.0531 0.0675
C9B C 0.16784(17) -0.03702(17) 0.10338(18)
C10B C 0.13699(19) -0.01337(17) 0.10810(17)
C11B C 0.1287(2) 0.01092(19) 0.0792(2)
H7B H 0.1086 0.0272 0.0818
C12B C 0.1493(2) 0.01172(19) 0.04679(18)
H8B H 0.1435 0.0288 0.0282
Fe2 Fe 0.2500 0.2500 0.0000
O4 O 0.2518(2) 0.24978(19) 0.05946(19)
O4F O 0.24978(19) 0.19054(19) -0.0018(2)
O4I O 0.19054(19) 0.2518(2) 0.00022(19)
O4FC O 0.2482(2) 0.25022(19) -0.05946(19)
O4LC O 0.25022(19) 0.30946(19) 0.0018(2)
O4OC O 0.30946(19) 0.2482(2) -0.00022(19)
O5 O 0.1278(7) 0.3386(8) 0.2287(8)
O6 O 0.3168(8) 0.3168(8) 0.4332(8)
O7 O 0.3332(8) 0.2531(8) 0.3790(8)
O8 O 0.2844(16) 0.1956(15) 0.4075(10)
O9 O 0.3027(12) 0.1962(13) 0.3941(14)
O10 O 0.3254(3) 0.3254(3) 0.3254(3)
O11 O 0.1558(6) 0.3750 0.3750
O12 O 0.1694(13) 0.3648(13) 0.2456(15)
O13 O 0.2440(16) 0.2873(17) 0.4711(16)
S2? S 0.1848(2) 0.3245(2) 0.1177(2)
O14? O 0.1907(4) 0.3577(3) 0.1395(3)
O15? O 0.1572(7) 0.3291(7) 0.0889(7)
O16? O 0.2192(3) 0.3081(4) 0.1036(4)
O17? O 0.3070(6) 0.3070(6) 0.4430(6)
C13? C 0.1256(11) 0.1618(12) 0.1532(13)
C14? C 0.1250 0.143(2) 0.1250
O18? O 0.1026(2) 0.3139(3) 0.23548(19)
O19? O 0.1742(8) 0.3685(6) 0.2235(7)
O20? O 0.2025(14) 0.2718(13) 0.4670(13)
O21? O 0.3211(9) 0.2121(8) 0.3740(8)
O22? O 0.3416(5) 0.2753(5) 0.3810(4)
loop_
_geom_bond_atom_site_label_1
_geom_bond_atom_site_label_2
_geom_bond_site_symmetry_1
_geom_bond_site_symmetry_2
S1 O1 1_555 1_555
O2 S1 1_555 1_555
O3 S1 1_555 1_555
N1 C1 1_555 1_555
N2 C6 1_555 1_555
C1 H1 1_555 1_555
C2 C1 1_555 1_555
H2 C2 1_555 1_555
C3 C2 1_555 1_555
H3 C3 1_555 1_555
C4 C3 1_555 1_555
H4 C4 1_555 1_555
C5 N1 1_555 1_555
C6 C5 1_555 1_555
H5 C6 1_555 1_555
C7 N2 1_555 1_555
C8 C7 1_555 1_555
H6 C8 1_555 1_555
C9 S1 1_555 1_555
C10 C9 1_555 1_555
C11 C10 1_555 1_555
H7 C11 1_555 1_555
C12 C7 1_555 1_555
H8 C12 1_555 1_555
Fe1 N1 1_555 1_555
Fe2 O4 1_555 1_555
S1C O1C 1_555 1_555
O2C S1C 1_555 1_555
O3C S1C 1_555 1_555
N1C C1C 1_555 1_555
N2C C6C 1_555 1_555
C1C H1C 1_555 1_555
C2C C1C 1_555 1_555
H2C C2C 1_555 1_555
C3C C2C 1_555 1_555
H3C C3C 1_555 1_555
C4C C3C 1_555 1_555
H4C C4C 1_555 1_555
C5C N1C 1_555 1_555
C6C C5C 1_555 1_555
H5C C6C 1_555 1_555
C7C N2C 1_555 1_555
C8C C7C 1_555 1_555
H6C C8C 1_555 1_555
C9C S1C 1_555 1_555
C10C C10 1_555 1_555
C11C C10C 1_555 1_555
H7C C11C 1_555 1_555
C12C C7C 1_555 1_555
H8C C12C 1_555 1_555
Fe1C N1C 1_555 1_555
S1D O1D 1_555 1_555
O2D S1D 1_555 1_555
O3D S1D 1_555 1_555
N1D Fe1 1_555 1_555
N2D Fe1 1_555 1_555
C1D N1D 1_555 1_555
H1D C1D 1_555 1_555
C2D C1D 1_555 1_555
H2D C2D 1_555 1_555
C3D C2D 1_555 1_555
H3D C3D 1_555 1_555
C4D C3D 1_555 1_555
H4D C4D 1_555 1_555
C5D N1D 1_555 1_555
C6D N2D 1_555 1_555
H5D C6D 1_555 1_555
C7D N2D 1_555 1_555
C8D C7D 1_555 1_555
H6D C8D 1_555 1_555
C9D S1D 1_555 1_555
C10D C9D 1_555 1_555
C11D C10D 1_555 1_555
H7D C11D 1_555 1_555
C12D C7D 1_555 1_555
H8D C12D 1_555 1_555
S1F O1F 1_555 1_555
O2F S1F 1_555 1_555
O3F S1F 1_555 1_555
N1F C1F 1_555 1_555
N2F C6F 1_555 1_555
C1F H1F 1_555 1_555
C2F C1F 1_555 1_555
H2F C2F 1_555 1_555
C3F C2F 1_555 1_555
H3F C3F 1_555 1_555
C4F C3F 1_555 1_555
H4F C4F 1_555 1_555
C5F N1F 1_555 1_555
C6F C5F 1_555 1_555
H5F C6F 1_555 1_555
C7F N2F 1_555 1_555
C8F C7F 1_555 1_555
H6F C8F 1_555 1_555
C9F S1F 1_555 1_555
C10F C10D 1_555 1_555
C11F C10F 1_555 1_555
H7F C11F 1_555 1_555
C12F C7F 1_555 1_555
H8F C12F 1_555 1_555
S1E O1E 1_555 1_555
O2E S1E 1_555 1_555
O3E S1E 1_555 1_555
N1E C1E 1_555 1_555
N2E C6E 1_555 1_555
C1E H1E 1_555 1_555
C2E C1E 1_555 1_555
H2E C2E 1_555 1_555
C3E C2E 1_555 1_555
H3E C3E 1_555 1_555
C4E C3E 1_555 1_555
H4E C4E 1_555 1_555
C5E N1E 1_555 1_555
C6E C5E 1_555 1_555
H5E C6E 1_555 1_555
C7E N2E 1_555 1_555
C8E C7E 1_555 1_555
H6E C8E 1_555 1_555
C9E S1E 1_555 1_555
C10E C9E 1_555 1_555
C11E C10E 1_555 1_555
H7E C11E 1_555 1_555
C12E C7E 1_555 1_555
H8E C12E 1_555 1_555
Fe1A N1E 1_555 1_555
S1G O1G 1_555 1_555
O2G S1G 1_555 1_555
O3G S1G 1_555 1_555
N1G Fe1C 1_555 1_555
N2G Fe1C 1_555 1_555
C1G N1G 1_555 1_555
H1G C1G 1_555 1_555
C2G C1G 1_555 1_555
H2G C2G 1_555 1_555
C3G C2G 1_555 1_555
H3G C3G 1_555 1_555
C4G C3G 1_555 1_555
H4G C4G 1_555 1_555
C5G N1G 1_555 1_555
C6G N2G 1_555 1_555
H5G C6G 1_555 1_555
C7G N2G 1_555 1_555
C8G C7G 1_555 1_555
H6G C8G 1_555 1_555
C9G S1G 1_555 1_555
C10G C10E 1_555 1_555
C11G C10G 1_555 1_555
H7G C11G 1_555 1_555
C12G C7G 1_555 1_555
H8G C12G 1_555 1_555
Fe1B N1F 1_555 1_555
S1H O1H 1_555 1_555
O2H S1H 1_555 1_555
O3H S1H 1_555 1_555
N1H Fe1 1_555 1_555
N2H Fe1 1_555 1_555
C1H N1H 1_555 1_555
H1H C1H 1_555 1_555
C2H C1H 1_555 1_555
H2H C2H 1_555 1_555
C3H C2H 1_555 1_555
H3H C3H 1_555 1_555
C4H C3H 1_555 1_555
H4H C4H 1_555 1_555
C5H N1H 1_555 1_555
C6H N2H 1_555 1_555
H5H C6H 1_555 1_555
C7H N2H 1_555 1_555
C8H C7H 1_555 1_555
H6H C8H 1_555 1_555
C9H S1H 1_555 1_555
C10H C9H 1_555 1_555
C11H C10H 1_555 1_555
H7H C11H 1_555 1_555
C12H C7H 1_555 1_555
H8H C12H 1_555 1_555
S1J O1J 1_555 1_555
O2J S1J 1_555 1_555
O3J S1J 1_555 1_555
N1J Fe1A 1_555 1_555
N2J Fe1A 1_555 1_555
C1J N1J 1_555 1_555
H1J C1J 1_555 1_555
C2J C1J 1_555 1_555
H2J C2J 1_555 1_555
C3J C2J 1_555 1_555
H3J C3J 1_555 1_555
C4J C3J 1_555 1_555
H4J C4J 1_555 1_555
C5J N1J 1_555 1_555
C6J N2J 1_555 1_555
H5J C6J 1_555 1_555
C7J N2J 1_555 1_555
C8J C7J 1_555 1_555
H6J C8J 1_555 1_555
C9J S1J 1_555 1_555
C10J C10H 1_555 1_555
C11J C10J 1_555 1_555
H7J C11J 1_555 1_555
C12J C7J 1_555 1_555
H8J C12J 1_555 1_555
S1I O1I 1_555 1_555
O2I S1I 1_555 1_555
O3I S1I 1_555 1_555
N1I Fe1C 1_555 1_555
N2I Fe1C 1_555 1_555
C1I N1I 1_555 1_555
H1I C1I 1_555 1_555
C2I C1I 1_555 1_555
H2I C2I 1_555 1_555
C3I C2I 1_555 1_555
H3I C3I 1_555 1_555
C4I C3I 1_555 1_555
H4I C4I 1_555 1_555
C5I N1I 1_555 1_555
C6I N2I 1_555 1_555
H5I C6I 1_555 1_555
C7I N2I 1_555 1_555
C8I C7I 1_555 1_555
H6I C8I 1_555 1_555
C9I S1I 1_555 1_555
C10I C9I 1_555 1_555
C11I C10I 1_555 1_555
H7I C11I 1_555 1_555
C12I C7I 1_555 1_555
H8I C12I 1_555 1_555
S1K O1K 1_555 1_555
O2K S1K 1_555 1_555
O3K S1K 1_555 1_555
N1K Fe1B 1_555 1_555
N2K Fe1B 1_555 1_555
C1K N1K 1_555 1_555
H1K C1K 1_555 1_555
C2K C1K 1_555 1_555
H2K C2K 1_555 1_555
C3K C2K 1_555 1_555
H3K C3K 1_555 1_555
C4K C3K 1_555 1_555
H4K C4K 1_555 1_555
C5K N1K 1_555 1_555
C6K N2K 1_555 1_555
H5K C6K 1_555 1_555
C7K N2K 1_555 1_555
C8K C7K 1_555 1_555
H6K C8K 1_555 1_555
C9K S1K 1_555 1_555
C10K C10I 1_555 1_555
C11K C10K 1_555 1_555
H7K C11K 1_555 1_555
C12K C7K 1_555 1_555
H8K C12K 1_555 1_555
S1A O1A 1_555 1_555
O2A S1A 1_555 1_555
O3A S1A 1_555 1_555
N1A Fe1A 1_555 1_555
N2A Fe1A 1_555 1_555
C1A N1A 1_555 1_555
H1A C1A 1_555 1_555
C2A C1A 1_555 1_555
H2A C2A 1_555 1_555
C3A C2A 1_555 1_555
H3A C3A 1_555 1_555
C4A C3A 1_555 1_555
H4A C4A 1_555 1_555
C5A N1A 1_555 1_555
C6A N2A 1_555 1_555
H5A C6A 1_555 1_555
C7A N2A 1_555 1_555
C8A C7A 1_555 1_555
H6A C8A 1_555 1_555
C9A S1A 1_555 1_555
C10A C9A 1_555 1_555
C11A C10A 1_555 1_555
H7A C11A 1_555 1_555
C12A C7A 1_555 1_555
H8A C12A 1_555 1_555
S1B O1B 1_555 1_555
O2B S1B 1_555 1_555
O3B S1B 1_555 1_555
N1B Fe1B 1_555 1_555
N2B Fe1B 1_555 1_555
C1B N1B 1_555 1_555
H1B C1B 1_555 1_555
C2B C1B 1_555 1_555
H2B C2B 1_555 1_555
C3B C2B 1_555 1_555
H3B C3B 1_555 1_555
C4B C3B 1_555 1_555
H4B C4B 1_555 1_555
C5B N1B 1_555 1_555
C6B N2B 1_555 1_555
H5B C6B 1_555 1_555
C7B N2B 1_555 1_555
C8B C7B 1_555 1_555
H6B C8B 1_555 1_555
C9B S1B 1_555 1_555
C10B C10A 1_555 1_555
C11B C10B 1_555 1_555
H7B C11B 1_555 1_555
C12B C7B 1_555 1_555
H8B C12B 1_555 1_555
O4F Fe2 1_555 1_555
O4I Fe2 1_555 1_555
O4FC Fe2 1_555 1_555
O4LC Fe2 1_555 1_555
O4OC Fe2 1_555 1_555
N2 Fe1 1_555 1_555
C4 C5 1_555 1_555
C8 C9 1_555 1_555
C11 C12 1_555 1_555
N2C Fe1C 1_555 1_555
C4C C5C 1_555 1_555
C8C C9C 1_555 1_555
C9C C10C 1_555 1_555
C11C C12C 1_555 1_555
C4D C5D 1_555 1_555
C5D C6D 1_555 1_555
C8D C9D 1_555 1_555
C11D C12D 1_555 1_555
N2F Fe1B 1_555 1_555
C4F C5F 1_555 1_555
C8F C9F 1_555 1_555
C9F C10F 1_555 1_555
C11F C12F 1_555 1_555
N2E Fe1A 1_555 1_555
C4E C5E 1_555 1_555
C8E C9E 1_555 1_555
C11E C12E 1_555 1_555
C4G C5G 1_555 1_555
C5G C6G 1_555 1_555
C8G C9G 1_555 1_555
C9G C10G 1_555 1_555
C11G C12G 1_555 1_555
C4H C5H 1_555 1_555
C5H C6H 1_555 1_555
C8H C9H 1_555 1_555
C11H C12H 1_555 1_555
C4J C5J 1_555 1_555
C5J C6J 1_555 1_555
C8J C9J 1_555 1_555
C9J C10J 1_555 1_555
C11J C12J 1_555 1_555
C4I C5I 1_555 1_555
C5I C6I 1_555 1_555
C8I C9I 1_555 1_555
C11I C12I 1_555 1_555
C4K C5K 1_555 1_555
C5K C6K 1_555 1_555
C8K C9K 1_555 1_555
C9K C10K 1_555 1_555
C11K C12K 1_555 1_555
C4A C5A 1_555 1_555
C5A C6A 1_555 1_555
C8A C9A 1_555 1_555
C11A C12A 1_555 1_555
C4B C5B 1_555 1_555
C5B C6B 1_555 1_555
C8B C9B 1_555 1_555
C9B C10B 1_555 1_555
C11B C12B 1_555 1_555

#END
