
#######################################################################
#
#                 Cambridge Crystallographic Data Centre
#                                CCDC 
#
#######################################################################
#
# If this CIF has been generated from an entry in the Cambridge 
# Structural Database, then it will include bibliographic, chemical, 
# crystal, experimental, refinement or atomic coordinate data resulting 
# from the CCDC's data processing and validation procedures.
#
#######################################################################

data_GIDLUD
_chemical_formula_moiety         'C38 H60 N12 O2 Pd2 2+,2(N1 O3 1-),4.6(H2 O1)'
_chemical_name_systematic        
"bis(\m-N,N'-bis[(pyridin-4-yl)methyl]urea)-bis(N^1^,N^1^,N^2^,N^2^-tetramethylethane-1,2-diamine)-di-palladium dinitrate hydrate"
_symmetry_cell_setting           triclinic
_symmetry_space_group_name_H-M   'P -1'
_symmetry_Int_Tables_number      2
_space_group_name_Hall           '-P 1'
loop_
_symmetry_equiv_pos_site_id
_symmetry_equiv_pos_as_xyz
1 x,y,z
2 -x,-y,-z
_cell_length_a                   13.3576(5)
_cell_length_b                   13.9054(5)
_cell_length_c                   17.6592(6)
_cell_angle_alpha                101.454(2)
_cell_angle_beta                 95.122(2)
_cell_angle_gamma                104.6700(10)
_cell_volume                     3076.07
_exptl_crystal_description       block
_cell_formula_units_Z            2
loop_
_atom_site_label
_atom_site_type_symbol
_atom_site_fract_x
_atom_site_fract_y
_atom_site_fract_z
C1 C 1.0045(10) 0.7064(9) 0.3684(8)
H1 H 0.9530 0.7376 0.3512
H2 H 1.0728 0.7457 0.3632
H3 H 1.0018 0.7039 0.4221
C2 C 1.0011(10) 0.5411(9) 0.3819(7)
H4 H 1.0704 0.5311 0.3821
H5 H 0.9987 0.5820 0.4327
C3 C 0.9263(10) 0.4452(9) 0.3693(8)
H6 H 0.9224 0.4262 0.4192
H7 H 0.9518 0.3952 0.3359
C4 C 0.7696(10) 0.3286(9) 0.2863(7)
H8 H 0.7006 0.3029 0.2984
H9 H 0.8125 0.2863 0.2988
H10 H 0.7655 0.3279 0.2316
C5 C 0.7401(11) 0.4443(10) 0.3897(8)
H11 H 0.7064 0.3773 0.3960
H12 H 0.6885 0.4736 0.3697
H13 H 0.7759 0.4867 0.4394
C6 C 0.6596(6) 0.4106(5) 0.1409(5)
H14 H 0.7155 0.3956 0.1179
C7 C 0.5600(6) 0.3619(5) 0.1027(5)
H15 H 0.5492 0.3140 0.0556
C8 C 0.4767(5) 0.3849(4) 0.1347(4)
C9 C 0.4963(5) 0.4573(5) 0.2027(4)
H16 H 0.4416 0.4765 0.2247
C10 C 0.5996(6) 0.5024(5) 0.2392(4)
H17 H 0.6117 0.5510 0.2859
C11 C 0.3665(6) 0.3283(5) 0.0939(5)
H18 H 0.3674 0.3118 0.0380
H19 H 0.3443 0.2645 0.1102
C12 C 0.2913(5) 0.4666(5) 0.0807(4)
C13 C 0.1990(7) 0.5942(6) 0.0699(5)
H20 H 0.1245 0.5783 0.0523
H21 H 0.2341 0.5949 0.0242
C14 C 0.2351(5) 0.7008(5) 0.1236(4)
C15 C 0.1995(5) 0.7755(5) 0.1045(4)
H22 H 0.1507 0.7613 0.0600
C16 C 0.2346(5) 0.8748(5) 0.1508(4)
H23 H 0.2116 0.9268 0.1355
C17 C 0.3370(6) 0.8227(5) 0.2350(4)
H24 H 0.3865 0.8380 0.2793
C18 C 0.3037(6) 0.7233(5) 0.1904(4)
H25 H 0.3283 0.6723 0.2060
C19 C 0.2361(9) 0.9343(9) 0.3887(8)
H26 H 0.2070 0.9436 0.4365
H27 H 0.3064 0.9302 0.3995
H28 H 0.1945 0.8723 0.3534
C20 C 0.1313(10) 0.9966(10) 0.3071(8)
H29 H 0.1093 0.9257 0.2807
H30 H 0.1341 1.0378 0.2693
H31 H 0.0824 1.0107 0.3414
C21 C 0.2653(10) 1.1134(8) 0.4201(7)
H32 H 0.2032 1.1205 0.4426
H33 H 0.3147 1.1051 0.4603
C22 C 0.3121(11) 1.2059(9) 0.3928(8)
H34 H 0.3384 1.2635 0.4372
H35 H 0.2589 1.2207 0.3594
C23 C 0.4182(7) 1.2671(5) 0.3001(6)
H36 H 0.3766 1.2384 0.2496
H37 H 0.4909 1.2859 0.2943
H38 H 0.3993 1.3267 0.3249
C24 C 0.5008(10) 1.2065(10) 0.3980(7)
H39 H 0.5564 1.2156 0.3670
H40 H 0.4980 1.1476 0.4192
H41 H 0.5132 1.2658 0.4399
C25 C 0.4405(5) 1.0851(5) 0.1427(4)
H42 H 0.3731 1.0880 0.1274
C26 C 0.5157(5) 1.0985(4) 0.0917(4)
H43 H 0.4985 1.1107 0.0430
C27 C 0.6157(5) 1.0933(4) 0.1150(4)
C28 C 0.6369(5) 1.0743(5) 0.1868(4)
H44 H 0.7035 1.0703 0.2033
C29 C 0.5621(6) 1.0611(6) 0.2350(4)
H45 H 0.5785 1.0472 0.2832
C30 C 0.6966(6) 1.1133(5) 0.0627(5)
H46 H 0.6640 1.0816 0.0092
H47 H 0.7204 1.1864 0.0670
C31 C 0.7792(5) 0.9754(5) 0.0563(4)
C32 C 0.8770(6) 0.8502(5) 0.0411(4)
H48 H 0.9440 0.8560 0.0226
H49 H 0.8230 0.8187 -0.0037
C33 C 0.8667(5) 0.7790(5) 0.0977(4)
C34 C 0.8889(5) 0.6870(5) 0.0765(4)
H50 H 0.9113 0.6695 0.0286
C35 C 0.8784(5) 0.6212(5) 0.1251(4)
H51 H 0.8938 0.5594 0.1093
C36 C 0.8232(6) 0.7311(6) 0.2158(5)
H52 H 0.7994 0.7468 0.2634
C37 C 0.8339(7) 0.8015(5) 0.1667(4)
H53 H 0.8180 0.8632 0.1825
N1 N 0.9824(5) 0.5992(5) 0.3191(4)
N2 N 0.8173(5) 0.4372(4) 0.3336(4)
N3 N 0.6807(4) 0.4796(4) 0.2106(3)
N4 N 0.2923(5) 0.3844(5) 0.1096(4)
H54 H 0.2464 0.3651 0.1387
N5 N 0.2183(5) 0.5132(4) 0.1052(4)
H55 H 0.1837 0.4950 0.1412
N6 N 0.3014(4) 0.8956(4) 0.2170(3)
N7 N 0.2367(5) 1.0205(5) 0.3532(4)
N8 N 0.3996(4) 1.1915(4) 0.3483(3)
N9 N 0.4658(4) 1.0679(4) 0.2140(3)
N10 N 0.7869(4) 1.0769(4) 0.0784(4)
H56 H 0.8453 1.1194 0.1017
N11 N 0.8695(4) 0.9516(4) 0.0725(4)
H57 H 0.9224 0.9968 0.1015
N12 N 0.8468(4) 0.6426(4) 0.1946(3)
O1 O 0.3530(4) 0.4985(5) 0.0406(4)
O2 O 0.6953(4) 0.9121(3) 0.0280(3)
Pd1 Pd 0.83061(4) 0.54047(4) 0.26390(3)
Pd2 Pd 0.35142(4) 1.04280(3) 0.28237(3)
C38 C 1.0591(10) 0.5983(14) 0.2656(8)
H58 H 1.0242 0.5815 0.2128
H59 H 1.0950 0.5483 0.2726
H60 H 1.1086 0.6645 0.2761
N13 N 0.9433(4) 0.3502(5) 0.0972(4)
O3 O 0.9907(5) 0.4270(5) 0.0766(5)
O4 O 0.9549(6) 0.2640(5) 0.0654(4)
O5 O 0.8716(7) 0.3484(8) 0.1311(6)
N14 N 0.1234(6) 0.1017(8) 0.1472(5)
O6 O 0.2196(8) 0.1452(7) 0.1763(6)
O7 O 0.1046(8) 0.0199(8) 0.0999(7)
O8 O 0.0492(8) 0.1367(7) 0.1666(6)
O9 O 0.5151(8) 0.9597(7) 0.4121(6)
O10 O 0.5329(8) 0.8132(8) 0.1023(6)
O11 O 0.5632(7) 0.6146(7) 0.0835(6)
O12 O 0.7472(10) 0.7076(10) 0.3989(8)
O13 O 0.705(3) 0.271(2) 0.583(2)
O14 O 0.1389(11) 0.3653(10) 0.2168(9)
loop_
_geom_bond_atom_site_label_1
_geom_bond_atom_site_label_2
_geom_bond_site_symmetry_1
_geom_bond_site_symmetry_2
C1 H1 1_555 1_555
H2 C1 1_555 1_555
H3 C1 1_555 1_555
C2 H4 1_555 1_555
H5 C2 1_555 1_555
C3 C2 1_555 1_555
H6 C3 1_555 1_555
H7 C3 1_555 1_555
C4 H8 1_555 1_555
H9 C4 1_555 1_555
H10 C4 1_555 1_555
C5 H11 1_555 1_555
H12 C5 1_555 1_555
H13 C5 1_555 1_555
C6 H14 1_555 1_555
C7 C6 1_555 1_555
H15 C7 1_555 1_555
C8 C7 1_555 1_555
C9 C8 1_555 1_555
H16 C9 1_555 1_555
C10 C9 1_555 1_555
H17 C10 1_555 1_555
C11 C8 1_555 1_555
H18 C11 1_555 1_555
H19 C11 1_555 1_555
C12 N4 1_555 1_555
C13 H20 1_555 1_555
H21 C13 1_555 1_555
C14 C13 1_555 1_555
C15 C14 1_555 1_555
H22 C15 1_555 1_555
C16 C15 1_555 1_555
H23 C16 1_555 1_555
C17 H24 1_555 1_555
C18 C14 1_555 1_555
H25 C18 1_555 1_555
C19 H26 1_555 1_555
H27 C19 1_555 1_555
H28 C19 1_555 1_555
C20 H29 1_555 1_555
H30 C20 1_555 1_555
H31 C20 1_555 1_555
C21 H32 1_555 1_555
H33 C21 1_555 1_555
C22 C21 1_555 1_555
H34 C22 1_555 1_555
H35 C22 1_555 1_555
C23 H36 1_555 1_555
H37 C23 1_555 1_555
H38 C23 1_555 1_555
C24 H39 1_555 1_555
H40 C24 1_555 1_555
H41 C24 1_555 1_555
C25 H42 1_555 1_555
C26 C25 1_555 1_555
H43 C26 1_555 1_555
C27 C26 1_555 1_555
C28 C27 1_555 1_555
H44 C28 1_555 1_555
C29 C28 1_555 1_555
H45 C29 1_555 1_555
C30 C27 1_555 1_555
H46 C30 1_555 1_555
H47 C30 1_555 1_555
C31 N10 1_555 1_555
C32 H48 1_555 1_555
H49 C32 1_555 1_555
C33 C32 1_555 1_555
C34 C33 1_555 1_555
H50 C34 1_555 1_555
C35 C34 1_555 1_555
H51 C35 1_555 1_555
C36 H52 1_555 1_555
C37 C33 1_555 1_555
H53 C37 1_555 1_555
N1 C1 1_555 1_555
N2 C3 1_555 1_555
N3 C6 1_555 1_555
N4 C11 1_555 1_555
H54 N4 1_555 1_555
N5 C12 1_555 1_555
H55 N5 1_555 1_555
N6 C16 1_555 1_555
N7 C19 1_555 1_555
N8 C22 1_555 1_555
N9 C25 1_555 1_555
N10 C30 1_555 1_555
H56 N10 1_555 1_555
N11 C31 1_555 1_555
H57 N11 1_555 1_555
N12 C35 1_555 1_555
O1 C12 1_555 1_555
O2 C31 1_555 1_555
Pd1 N1 1_555 1_555
Pd2 N6 1_555 1_555
C38 N1 1_555 1_555
H58 C38 1_555 1_555
H59 C38 1_555 1_555
H60 C38 1_555 1_555
N13 O3 1_555 1_555
O4 N13 1_555 1_555
O5 N13 1_555 1_555
N14 O6 1_555 1_555
O7 N14 1_555 1_555
O8 N14 1_555 1_555
C2 N1 1_555 1_555
C4 N2 1_555 1_555
C5 N2 1_555 1_555
C10 N3 1_555 1_555
C13 N5 1_555 1_555
C17 C18 1_555 1_555
C17 N6 1_555 1_555
C20 N7 1_555 1_555
C21 N7 1_555 1_555
C23 N8 1_555 1_555
C24 N8 1_555 1_555
C29 N9 1_555 1_555
C32 N11 1_555 1_555
C36 C37 1_555 1_555
C36 N12 1_555 1_555
N2 Pd1 1_555 1_555
N3 Pd1 1_555 1_555
N7 Pd2 1_555 1_555
N8 Pd2 1_555 1_555
N9 Pd2 1_555 1_555
N12 Pd1 1_555 1_555

#END
