
#######################################################################
#
#                 Cambridge Crystallographic Data Centre
#                                CCDC 
#
#######################################################################
#
# If this CIF has been generated from an entry in the Cambridge 
# Structural Database, then it will include bibliographic, chemical, 
# crystal, experimental, refinement or atomic coordinate data resulting 
# from the CCDC's data processing and validation procedures.
#
#######################################################################

data_GIDLOX
_chemical_formula_moiety         'C46 H44 N12 O2 Pd2 4+,4(N1 O3 1-)'
_chemical_name_systematic        
"bis(\m-N,N'-bis[(pyridin-4-yl)methyl]urea)-bis(2,2'-bipyridine)-di-palladium tetranitrate unknown solvate"
_symmetry_cell_setting           tetragonal
_symmetry_space_group_name_H-M   'P 42/n m c'
_symmetry_Int_Tables_number      137
_space_group_name_Hall           '-P 4ac 2a'
loop_
_symmetry_equiv_pos_site_id
_symmetry_equiv_pos_as_xyz
1 x,y,z
2 1/2-x,1/2-y,z
3 1/2+x,-y,-z
4 -x,1/2+y,-z
5 -y,-x,1/2-z
6 1/2+y,1/2+x,1/2-z
7 y,1/2-x,1/2+z
8 1/2-y,x,1/2+z
9 -x,-y,-z
10 1/2+x,1/2+y,-z
11 1/2-x,y,z
12 x,1/2-y,z
13 y,x,1/2+z
14 1/2-y,1/2-x,1/2+z
15 -y,1/2+x,1/2-z
16 1/2+y,-x,1/2-z
_cell_length_a                   23.1761(16)
_cell_length_b                   23.1761(16)
_cell_length_c                   12.2799(11)
_cell_angle_alpha                90
_cell_angle_beta                 90
_cell_angle_gamma                90
_cell_volume                     6595.92
_cell_formula_units_Z            4
loop_
_atom_site_label
_atom_site_type_symbol
_atom_site_fract_x
_atom_site_fract_y
_atom_site_fract_z
Pd1 Pd 0.2500 0.00880(12) 0.1999(2)
N1 N 0.3093(6) 0.0595(6) 0.2656(12)
C1 C 0.3312(8) 0.0441(7) 0.3669(12)
H1 H 0.3144 0.0141 0.4059
C2 C 0.3783(8) 0.0735(9) 0.4098(12)
H2 H 0.3930 0.0632 0.4775
C3 C 0.4034(6) 0.1184(9) 0.3515(16)
C4 C 0.3814(7) 0.1338(6) 0.2502(15)
H3 H 0.3983 0.1638 0.2112
C5 C 0.3344(7) 0.1044(6) 0.2073(10)
H4 H 0.3197 0.1147 0.1396
C6 C 0.4601(14) 0.1540(16) 0.402(3)
H5 H 0.4519 0.1627 0.4777
H6 H 0.4929 0.1279 0.4011
N2 N 0.1959(9) -0.0461(8) 0.1291(16)
C7 C 0.2225(11) -0.0848(11) 0.059(2)
C8 C 0.189(2) -0.1219(10) -0.004(2)
H7 H 0.2071 -0.1478 -0.0516
C9 C 0.1295(19) -0.1204(13) 0.003(3)
H8 H 0.1073 -0.1452 -0.0391
C10 C 0.1029(10) -0.0817(16) 0.073(3)
H9 H 0.0629 -0.0807 0.0784
C11 C 0.1361(10) -0.0446(12) 0.1365(19)
H10 H 0.1183 -0.0187 0.1836
N3 N 0.4765(10) 0.2032(15) 0.354(3)
C12 C 0.459(2) 0.2500 0.393(5)
O1 O 0.4236(12) 0.2500 0.482(2)
N1K N 0.3093(6) 0.4405(6) 0.2656(12)
C1K C 0.3312(8) 0.4559(7) 0.3669(12)
H1K H 0.3144 0.4859 0.4059
C2K C 0.3783(8) 0.4265(9) 0.4098(12)
H2K H 0.3930 0.4368 0.4775
C3K C 0.4034(6) 0.3816(9) 0.3515(16)
C4K C 0.3814(7) 0.3662(6) 0.2502(15)
H3K H 0.3983 0.3362 0.2112
C5K C 0.3344(7) 0.3956(6) 0.2073(10)
H4K H 0.3197 0.3853 0.1396
C6K C 0.4601(14) 0.3460(16) 0.402(3)
H5K H 0.4519 0.3373 0.4777
H6K H 0.4929 0.3721 0.4011
N3K N 0.4765(10) 0.2968(15) 0.354(3)
N2J N 0.3041(9) -0.0461(8) 0.1291(16)
C7J C 0.2775(11) -0.0848(11) 0.059(2)
C8J C 0.311(2) -0.1219(10) -0.004(2)
H7J H 0.2929 -0.1478 -0.0516
C9J C 0.3705(19) -0.1204(13) 0.003(3)
H8J H 0.3927 -0.1452 -0.0391
C10J C 0.3971(10) -0.0817(16) 0.073(3)
H9J H 0.4371 -0.0807 0.0784
C11J C 0.3639(10) -0.0446(12) 0.1365(19)
H10J H 0.3817 -0.0187 0.1836
Pd1A Pd 0.2500 0.49120(12) 0.1999(2)
N1A N 0.1907(6) 0.4405(6) 0.2656(12)
C1A C 0.1688(8) 0.4559(7) 0.3669(12)
H1A H 0.1856 0.4859 0.4059
C2A C 0.1217(8) 0.4265(9) 0.4098(12)
H2A H 0.1070 0.4368 0.4775
C3A C 0.0966(6) 0.3816(9) 0.3515(16)
C4A C 0.1186(7) 0.3662(6) 0.2502(15)
H3A H 0.1017 0.3362 0.2112
C5A C 0.1656(7) 0.3956(6) 0.2073(10)
H4A H 0.1803 0.3853 0.1396
C6A C 0.0399(14) 0.3460(16) 0.402(3)
H5A H 0.0481 0.3373 0.4777
H6A H 0.0071 0.3721 0.4011
N2A N 0.3041(9) 0.5461(8) 0.1291(16)
C7A C 0.2775(11) 0.5848(11) 0.059(2)
C8A C 0.311(2) 0.6219(10) -0.004(2)
H7A H 0.2929 0.6478 -0.0516
C9A C 0.3705(19) 0.6204(13) 0.003(3)
H8A H 0.3927 0.6452 -0.0391
C10A C 0.3971(10) 0.5817(16) 0.073(3)
H9A H 0.4371 0.5807 0.0784
C11A C 0.3639(10) 0.5446(12) 0.1365(19)
H10A H 0.3817 0.5187 0.1836
N3A N 0.0235(10) 0.2968(15) 0.354(3)
C12A C 0.041(2) 0.2500 0.393(5)
O1A O 0.0764(12) 0.2500 0.482(2)
N1J N 0.1907(6) 0.0595(6) 0.2656(12)
C1J C 0.1688(8) 0.0441(7) 0.3669(12)
H1J H 0.1856 0.0141 0.4059
C2J C 0.1217(8) 0.0735(9) 0.4098(12)
H2J H 0.1070 0.0632 0.4775
C3J C 0.0966(6) 0.1184(9) 0.3515(16)
C4J C 0.1186(7) 0.1338(6) 0.2502(15)
H3J H 0.1017 0.1638 0.2112
C5J C 0.1656(7) 0.1044(6) 0.2073(10)
H4J H 0.1803 0.1147 0.1396
C6J C 0.0399(14) 0.1540(16) 0.402(3)
H5J H 0.0481 0.1627 0.4777
H6J H 0.0071 0.1279 0.4011
N3J N 0.0235(10) 0.2032(15) 0.354(3)
N2K N 0.1959(9) 0.5461(8) 0.1291(16)
C7K C 0.2225(11) 0.5848(11) 0.059(2)
C8K C 0.189(2) 0.6219(10) -0.004(2)
H7K H 0.2071 0.6478 -0.0516
C9K C 0.1295(19) 0.6204(13) 0.003(3)
H8K H 0.1073 0.6452 -0.0391
C10K C 0.1029(10) 0.5817(16) 0.073(3)
H9K H 0.0629 0.5807 0.0784
C11K C 0.1361(10) 0.5446(12) 0.1365(19)
H10K H 0.1183 0.5187 0.1836
N4 N 0.2500 0.2500 0.499(6)
O2 O 0.319(2) 0.2500 0.554(5)
O3 O 0.2500 0.2500 0.358(9)
O2A O 0.181(2) 0.2500 0.554(5)
O4? O 0.2500 0.306(3) 0.592(7)
loop_
_geom_bond_atom_site_label_1
_geom_bond_atom_site_label_2
_geom_bond_site_symmetry_1
_geom_bond_site_symmetry_2
Pd1 N1 1_555 1_555
N1 C1 1_555 1_555
C1 H1 1_555 1_555
C2 C1 1_555 1_555
H2 C2 1_555 1_555
C3 C2 1_555 1_555
C4 C3 1_555 1_555
H3 C4 1_555 1_555
C5 N1 1_555 1_555
H4 C5 1_555 1_555
C6 C3 1_555 1_555
H5 C6 1_555 1_555
H6 C6 1_555 1_555
N2 Pd1 1_555 1_555
C7 N2 1_555 1_555
C8 C7 1_555 1_555
H7 C8 1_555 1_555
C9 C8 1_555 1_555
H8 C9 1_555 1_555
C10 C9 1_555 1_555
H9 C10 1_555 1_555
C11 N2 1_555 1_555
H10 C11 1_555 1_555
N3 C6 1_555 1_555
C12 N3 1_555 1_555
O1 C12 1_555 1_555
N4 O2 1_555 1_555
O3 N4 1_555 1_555
N1K C1K 1_555 1_555
C1K H1K 1_555 1_555
C2K C1K 1_555 1_555
H2K C2K 1_555 1_555
C3K C2K 1_555 1_555
C4K C3K 1_555 1_555
H3K C4K 1_555 1_555
C5K N1K 1_555 1_555
H4K C5K 1_555 1_555
C6K C3K 1_555 1_555
H5K C6K 1_555 1_555
H6K C6K 1_555 1_555
N3K C12 1_555 1_555
N2J Pd1 1_555 1_555
C7J C7 1_555 1_555
C8J C7J 1_555 1_555
H7J C8J 1_555 1_555
C9J C8J 1_555 1_555
H8J C9J 1_555 1_555
C10J C9J 1_555 1_555
H9J C10J 1_555 1_555
C11J N2J 1_555 1_555
H10J C11J 1_555 1_555
Pd1A N1K 1_555 1_555
N1A Pd1A 1_555 1_555
C1A N1A 1_555 1_555
H1A C1A 1_555 1_555
C2A C1A 1_555 1_555
H2A C2A 1_555 1_555
C3A C2A 1_555 1_555
C4A C3A 1_555 1_555
H3A C4A 1_555 1_555
C5A N1A 1_555 1_555
H4A C5A 1_555 1_555
C6A C3A 1_555 1_555
H5A C6A 1_555 1_555
H6A C6A 1_555 1_555
N2A Pd1A 1_555 1_555
C7A N2A 1_555 1_555
C8A C7A 1_555 1_555
H7A C8A 1_555 1_555
C9A C8A 1_555 1_555
H8A C9A 1_555 1_555
C10A C9A 1_555 1_555
H9A C10A 1_555 1_555
C11A N2A 1_555 1_555
H10A C11A 1_555 1_555
N3A C6A 1_555 1_555
C12A N3A 1_555 1_555
O1A C12A 1_555 1_555
N1J Pd1 1_555 1_555
C1J N1J 1_555 1_555
H1J C1J 1_555 1_555
C2J C1J 1_555 1_555
H2J C2J 1_555 1_555
C3J C2J 1_555 1_555
C4J C3J 1_555 1_555
H3J C4J 1_555 1_555
C5J N1J 1_555 1_555
H4J C5J 1_555 1_555
C6J C3J 1_555 1_555
H5J C6J 1_555 1_555
H6J C6J 1_555 1_555
N3J C12A 1_555 1_555
N2K Pd1A 1_555 1_555
C7K C7A 1_555 1_555
C8K C7K 1_555 1_555
H7K C8K 1_555 1_555
C9K C8K 1_555 1_555
H8K C9K 1_555 1_555
C10K C9K 1_555 1_555
H9K C10K 1_555 1_555
C11K N2K 1_555 1_555
H10K C11K 1_555 1_555
O2A N4 1_555 1_555
C4 C5 1_555 1_555
C10 C11 1_555 1_555
C4K C5K 1_555 1_555
C6K N3K 1_555 1_555
N2J C7J 1_555 1_555
C10J C11J 1_555 1_555
C4A C5A 1_555 1_555
C10A C11A 1_555 1_555
C4J C5J 1_555 1_555
C6J N3J 1_555 1_555
N2K C7K 1_555 1_555
C10K C11K 1_555 1_555

#END
