
#######################################################################
#
#                 Cambridge Crystallographic Data Centre
#                                CCDC 
#
#######################################################################
#
# If this CIF has been generated from an entry in the Cambridge 
# Structural Database, then it will include bibliographic, chemical, 
# crystal, experimental, refinement or atomic coordinate data resulting 
# from the CCDC's data processing and validation procedures.
#
#######################################################################

data_GIDMEO
_chemical_formula_moiety         'C78 H84 N24 O6 Pd3 6+,6(N1 O3 1-)'
_chemical_name_systematic        
"hexakis(\m-N,N'-bis[(pyridin-4-yl)methyl]urea)-tri-palladium hexanitrate"
_symmetry_cell_setting           hexagonal
_symmetry_space_group_name_H-M   'P 63/m'
_symmetry_Int_Tables_number      176
_space_group_name_Hall           '-P 6c'
loop_
_symmetry_equiv_pos_site_id
_symmetry_equiv_pos_as_xyz
1 x,y,z
2 x-y,x,1/2+z
3 -y,x-y,z
4 -x,-y,1/2+z
5 -x+y,-x,z
6 y,-x+y,1/2+z
7 -x,-y,-z
8 -x+y,-x,1/2-z
9 y,-x+y,-z
10 x,y,1/2-z
11 x-y,x,-z
12 -y,x-y,1/2-z
_cell_length_a                   19.5406(8)
_cell_length_b                   19.5406(8)
_cell_length_c                   20.1186(7)
_cell_angle_alpha                90
_cell_angle_beta                 90
_cell_angle_gamma                120
_cell_volume                     6652.8
_exptl_crystal_colour            colorless
_cell_formula_units_Z            2
loop_
_atom_site_label
_atom_site_type_symbol
_atom_site_fract_x
_atom_site_fract_y
_atom_site_fract_z
Pd1 Pd 0.40995(6) 0.37602(5) 0.250000
N1 N 0.3571(4) 0.2926(4) 0.3203(3)
C1 C 0.2469(6) 0.2041(5) 0.3830(5)
H1 H 0.193405 0.183921 0.391643
C2 C 0.3632(5) 0.2034(5) 0.3977(4)
H2 H 0.393712 0.184752 0.417613
C3 C 0.2869(6) 0.1725(5) 0.4155(4)
C4 C 0.3969(5) 0.2623(5) 0.3504(4)
H3 H 0.449583 0.281672 0.338984
N2 N 0.5406(4) 0.0041(6) 0.3213(3)
C5 C 0.2845(6) 0.2654(5) 0.3376(4)
H4 H 0.256465 0.287578 0.319076
C6 C 0.4522(7) -0.0845(10) 0.3994(6)
H5 H 0.430910 -0.134080 0.418908
C7 C 0.5253(6) 0.0579(9) 0.3448(5)
H6 H 0.552528 0.109151 0.328239
C8 C 0.2343(12) 0.1001(11) 0.4584(10)
H7 H 0.238735 0.116587 0.504423
H8 H 0.179683 0.079030 0.444968
C9 C 0.5041(6) -0.0650(8) 0.3484(6)
H9 H 0.514027 -0.103766 0.332111
C10 C 0.4676(6) 0.0383(8) 0.3951(6)
H10 H 0.455392 0.076302 0.409265
C11 C 0.4310(5) -0.0323(8) 0.4222(5)
N3 N 0.3052(9) -0.0396(13) 0.4519(7)
H11 H 0.271157 -0.075939 0.426361
O1 O 0.3627(7) 0.0690(8) 0.5091(7)
C12 C 0.3061(5) 0.0247(5) 0.4710(4)
N4 N 0.2532(9) 0.0403(9) 0.4539(7)
H12 H 0.216798 0.001024 0.432251
C13 C 0.3832(12) -0.0366(16) 0.4872(11)
H13 H 0.412027 0.009813 0.515008
H14 H 0.368907 -0.083772 0.513090
Pd1B Pd 0.62398(5) 0.03393(8) 0.250000
N1B N 0.7074(4) 0.0645(6) 0.3203(3)
C1B C 0.7959(5) 0.0428(8) 0.3830(5)
H1B H 0.816079 0.009484 0.391643
C2B C 0.7966(5) 0.1598(7) 0.3977(4)
H2B H 0.815248 0.208960 0.417613
C3B C 0.8275(5) 0.1144(8) 0.4155(4)
C4B C 0.7377(5) 0.1346(7) 0.3504(4)
H3B H 0.718328 0.167911 0.338984
N2B N 0.9959(6) 0.5365(7) 0.3213(3)
C5B C 0.7346(5) 0.0191(8) 0.3376(4)
H4B H 0.712422 -0.031113 0.319076
C6B C 1.0845(10) 0.5367(12) 0.3994(6)
H5B H 1.134080 0.564990 0.418908
C7B C 0.9421(9) 0.4674(11) 0.3448(5)
H6B H 0.890849 0.443377 0.328239
C8B C 0.8999(11) 0.1342(16) 0.4584(10)
H7B H 0.883413 0.122148 0.504423
H8B H 0.920970 0.100653 0.444968
C9B C 1.0650(8) 0.5691(10) 0.3484(6)
H9B H 1.103766 0.617793 0.332111
C10B C 0.9617(8) 0.4293(10) 0.3951(6)
H10B H 0.923698 0.379090 0.409265
C11B C 1.0323(8) 0.4633(9) 0.4222(5)
N3B N 1.0396(13) 0.3448(16) 0.4519(7)
H11B H 1.075939 0.347096 0.426361
O1B O 0.9310(8) 0.2937(11) 0.5091(7)
C12B C 0.9753(5) 0.2814(7) 0.4710(4)
N4B N 0.9597(9) 0.2129(13) 0.4539(7)
H12B H 0.998976 0.215774 0.432251
C13B C 1.0366(16) 0.4198(20) 0.4872(11)
H13B H 0.990187 0.402214 0.515008
H14B H 1.083772 0.452679 0.513090
Pd1D Pd 0.96607(8) 0.59005(6) 0.250000
N1D N 0.9355(6) 0.6429(4) 0.3203(3)
C1D C 0.9572(8) 0.7531(6) 0.3830(5)
H1D H 0.990516 0.806595 0.391643
C2D C 0.8402(7) 0.6368(5) 0.3977(4)
H2D H 0.791040 0.606288 0.417613
C3D C 0.8856(8) 0.7131(6) 0.4155(4)
C4D C 0.8654(7) 0.6031(5) 0.3504(4)
H3D H 0.832089 0.550417 0.338984
N2D N 0.4635(7) 0.4594(4) 0.3213(3)
C5D C 0.9809(8) 0.7155(6) 0.3376(4)
H4D H 1.031113 0.743535 0.319076
C6D C 0.4633(12) 0.5478(7) 0.3994(6)
H5D H 0.435010 0.569090 0.418908
C7D C 0.5326(11) 0.4747(6) 0.3448(5)
H6D H 0.556623 0.447472 0.328239
C8D C 0.8658(16) 0.7657(12) 0.4584(10)
H7D H 0.877852 0.761265 0.504423
H8D H 0.899347 0.820317 0.444968
C9D C 0.4309(10) 0.4959(6) 0.3484(6)
H9D H 0.382207 0.485973 0.332111
C10D C 0.5707(10) 0.5324(6) 0.3951(6)
H10D H 0.620910 0.544608 0.409265
C11D C 0.5367(9) 0.5690(5) 0.4222(5)
N3D N 0.6552(16) 0.6948(9) 0.4519(7)
H11D H 0.652904 0.728843 0.426361
O1D O 0.7063(11) 0.6373(7) 0.5091(7)
C12D C 0.7186(7) 0.6939(5) 0.4710(4)
N4D N 0.7871(13) 0.7468(9) 0.4539(7)
H12D H 0.784226 0.783202 0.432251
C13D C 0.5802(20) 0.6168(12) 0.4872(11)
H13D H 0.597786 0.587973 0.515008
H14D H 0.547321 0.631093 0.513090
N1G N 0.9355(6) 0.6429(4) 0.1797(3)
C1G C 0.9572(8) 0.7531(6) 0.1170(5)
H1G H 0.990516 0.806595 0.108357
C2G C 0.8402(7) 0.6368(5) 0.1023(4)
H2G H 0.791040 0.606288 0.082387
C3G C 0.8856(8) 0.7131(6) 0.0845(4)
C4G C 0.8654(7) 0.6031(5) 0.1496(4)
H3G H 0.832089 0.550417 0.161016
N2G N 0.4635(7) 0.4594(4) 0.1787(3)
C5G C 0.9809(8) 0.7155(6) 0.1624(4)
H4G H 1.031113 0.743535 0.180924
C6G C 0.4633(12) 0.5478(7) 0.1006(6)
H5G H 0.435010 0.569090 0.081092
C7G C 0.5326(11) 0.4747(6) 0.1552(5)
H6G H 0.556623 0.447472 0.171761
C8G C 0.8658(16) 0.7657(12) 0.0416(10)
H7G H 0.877852 0.761265 -0.004423
H8G H 0.899347 0.820317 0.055032
C9G C 0.4309(10) 0.4959(6) 0.1516(6)
H9G H 0.382207 0.485973 0.167889
C10G C 0.5707(10) 0.5324(6) 0.1049(6)
H10G H 0.620910 0.544608 0.090735
C11G C 0.5367(9) 0.5690(5) 0.0778(5)
N3G N 0.6552(16) 0.6948(9) 0.0481(7)
H11G H 0.652904 0.728843 0.073639
O1G O 0.7063(11) 0.6373(7) -0.0091(7)
C12G C 0.7186(7) 0.6939(5) 0.0290(4)
N4G N 0.7871(13) 0.7468(9) 0.0461(7)
H12G H 0.784226 0.783202 0.067749
C13G C 0.5802(20) 0.6168(12) 0.0128(11)
H13G H 0.597786 0.587973 -0.015008
H14G H 0.547321 0.631093 -0.013090
N1I N 0.3571(4) 0.2926(4) 0.1797(3)
C1I C 0.2469(6) 0.2041(5) 0.1170(5)
H1I H 0.193405 0.183921 0.108357
C2I C 0.3632(5) 0.2034(5) 0.1023(4)
H2I H 0.393712 0.184752 0.082387
C3I C 0.2869(6) 0.1725(5) 0.0845(4)
C4I C 0.3969(5) 0.2623(5) 0.1496(4)
H3I H 0.449583 0.281672 0.161016
N2I N 0.5406(4) 0.0041(6) 0.1787(3)
C5I C 0.2845(6) 0.2654(5) 0.1624(4)
H4I H 0.256465 0.287578 0.180924
C6I C 0.4522(7) -0.0845(10) 0.1006(6)
H5I H 0.430910 -0.134080 0.081092
C7I C 0.5253(6) 0.0579(9) 0.1552(5)
H6I H 0.552528 0.109151 0.171761
C8I C 0.2343(12) 0.1001(11) 0.0416(10)
H7I H 0.238735 0.116587 -0.004423
H8I H 0.179683 0.079030 0.055032
C9I C 0.5041(6) -0.0650(8) 0.1516(6)
H9I H 0.514027 -0.103766 0.167889
C10I C 0.4676(6) 0.0383(8) 0.1049(6)
H10I H 0.455392 0.076302 0.090735
C11I C 0.4310(5) -0.0323(8) 0.0778(5)
N3I N 0.3052(9) -0.0396(13) 0.0481(7)
H11I H 0.271157 -0.075939 0.073639
O1I O 0.3627(7) 0.0690(8) -0.0091(7)
C12I C 0.3061(5) 0.0247(5) 0.0290(4)
N4I N 0.2532(9) 0.0403(9) 0.0461(7)
H12I H 0.216798 0.001024 0.067749
C13I C 0.3832(12) -0.0366(16) 0.0128(11)
H13I H 0.412027 0.009813 -0.015008
H14I H 0.368907 -0.083772 -0.013090
N1K N 0.7074(4) 0.0645(6) 0.1797(3)
C1K C 0.7959(5) 0.0428(8) 0.1170(5)
H1K H 0.816079 0.009484 0.108357
C2K C 0.7966(5) 0.1598(7) 0.1023(4)
H2K H 0.815248 0.208960 0.082387
C3K C 0.8275(5) 0.1144(8) 0.0845(4)
C4K C 0.7377(5) 0.1346(7) 0.1496(4)
H3K H 0.718328 0.167911 0.161016
N2K N 0.9959(6) 0.5365(7) 0.1787(3)
C5K C 0.7346(5) 0.0191(8) 0.1624(4)
H4K H 0.712422 -0.031113 0.180924
C6K C 1.0845(10) 0.5367(12) 0.1006(6)
H5K H 1.134080 0.564990 0.081092
C7K C 0.9421(9) 0.4674(11) 0.1552(5)
H6K H 0.890849 0.443377 0.171761
C8K C 0.8999(11) 0.1342(16) 0.0416(10)
H7K H 0.883413 0.122148 -0.004423
H8K H 0.920970 0.100653 0.055032
C9K C 1.0650(8) 0.5691(10) 0.1516(6)
H9K H 1.103766 0.617793 0.167889
C10K C 0.9617(8) 0.4293(10) 0.1049(6)
H10K H 0.923698 0.379090 0.090735
C11K C 1.0323(8) 0.4633(9) 0.0778(5)
N3K N 1.0396(13) 0.3448(16) 0.0481(7)
H11K H 1.075939 0.347096 0.073639
O1K O 0.9310(8) 0.2937(11) -0.0091(7)
C12K C 0.9753(5) 0.2814(7) 0.0290(4)
N4K N 0.9597(9) 0.2129(13) 0.0461(7)
H12K H 0.998976 0.215774 0.067749
C13K C 1.0366(16) 0.4198(20) 0.0128(11)
H13K H 0.990187 0.402214 -0.015008
H14K H 1.083772 0.452679 -0.013090
loop_
_geom_bond_atom_site_label_1
_geom_bond_atom_site_label_2
_geom_bond_site_symmetry_1
_geom_bond_site_symmetry_2
Pd1 N1 1_555 1_555
N1 C4 1_555 1_555
C1 H1 1_555 1_555
C2 H2 1_555 1_555
C3 C1 1_555 1_555
C4 C2 1_555 1_555
H3 C4 1_555 1_555
N2 C7 1_555 1_555
C5 N1 1_555 1_555
H4 C5 1_555 1_555
C6 H5 1_555 1_555
C7 H6 1_555 1_555
C8 C3 1_555 1_555
H7 C8 1_555 1_555
H8 C8 1_555 1_555
C9 N2 1_555 1_555
H9 C9 1_555 1_555
C10 C7 1_555 1_555
H10 C10 1_555 1_555
C11 C6 1_555 1_555
N3 H11 1_555 1_555
O1 C12 1_555 1_555
C12 N3 1_555 1_555
N4 C8 1_555 1_555
H12 N4 1_555 1_555
C13 C11 1_555 1_555
H13 C13 1_555 1_555
H14 C13 1_555 1_555
Pd1B N2 1_555 1_555
N1B Pd1B 1_555 1_555
C1B H1B 1_555 1_555
C2B H2B 1_555 1_555
C3B C1B 1_555 1_555
C4B N1B 1_555 1_555
H3B C4B 1_555 1_555
N2B C7B 1_555 1_555
C5B N1B 1_555 1_555
H4B C5B 1_555 1_555
C6B H5B 1_555 1_555
C7B H6B 1_555 1_555
C8B C3B 1_555 1_555
H7B C8B 1_555 1_555
H8B C8B 1_555 1_555
C9B N2B 1_555 1_555
H9B C9B 1_555 1_555
C10B C7B 1_555 1_555
H10B C10B 1_555 1_555
C11B C6B 1_555 1_555
N3B H11B 1_555 1_555
O1B C12B 1_555 1_555
C12B N3B 1_555 1_555
N4B C8B 1_555 1_555
H12B N4B 1_555 1_555
C13B C11B 1_555 1_555
H13B C13B 1_555 1_555
H14B C13B 1_555 1_555
Pd1D N2B 1_555 1_555
N1D Pd1D 1_555 1_555
C1D H1D 1_555 1_555
C2D H2D 1_555 1_555
C3D C1D 1_555 1_555
C4D N1D 1_555 1_555
H3D C4D 1_555 1_555
N2D Pd1 1_555 1_555
C5D N1D 1_555 1_555
H4D C5D 1_555 1_555
C6D H5D 1_555 1_555
C7D N2D 1_555 1_555
H6D C7D 1_555 1_555
C8D C3D 1_555 1_555
H7D C8D 1_555 1_555
H8D C8D 1_555 1_555
C9D N2D 1_555 1_555
H9D C9D 1_555 1_555
C10D C7D 1_555 1_555
H10D C10D 1_555 1_555
C11D C6D 1_555 1_555
N3D H11D 1_555 1_555
O1D C12D 1_555 1_555
C12D N3D 1_555 1_555
N4D C8D 1_555 1_555
H12D N4D 1_555 1_555
C13D C11D 1_555 1_555
H13D C13D 1_555 1_555
H14D C13D 1_555 1_555
N1G Pd1D 1_555 1_555
C1G H1G 1_555 1_555
C2G H2G 1_555 1_555
C3G C1G 1_555 1_555
C4G N1G 1_555 1_555
H3G C4G 1_555 1_555
N2G Pd1 1_555 1_555
C5G N1G 1_555 1_555
H4G C5G 1_555 1_555
C6G H5G 1_555 1_555
C7G N2G 1_555 1_555
H6G C7G 1_555 1_555
C8G C3G 1_555 1_555
H7G C8G 1_555 1_555
H8G C8G 1_555 1_555
C9G N2G 1_555 1_555
H9G C9G 1_555 1_555
C10G C7G 1_555 1_555
H10G C10G 1_555 1_555
C11G C6G 1_555 1_555
N3G H11G 1_555 1_555
O1G C12G 1_555 1_555
C12G N3G 1_555 1_555
N4G C8G 1_555 1_555
H12G N4G 1_555 1_555
C13G C11G 1_555 1_555
H13G C13G 1_555 1_555
H14G C13G 1_555 1_555
N1I Pd1 1_555 1_555
C1I H1I 1_555 1_555
C2I H2I 1_555 1_555
C3I C1I 1_555 1_555
C4I N1I 1_555 1_555
H3I C4I 1_555 1_555
N2I Pd1B 1_555 1_555
C5I N1I 1_555 1_555
H4I C5I 1_555 1_555
C6I H5I 1_555 1_555
C7I N2I 1_555 1_555
H6I C7I 1_555 1_555
C8I C3I 1_555 1_555
H7I C8I 1_555 1_555
H8I C8I 1_555 1_555
C9I N2I 1_555 1_555
H9I C9I 1_555 1_555
C10I C7I 1_555 1_555
H10I C10I 1_555 1_555
C11I C6I 1_555 1_555
N3I H11I 1_555 1_555
O1I C12I 1_555 1_555
C12I N3I 1_555 1_555
N4I C8I 1_555 1_555
H12I N4I 1_555 1_555
C13I C11I 1_555 1_555
H13I C13I 1_555 1_555
H14I C13I 1_555 1_555
N1K Pd1B 1_555 1_555
C1K H1K 1_555 1_555
C2K H2K 1_555 1_555
C3K C1K 1_555 1_555
C4K N1K 1_555 1_555
H3K C4K 1_555 1_555
N2K Pd1D 1_555 1_555
C5K N1K 1_555 1_555
H4K C5K 1_555 1_555
C6K H5K 1_555 1_555
C7K N2K 1_555 1_555
H6K C7K 1_555 1_555
C8K C3K 1_555 1_555
H7K C8K 1_555 1_555
H8K C8K 1_555 1_555
C9K N2K 1_555 1_555
H9K C9K 1_555 1_555
C10K C7K 1_555 1_555
H10K C10K 1_555 1_555
C11K C6K 1_555 1_555
N3K H11K 1_555 1_555
O1K C12K 1_555 1_555
C12K N3K 1_555 1_555
N4K C8K 1_555 1_555
H12K N4K 1_555 1_555
C13K C11K 1_555 1_555
H13K C13K 1_555 1_555
H14K C13K 1_555 1_555
C1 C5 1_555 1_555
C2 C3 1_555 1_555
C6 C9 1_555 1_555
C10 C11 1_555 1_555
N3 C13 1_555 1_555
C12 N4 1_555 1_555
C1B C5B 1_555 1_555
C2B C3B 1_555 1_555
C2B C4B 1_555 1_555
C6B C9B 1_555 1_555
C10B C11B 1_555 1_555
N3B C13B 1_555 1_555
C12B N4B 1_555 1_555
C1D C5D 1_555 1_555
C2D C3D 1_555 1_555
C2D C4D 1_555 1_555
C6D C9D 1_555 1_555
C10D C11D 1_555 1_555
N3D C13D 1_555 1_555
C12D N4D 1_555 1_555
C1G C5G 1_555 1_555
C2G C3G 1_555 1_555
C2G C4G 1_555 1_555
C6G C9G 1_555 1_555
C10G C11G 1_555 1_555
N3G C13G 1_555 1_555
C12G N4G 1_555 1_555
C1I C5I 1_555 1_555
C2I C3I 1_555 1_555
C2I C4I 1_555 1_555
C6I C9I 1_555 1_555
C10I C11I 1_555 1_555
N3I C13I 1_555 1_555
C12I N4I 1_555 1_555
C1K C5K 1_555 1_555
C2K C3K 1_555 1_555
C2K C4K 1_555 1_555
C6K C9K 1_555 1_555
C10K C11K 1_555 1_555
N3K C13K 1_555 1_555
C12K N4K 1_555 1_555

#END
