
#######################################################################
#
#                 Cambridge Crystallographic Data Centre
#                                CCDC 
#
#######################################################################
#
# If this CIF has been generated from an entry in the Cambridge 
# Structural Database, then it will include bibliographic, chemical, 
# crystal, experimental, refinement or atomic coordinate data resulting 
# from the CCDC's data processing and validation procedures.
#
#######################################################################

data_GIHSEY
_chemical_formula_moiety         'C34 H34 I4 N6 O6 Zn2,C2 H6 O1,2(C1 H1 Cl3)'
_chemical_name_systematic        
'bis(\m-(S)-(1-(isonicotinoyl)pyrrolidin-2-yl)methyl isonicotinate)-tetrakis(iodo)-di-zinc chloroform ethanol solvate'
_symmetry_cell_setting           orthorhombic
_symmetry_space_group_name_H-M   'P 21 21 21'
_symmetry_Int_Tables_number      19
_space_group_name_Hall           'P 2ac 2ab'
loop_
_symmetry_equiv_pos_site_id
_symmetry_equiv_pos_as_xyz
1 x,y,z
2 1/2-x,-y,1/2+z
3 1/2+x,1/2-y,-z
4 -x,1/2+y,1/2-z
_cell_length_a                   9.0149(5)
_cell_length_b                   9.4902(5)
_cell_length_c                   56.189(3)
_cell_angle_alpha                90
_cell_angle_beta                 90
_cell_angle_gamma                90
_cell_volume                     4807.15
_exptl_crystal_colour            colorless
_exptl_crystal_description       block
_cell_formula_units_Z            4
loop_
_atom_site_label
_atom_site_type_symbol
_atom_site_fract_x
_atom_site_fract_y
_atom_site_fract_z
O7 O 0.747(5) -0.121(5) 0.8719(8)
H35 H 0.7445 -0.2002 0.8652
C35 C 0.600(6) -0.065(5) 0.8730(9)
H36 H 0.5398 -0.1358 0.8816
H37 H 0.5625 -0.0642 0.8564
C36 C 0.556(6) 0.073(5) 0.8832(4)
H38 H 0.4484 0.0852 0.8816
H39 H 0.5838 0.0764 0.9000
H40 H 0.6068 0.1488 0.8745
Zn1 Zn 0.4570(2) 1.25791(19) 0.79714(3)
Zn2 Zn 0.9411(2) 0.7007(2) 0.95266(3)
I1 I 0.57718(17) 1.44329(14) 0.77105(2)
I2 I 0.19092(14) 1.17474(15) 0.78971(2)
I3 I 1.12997(14) 0.80743(17) 0.98065(2)
I4 I 0.83910(15) 0.45297(13) 0.95882(2)
N1 N 0.5867(15) 1.0832(14) 0.8011(2)
N2 N 0.9727(15) 0.7049(12) 0.7955(2)
N3 N 1.0302(15) 0.7066(16) 0.9179(2)
N4 N 0.7646(13) 0.8363(13) 0.9491(2)
N5 N 0.3902(13) 1.2260(13) 0.9544(2)
N6 N 0.4613(16) 1.3364(14) 0.83201(19)
O1 O 0.8321(16) 0.6400(15) 0.8277(2)
O2 O 1.1701(19) 0.6098(16) 0.83544(19)
O3 O 1.235(4) 0.824(3) 0.8376(3)
O4 O 0.3226(15) 1.1026(14) 0.9221(2)
O5 O 0.3476(17) 1.4227(15) 0.91626(19)
O6 O 0.509(4) 1.5908(19) 0.9092(3)
C1 C 0.403(2) 1.1213(17) 0.9392(3)
C2 C 0.794(2) 0.9711(19) 0.9445(3)
H1 H 0.8938 1.0014 0.9434
C3 C 0.5322(18) 1.0204(15) 0.9425(3)
C4 C 0.996(2) 0.785(2) 0.7743(3)
H2 H 1.0299 0.8812 0.7782
H3 H 0.9025 0.7920 0.7651
C5 C 0.859(2) 0.7196(16) 0.8110(2)
C6 C 0.6242(19) 0.7941(17) 0.9502(3)
H4 H 0.6052 0.6975 0.9535
C7 C 0.432(3) 1.496(2) 0.9024(3)
C8 C 1.112(2) 0.709(2) 0.7600(3)
H5 H 1.0893 0.7131 0.7428
H6 H 1.2114 0.7497 0.7628
C9 C 0.530(2) 0.9496(19) 0.7979(4)
H7 H 0.4285 0.9385 0.7936
C10 C 0.6158(18) 0.8340(17) 0.8008(3)
H8 H 0.5744 0.7429 0.7985
C11 C 0.366(3) 1.315(2) 0.8713(3)
H9 H 0.3116 1.2607 0.8826
C12 C 0.766(2) 0.848(2) 0.8071(3)
C13 C 0.4692(19) 1.231(2) 0.9783(3)
H10 H 0.4569 1.1409 0.9870
H11 H 0.5764 1.2500 0.9762
C14 C 0.725(2) 1.098(2) 0.8070(4)
H12 H 0.7633 1.1908 0.8088
C15 C 1.174(3) 0.822(2) 0.8878(3)
H13 H 1.2342 0.8991 0.8833
C16 C 1.066(2) 0.5769(19) 0.7956(3)
H14 H 1.0104 0.4934 0.8017
C17 C 0.2735(18) 1.333(2) 0.9538(3)
H15 H 0.1810 1.2945 0.9464
C18 C 0.539(2) 1.445(2) 0.8384(3)
H16 H 0.6024 1.4885 0.8270
C19 C 1.189(3) 0.729(3) 0.8461(3)
C20 C 1.132(2) 0.718(2) 0.8721(2)
C21 C 1.1201(19) 0.8061(18) 0.9110(3)
H17 H 1.1514 0.8728 0.9226
C22 C 0.325(3) 1.461(2) 0.9411(3)
H18 H 0.2493 1.5366 0.9424
H19 H 0.4185 1.4957 0.9482
C23 C 0.6789(18) 1.0691(16) 0.9414(3)
H20 H 0.7000 1.1657 0.9386
C24 C 0.441(3) 1.4382(19) 0.8781(3)
C25 C 0.395(2) 1.348(2) 0.9909(3)
H21 H 0.3867 1.3266 1.0081
H22 H 0.4521 1.4363 0.9890
C26 C 0.533(2) 1.498(2) 0.8607(3)
H23 H 0.5919 1.5779 0.8646
C27 C 1.208(2) 0.603(3) 0.8099(3)
H24 H 1.2797 0.5253 0.8071
H25 H 1.2550 0.6922 0.8049
C28 C 1.037(3) 0.616(3) 0.8786(3)
H26 H 1.0040 0.5470 0.8675
C29 C 0.821(2) 0.9828(18) 0.8107(3)
H27 H 0.9204 0.9972 0.8157
C30 C 0.250(2) 1.363(3) 0.9805(3)
H28 H 0.2106 1.4592 0.9830
H29 H 0.1794 1.2942 0.9876
C31 C 0.989(3) 0.614(2) 0.9025(3)
H30 H 0.9227 0.5413 0.9074
C32 C 0.506(2) 0.881(2) 0.9469(3)
H31 H 0.4074 0.8462 0.9477
C33 C 1.103(3) 0.561(2) 0.7691(3)
H32 H 1.1986 0.5115 0.7669
H33 H 1.0241 0.5077 0.7608
C34 C 0.373(3) 1.276(3) 0.8482(3)
H34 H 0.3110 1.2009 0.8431
loop_
_geom_bond_atom_site_label_1
_geom_bond_atom_site_label_2
_geom_bond_site_symmetry_1
_geom_bond_site_symmetry_2
Zn1 I1 1_555 1_555
Zn2 I3 1_555 1_555
I2 Zn1 1_555 1_555
I4 Zn2 1_555 1_555
N1 Zn1 1_555 1_555
N2 C4 1_555 1_555
N3 Zn2 1_555 1_555
N4 Zn2 1_555 1_555
N5 C1 1_555 1_555
N6 Zn1 1_555 1_555
O1 C5 1_555 1_555
O2 C19 1_555 1_555
O3 C19 1_555 1_555
O4 C1 1_555 1_555
O5 C7 1_555 1_555
O6 C7 1_555 1_555
C1 C3 1_555 1_555
C2 N4 1_555 1_555
H1 C2 1_555 1_555
C3 C23 1_555 1_555
C4 H2 1_555 1_555
H3 C4 1_555 1_555
C5 N2 1_555 1_555
C6 N4 1_555 1_555
H4 C6 1_555 1_555
C7 C24 1_555 1_555
C8 C4 1_555 1_555
H5 C8 1_555 1_555
H6 C8 1_555 1_555
C9 N1 1_555 1_555
H7 C9 1_555 1_555
C10 C9 1_555 1_555
H8 C10 1_555 1_555
C11 H9 1_555 1_555
C12 C5 1_555 1_555
C13 N5 1_555 1_555
H10 C13 1_555 1_555
H11 C13 1_555 1_555
C14 N1 1_555 1_555
H12 C14 1_555 1_555
C15 H13 1_555 1_555
C16 N2 1_555 1_555
H14 C16 1_555 1_555
C17 N5 1_555 1_555
H15 C17 1_555 1_555
C18 N6 1_555 1_555
H16 C18 1_555 1_555
C19 C20 1_555 1_555
C20 C15 1_555 1_555
C21 N3 1_555 1_555
H17 C21 1_555 1_555
C22 O5 1_555 1_555
H18 C22 1_555 1_555
H19 C22 1_555 1_555
C23 C2 1_555 1_555
H20 C23 1_555 1_555
C24 C11 1_555 1_555
C25 C13 1_555 1_555
H21 C25 1_555 1_555
H22 C25 1_555 1_555
C26 C18 1_555 1_555
H23 C26 1_555 1_555
C27 O2 1_555 1_555
H24 C27 1_555 1_555
H25 C27 1_555 1_555
C28 C20 1_555 1_555
H26 C28 1_555 1_555
C29 C12 1_555 1_555
H27 C29 1_555 1_555
C30 C17 1_555 1_555
H28 C30 1_555 1_555
H29 C30 1_555 1_555
C31 N3 1_555 1_555
H30 C31 1_555 1_555
C32 C3 1_555 1_555
H31 C32 1_555 1_555
C33 C8 1_555 1_555
H32 C33 1_555 1_555
H33 C33 1_555 1_555
C34 N6 1_555 1_555
H34 C34 1_555 1_555
O7 H35 1_555 1_555
C35 O7 1_555 1_555
H36 C35 1_555 1_555
H37 C35 1_555 1_555
C36 C35 1_555 1_555
H38 C36 1_555 1_555
H39 C36 1_555 1_555
H40 C36 1_555 1_555
C6 C32 1_555 1_555
C10 C12 1_555 1_555
C11 C34 1_555 1_555
C14 C29 1_555 1_555
C15 C21 1_555 1_555
C16 C27 1_555 1_555
C16 C33 1_555 1_555
C17 C22 1_555 1_555
C24 C26 1_555 1_555
C25 C30 1_555 1_555
C28 C31 1_555 1_555

#END
