
#######################################################################
#
#                 Cambridge Crystallographic Data Centre
#                                CCDC 
#
#######################################################################
#
# If this CIF has been generated from an entry in the Cambridge 
# Structural Database, then it will include bibliographic, chemical, 
# crystal, experimental, refinement or atomic coordinate data resulting 
# from the CCDC's data processing and validation procedures.
#
#######################################################################

data_GIHSAU
_chemical_formula_moiety         'C34 H34 Br4 N6 O6 Zn2,3(C1 H1 Cl3)'
_chemical_name_systematic        
'bis(\m-(S)-(1-(isonicotinoyl)pyrrolidin-2-yl)methyl isonicotinate)-tetrabromo-di-zinc chloroform solvate'
_symmetry_cell_setting           triclinic
_symmetry_space_group_name_H-M   'P 1'
_symmetry_Int_Tables_number      1
_space_group_name_Hall           'P 1'
loop_
_symmetry_equiv_pos_site_id
_symmetry_equiv_pos_as_xyz
1 x,y,z
_cell_length_a                   8.8201(5)
_cell_length_b                   9.2257(5)
_cell_length_c                   16.7952(10)
_cell_angle_alpha                96.896(3)
_cell_angle_beta                 93.216(3)
_cell_angle_gamma                96.058(3)
_cell_volume                     1345.91
_exptl_crystal_colour            colorless
_exptl_crystal_description       block
_cell_formula_units_Z            1
loop_
_atom_site_label
_atom_site_type_symbol
_atom_site_fract_x
_atom_site_fract_y
_atom_site_fract_z
Zn1 Zn 0.60020(15) 0.23761(15) -0.06842(9)
Zn2 Zn 0.16893(16) 0.91717(16) 0.44496(9)
Br1 Br 0.82251(16) 0.30975(17) -0.12999(12)
Br2 Br 0.4376(2) 0.02459(16) -0.11943(12)
Br3 Br 0.28590(18) 1.16138(15) 0.46736(9)
Br4 Br -0.01567(17) 0.82133(19) 0.52464(10)
O1 O 0.2287(10) 0.8547(10) 0.0352(5)
O2 O -0.0937(10) 0.9167(11) 0.0439(5)
O3 O -0.1330(13) 0.6712(13) 0.0494(7)
O4 O 0.7624(13) 0.5082(11) 0.3544(6)
O5 O 0.7942(13) 0.2038(11) 0.3347(6)
O6 O 0.674(3) -0.029(2) 0.3050(11)
N1 N 0.1020(11) 0.7842(11) -0.0881(6)
N2 N 0.0777(11) 0.8867(11) 0.3279(6)
N3 N 0.3389(14) 0.7830(11) 0.4395(7)
N4 N 0.7317(12) 0.4252(12) 0.4734(6)
N5 N 0.4672(11) 0.4086(11) -0.0554(6)
C1 C 0.2281(14) 0.4980(15) -0.0469(10)
H1 H 0.1203 0.4767 -0.0473
C2 C 0.3204(16) 0.3856(16) -0.0517(9)
H2 H 0.2743 0.2876 -0.0522
C3 C 0.5363(14) 0.5459(14) -0.0513(9)
H3 H 0.6439 0.5610 -0.0542
C4 C 0.4545(16) 0.6671(16) -0.0429(10)
H4 H 0.5054 0.7640 -0.0381
C5 C 0.2948(13) 0.6427(14) -0.0416(7)
C6 C 0.2092(13) 0.7738(13) -0.0289(7)
C7 C 0.0934(16) 0.7030(14) -0.1690(8)
H5 H 0.1958 0.7079 -0.1906
H6 H 0.0553 0.5985 -0.1677
C8 C -0.009(3) 0.770(2) -0.2179(12)
H7 H -0.1110 0.7116 -0.2248
H8 H 0.0300 0.7762 -0.2716
C9 C -0.0204(19) 0.9236(16) -0.1748(8)
H9 H -0.1245 0.9521 -0.1841
H10 H 0.0540 0.9968 -0.1945
C10 C 0.0160(14) 0.9147(14) -0.0850(8)
H11 H 0.0836 1.0044 -0.0602
C11 C -0.1282(16) 0.8963(17) -0.0395(8)
H12 H -0.1972 0.9686 -0.0537
H13 H -0.1822 0.7967 -0.0558
C12 C -0.0909(15) 0.7948(17) 0.0798(9)
C13 C -0.0360(14) 0.8305(14) 0.1664(8)
C14 C 0.0610(19) 0.9639(16) 0.1951(8)
H14 H 0.0868 1.0364 0.1609
C15 C 0.1147(16) 0.9812(15) 0.2747(8)
H15 H 0.1833 1.0664 0.2936
C16 C -0.0130(17) 0.7625(16) 0.3009(8)
H16 H -0.0380 0.6927 0.3367
C17 C -0.0713(15) 0.7344(16) 0.2209(9)
H17 H -0.1371 0.6465 0.2036
C18 C 0.4298(18) 0.5494(15) 0.4473(10)
H18 H 0.4089 0.4500 0.4567
C19 C 0.3130(19) 0.6437(19) 0.4526(12)
H19 H 0.2143 0.6066 0.4658
C20 C 0.4765(16) 0.8319(16) 0.4218(10)
H20 H 0.4939 0.9313 0.4119
C21 C 0.5962(19) 0.7497(16) 0.4166(10)
H21 H 0.6942 0.7920 0.4051
C22 C 0.5716(17) 0.6009(15) 0.4287(8)
C23 C 0.6945(17) 0.5060(15) 0.4154(8)
C24 C 0.6887(19) 0.445(2) 0.5573(8)
H22 H 0.6052 0.3698 0.5662
H23 H 0.6553 0.5439 0.5712
C25 C 0.834(2) 0.429(2) 0.6071(9)
H24 H 0.9020 0.5230 0.6168
H25 H 0.8105 0.3957 0.6593
C26 C 0.9047(18) 0.3137(18) 0.5540(7)
H26 H 1.0171 0.3257 0.5647
H27 H 0.8641 0.2140 0.5643
C27 C 0.8626(16) 0.3363(17) 0.4690(8)
H28 H 0.9506 0.3915 0.4465
C28 C 0.823(2) 0.1871(17) 0.4206(8)
H29 H 0.9088 0.1270 0.4269
H30 H 0.7313 0.1358 0.4404
C29 C 0.717(2) 0.102(3) 0.2864(12)
N6 N 0.6454(16) 0.2001(14) 0.0482(5)
C30 C 0.5608(14) 0.0797(14) 0.0729(7)
H31 H 0.4863 0.0205 0.0365
C31 C 0.5852(15) 0.0462(14) 0.1507(7)
H32 H 0.5274 -0.0361 0.1676
C32 C 0.6943(16) 0.1329(14) 0.2039(5)
C33 C 0.7789(15) 0.2532(13) 0.1792(7)
H33 H 0.8534 0.3125 0.2155
C34 C 0.7545(17) 0.2868(12) 0.1013(8)
H34 H 0.8123 0.3690 0.0844
C35 C 0.2944(17) 0.3265(17) 0.6810(9)
H35 H 0.2872 0.2505 0.6327
Cl1 Cl 0.2741(5) 0.4958(5) 0.6487(3)
Cl2 Cl 0.1462(5) 0.2806(5) 0.7415(3)
Cl3 Cl 0.4748(5) 0.3302(6) 0.7326(3)
C36 C 0.553(2) 0.932(3) 0.6837(15)
H36 H 0.5637 1.0133 0.7296
Cl4 Cl 0.3555(6) 0.9035(7) 0.6483(3)
Cl5 Cl 0.5793(9) 0.7561(9) 0.7272(7)
Cl6 Cl 0.6711(13) 0.9737(18) 0.6238(7)
C37 C 0.450(5) 0.541(4) 0.221(2)
H37 H 0.5212 0.5922 0.2667
Cl7 Cl 0.5434(16) 0.5606(17) 0.1364(8)
Cl8 Cl 0.419(3) 0.371(3) 0.2397(18)
Cl9 Cl 0.312(2) 0.663(2) 0.2057(13)
loop_
_geom_bond_atom_site_label_1
_geom_bond_atom_site_label_2
_geom_bond_site_symmetry_1
_geom_bond_site_symmetry_2
Zn1 Br1 1_555 1_555
Zn2 Br3 1_555 1_555
Br2 Zn1 1_555 1_555
Br4 Zn2 1_555 1_555
O1 C6 1_555 1_555
O2 C11 1_555 1_555
O3 C12 1_555 1_555
O4 C23 1_555 1_555
O5 C28 1_555 1_555
O6 C29 1_555 1_555
N1 C6 1_555 1_555
N2 Zn2 1_555 1_555
N3 Zn2 1_555 1_555
N4 C23 1_555 1_555
N5 Zn1 1_555 1_555
C1 H1 1_555 1_555
C2 N5 1_555 1_555
H2 C2 1_555 1_555
C3 N5 1_555 1_555
H3 C3 1_555 1_555
C4 C3 1_555 1_555
H4 C4 1_555 1_555
C5 C1 1_555 1_555
C6 C5 1_555 1_555
C7 N1 1_555 1_555
H5 C7 1_555 1_555
H6 C7 1_555 1_555
C8 C7 1_555 1_555
H7 C8 1_555 1_555
H8 C8 1_555 1_555
C9 C8 1_555 1_555
H9 C9 1_555 1_555
H10 C9 1_555 1_555
C10 N1 1_555 1_555
H11 C10 1_555 1_555
C11 C10 1_555 1_555
H12 C11 1_555 1_555
H13 C11 1_555 1_555
C12 O2 1_555 1_555
C13 C12 1_555 1_555
C14 C13 1_555 1_555
H14 C14 1_555 1_555
C15 N2 1_555 1_555
H15 C15 1_555 1_555
C16 N2 1_555 1_555
H16 C16 1_555 1_555
C17 C13 1_555 1_555
H17 C17 1_555 1_555
C18 H18 1_555 1_555
C19 N3 1_555 1_555
H19 C19 1_555 1_555
C20 N3 1_555 1_555
H20 C20 1_555 1_555
C21 C20 1_555 1_555
H21 C21 1_555 1_555
C22 C18 1_555 1_555
C23 C22 1_555 1_555
C24 N4 1_555 1_555
H22 C24 1_555 1_555
H23 C24 1_555 1_555
C25 C24 1_555 1_555
H24 C25 1_555 1_555
H25 C25 1_555 1_555
C26 C25 1_555 1_555
H26 C26 1_555 1_555
H27 C26 1_555 1_555
C27 N4 1_555 1_555
H28 C27 1_555 1_555
C28 C27 1_555 1_555
H29 C28 1_555 1_555
H30 C28 1_555 1_555
C29 O5 1_555 1_555
N6 Zn1 1_555 1_555
C30 N6 1_555 1_555
H31 C30 1_555 1_555
C31 C30 1_555 1_555
H32 C31 1_555 1_555
C32 C29 1_555 1_555
C33 C32 1_555 1_555
H33 C33 1_555 1_555
C34 N6 1_555 1_555
H34 C34 1_555 1_555
C35 H35 1_555 1_555
Cl1 C35 1_555 1_555
Cl2 C35 1_555 1_555
Cl3 C35 1_555 1_555
C36 H36 1_555 1_555
Cl4 C36 1_555 1_555
Cl5 C36 1_555 1_555
Cl6 C36 1_555 1_555
C37 H37 1_555 1_555
Cl7 C37 1_555 1_555
Cl8 C37 1_555 1_555
Cl9 C37 1_555 1_555
C1 C2 1_555 1_555
C4 C5 1_555 1_555
C9 C10 1_555 1_555
C14 C15 1_555 1_555
C16 C17 1_555 1_555
C18 C19 1_555 1_555
C21 C22 1_555 1_555
C26 C27 1_555 1_555
C31 C32 1_555 1_555
C33 C34 1_555 1_555

#END
