
#######################################################################
#
#                 Cambridge Crystallographic Data Centre
#                                CCDC 
#
#######################################################################
#
# If this CIF has been generated from an entry in the Cambridge 
# Structural Database, then it will include bibliographic, chemical, 
# crystal, experimental, refinement or atomic coordinate data resulting 
# from the CCDC's data processing and validation procedures.
#
#######################################################################

data_GIJFUD
_chemical_formula_moiety         'C34 H34 Cl4 N6 O6 Zn2,C4 H8 O1,0.5(C3 H6 O1)'
_chemical_name_systematic        
'tetrachloro-bis(\m-{1-[(pyridine)carbonyl]pyrrolidin-2-yl}methyl pyridine-4-carboxylate)-di-zinc(ii) tetrahydrofuran acetone solvate'
_symmetry_cell_setting           monoclinic
_symmetry_space_group_name_H-M   'C 2'
_symmetry_Int_Tables_number      5
_space_group_name_Hall           'C 2y'
loop_
_symmetry_equiv_pos_site_id
_symmetry_equiv_pos_as_xyz
1 x,y,z
2 -x,y,-z
3 1/2+x,1/2+y,z
4 1/2-x,1/2+y,-z
_cell_length_a                   13.2301(13)
_cell_length_b                   11.5895(13)
_cell_length_c                   18.214(2)
_cell_angle_alpha                90
_cell_angle_beta                 111.152(7)
_cell_angle_gamma                90
_cell_volume                     2604.6
_exptl_crystal_colour            coloress
_exptl_crystal_description       block
_cell_formula_units_Z            2
loop_
_atom_site_label
_atom_site_type_symbol
_atom_site_fract_x
_atom_site_fract_y
_atom_site_fract_z
O4 O 0.000000 0.290(2) 0.500000
C18 C 0.028(3) 0.3586(19) 0.5609(14)
H18 H 0.107656 0.358059 0.588444
H19 H -0.006650 0.334272 0.598274
C19 C -0.007(3) 0.467(2) 0.5311(15)
H20 H -0.085098 0.478222 0.522615
H21 H 0.035410 0.528593 0.566694
C18A C -0.028(3) 0.3586(19) 0.4391(14)
H18A H -0.107656 0.358059 0.411556
H19A H 0.006650 0.334272 0.401726
C19A C 0.007(3) 0.467(2) 0.4689(15)
H20A H 0.085098 0.478222 0.477385
H21A H -0.035410 0.528593 0.433306
Zn1 Zn -0.13884(4) 0.50768(7) 0.75666(4)
Cl1 Cl -0.18539(15) 0.67421(17) 0.79317(13)
Cl2 Cl -0.14398(16) 0.34280(18) 0.81553(11)
O1 O 0.3067(3) 0.6144(4) 0.6556(3)
O2 O 0.4893(3) 0.4914(6) 0.6365(2)
O3 O 0.3889(6) 0.3372(6) 0.6361(4)
N1 N 0.0115(4) 0.5245(5) 0.7512(3)
N2 N 0.4054(4) 0.5399(5) 0.7742(3)
N3 N 0.2356(4) 0.4840(5) 0.3610(3)
C1 C 0.1388(5) 0.6447(6) 0.7220(4)
H1 H 0.156876 0.718750 0.707952
C2 C 0.0413(5) 0.6262(7) 0.7319(4)
H2 H -0.006996 0.689487 0.724519
C3 C 0.0807(6) 0.4368(7) 0.7631(6)
H3 H 0.060838 0.363675 0.777146
C4 C 0.1807(6) 0.4489(7) 0.7555(6)
H4 H 0.229323 0.385501 0.765727
C5 C 0.2088(5) 0.5535(7) 0.7330(4)
C6 C 0.3131(5) 0.5739(6) 0.7184(4)
C7 C 0.4242(5) 0.5105(9) 0.8546(3)
H5 H 0.436636 0.426429 0.862773
H6 H 0.360633 0.531715 0.868201
C8 C 0.5197(6) 0.5741(10) 0.9041(5)
H7 H 0.555004 0.536396 0.955837
H8 H 0.501947 0.654989 0.912043
C9 C 0.5906(6) 0.5666(8) 0.8528(4)
H9 H 0.640502 0.633232 0.862851
H10 H 0.633739 0.494555 0.863996
C10 C 0.5106(5) 0.5677(7) 0.7683(4)
H11 H 0.507824 0.646571 0.745465
C11 C 0.5482(5) 0.4830(9) 0.7222(4)
H12 H 0.626371 0.495447 0.733476
H13 H 0.539267 0.404101 0.739747
C12 C 0.4149(7) 0.4185(8) 0.6039(4)
C13 C 0.3543(6) 0.4429(7) 0.5163(4)
C14 C 0.3484(6) 0.5523(7) 0.4867(4)
H14 H 0.386717 0.614033 0.519094
C15 C 0.2852(6) 0.5709(7) 0.4083(4)
H15 H 0.277136 0.647165 0.387878
C16 C 0.2442(6) 0.3781(8) 0.3894(4)
H16 H 0.209721 0.316675 0.354870
C17 C 0.3023(6) 0.3536(7) 0.4686(4)
H17 H 0.305539 0.277422 0.488653
Zn1A Zn 0.13884(4) 0.50768(7) 0.24334(4)
Cl1A Cl 0.18539(15) 0.67421(17) 0.20683(13)
Cl2A Cl 0.14398(16) 0.34280(18) 0.18447(11)
O1A O -0.3067(3) 0.6144(4) 0.3444(3)
O2A O -0.4893(3) 0.4914(6) 0.3635(2)
O3A O -0.3889(6) 0.3372(6) 0.3639(4)
N1A N -0.0115(4) 0.5245(5) 0.2488(3)
N2A N -0.4054(4) 0.5399(5) 0.2258(3)
N3A N -0.2356(4) 0.4840(5) 0.6390(3)
C1A C -0.1388(5) 0.6447(6) 0.2780(4)
H1A H -0.156876 0.718750 0.292048
C2A C -0.0413(5) 0.6262(7) 0.2681(4)
H2A H 0.006996 0.689487 0.275481
C3A C -0.0807(6) 0.4368(7) 0.2369(6)
H3A H -0.060838 0.363675 0.222854
C4A C -0.1807(6) 0.4489(7) 0.2445(6)
H4A H -0.229323 0.385501 0.234273
C5A C -0.2088(5) 0.5535(7) 0.2670(4)
C6A C -0.3131(5) 0.5739(6) 0.2816(4)
C7A C -0.4242(5) 0.5105(9) 0.1454(3)
H5A H -0.436636 0.426429 0.137227
H6A H -0.360633 0.531715 0.131799
C8A C -0.5197(6) 0.5741(10) 0.0959(5)
H7A H -0.555004 0.536396 0.044163
H8A H -0.501947 0.654989 0.087957
C9A C -0.5906(6) 0.5666(8) 0.1472(4)
H9A H -0.640502 0.633232 0.137149
H10A H -0.633739 0.494555 0.136004
C10A C -0.5106(5) 0.5677(7) 0.2317(4)
H11A H -0.507824 0.646571 0.254535
C11A C -0.5482(5) 0.4830(9) 0.2778(4)
H12A H -0.626371 0.495447 0.266524
H13A H -0.539267 0.404101 0.260253
C12A C -0.4149(7) 0.4185(8) 0.3961(4)
C13A C -0.3543(6) 0.4429(7) 0.4837(4)
C14A C -0.3484(6) 0.5523(7) 0.5133(4)
H14A H -0.386717 0.614033 0.480906
C15A C -0.2852(6) 0.5709(7) 0.5917(4)
H15A H -0.277136 0.647165 0.612122
C16A C -0.2442(6) 0.3781(8) 0.6106(4)
H16A H -0.209721 0.316675 0.645130
C17A C -0.3023(6) 0.3536(7) 0.5314(4)
H17A H -0.305539 0.277422 0.511347
loop_
_geom_bond_atom_site_label_1
_geom_bond_atom_site_label_2
_geom_bond_site_symmetry_1
_geom_bond_site_symmetry_2
Zn1 Cl1 1_555 1_555
Cl2 Zn1 1_555 1_555
O1 C6 1_555 1_555
O2 C11 1_555 1_555
O3 C12 1_555 1_555
N1 Zn1 1_555 1_555
N2 C6 1_555 1_555
N3 C15 1_555 1_555
C1 H1 1_555 1_555
C2 N1 1_555 1_555
H2 C2 1_555 1_555
C3 N1 1_555 1_555
H3 C3 1_555 1_555
C4 C3 1_555 1_555
H4 C4 1_555 1_555
C5 C1 1_555 1_555
C6 C5 1_555 1_555
C7 N2 1_555 1_555
H5 C7 1_555 1_555
H6 C7 1_555 1_555
C8 C7 1_555 1_555
H7 C8 1_555 1_555
H8 C8 1_555 1_555
C9 C8 1_555 1_555
H9 C9 1_555 1_555
H10 C9 1_555 1_555
C10 N2 1_555 1_555
H11 C10 1_555 1_555
C11 C10 1_555 1_555
H12 C11 1_555 1_555
H13 C11 1_555 1_555
C12 O2 1_555 1_555
C13 C12 1_555 1_555
C14 C13 1_555 1_555
H14 C14 1_555 1_555
C15 C14 1_555 1_555
H15 C15 1_555 1_555
C16 N3 1_555 1_555
H16 C16 1_555 1_555
C17 C13 1_555 1_555
H17 C17 1_555 1_555
O4 C18 1_555 1_555
C18 H18 1_555 1_555
H19 C18 1_555 1_555
C19 C18 1_555 1_555
H20 C19 1_555 1_555
H21 C19 1_555 1_555
Zn1A N3 1_555 1_555
Cl1A Zn1A 1_555 1_555
Cl2A Zn1A 1_555 1_555
O1A C6A 1_555 1_555
O2A C11A 1_555 1_555
O3A C12A 1_555 1_555
N1A Zn1A 1_555 1_555
N2A C6A 1_555 1_555
N3A Zn1 1_555 1_555
C1A H1A 1_555 1_555
C2A N1A 1_555 1_555
H2A C2A 1_555 1_555
C3A N1A 1_555 1_555
H3A C3A 1_555 1_555
C4A C3A 1_555 1_555
H4A C4A 1_555 1_555
C5A C1A 1_555 1_555
C6A C5A 1_555 1_555
C7A N2A 1_555 1_555
H5A C7A 1_555 1_555
H6A C7A 1_555 1_555
C8A C7A 1_555 1_555
H7A C8A 1_555 1_555
H8A C8A 1_555 1_555
C9A C8A 1_555 1_555
H9A C9A 1_555 1_555
H10A C9A 1_555 1_555
C10A N2A 1_555 1_555
H11A C10A 1_555 1_555
C11A C10A 1_555 1_555
H12A C11A 1_555 1_555
H13A C11A 1_555 1_555
C12A O2A 1_555 1_555
C13A C12A 1_555 1_555
C14A C13A 1_555 1_555
H14A C14A 1_555 1_555
C15A N3A 1_555 1_555
H15A C15A 1_555 1_555
C16A N3A 1_555 1_555
H16A C16A 1_555 1_555
C17A C13A 1_555 1_555
H17A C17A 1_555 1_555
C18A O4 1_555 1_555
H18A C18A 1_555 1_555
H19A C18A 1_555 1_555
C19A C19 1_555 1_555
H20A C19A 1_555 1_555
H21A C19A 1_555 1_555
C1 C2 1_555 1_555
C4 C5 1_555 1_555
C9 C10 1_555 1_555
C16 C17 1_555 1_555
C1A C2A 1_555 1_555
C4A C5A 1_555 1_555
C9A C10A 1_555 1_555
C14A C15A 1_555 1_555
C16A C17A 1_555 1_555
C18A C19A 1_555 1_555

#END
