
#######################################################################
#
#                 Cambridge Crystallographic Data Centre
#                                CCDC 
#
#######################################################################
#
# If this CIF has been generated from an entry in the Cambridge 
# Structural Database, then it will include bibliographic, chemical, 
# crystal, experimental, refinement or atomic coordinate data resulting 
# from the CCDC's data processing and validation procedures.
#
#######################################################################

data_GIKDIQ
_chemical_formula_moiety         
'C72 H64 N24 O8 Pd2 4+,C4 H8 O2,4(C2 H6 O1 S1),4(N1 O3 1-)'
_chemical_name_systematic        
"tetrakis(\m-N,N'-1,4-phenylenebis(N'-pyridin-3-yl-urea))-di-palladium tetranitrate dimethyl sulfoxide 1,4-dioxane unknown solvate"
_symmetry_cell_setting           orthorhombic
_symmetry_space_group_name_H-M   'P 21 21 2'
_symmetry_Int_Tables_number      18
_space_group_name_Hall           'P 2 2ab'
loop_
_symmetry_equiv_pos_site_id
_symmetry_equiv_pos_as_xyz
1 x,y,z
2 -x,-y,z
3 1/2+x,1/2-y,-z
4 1/2-x,1/2+y,-z
_cell_length_a                   16.053(3)
_cell_length_b                   34.256(5)
_cell_length_c                   14.316(2)
_cell_angle_alpha                90
_cell_angle_beta                 90
_cell_angle_gamma                90
_cell_volume                     7872.53
_exptl_crystal_colour            colorless
_exptl_crystal_description       block
_cell_formula_units_Z            2
loop_
_atom_site_label
_atom_site_type_symbol
_atom_site_fract_x
_atom_site_fract_y
_atom_site_fract_z
C1 C 0.1775(13) 0.2381(6) 0.0185(14)
H1 H 0.1687 0.2611 0.0514
C2 C 0.2281(16) 0.2385(6) -0.0538(19)
H2 H 0.2469 0.2620 -0.0789
C3 C 0.2531(11) 0.2023(6) -0.0924(13)
H3 H 0.2946 0.2010 -0.1375
C4 C 0.2169(11) 0.1715(5) -0.0633(12)
C5 C 0.1567(12) 0.1721(5) 0.0028(13)
H4 H 0.1286 0.1492 0.0174
C6 C 0.2246(11) 0.0993(5) -0.0860(15)
C7 C 0.2373(12) 0.0304(5) -0.1475(15)
C8 C 0.2465(16) 0.0081(6) -0.2219(15)
H5 H 0.2653 0.0205 -0.2756
C9 C 0.2321(15) -0.0301(6) -0.2294(15)
H6 H 0.2314 -0.0421 -0.2877
C10 C 0.2185(10) -0.0509(5) -0.1522(14)
C11 C 0.2077(14) -0.0298(6) -0.0659(15)
H7 H 0.1908 -0.0427 -0.0120
C12 C 0.2225(14) 0.0091(5) -0.0640(15)
H8 H 0.2228 0.0222 -0.0070
C13 C 0.1730(12) -0.1150(6) -0.0902(15)
C14 C 0.1263(14) -0.1845(6) -0.0851(13)
C15 C 0.1359(11) -0.2207(5) -0.1204(12)
H9 H 0.1683 -0.2245 -0.1735
C16 C 0.0977(12) -0.2520(5) -0.0777(15)
H10 H 0.1080 -0.2770 -0.1006
C17 C 0.0471(13) -0.2480(5) -0.0060(14)
H11 H 0.0196 -0.2695 0.0189
C18 C 0.0756(10) -0.1812(5) -0.0016(11)
H12 H 0.0714 -0.1572 0.0286
C19 C -0.0743(12) 0.1784(5) 0.2867(13)
H13 H -0.0511 0.1541 0.2734
C20 C -0.0806(13) 0.2465(5) 0.2585(12)
H14 H -0.0631 0.2679 0.2236
C21 C -0.1344(14) 0.2515(6) 0.3273(16)
H15 H -0.1529 0.2764 0.3430
C22 C -0.1636(17) 0.2184(6) 0.3768(16)
H16 H -0.2032 0.2212 0.4237
C23 C -0.1336(13) 0.1831(6) 0.3557(16)
C24 C -0.1401(15) 0.1124(6) 0.3965(14)
C25 C -0.1740(13) 0.0470(5) 0.4629(14)
C26 C -0.118(2) 0.0277(6) 0.4196(18)
H17 H -0.0780 0.0400 0.3832
C27 C -0.1196(16) -0.0158(6) 0.4301(16)
H18 H -0.0759 -0.0311 0.4078
C28 C -0.1889(14) -0.0331(5) 0.4747(14)
C29 C -0.2467(16) -0.0118(6) 0.5193(15)
H19 H -0.2893 -0.0241 0.5518
C30 C -0.2428(15) 0.0311(6) 0.5169(15)
H20 H -0.2813 0.0469 0.5476
C31 C -0.1721(14) -0.0981(6) 0.4156(16)
C32 C -0.1801(12) -0.1699(5) 0.3815(11)
C33 C -0.1317(12) -0.1698(6) 0.2969(14)
H21 H -0.1060 -0.1470 0.2760
C34 C -0.1586(12) -0.2358(6) 0.2796(14)
H22 H -0.1468 -0.2588 0.2474
C35 C -0.2107(14) -0.2379(6) 0.3563(17)
H23 H -0.2378 -0.2608 0.3729
C36 C -0.2201(14) -0.2044(7) 0.4059(14)
H24 H -0.2545 -0.2046 0.4582
N1 N 0.1371(8) 0.2047(5) 0.0470(9)
N2 N 0.2394(9) 0.1352(4) -0.1124(10)
H25 H 0.2654 0.1379 -0.1645
N3 N 0.2465(9) 0.0713(4) -0.1538(12)
H26 H 0.2679 0.0801 -0.2047
N4 N 0.2088(9) -0.0914(4) -0.1576(11)
H27 H 0.2267 -0.1026 -0.2074
N5 N 0.1712(10) -0.1551(4) -0.1246(12)
H28 H 0.2005 -0.1605 -0.1732
N6 N 0.0357(9) -0.2113(4) 0.0319(8)
N7 N -0.0513(11) 0.2115(4) 0.2388(9)
N8 N -0.1573(11) 0.1515(5) 0.4132(11)
H29 H -0.1848 0.1570 0.4630
N9 N -0.1754(11) 0.0898(4) 0.4640(11)
H30 H -0.1999 0.1013 0.5098
N10 N -0.1940(12) -0.0745(5) 0.4819(13)
H31 H -0.2127 -0.0844 0.5330
N11 N -0.1893(11) -0.1378(4) 0.4376(10)
H32 H -0.2078 -0.1422 0.4930
N12 N -0.1244(8) -0.2030(5) 0.2494(9)
O1 O 0.1935(10) 0.0900(4) -0.0122(11)
O2 O 0.1433(11) -0.1060(4) -0.0173(10)
O3 O -0.1054(15) 0.0997(5) 0.3323(11)
O4 O -0.1264(17) -0.0916(4) 0.3455(15)
Pd1 Pd 0.04343(9) 0.20652(3) 0.14101(9)
C1A C -0.1775(13) -0.2381(6) 0.0185(14)
H1A H -0.1687 -0.2611 0.0514
C2A C -0.2281(16) -0.2385(6) -0.0538(19)
H2A H -0.2469 -0.2620 -0.0789
C3A C -0.2531(11) -0.2023(6) -0.0924(13)
H3A H -0.2946 -0.2010 -0.1375
C4A C -0.2169(11) -0.1715(5) -0.0633(12)
C5A C -0.1567(12) -0.1721(5) 0.0028(13)
H4A H -0.1286 -0.1492 0.0174
C6A C -0.2246(11) -0.0993(5) -0.0860(15)
C7A C -0.2373(12) -0.0304(5) -0.1475(15)
C8A C -0.2465(16) -0.0081(6) -0.2219(15)
H5A H -0.2653 -0.0205 -0.2756
C9A C -0.2321(15) 0.0301(6) -0.2294(15)
H6A H -0.2314 0.0421 -0.2877
C10A C -0.2185(10) 0.0509(5) -0.1522(14)
C11A C -0.2077(14) 0.0298(6) -0.0659(15)
H7A H -0.1908 0.0427 -0.0120
C12A C -0.2225(14) -0.0091(5) -0.0640(15)
H8A H -0.2228 -0.0222 -0.0070
C13A C -0.1730(12) 0.1150(6) -0.0902(15)
C14A C -0.1263(14) 0.1845(6) -0.0851(13)
C15A C -0.1359(11) 0.2207(5) -0.1204(12)
H9A H -0.1683 0.2245 -0.1735
C16A C -0.0977(12) 0.2520(5) -0.0777(15)
H10A H -0.1080 0.2770 -0.1006
C17A C -0.0471(13) 0.2480(5) -0.0060(14)
H11A H -0.0196 0.2695 0.0189
C18A C -0.0756(10) 0.1812(5) -0.0016(11)
H12A H -0.0714 0.1572 0.0286
C19A C 0.0743(12) -0.1784(5) 0.2867(13)
H13A H 0.0511 -0.1541 0.2734
C20A C 0.0806(13) -0.2465(5) 0.2585(12)
H14A H 0.0631 -0.2679 0.2236
C21A C 0.1344(14) -0.2515(6) 0.3273(16)
H15A H 0.1529 -0.2764 0.3430
C22A C 0.1636(17) -0.2184(6) 0.3768(16)
H16A H 0.2032 -0.2212 0.4237
C23A C 0.1336(13) -0.1831(6) 0.3557(16)
C24A C 0.1401(15) -0.1124(6) 0.3965(14)
C25A C 0.1740(13) -0.0470(5) 0.4629(14)
C26A C 0.118(2) -0.0277(6) 0.4196(18)
H17A H 0.0780 -0.0400 0.3832
C27A C 0.1196(16) 0.0158(6) 0.4301(16)
H18A H 0.0759 0.0311 0.4078
C28A C 0.1889(14) 0.0331(5) 0.4747(14)
C29A C 0.2467(16) 0.0118(6) 0.5193(15)
H19A H 0.2893 0.0241 0.5518
C30A C 0.2428(15) -0.0311(6) 0.5169(15)
H20A H 0.2813 -0.0469 0.5476
C31A C 0.1721(14) 0.0981(6) 0.4156(16)
C32A C 0.1801(12) 0.1699(5) 0.3815(11)
C33A C 0.1317(12) 0.1698(6) 0.2969(14)
H21A H 0.1060 0.1470 0.2760
C34A C 0.1586(12) 0.2358(6) 0.2796(14)
H22A H 0.1468 0.2588 0.2474
C35A C 0.2107(14) 0.2379(6) 0.3563(17)
H23A H 0.2378 0.2608 0.3729
C36A C 0.2201(14) 0.2044(7) 0.4059(14)
H24A H 0.2545 0.2046 0.4582
N1A N -0.1371(8) -0.2047(5) 0.0470(9)
N2A N -0.2394(9) -0.1352(4) -0.1124(10)
H25A H -0.2654 -0.1379 -0.1645
N3A N -0.2465(9) -0.0713(4) -0.1538(12)
H26A H -0.2679 -0.0801 -0.2047
N4A N -0.2088(9) 0.0914(4) -0.1576(11)
H27A H -0.2267 0.1026 -0.2074
N5A N -0.1712(10) 0.1551(4) -0.1246(12)
H28A H -0.2005 0.1605 -0.1732
N6A N -0.0357(9) 0.2113(4) 0.0319(8)
N7A N 0.0513(11) -0.2115(4) 0.2388(9)
N8A N 0.1573(11) -0.1515(5) 0.4132(11)
H29A H 0.1848 -0.1570 0.4630
N9A N 0.1754(11) -0.0898(4) 0.4640(11)
H30A H 0.1999 -0.1013 0.5098
N10A N 0.1940(12) 0.0745(5) 0.4819(13)
H31A H 0.2127 0.0844 0.5330
N11A N 0.1893(11) 0.1378(4) 0.4376(10)
H32A H 0.2078 0.1422 0.4930
N12A N 0.1244(8) 0.2030(5) 0.2494(9)
O1A O -0.1935(10) -0.0900(4) -0.0122(11)
O2A O -0.1433(11) 0.1060(4) -0.0173(10)
O3A O 0.1054(15) -0.0997(5) 0.3323(11)
O4A O 0.1264(17) 0.0916(4) 0.3455(15)
Pd1A Pd -0.04343(9) -0.20652(3) 0.14101(9)
N13 N 0.8116(10) 0.3648(5) 0.3484(15)
O5 O 0.7796(10) 0.3972(4) 0.3438(9)
O6 O 0.8119(11) 0.3463(4) 0.4193(11)
O7 O 0.8384(8) 0.3493(4) 0.2750(10)
N14 N 0.2528(10) 0.3436(5) 0.3562(17)
O8 O 0.2353(9) 0.3256(4) 0.2851(11)
O9 O 0.2692(11) 0.3785(5) 0.3521(11)
O10 O 0.2376(13) 0.3302(5) 0.4377(12)
S1 S 0.0759(5) 0.34618(16) 0.1359(7)
O11 O 0.0618(8) 0.3031(3) 0.1378(9)
C37 C 0.0447(19) 0.3675(9) 0.2391(17)
H33 H 0.0544 0.3951 0.2362
H34 H -0.0136 0.3626 0.2487
H35 H 0.0760 0.3565 0.2899
C38 C -0.0140(17) 0.3589(9) 0.081(3)
H36 H -0.0158 0.3868 0.0733
H37 H -0.0161 0.3466 0.0206
H38 H -0.0608 0.3506 0.1176
S2 S 0.0306(12) 0.0784(4) 0.0964(10)
O12 O 0.030(8) 0.1193(17) 0.137(10)
C39 C 0.097(2) 0.0504(9) 0.156(3)
H39 H 0.0976 0.0245 0.1305
H40 H 0.1522 0.0613 0.1525
H41 H 0.0803 0.0492 0.2206
C40 C -0.061(2) 0.0579(13) 0.147(3)
H42 H -0.0677 0.0315 0.1260
H43 H -0.0561 0.0583 0.2139
H44 H -0.1086 0.0731 0.1286
O13 O 0.257(3) -0.1844(11) 0.184(3)
C41 C 0.334(3) -0.1904(15) 0.233(4)
H45 H 0.3403 -0.2167 0.2566
H46 H 0.3433 -0.1715 0.2823
C42 C 0.388(3) -0.1825(12) 0.146(4)
H47 H 0.4448 -0.1912 0.1591
H48 H 0.3675 -0.1984 0.0949
C43 C 0.308(3) -0.1301(15) 0.094(3)
H49 H 0.2930 -0.1400 0.0327
H50 H 0.3065 -0.1019 0.0908
C44 C 0.242(2) -0.1438(12) 0.165(3)
H51 H 0.2458 -0.1286 0.2216
H52 H 0.1864 -0.1404 0.1388
O14 O 0.392(2) -0.1422(12) 0.115(3)
loop_
_geom_bond_atom_site_label_1
_geom_bond_atom_site_label_2
_geom_bond_site_symmetry_1
_geom_bond_site_symmetry_2
C1 H1 1_555 1_555
C2 C1 1_555 1_555
H2 C2 1_555 1_555
C3 C2 1_555 1_555
H3 C3 1_555 1_555
C4 C3 1_555 1_555
C5 C4 1_555 1_555
H4 C5 1_555 1_555
C6 N2 1_555 1_555
C7 C8 1_555 1_555
C8 H5 1_555 1_555
C9 C8 1_555 1_555
H6 C9 1_555 1_555
C10 C9 1_555 1_555
C11 C10 1_555 1_555
H7 C11 1_555 1_555
C12 C7 1_555 1_555
H8 C12 1_555 1_555
C13 N4 1_555 1_555
C14 C15 1_555 1_555
C15 H9 1_555 1_555
C16 C15 1_555 1_555
H10 C16 1_555 1_555
C17 C16 1_555 1_555
H11 C17 1_555 1_555
C18 C14 1_555 1_555
H12 C18 1_555 1_555
C19 H13 1_555 1_555
C20 H14 1_555 1_555
C21 C20 1_555 1_555
H15 C21 1_555 1_555
C22 C21 1_555 1_555
H16 C22 1_555 1_555
C23 C19 1_555 1_555
C24 N8 1_555 1_555
C25 C26 1_555 1_555
C26 H17 1_555 1_555
C27 C26 1_555 1_555
H18 C27 1_555 1_555
C28 C27 1_555 1_555
C29 C28 1_555 1_555
H19 C29 1_555 1_555
C30 C25 1_555 1_555
H20 C30 1_555 1_555
C31 N10 1_555 1_555
C32 C33 1_555 1_555
C33 H21 1_555 1_555
C34 H22 1_555 1_555
C35 C34 1_555 1_555
H23 C35 1_555 1_555
C36 C32 1_555 1_555
H24 C36 1_555 1_555
N1 C1 1_555 1_555
N2 C4 1_555 1_555
H25 N2 1_555 1_555
N3 C6 1_555 1_555
H26 N3 1_555 1_555
N4 C10 1_555 1_555
H27 N4 1_555 1_555
N5 C13 1_555 1_555
H28 N5 1_555 1_555
N6 C17 1_555 1_555
N7 C19 1_555 1_555
N8 C23 1_555 1_555
H29 N8 1_555 1_555
N9 C24 1_555 1_555
H30 N9 1_555 1_555
N10 C28 1_555 1_555
H31 N10 1_555 1_555
N11 C31 1_555 1_555
H32 N11 1_555 1_555
N12 C33 1_555 1_555
O1 C6 1_555 1_555
O2 C13 1_555 1_555
O3 C24 1_555 1_555
O4 C31 1_555 1_555
Pd1 N1 1_555 1_555
N13 O5 1_555 1_555
O6 N13 1_555 1_555
O7 N13 1_555 1_555
N14 O8 1_555 1_555
O9 N14 1_555 1_555
O10 N14 1_555 1_555
S1 O11 1_555 1_555
C37 S1 1_555 1_555
H33 C37 1_555 1_555
H34 C37 1_555 1_555
H35 C37 1_555 1_555
C38 S1 1_555 1_555
H36 C38 1_555 1_555
H37 C38 1_555 1_555
H38 C38 1_555 1_555
S2 O12 1_555 1_555
C39 S2 1_555 1_555
H39 C39 1_555 1_555
H40 C39 1_555 1_555
H41 C39 1_555 1_555
C40 S2 1_555 1_555
H42 C40 1_555 1_555
H43 C40 1_555 1_555
H44 C40 1_555 1_555
O13 C41 1_555 1_555
C41 H45 1_555 1_555
H46 C41 1_555 1_555
C42 C41 1_555 1_555
H47 C42 1_555 1_555
H48 C42 1_555 1_555
C43 H49 1_555 1_555
H50 C43 1_555 1_555
C44 O13 1_555 1_555
H51 C44 1_555 1_555
H52 C44 1_555 1_555
O14 C42 1_555 1_555
C1A H1A 1_555 1_555
C2A C1A 1_555 1_555
H2A C2A 1_555 1_555
C3A C2A 1_555 1_555
H3A C3A 1_555 1_555
C4A C3A 1_555 1_555
C5A C4A 1_555 1_555
H4A C5A 1_555 1_555
C6A N2A 1_555 1_555
C7A C8A 1_555 1_555
C8A H5A 1_555 1_555
C9A C8A 1_555 1_555
H6A C9A 1_555 1_555
C10A C9A 1_555 1_555
C11A C10A 1_555 1_555
H7A C11A 1_555 1_555
C12A C7A 1_555 1_555
H8A C12A 1_555 1_555
C13A N4A 1_555 1_555
C14A C15A 1_555 1_555
C15A H9A 1_555 1_555
C16A C15A 1_555 1_555
H10A C16A 1_555 1_555
C17A C16A 1_555 1_555
H11A C17A 1_555 1_555
C18A C14A 1_555 1_555
H12A C18A 1_555 1_555
C19A H13A 1_555 1_555
C20A H14A 1_555 1_555
C21A C20A 1_555 1_555
H15A C21A 1_555 1_555
C22A C21A 1_555 1_555
H16A C22A 1_555 1_555
C23A C19A 1_555 1_555
C24A N8A 1_555 1_555
C25A C26A 1_555 1_555
C26A H17A 1_555 1_555
C27A C26A 1_555 1_555
H18A C27A 1_555 1_555
C28A C27A 1_555 1_555
C29A C28A 1_555 1_555
H19A C29A 1_555 1_555
C30A C25A 1_555 1_555
H20A C30A 1_555 1_555
C31A N10A 1_555 1_555
C32A C33A 1_555 1_555
C33A H21A 1_555 1_555
C34A H22A 1_555 1_555
C35A C34A 1_555 1_555
H23A C35A 1_555 1_555
C36A C32A 1_555 1_555
H24A C36A 1_555 1_555
N1A C1A 1_555 1_555
N2A C4A 1_555 1_555
H25A N2A 1_555 1_555
N3A C6A 1_555 1_555
H26A N3A 1_555 1_555
N4A C10A 1_555 1_555
H27A N4A 1_555 1_555
N5A C13A 1_555 1_555
H28A N5A 1_555 1_555
N6A Pd1 1_555 1_555
N7A C19A 1_555 1_555
N8A C23A 1_555 1_555
H29A N8A 1_555 1_555
N9A C24A 1_555 1_555
H30A N9A 1_555 1_555
N10A C28A 1_555 1_555
H31A N10A 1_555 1_555
N11A C31A 1_555 1_555
H32A N11A 1_555 1_555
N12A Pd1 1_555 1_555
O1A C6A 1_555 1_555
O2A C13A 1_555 1_555
O3A C24A 1_555 1_555
O4A C31A 1_555 1_555
Pd1A N6 1_555 1_555
C5 N1 1_555 1_555
C7 N3 1_555 1_555
C11 C12 1_555 1_555
C14 N5 1_555 1_555
C18 N6 1_555 1_555
C20 N7 1_555 1_555
C22 C23 1_555 1_555
C25 N9 1_555 1_555
C29 C30 1_555 1_555
C32 N11 1_555 1_555
C34 N12 1_555 1_555
C35 C36 1_555 1_555
N7 Pd1 1_555 1_555
N12 Pd1A 1_555 1_555
C43 C44 1_555 1_555
C43 O14 1_555 1_555
C5A N1A 1_555 1_555
C7A N3A 1_555 1_555
C11A C12A 1_555 1_555
C14A N5A 1_555 1_555
C17A N6A 1_555 1_555
C18A N6A 1_555 1_555
C20A N7A 1_555 1_555
C22A C23A 1_555 1_555
C25A N9A 1_555 1_555
C29A C30A 1_555 1_555
C32A N11A 1_555 1_555
C33A N12A 1_555 1_555
C34A N12A 1_555 1_555
C35A C36A 1_555 1_555
N1A Pd1A 1_555 1_555
N7A Pd1A 1_555 1_555

#END
