
#######################################################################
#
#                 Cambridge Crystallographic Data Centre
#                                CCDC 
#
#######################################################################
#
# If this CIF has been generated from an entry in the Cambridge 
# Structural Database, then it will include bibliographic, chemical, 
# crystal, experimental, refinement or atomic coordinate data resulting 
# from the CCDC's data processing and validation procedures.
#
#######################################################################

data_GIKDEM
_chemical_formula_moiety         
'C72 H64 N24 O8 Pd2 4+,3(C4 H8 O2),4(C2 H6 O1 S1),4(N1 O3 1-)'
_chemical_name_systematic        
"tetrakis(\m-N,N'-1,3-phenylenebis(N'-pyridin-3-yl-urea))-di-palladium tetranitrate dimethyl sulfoxide 1,4-dioxane unknown solvate"
_symmetry_cell_setting           triclinic
_symmetry_space_group_name_H-M   'P -1'
_symmetry_Int_Tables_number      2
_space_group_name_Hall           '-P 1'
loop_
_symmetry_equiv_pos_site_id
_symmetry_equiv_pos_as_xyz
1 x,y,z
2 -x,-y,-z
_cell_length_a                   16.119(3)
_cell_length_b                   21.572(5)
_cell_length_c                   23.238(5)
_cell_angle_alpha                89.957(9)
_cell_angle_beta                 78.301(9)
_cell_angle_gamma                71.377(8)
_cell_volume                     7480.29
_exptl_crystal_colour            colorless
_exptl_crystal_description       block
_cell_formula_units_Z            2
loop_
_atom_site_label
_atom_site_type_symbol
_atom_site_fract_x
_atom_site_fract_y
_atom_site_fract_z
Pd1 Pd 0.21755(3) 0.11051(3) 0.32669(2)
C1 C 0.3171(5) 0.1858(4) 0.3714(3)
H1 H 0.3343 0.1489 0.3924
C2 C 0.2401(6) 0.2394(5) 0.3030(4)
H2 H 0.2017 0.2416 0.2776
C3 C 0.2734(7) 0.2894(5) 0.3073(4)
H3 H 0.2592 0.3241 0.2833
C4 C 0.3270(6) 0.2904(4) 0.3458(4)
H4 H 0.3476 0.3256 0.3494
C5 C 0.3495(5) 0.2366(4) 0.3790(3)
C6 C 0.4656(6) 0.2590(4) 0.4213(4)
C7 C 0.5757(5) 0.2637(4) 0.4816(3)
C8 C 0.5975(6) 0.3163(4) 0.4574(4)
H5 H 0.5666 0.3411 0.4310
C9 C 0.6683(7) 0.3305(5) 0.4744(4)
H6 H 0.6844 0.3656 0.4583
C10 C 0.7147(6) 0.2959(4) 0.5131(4)
H7 H 0.7610 0.3073 0.5235
C11 C 0.6917(5) 0.2435(4) 0.5365(3)
C12 C 0.6207(5) 0.2284(4) 0.5202(3)
H8 H 0.6044 0.1935 0.5363
C13 C 0.7470(5) 0.1503(4) 0.5966(4)
C14 C 0.8309(5) 0.0723(4) 0.6615(3)
C15 C 0.8884(6) 0.0676(5) 0.6977(4)
H9 H 0.9085 0.1027 0.7031
C16 C 0.9171(7) 0.0121(5) 0.7264(5)
H10 H 0.9564 0.0087 0.7514
C17 C 0.8857(6) -0.0391(5) 0.7171(4)
H11 H 0.9053 -0.0778 0.7354
C18 C 0.8001(4) 0.0195(4) 0.6553(3)
H12 H 0.7593 0.0225 0.6315
C19 C 0.8305(5) -0.1234(4) 0.5437(3)
H13 H 0.7699 -0.1002 0.5477
C20 C 0.9514(5) -0.1706(4) 0.5888(4)
H14 H 0.9749 -0.1804 0.6223
C21 C 1.0078(6) -0.1907(5) 0.5329(4)
H15 H 1.0685 -0.2131 0.5298
C22 C 0.9741(5) -0.1774(5) 0.4826(3)
H16 H 1.0110 -0.1915 0.4456
C23 C 0.8838(5) -0.1427(4) 0.4886(3)
C24 C 0.8771(6) -0.1219(4) 0.3854(3)
C25 C 0.8250(5) -0.0931(4) 0.2907(3)
C26 C 0.9078(6) -0.1025(5) 0.2542(4)
H17 H 0.9600 -0.1182 0.2685
C27 C 0.9112(6) -0.0883(6) 0.1966(4)
H18 H 0.9665 -0.0939 0.1718
C28 C 0.8359(6) -0.0662(5) 0.1748(4)
H19 H 0.8405 -0.0565 0.1355
C29 C 0.7517(5) -0.0578(4) 0.2102(3)
C30 C 0.7485(5) -0.0700(4) 0.2702(3)
H20 H 0.6934 -0.0622 0.2960
C31 C 0.5887(6) -0.0140(4) 0.2116(4)
C32 C 0.4420(5) 0.0363(4) 0.1829(3)
C33 C 0.4040(6) 0.0505(5) 0.1356(4)
H21 H 0.4388 0.0374 0.0978
C34 C 0.3137(6) 0.0842(6) 0.1435(4)
H22 H 0.2880 0.0954 0.1110
C35 C 0.2613(6) 0.1014(5) 0.1994(4)
H23 H 0.2004 0.1243 0.2046
C36 C 0.3864(5) 0.0530(4) 0.2388(3)
H24 H 0.4110 0.0416 0.2718
N1 N 0.2618(4) 0.1873(3) 0.3348(2)
N2 N 0.4038(4) 0.2300(3) 0.4207(3)
H25 H 0.3964 0.2048 0.4486
N3 N 0.5044(5) 0.2453(3) 0.4690(3)
H26 H 0.4826 0.2227 0.4945
N4 N 0.7412(5) 0.2085(3) 0.5768(3)
H27 H 0.7724 0.2283 0.5906
N5 N 0.8064(4) 0.1314(3) 0.6335(3)
H28 H 0.8318 0.1593 0.6404
N6 N 0.8275(4) -0.0335(3) 0.6821(2)
N7 N 0.8660(4) -0.1382(3) 0.5942(2)
N8 N 0.8410(4) -0.1285(4) 0.4420(3)
H29 H 0.7846 -0.1233 0.4499
N9 N 0.8147(4) -0.1058(4) 0.3505(3)
H30 H 0.7612 -0.1031 0.3681
N10 N 0.6773(4) -0.0355(4) 0.1847(3)
H31 H 0.6887 -0.0352 0.1469
N11 N 0.5341(4) 0.0034(4) 0.1721(3)
H32 H 0.5602 -0.0073 0.1357
N12 N 0.2978(4) 0.0854(3) 0.2461(2)
O1 O 0.4872(4) 0.2928(3) 0.3827(3)
O2 O 0.7083(4) 0.1136(3) 0.5820(3)
O3 O 0.9548(4) -0.1270(3) 0.3685(2)
O4 O 0.5599(4) -0.0111(3) 0.2648(2)
Pd1A Pd 0.78245(3) -0.11051(3) 0.67331(2)
C1A C 0.6829(5) -0.1858(4) 0.6286(3)
H1A H 0.6657 -0.1489 0.6076
C2A C 0.7599(6) -0.2394(5) 0.6970(4)
H2A H 0.7983 -0.2416 0.7224
C3A C 0.7266(7) -0.2894(5) 0.6927(4)
H3A H 0.7408 -0.3241 0.7167
C4A C 0.6730(6) -0.2904(4) 0.6542(4)
H4A H 0.6524 -0.3256 0.6506
C5A C 0.6505(5) -0.2366(4) 0.6210(3)
C6A C 0.5344(6) -0.2590(4) 0.5787(4)
C7A C 0.4243(5) -0.2637(4) 0.5184(3)
C8A C 0.4025(6) -0.3163(4) 0.5426(4)
H5A H 0.4334 -0.3411 0.5690
C9A C 0.3317(7) -0.3305(5) 0.5256(4)
H6A H 0.3156 -0.3656 0.5417
C10A C 0.2853(6) -0.2959(4) 0.4869(4)
H7A H 0.2390 -0.3073 0.4765
C11A C 0.3083(5) -0.2435(4) 0.4635(3)
C12A C 0.3793(5) -0.2284(4) 0.4798(3)
H8A H 0.3956 -0.1935 0.4637
C13A C 0.2530(5) -0.1503(4) 0.4034(4)
C14A C 0.1691(5) -0.0723(4) 0.3385(3)
C15A C 0.1116(6) -0.0676(5) 0.3023(4)
H9A H 0.0915 -0.1027 0.2969
C16A C 0.0829(7) -0.0121(5) 0.2736(5)
H10A H 0.0436 -0.0087 0.2486
C17A C 0.1143(6) 0.0391(5) 0.2829(4)
H11A H 0.0947 0.0778 0.2646
C18A C 0.1999(4) -0.0195(4) 0.3447(3)
H12A H 0.2407 -0.0225 0.3685
C19A C 0.1695(5) 0.1234(4) 0.4563(3)
H13A H 0.2301 0.1002 0.4523
C20A C 0.0486(5) 0.1706(4) 0.4112(4)
H14A H 0.0251 0.1804 0.3777
C21A C -0.0078(6) 0.1907(5) 0.4671(4)
H15A H -0.0685 0.2131 0.4702
C22A C 0.0259(5) 0.1774(5) 0.5174(3)
H16A H -0.0110 0.1915 0.5544
C23A C 0.1162(5) 0.1427(4) 0.5114(3)
C24A C 0.1229(6) 0.1219(4) 0.6146(3)
C25A C 0.1750(5) 0.0931(4) 0.7093(3)
C26A C 0.0922(6) 0.1025(5) 0.7458(4)
H17A H 0.0400 0.1182 0.7315
C27A C 0.0888(6) 0.0883(6) 0.8034(4)
H18A H 0.0335 0.0939 0.8282
C28A C 0.1641(6) 0.0662(5) 0.8252(4)
H19A H 0.1595 0.0565 0.8645
C29A C 0.2483(5) 0.0578(4) 0.7898(3)
C30A C 0.2515(5) 0.0700(4) 0.7298(3)
H20A H 0.3066 0.0622 0.7040
C31A C 0.4113(6) 0.0140(4) 0.7884(4)
C32A C 0.5580(5) -0.0363(4) 0.8171(3)
C33A C 0.5960(6) -0.0505(5) 0.8644(4)
H21A H 0.5612 -0.0374 0.9022
C34A C 0.6863(6) -0.0842(6) 0.8565(4)
H22A H 0.7120 -0.0954 0.8890
C35A C 0.7387(6) -0.1014(5) 0.8006(4)
H23A H 0.7996 -0.1243 0.7954
C36A C 0.6136(5) -0.0530(4) 0.7612(3)
H24A H 0.5890 -0.0416 0.7282
N1A N 0.7382(4) -0.1873(3) 0.6652(2)
N2A N 0.5962(4) -0.2300(3) 0.5793(3)
H25A H 0.6036 -0.2048 0.5514
N3A N 0.4956(5) -0.2453(3) 0.5310(3)
H26A H 0.5174 -0.2227 0.5055
N4A N 0.2588(5) -0.2085(3) 0.4232(3)
H27A H 0.2276 -0.2283 0.4094
N5A N 0.1936(4) -0.1314(3) 0.3665(3)
H28A H 0.1682 -0.1593 0.3596
N6A N 0.1725(4) 0.0335(3) 0.3179(2)
N7A N 0.1340(4) 0.1382(3) 0.4058(2)
N8A N 0.1590(4) 0.1285(4) 0.5580(3)
H29A H 0.2154 0.1233 0.5501
N9A N 0.1853(4) 0.1058(4) 0.6495(3)
H30A H 0.2388 0.1031 0.6319
N10A N 0.3227(4) 0.0355(4) 0.8153(3)
H31A H 0.3113 0.0352 0.8531
N11A N 0.4659(4) -0.0034(4) 0.8279(3)
H32A H 0.4398 0.0073 0.8643
N12A N 0.7022(4) -0.0854(3) 0.7539(2)
O1A O 0.5128(4) -0.2928(3) 0.6173(3)
O2A O 0.2917(4) -0.1136(3) 0.4180(3)
O3A O 0.0452(4) 0.1270(3) 0.6315(2)
O4A O 0.4401(4) 0.0111(3) 0.7352(2)
Pd2 Pd 0.82481(3) 0.31593(3) 0.12176(2)
C37 C 0.6365(5) 0.3766(4) 0.1830(3)
H33 H 0.6318 0.3924 0.1461
C38 C 0.7240(6) 0.3176(4) 0.2423(4)
H34 H 0.7798 0.2931 0.2490
C39 C 0.6505(7) 0.3300(5) 0.2874(4)
H35 H 0.6564 0.3123 0.3235
C40 C 0.5679(6) 0.3687(5) 0.2795(4)
H36 H 0.5177 0.3781 0.3102
C41 C 0.5613(5) 0.3928(4) 0.2258(4)
C42 C 0.3939(5) 0.4395(4) 0.2381(4)
C43 C 0.2400(5) 0.5044(4) 0.2314(3)
C44 C 0.1942(6) 0.4816(4) 0.2813(4)
H37 H 0.2251 0.4527 0.3054
C45 C 0.1011(6) 0.5045(5) 0.2924(4)
H38 H 0.0693 0.4923 0.3260
C46 C 0.0545(5) 0.5442(5) 0.2557(4)
H39 H -0.0078 0.5569 0.2637
C47 C 0.1007(5) 0.5661(4) 0.2059(3)
C48 C 0.1921(5) 0.5442(4) 0.1937(3)
H40 H 0.2232 0.5560 0.1596
C49 C 0.0708(6) 0.6281(5) 0.1194(4)
C50 C -0.0003(5) 0.6981(5) 0.0449(4)
C51 C -0.0757(6) 0.7446(5) 0.0385(4)
H41 H -0.1244 0.7581 0.0702
C52 C -0.0820(6) 0.7725(6) -0.0138(5)
H42 H -0.1355 0.8034 -0.0182
C53 C -0.0084(5) 0.7547(5) -0.0602(4)
H43 H -0.0118 0.7741 -0.0957
C54 C 0.0720(5) 0.6818(4) -0.0021(3)
H44 H 0.1252 0.6507 0.0023
C55 C 0.2230(5) 0.5414(4) -0.1188(3)
H45 H 0.2664 0.5472 -0.1004
C56 C 0.0998(6) 0.5863(5) -0.1590(4)
H46 H 0.0569 0.6228 -0.1687
C57 C 0.0959(6) 0.5241(5) -0.1701(4)
H47 H 0.0511 0.5195 -0.1878
C58 C 0.1577(6) 0.4692(4) -0.1553(4)
H48 H 0.1563 0.4273 -0.1629
C59 C 0.2227(5) 0.4794(4) -0.1283(3)
C60 C 0.2903(6) 0.3652(4) -0.0980(4)
C61 C 0.3882(5) 0.2651(4) -0.0643(4)
C62 C 0.3401(7) 0.2243(5) -0.0681(6)
H49 H 0.2896 0.2375 -0.0844
C63 C 0.3680(8) 0.1621(5) -0.0469(7)
H50 H 0.3331 0.1352 -0.0474
C64 C 0.4428(7) 0.1395(5) -0.0259(5)
H51 H 0.4603 0.0971 -0.0137
C65 C 0.4945(6) 0.1801(4) -0.0226(4)
C66 C 0.4648(5) 0.2433(4) -0.0404(4)
H52 H 0.4964 0.2718 -0.0364
C67 C 0.6175(6) 0.1858(5) 0.0228(4)
C68 C 0.7421(5) 0.1563(4) 0.0762(4)
C69 C 0.7919(6) 0.1062(4) 0.1050(5)
H53 H 0.7872 0.0646 0.1014
C70 C 0.8476(6) 0.1160(4) 0.1384(4)
H54 H 0.8783 0.0824 0.1590
C71 C 0.8570(5) 0.1769(4) 0.1408(4)
H55 H 0.8961 0.1841 0.1625
C72 C 0.7542(5) 0.2165(4) 0.0806(3)
H56 H 0.7226 0.2509 0.0612
N13 N 0.7182(4) 0.3391(3) 0.1900(3)
N14 N 0.4816(4) 0.4360(3) 0.2122(3)
H57 H 0.4880 0.4626 0.1854
N15 N 0.3333(4) 0.4868(3) 0.2167(3)
H58 H 0.3547 0.5092 0.1906
N16 N 0.0471(4) 0.6084(4) 0.1720(3)
H59 H -0.0091 0.6237 0.1879
N17 N 0.0004(4) 0.6703(4) 0.0986(3)
H60 H -0.0508 0.6809 0.1227
N18 N 0.0689(4) 0.7089(3) -0.0538(3)
N19 N 0.1640(4) 0.5947(3) -0.1345(2)
N20 N 0.2915(4) 0.4275(3) -0.1138(3)
H61 H 0.3411 0.4349 -0.1146
N21 N 0.3652(4) 0.3305(3) -0.0805(3)
H62 H 0.4034 0.3503 -0.0791
N22 N 0.5705(5) 0.1538(3) 0.0008(3)
H63 H 0.5897 0.1118 0.0012
N23 N 0.6852(6) 0.1431(3) 0.0455(4)
H64 H 0.6925 0.1021 0.0395
N24 N 0.8110(4) 0.2268(3) 0.1125(3)
O5 O 0.3781(4) 0.4031(3) 0.2744(3)
O6 O 0.1487(4) 0.6110(4) 0.0889(3)
O7 O 0.2258(4) 0.3484(3) -0.0983(3)
O8 O 0.6068(4) 0.2431(3) 0.0212(3)
Pd2A Pd 0.17519(3) 0.68407(3) -0.12176(2)
C37A C 0.3635(5) 0.6234(4) -0.1830(3)
H33A H 0.3682 0.6076 -0.1461
C38A C 0.2760(6) 0.6824(4) -0.2423(4)
H34A H 0.2202 0.7069 -0.2490
C39A C 0.3495(7) 0.6700(5) -0.2874(4)
H35A H 0.3436 0.6877 -0.3235
C40A C 0.4321(6) 0.6313(5) -0.2795(4)
H36A H 0.4823 0.6219 -0.3102
C41A C 0.4387(5) 0.6072(4) -0.2258(4)
C42A C 0.6061(5) 0.5605(4) -0.2381(4)
C43A C 0.7600(5) 0.4956(4) -0.2314(3)
C44A C 0.8058(6) 0.5184(4) -0.2813(4)
H37A H 0.7749 0.5473 -0.3054
C45A C 0.8989(6) 0.4955(5) -0.2924(4)
H38A H 0.9307 0.5077 -0.3260
C46A C 0.9455(5) 0.4558(5) -0.2557(4)
H39A H 1.0078 0.4431 -0.2637
C47A C 0.8993(5) 0.4339(4) -0.2059(3)
C48A C 0.8079(5) 0.4558(4) -0.1937(3)
H40A H 0.7768 0.4440 -0.1596
C49A C 0.9292(6) 0.3719(5) -0.1194(4)
C50A C 1.0003(5) 0.3019(5) -0.0449(4)
C51A C 1.0757(6) 0.2554(5) -0.0385(4)
H41A H 1.1244 0.2419 -0.0702
C52A C 1.0820(6) 0.2275(6) 0.0138(5)
H42A H 1.1355 0.1966 0.0182
C53A C 1.0084(5) 0.2453(5) 0.0602(4)
H43A H 1.0118 0.2259 0.0957
C54A C 0.9280(5) 0.3182(4) 0.0021(3)
H44A H 0.8748 0.3493 -0.0023
C55A C 0.7770(5) 0.4586(4) 0.1188(3)
H45A H 0.7336 0.4528 0.1004
C56A C 0.9002(6) 0.4137(5) 0.1590(4)
H46A H 0.9431 0.3772 0.1687
C57A C 0.9041(6) 0.4759(5) 0.1701(4)
H47A H 0.9489 0.4805 0.1878
C58A C 0.8423(6) 0.5308(4) 0.1553(4)
H48A H 0.8437 0.5727 0.1629
C59A C 0.7773(5) 0.5206(4) 0.1283(3)
C60A C 0.7097(6) 0.6348(4) 0.0980(4)
C61A C 0.6118(5) 0.7349(4) 0.0643(4)
C62A C 0.6599(7) 0.7757(5) 0.0681(6)
H49A H 0.7104 0.7625 0.0844
C63A C 0.6320(8) 0.8379(5) 0.0469(7)
H50A H 0.6669 0.8648 0.0474
C64A C 0.5572(7) 0.8605(5) 0.0259(5)
H51A H 0.5397 0.9029 0.0137
C65A C 0.5055(6) 0.8199(4) 0.0226(4)
C66A C 0.5352(5) 0.7567(4) 0.0404(4)
H52A H 0.5036 0.7282 0.0364
C67A C 0.3825(6) 0.8142(5) -0.0228(4)
C68A C 0.2579(5) 0.8437(4) -0.0762(4)
C69A C 0.2081(6) 0.8938(4) -0.1050(5)
H53A H 0.2128 0.9354 -0.1014
C70A C 0.1524(6) 0.8840(4) -0.1384(4)
H54A H 0.1217 0.9176 -0.1590
C71A C 0.1430(5) 0.8231(4) -0.1408(4)
H55A H 0.1039 0.8159 -0.1625
C72A C 0.2458(5) 0.7835(4) -0.0806(3)
H56A H 0.2774 0.7491 -0.0612
N13A N 0.2818(4) 0.6609(3) -0.1900(3)
N14A N 0.5184(4) 0.5640(3) -0.2122(3)
H57A H 0.5120 0.5374 -0.1854
N15A N 0.6667(4) 0.5132(3) -0.2167(3)
H58A H 0.6453 0.4908 -0.1906
N16A N 0.9529(4) 0.3916(4) -0.1720(3)
H59A H 1.0091 0.3763 -0.1879
N17A N 0.9996(4) 0.3297(4) -0.0986(3)
H60A H 1.0508 0.3191 -0.1227
N18A N 0.9311(4) 0.2911(3) 0.0538(3)
N19A N 0.8360(4) 0.4053(3) 0.1345(2)
N20A N 0.7085(4) 0.5725(3) 0.1138(3)
H61A H 0.6589 0.5651 0.1146
N21A N 0.6348(4) 0.6695(3) 0.0805(3)
H62A H 0.5966 0.6497 0.0791
N22A N 0.4295(5) 0.8462(3) -0.0008(3)
H63A H 0.4103 0.8882 -0.0012
N23A N 0.3148(6) 0.8569(3) -0.0455(4)
H64A H 0.3075 0.8979 -0.0395
N24A N 0.1890(4) 0.7732(3) -0.1125(3)
O5A O 0.6219(4) 0.5969(3) -0.2744(3)
O6A O 0.8513(4) 0.3890(4) -0.0889(3)
O7A O 0.7742(4) 0.6516(3) 0.0983(3)
O8A O 0.3932(4) 0.7569(3) -0.0212(3)
N25 N 0.4801(6) 0.5729(5) 0.1258(3)
O9 O 0.5469(5) 0.5282(4) 0.1328(3)
O10 O 0.4005(10) 0.5772(13) 0.1507(13)
O11 O 0.4896(14) 0.6180(8) 0.0927(7)
N26 N 0.6289(5) -0.1513(5) 0.4442(4)
O12 O 0.6577(5) -0.1470(4) 0.4877(3)
O13 O 0.6436(14) -0.1156(9) 0.4016(7)
O14 O 0.5937(14) -0.1954(10) 0.4359(8)
N27 N 0.9831(6) -0.2146(5) -0.2256(4)
O15 O 0.9540(17) -0.2040(13) -0.2725(8)
O16 O 1.0571(11) -0.2581(10) -0.2259(9)
O17 O 0.9456(17) -0.1742(10) -0.1803(8)
N28 N 0.6850(8) -0.0156(5) 0.0276(5)
O18 O 0.7036(12) -0.0140(9) -0.0282(4)
O19 O 0.7422(8) -0.0522(7) 0.0534(5)
O20 O 0.6081(9) 0.0212(6) 0.0525(6)
S1 S 0.43333(18) -0.01913(13) 0.39785(11)
O21 O 0.3537(4) 0.0312(3) 0.3816(3)
C73 C 0.3954(8) -0.0317(6) 0.4718(4)
H65 H 0.4428 -0.0635 0.4856
H66 H 0.3773 0.0090 0.4952
H67 H 0.3453 -0.0473 0.4751
C74 C 0.5097(8) 0.0225(6) 0.4036(6)
H68 H 0.5621 -0.0075 0.4139
H69 H 0.5265 0.0396 0.3665
H70 H 0.4821 0.0579 0.4334
S2 S 0.33961(17) 0.61346(14) 0.00561(11)
O22 O 0.2899(4) 0.6317(3) -0.0429(2)
C75 C 0.3414(8) 0.5320(5) 0.0198(5)
H71 H 0.3727 0.5170 0.0508
H72 H 0.2811 0.5312 0.0314
H73 H 0.3715 0.5037 -0.0153
C76 C 0.4551(6) 0.5976(6) -0.0291(5)
H74 H 0.4914 0.5855 -0.0002
H75 H 0.4733 0.5625 -0.0591
H76 H 0.4625 0.6364 -0.0466
S3 S 0.8436(3) 0.3100(3) 0.6717(2)
O23 O 0.8517(5) 0.2551(4) 0.6289(3)
C77 C 0.7360(11) 0.3281(11) 0.7217(9)
H77 H 0.7283 0.3631 0.7499
H78 H 0.6894 0.3411 0.6999
H79 H 0.7332 0.2898 0.7419
C78 C 0.9361(11) 0.2783(8) 0.7077(8)
H80 H 0.9351 0.3112 0.7359
H81 H 0.9312 0.2402 0.7274
H82 H 0.9914 0.2668 0.6789
S4 S 0.2199(4) 0.2887(3) -0.2414(3)
O24 O 0.1325(4) 0.3247(4) -0.2075(4)
C79 C 0.2244(18) 0.2750(15) -0.3158(9)
H83 H 0.2847 0.2508 -0.3353
H84 H 0.1856 0.2504 -0.3203
H85 H 0.2053 0.3163 -0.3330
C80 C 0.2671(13) 0.2148(7) -0.2108(9)
H86 H 0.3254 0.1920 -0.2345
H87 H 0.2726 0.2238 -0.1715
H88 H 0.2293 0.1881 -0.2096
O25 O 0.9130(9) 0.0231(7) 0.4934(6)
C81 C 0.9345(7) -0.0158(5) 0.5400(4)
H89 H 0.9431 -0.0611 0.5286
H90 H 0.8848 -0.0017 0.5738
C82 C 0.9871(12) 0.0121(9) 0.4438(6)
H91 H 0.9999 -0.0308 0.4246
H92 H 0.9702 0.0445 0.4156
O25A O 1.0870(9) -0.0231(7) 0.5066(6)
C81A C 1.0655(7) 0.0158(5) 0.4600(4)
H89A H 1.0569 0.0611 0.4714
H90A H 1.1152 0.0017 0.4262
C82A C 1.0129(12) -0.0121(9) 0.5562(6)
H91A H 1.0001 0.0308 0.5754
H92A H 1.0298 -0.0445 0.5844
O26 O 0.0737(8) 0.4955(7) 0.0205(6)
C83 C 0.0502(7) 0.5426(5) -0.0148(5)
H93 H 0.0786 0.5263 -0.0553
H94 H 0.0701 0.5786 -0.0055
C84 C 0.0464(12) 0.4343(7) 0.0083(6)
H95 H 0.0755 0.4147 -0.0312
H96 H 0.0638 0.4017 0.0362
O26A O -0.0737(8) 0.5045(7) -0.0205(6)
C83A C -0.0502(7) 0.4574(5) 0.0148(5)
H93A H -0.0786 0.4737 0.0553
H94A H -0.0701 0.4214 0.0055
C84A C -0.0464(12) 0.5657(7) -0.0083(6)
H95A H -0.0755 0.5853 0.0312
H96A H -0.0638 0.5983 -0.0362
O27 O 0.5871(9) 0.2307(7) 0.1882(7)
O28 O 0.4767(10) 0.1643(6) 0.2343(7)
C85 C 0.4958(12) 0.2539(10) 0.1826(11)
H97 H 0.4899 0.2750 0.1461
H98 H 0.4583 0.2844 0.2155
C86 C 0.5795(16) 0.2089(10) 0.2434(10)
H99 H 0.5284 0.2391 0.2702
H100 H 0.6330 0.2048 0.2581
C87 C 0.5675(13) 0.1458(9) 0.2382(11)
H101 H 0.6067 0.1200 0.2031
H102 H 0.5781 0.1213 0.2725
C88 C 0.4735(14) 0.1931(10) 0.1829(9)
H103 H 0.4138 0.2027 0.1754
H104 H 0.5151 0.1626 0.1512
loop_
_geom_bond_atom_site_label_1
_geom_bond_atom_site_label_2
_geom_bond_site_symmetry_1
_geom_bond_site_symmetry_2
Pd1 N1 1_555 1_555
C1 H1 1_555 1_555
C2 H2 1_555 1_555
C3 C2 1_555 1_555
H3 C3 1_555 1_555
C4 C3 1_555 1_555
H4 C4 1_555 1_555
C5 C1 1_555 1_555
C6 N2 1_555 1_555
C7 C8 1_555 1_555
C8 H5 1_555 1_555
C9 C8 1_555 1_555
H6 C9 1_555 1_555
C10 C9 1_555 1_555
H7 C10 1_555 1_555
C11 C10 1_555 1_555
C12 C7 1_555 1_555
H8 C12 1_555 1_555
C13 N4 1_555 1_555
C14 C15 1_555 1_555
C15 H9 1_555 1_555
C16 C15 1_555 1_555
H10 C16 1_555 1_555
C17 C16 1_555 1_555
H11 C17 1_555 1_555
C18 C14 1_555 1_555
H12 C18 1_555 1_555
C19 H13 1_555 1_555
C20 H14 1_555 1_555
C21 C20 1_555 1_555
H15 C21 1_555 1_555
C22 C21 1_555 1_555
H16 C22 1_555 1_555
C23 C19 1_555 1_555
C24 N8 1_555 1_555
C25 C26 1_555 1_555
C26 H17 1_555 1_555
C27 C26 1_555 1_555
H18 C27 1_555 1_555
C28 C27 1_555 1_555
H19 C28 1_555 1_555
C29 C28 1_555 1_555
C30 C25 1_555 1_555
H20 C30 1_555 1_555
C31 N10 1_555 1_555
C32 C33 1_555 1_555
C33 H21 1_555 1_555
C34 C33 1_555 1_555
H22 C34 1_555 1_555
C35 C34 1_555 1_555
H23 C35 1_555 1_555
C36 C32 1_555 1_555
H24 C36 1_555 1_555
N1 C1 1_555 1_555
N2 C5 1_555 1_555
H25 N2 1_555 1_555
N3 C6 1_555 1_555
H26 N3 1_555 1_555
N4 C11 1_555 1_555
H27 N4 1_555 1_555
N5 C13 1_555 1_555
H28 N5 1_555 1_555
N6 C17 1_555 1_555
N7 C19 1_555 1_555
N8 C23 1_555 1_555
H29 N8 1_555 1_555
N9 C24 1_555 1_555
H30 N9 1_555 1_555
N10 C29 1_555 1_555
H31 N10 1_555 1_555
N11 C31 1_555 1_555
H32 N11 1_555 1_555
N12 Pd1 1_555 1_555
O1 C6 1_555 1_555
O2 C13 1_555 1_555
O3 C24 1_555 1_555
O4 C31 1_555 1_555
Pd2 N13 1_555 1_555
C37 H33 1_555 1_555
C38 H34 1_555 1_555
C39 C38 1_555 1_555
H35 C39 1_555 1_555
C40 C39 1_555 1_555
H36 C40 1_555 1_555
C41 C37 1_555 1_555
C42 N14 1_555 1_555
C43 C44 1_555 1_555
C44 H37 1_555 1_555
C45 C44 1_555 1_555
H38 C45 1_555 1_555
C46 C45 1_555 1_555
H39 C46 1_555 1_555
C47 C46 1_555 1_555
C48 C43 1_555 1_555
H40 C48 1_555 1_555
C49 N16 1_555 1_555
C50 C51 1_555 1_555
C51 H41 1_555 1_555
C52 C51 1_555 1_555
H42 C52 1_555 1_555
C53 C52 1_555 1_555
H43 C53 1_555 1_555
C54 C50 1_555 1_555
H44 C54 1_555 1_555
C55 H45 1_555 1_555
C56 H46 1_555 1_555
C57 C56 1_555 1_555
H47 C57 1_555 1_555
C58 C57 1_555 1_555
H48 C58 1_555 1_555
C59 C55 1_555 1_555
C60 N20 1_555 1_555
C61 C62 1_555 1_555
C62 H49 1_555 1_555
C63 C62 1_555 1_555
H50 C63 1_555 1_555
C64 C63 1_555 1_555
H51 C64 1_555 1_555
C65 C64 1_555 1_555
C66 C61 1_555 1_555
H52 C66 1_555 1_555
C67 N22 1_555 1_555
C68 C69 1_555 1_555
C69 H53 1_555 1_555
C70 C69 1_555 1_555
H54 C70 1_555 1_555
C71 C70 1_555 1_555
H55 C71 1_555 1_555
C72 C68 1_555 1_555
H56 C72 1_555 1_555
N13 C37 1_555 1_555
N14 C41 1_555 1_555
H57 N14 1_555 1_555
N15 C42 1_555 1_555
H58 N15 1_555 1_555
N16 C47 1_555 1_555
H59 N16 1_555 1_555
N17 C49 1_555 1_555
H60 N17 1_555 1_555
N18 C53 1_555 1_555
N19 C55 1_555 1_555
N20 C59 1_555 1_555
H61 N20 1_555 1_555
N21 C60 1_555 1_555
H62 N21 1_555 1_555
N22 C65 1_555 1_555
H63 N22 1_555 1_555
N23 C67 1_555 1_555
H64 N23 1_555 1_555
N24 Pd2 1_555 1_555
O5 C42 1_555 1_555
O6 C49 1_555 1_555
O7 C60 1_555 1_555
O8 C67 1_555 1_555
N25 O9 1_555 1_555
O10 N25 1_555 1_555
O11 N25 1_555 1_555
N26 O12 1_555 1_555
O13 N26 1_555 1_555
O14 N26 1_555 1_555
N27 O15 1_555 1_555
O16 N27 1_555 1_555
O17 N27 1_555 1_555
N28 O18 1_555 1_555
O19 N28 1_555 1_555
O20 N28 1_555 1_555
S1 O21 1_555 1_555
C73 S1 1_555 1_555
H65 C73 1_555 1_555
H66 C73 1_555 1_555
H67 C73 1_555 1_555
C74 S1 1_555 1_555
H68 C74 1_555 1_555
H69 C74 1_555 1_555
H70 C74 1_555 1_555
S2 O22 1_555 1_555
C75 S2 1_555 1_555
H71 C75 1_555 1_555
H72 C75 1_555 1_555
H73 C75 1_555 1_555
C76 S2 1_555 1_555
H74 C76 1_555 1_555
H75 C76 1_555 1_555
H76 C76 1_555 1_555
S3 O23 1_555 1_555
C77 S3 1_555 1_555
H77 C77 1_555 1_555
H78 C77 1_555 1_555
H79 C77 1_555 1_555
C78 S3 1_555 1_555
H80 C78 1_555 1_555
H81 C78 1_555 1_555
H82 C78 1_555 1_555
S4 O24 1_555 1_555
C79 S4 1_555 1_555
H83 C79 1_555 1_555
H84 C79 1_555 1_555
H85 C79 1_555 1_555
C80 S4 1_555 1_555
H86 C80 1_555 1_555
H87 C80 1_555 1_555
H88 C80 1_555 1_555
O25 C81 1_555 1_555
C81 H89 1_555 1_555
H90 C81 1_555 1_555
C82 O25 1_555 1_555
H91 C82 1_555 1_555
H92 C82 1_555 1_555
O26 C83 1_555 1_555
C83 H93 1_555 1_555
H94 C83 1_555 1_555
C84 O26 1_555 1_555
H95 C84 1_555 1_555
H96 C84 1_555 1_555
O27 C85 1_555 1_555
O28 C87 1_555 1_555
C85 H97 1_555 1_555
H98 C85 1_555 1_555
C86 O27 1_555 1_555
H99 C86 1_555 1_555
H100 C86 1_555 1_555
C87 C86 1_555 1_555
H101 C87 1_555 1_555
H102 C87 1_555 1_555
C88 O28 1_555 1_555
H103 C88 1_555 1_555
H104 C88 1_555 1_555
Pd1A N6 1_555 1_555
C1A H1A 1_555 1_555
C2A H2A 1_555 1_555
C3A C2A 1_555 1_555
H3A C3A 1_555 1_555
C4A C3A 1_555 1_555
H4A C4A 1_555 1_555
C5A C1A 1_555 1_555
C6A N2A 1_555 1_555
C7A C8A 1_555 1_555
C8A H5A 1_555 1_555
C9A C8A 1_555 1_555
H6A C9A 1_555 1_555
C10A C9A 1_555 1_555
H7A C10A 1_555 1_555
C11A C10A 1_555 1_555
C12A C7A 1_555 1_555
H8A C12A 1_555 1_555
C13A N4A 1_555 1_555
C14A C15A 1_555 1_555
C15A H9A 1_555 1_555
C16A C15A 1_555 1_555
H10A C16A 1_555 1_555
C17A C16A 1_555 1_555
H11A C17A 1_555 1_555
C18A C14A 1_555 1_555
H12A C18A 1_555 1_555
C19A H13A 1_555 1_555
C20A H14A 1_555 1_555
C21A C20A 1_555 1_555
H15A C21A 1_555 1_555
C22A C21A 1_555 1_555
H16A C22A 1_555 1_555
C23A C19A 1_555 1_555
C24A N8A 1_555 1_555
C25A C26A 1_555 1_555
C26A H17A 1_555 1_555
C27A C26A 1_555 1_555
H18A C27A 1_555 1_555
C28A C27A 1_555 1_555
H19A C28A 1_555 1_555
C29A C28A 1_555 1_555
C30A C25A 1_555 1_555
H20A C30A 1_555 1_555
C31A N10A 1_555 1_555
C32A C33A 1_555 1_555
C33A H21A 1_555 1_555
C34A C33A 1_555 1_555
H22A C34A 1_555 1_555
C35A C34A 1_555 1_555
H23A C35A 1_555 1_555
C36A C32A 1_555 1_555
H24A C36A 1_555 1_555
N1A Pd1A 1_555 1_555
N2A C5A 1_555 1_555
H25A N2A 1_555 1_555
N3A C6A 1_555 1_555
H26A N3A 1_555 1_555
N4A C11A 1_555 1_555
H27A N4A 1_555 1_555
N5A C13A 1_555 1_555
H28A N5A 1_555 1_555
N6A Pd1 1_555 1_555
N7A Pd1 1_555 1_555
N8A C23A 1_555 1_555
H29A N8A 1_555 1_555
N9A C24A 1_555 1_555
H30A N9A 1_555 1_555
N10A C29A 1_555 1_555
H31A N10A 1_555 1_555
N11A C31A 1_555 1_555
H32A N11A 1_555 1_555
N12A Pd1A 1_555 1_555
O1A C6A 1_555 1_555
O2A C13A 1_555 1_555
O3A C24A 1_555 1_555
O4A C31A 1_555 1_555
Pd2A N18 1_555 1_555
C37A H33A 1_555 1_555
C38A H34A 1_555 1_555
C39A C38A 1_555 1_555
H35A C39A 1_555 1_555
C40A C39A 1_555 1_555
H36A C40A 1_555 1_555
C41A C37A 1_555 1_555
C42A N14A 1_555 1_555
C43A C44A 1_555 1_555
C44A H37A 1_555 1_555
C45A C44A 1_555 1_555
H38A C45A 1_555 1_555
C46A C45A 1_555 1_555
H39A C46A 1_555 1_555
C47A C46A 1_555 1_555
C48A C43A 1_555 1_555
H40A C48A 1_555 1_555
C49A N16A 1_555 1_555
C50A C51A 1_555 1_555
C51A H41A 1_555 1_555
C52A C51A 1_555 1_555
H42A C52A 1_555 1_555
C53A C52A 1_555 1_555
H43A C53A 1_555 1_555
C54A C50A 1_555 1_555
H44A C54A 1_555 1_555
C55A H45A 1_555 1_555
C56A H46A 1_555 1_555
C57A C56A 1_555 1_555
H47A C57A 1_555 1_555
C58A C57A 1_555 1_555
H48A C58A 1_555 1_555
C59A C55A 1_555 1_555
C60A N20A 1_555 1_555
C61A C62A 1_555 1_555
C62A H49A 1_555 1_555
C63A C62A 1_555 1_555
H50A C63A 1_555 1_555
C64A C63A 1_555 1_555
H51A C64A 1_555 1_555
C65A C64A 1_555 1_555
C66A C61A 1_555 1_555
H52A C66A 1_555 1_555
C67A N22A 1_555 1_555
C68A C69A 1_555 1_555
C69A H53A 1_555 1_555
C70A C69A 1_555 1_555
H54A C70A 1_555 1_555
C71A C70A 1_555 1_555
H55A C71A 1_555 1_555
C72A C68A 1_555 1_555
H56A C72A 1_555 1_555
N13A Pd2A 1_555 1_555
N14A C41A 1_555 1_555
H57A N14A 1_555 1_555
N15A C42A 1_555 1_555
H58A N15A 1_555 1_555
N16A C47A 1_555 1_555
H59A N16A 1_555 1_555
N17A C49A 1_555 1_555
H60A N17A 1_555 1_555
N18A Pd2 1_555 1_555
N19A Pd2 1_555 1_555
N20A C59A 1_555 1_555
H61A N20A 1_555 1_555
N21A C60A 1_555 1_555
H62A N21A 1_555 1_555
N22A C65A 1_555 1_555
H63A N22A 1_555 1_555
N23A C67A 1_555 1_555
H64A N23A 1_555 1_555
N24A Pd2A 1_555 1_555
O5A C42A 1_555 1_555
O6A C49A 1_555 1_555
O7A C60A 1_555 1_555
O8A C67A 1_555 1_555
O25A C81A 1_555 1_555
C81A C82 1_555 1_555
H89A C81A 1_555 1_555
H90A C81A 1_555 1_555
C82A C81 1_555 1_555
H91A C82A 1_555 1_555
H92A C82A 1_555 1_555
O26A C83A 1_555 1_555
C83A C84 1_555 1_555
H93A C83A 1_555 1_555
H94A C83A 1_555 1_555
C84A C83 1_555 1_555
H95A C84A 1_555 1_555
H96A C84A 1_555 1_555
C2 N1 1_555 1_555
C4 C5 1_555 1_555
C7 N3 1_555 1_555
C11 C12 1_555 1_555
C14 N5 1_555 1_555
C18 N6 1_555 1_555
C20 N7 1_555 1_555
C22 C23 1_555 1_555
C25 N9 1_555 1_555
C29 C30 1_555 1_555
C32 N11 1_555 1_555
C35 N12 1_555 1_555
C36 N12 1_555 1_555
N7 Pd1A 1_555 1_555
C38 N13 1_555 1_555
C40 C41 1_555 1_555
C43 N15 1_555 1_555
C47 C48 1_555 1_555
C50 N17 1_555 1_555
C54 N18 1_555 1_555
C56 N19 1_555 1_555
C58 C59 1_555 1_555
C61 N21 1_555 1_555
C65 C66 1_555 1_555
C68 N23 1_555 1_555
C71 N24 1_555 1_555
C72 N24 1_555 1_555
N19 Pd2A 1_555 1_555
C85 C88 1_555 1_555
C1A N1A 1_555 1_555
C2A N1A 1_555 1_555
C4A C5A 1_555 1_555
C7A N3A 1_555 1_555
C11A C12A 1_555 1_555
C14A N5A 1_555 1_555
C17A N6A 1_555 1_555
C18A N6A 1_555 1_555
C19A N7A 1_555 1_555
C20A N7A 1_555 1_555
C22A C23A 1_555 1_555
C25A N9A 1_555 1_555
C29A C30A 1_555 1_555
C32A N11A 1_555 1_555
C35A N12A 1_555 1_555
C36A N12A 1_555 1_555
C37A N13A 1_555 1_555
C38A N13A 1_555 1_555
C40A C41A 1_555 1_555
C43A N15A 1_555 1_555
C47A C48A 1_555 1_555
C50A N17A 1_555 1_555
C53A N18A 1_555 1_555
C54A N18A 1_555 1_555
C55A N19A 1_555 1_555
C56A N19A 1_555 1_555
C58A C59A 1_555 1_555
C61A N21A 1_555 1_555
C65A C66A 1_555 1_555
C68A N23A 1_555 1_555
C71A N24A 1_555 1_555
C72A N24A 1_555 1_555
O25A C82A 1_555 1_555
O26A C84A 1_555 1_555

#END
