
#######################################################################
#
#                 Cambridge Crystallographic Data Centre
#                                CCDC 
#
#######################################################################
#
# If this CIF has been generated from an entry in the Cambridge 
# Structural Database, then it will include bibliographic, chemical, 
# crystal, experimental, refinement or atomic coordinate data resulting 
# from the CCDC's data processing and validation procedures.
#
#######################################################################

data_GIXKEE
_chemical_formula_moiety         
'C64 H44 N8 Pt2 4+,4(B1 F4 1-),C10 H8 O2,6(C2 H6 O1 S1),5(H2 O1)'
_chemical_name_systematic        
"bis(\m~2~-4'-(3'-(Pyridin-3-yl)-1,1'-biphenyl-3-yl)-2,2':6',2''-terpyridine)-di-platinum(ii) tetrakis(tetrafluoroborate) napthalene-2,6-diol clathrate dimethylsulfoxide solvate pentahydrate"
_symmetry_cell_setting           triclinic
_symmetry_space_group_name_H-M   'P -1'
_symmetry_Int_Tables_number      2
_space_group_name_Hall           '-P 1'
loop_
_symmetry_equiv_pos_site_id
_symmetry_equiv_pos_as_xyz
1 x,y,z
2 -x,-y,-z
_cell_length_a                   10.382(4)
_cell_length_b                   17.061(7)
_cell_length_c                   18.049(7)
_cell_angle_alpha                114.721(16)
_cell_angle_beta                 91.774(13)
_cell_angle_gamma                101.924(14)
_cell_volume                     2816.44
_exptl_crystal_colour            red
_exptl_crystal_description       needle
_cell_formula_units_Z            1
loop_
_atom_site_label
_atom_site_type_symbol
_atom_site_fract_x
_atom_site_fract_y
_atom_site_fract_z
Pt1 Pt 0.86870(4) 0.56897(3) 0.40244(3)
N1 N 0.8526(7) 0.6242(6) 0.5243(5)
C1 C 0.8323(8) 0.5630(7) 0.5571(7)
C2 C 0.8198(10) 0.5867(7) 0.6390(7)
H1 H 0.8061 0.5437 0.6602
C3 C 0.8279(10) 0.6758(8) 0.6894(8)
H2 H 0.8202 0.6947 0.7463
C4 C 0.8478(10) 0.7380(8) 0.6557(8)
H3 H 0.8546 0.7992 0.6896
C5 C 0.8570(9) 0.7089(7) 0.5738(7)
H4 H 0.8669 0.7506 0.5511
N2 N 0.8430(7) 0.4631(6) 0.4205(5)
C6 C 0.8234(9) 0.4711(7) 0.4973(7)
C7 C 0.8018(8) 0.3964(7) 0.5112(7)
H5 H 0.7917 0.4015 0.5651
C8 C 0.7946(9) 0.3110(7) 0.4451(7)
C9 C 0.8174(9) 0.3073(7) 0.3667(7)
H6 H 0.8150 0.2518 0.3216
C10 C 0.8433(9) 0.3847(7) 0.3557(7)
N3 N 0.8833(9) 0.4803(7) 0.2880(6)
C11 C 0.8651(11) 0.3950(8) 0.2811(7)
C12 C 0.8739(13) 0.3248(9) 0.2072(8)
H7 H 0.8648 0.2668 0.2037
C13 C 0.8968(16) 0.3411(11) 0.1368(9)
H8 H 0.9029 0.2947 0.0854
C14 C 0.910(2) 0.4281(12) 0.1466(9)
H9 H 0.9247 0.4408 0.1007
C15 C 0.9013(15) 0.4973(10) 0.2222(10)
H10 H 0.9082 0.5556 0.2269
C16 C 0.7621(9) 0.2318(7) 0.4594(7)
C17 C 0.6703(9) 0.2253(7) 0.5110(7)
H11 H 0.6290 0.2731 0.5364
C18 C 0.6352(10) 0.1510(7) 0.5277(9)
C19 C 0.6996(11) 0.0795(8) 0.4885(10)
H12 H 0.6789 0.0281 0.4983
C20 C 0.7914(10) 0.0864(8) 0.4366(9)
H13 H 0.8357 0.0400 0.4120
C21 C 0.8203(10) 0.1600(8) 0.4196(9)
H14 H 0.8796 0.1618 0.3810
C22 C 0.5340(10) 0.1468(8) 0.5846(8)
C23 C 0.4210(9) 0.1767(7) 0.5821(8)
H15 H 0.4061 0.1974 0.5419
C24 C 0.3290(10) 0.1776(7) 0.6358(8)
C25 C 0.3489(11) 0.1463(9) 0.6924(9)
H16 H 0.2861 0.1462 0.7295
C26 C 0.4611(12) 0.1143(10) 0.6960(10)
H17 H 0.4731 0.0918 0.7351
C27 C 0.5534(12) 0.1148(9) 0.6444(10)
H18 H 0.6303 0.0939 0.6482
C28 C 0.2040(10) 0.2081(8) 0.6315(7)
C29 C 0.2167(10) 0.2848(8) 0.6188(7)
H19 H 0.3006 0.3129 0.6108
N4 N 0.8924(8) 0.6797(6) 0.3821(6)
C30 C 1.0088(10) 0.7204(8) 0.3702(7)
H20 H 1.0831 0.6957 0.3690
C31 C 1.0246(11) 0.7964(8) 0.3595(8)
H21 H 1.1087 0.8235 0.3509
C32 C 0.0821(11) 0.1665(9) 0.6387(8)
H22 H 0.0701 0.1116 0.6424
Pt1A Pt 0.13130(4) 0.43103(3) 0.59756(3)
N1A N 0.1474(7) 0.3758(6) 0.4757(5)
C1A C 0.1677(8) 0.4370(7) 0.4429(7)
C2A C 0.1802(10) 0.4133(7) 0.3610(7)
H1A H 0.1939 0.4563 0.3398
C3A C 0.1721(10) 0.3242(8) 0.3106(8)
H2A H 0.1798 0.3053 0.2537
C4A C 0.1522(10) 0.2620(8) 0.3443(8)
H3A H 0.1454 0.2008 0.3104
C5A C 0.1430(9) 0.2911(7) 0.4262(7)
H4A H 0.1331 0.2494 0.4489
N2A N 0.1570(7) 0.5369(6) 0.5795(5)
C6A C 0.1766(9) 0.5289(7) 0.5027(7)
C7A C 0.1982(8) 0.6036(7) 0.4888(7)
H5A H 0.2083 0.5985 0.4349
C8A C 0.2054(9) 0.6890(7) 0.5549(7)
C9A C 0.1826(9) 0.6927(7) 0.6333(7)
H6A H 0.1850 0.7482 0.6784
C10A C 0.1567(9) 0.6153(7) 0.6443(7)
N3A N 0.1167(9) 0.5197(7) 0.7120(6)
C11A C 0.1349(11) 0.6050(8) 0.7189(7)
C12A C 0.1261(13) 0.6752(9) 0.7928(8)
H7A H 0.1352 0.7332 0.7963
C13A C 0.1032(16) 0.6589(11) 0.8632(9)
H8A H 0.0971 0.7053 0.9146
C14A C 0.090(2) 0.5719(12) 0.8534(9)
H9A H 0.0753 0.5592 0.8993
C15A C 0.0987(15) 0.5027(10) 0.7778(10)
H10A H 0.0918 0.4444 0.7731
C16A C 0.2379(9) 0.7682(7) 0.5406(7)
C17A C 0.3297(9) 0.7747(7) 0.4890(7)
H11A H 0.3710 0.7269 0.4636
C18A C 0.3648(10) 0.8490(7) 0.4723(9)
C19A C 0.3004(11) 0.9205(8) 0.5115(10)
H12A H 0.3211 0.9719 0.5017
C20A C 0.2086(10) 0.9136(8) 0.5634(9)
H13A H 0.1643 0.9600 0.5880
C21A C 0.1797(10) 0.8400(8) 0.5804(9)
H14A H 0.1204 0.8382 0.6190
C22A C 0.4660(10) 0.8532(8) 0.4154(8)
C23A C 0.5790(9) 0.8233(7) 0.4179(8)
H15A H 0.5939 0.8026 0.4581
C24A C 0.6710(10) 0.8224(7) 0.3642(8)
C25A C 0.6511(11) 0.8537(9) 0.3076(9)
H16A H 0.7139 0.8538 0.2705
C26A C 0.5389(12) 0.8857(10) 0.3040(10)
H17A H 0.5269 0.9082 0.2649
C27A C 0.4466(12) 0.8852(9) 0.3556(10)
H18A H 0.3697 0.9061 0.3518
C28A C 0.7960(10) 0.7919(8) 0.3685(7)
C29A C 0.7833(10) 0.7152(8) 0.3812(7)
H19A H 0.6994 0.6871 0.3892
N4A N 0.1076(8) 0.3203(6) 0.6179(6)
C30A C -0.0088(10) 0.2796(8) 0.6298(7)
H20A H -0.0831 0.3043 0.6310
C31A C -0.0246(11) 0.2036(8) 0.6405(8)
H21A H -0.1087 0.1765 0.6491
C32A C 0.9179(11) 0.8335(9) 0.3613(8)
H22A H 0.9299 0.8884 0.3576
O1 O 0.5344(17) 0.3747(14) 0.2657(13)
H23 H 0.5278 0.3219 0.2583
C33 C 0.5237(15) 0.4277(13) 0.3491(11)
C34 C 0.5067(13) 0.3964(9) 0.4092(9)
H24 H 0.5026 0.3357 0.3955
C35 C 0.4956(12) 0.4550(5) 0.4901(6)
C36 C 0.4838(13) 0.4246(10) 0.5511(10)
H25 H 0.4850 0.3648 0.5382
C37 C 0.5299(14) 0.5173(13) 0.3685(12)
H26 H 0.5432 0.5385 0.3276
O1A O 0.4656(17) 0.6253(14) 0.7343(13)
H23A H 0.4722 0.6781 0.7417
C33A C 0.4763(15) 0.5723(13) 0.6509(11)
C34A C 0.4933(13) 0.6036(9) 0.5908(9)
H24A H 0.4974 0.6643 0.6045
C35A C 0.5044(12) 0.5450(5) 0.5099(6)
C36A C 0.5162(13) 0.5754(10) 0.4489(10)
H25A H 0.5150 0.6352 0.4618
C37A C 0.4701(14) 0.4827(13) 0.6315(12)
H26A H 0.4568 0.4615 0.6724
B1 B 0.136(2) 0.0385(16) 0.3506(14)
F1 F 0.144(2) 0.1121(13) 0.4209(11)
F2 F 0.194(2) -0.0166(15) 0.3693(14)
F3 F 0.0051(17) 0.0014(15) 0.3220(13)
F4 F 0.187(2) 0.0569(15) 0.2908(12)
B3 B 0.892(4) 0.799(3) 0.920(3)
F9 F 0.798(5) 0.846(4) 0.936(4)
F10 F 0.979(5) 0.826(5) 0.987(3)
F11 F 0.957(5) 0.810(4) 0.861(3)
F12 F 0.832(6) 0.713(3) 0.894(4)
O2 O 0.7873(10) 0.4205(7) 0.6951(6)
C38 C 0.700(3) 0.5249(16) 0.8218(14)
H27 H 0.6692 0.5641 0.8020
H28 H 0.7961 0.5468 0.8398
H29 H 0.6540 0.5241 0.8681
S1 S 0.6636(8) 0.4064(5) 0.7343(6)
C39 C 0.729(5) 0.353(3) 0.795(3)
H33 H 0.7187 0.2893 0.7601
H34 H 0.6791 0.3599 0.8421
H35 H 0.8233 0.3813 0.8159
O3 O 0.557(2) 0.2252(17) 0.2393(16)
C41 C 0.5001(19) 0.0871(17) 0.2783(14)
H39 H 0.5874 0.0803 0.2932
H40 H 0.4347 0.0300 0.2595
H41 H 0.4734 0.1317 0.3265
S3 S 0.4324(8) 0.1587(8) 0.2474(8)
C42 C 0.366(7) 0.088(4) 0.133(5)
H45 H 0.3284 0.1240 0.1118
H46 H 0.2978 0.0362 0.1266
H47 H 0.4394 0.0691 0.1029
O4 O 0.8493(16) 0.1383(9) 0.2173(8)
C44 C 0.803(4) -0.028(2) 0.179(2)
H51 H 0.7160 -0.0357 0.1978
H52 H 0.8731 -0.0110 0.2241
H53 H 0.8090 -0.0841 0.1334
C45 C 0.993(3) 0.033(3) 0.127(2)
H57 H 1.0325 0.0741 0.1046
H58 H 0.9892 -0.0280 0.0880
H59 H 1.0471 0.0473 0.1789
S5 S 0.8204(13) 0.0452(9) 0.1486(9)
O5 O 0.310(3) 0.4063(19) 0.8708(17)
O6 O -0.176(2) 0.2032(18) 0.8450(16)
O8 O -0.102(5) 0.282(4) 0.823(3)
O9 O 0.161(7) 0.318(5) 0.870(5)
O10 O 0.479(9) 0.812(6) 1.038(5)
O11 O 0.385(6) 0.498(5) 0.883(4)
loop_
_geom_bond_atom_site_label_1
_geom_bond_atom_site_label_2
_geom_bond_site_symmetry_1
_geom_bond_site_symmetry_2
Pt1 N1 1_555 1_555
N1 C1 1_555 1_555
C1 C2 1_555 1_555
C2 H1 1_555 1_555
C3 C2 1_555 1_555
H2 C3 1_555 1_555
C4 C3 1_555 1_555
H3 C4 1_555 1_555
C5 N1 1_555 1_555
H4 C5 1_555 1_555
N2 Pt1 1_555 1_555
C6 C1 1_555 1_555
C7 C6 1_555 1_555
H5 C7 1_555 1_555
C8 C7 1_555 1_555
C9 C8 1_555 1_555
H6 C9 1_555 1_555
C10 N2 1_555 1_555
N3 Pt1 1_555 1_555
C11 C10 1_555 1_555
C12 C11 1_555 1_555
H7 C12 1_555 1_555
C13 C12 1_555 1_555
H8 C13 1_555 1_555
C14 C13 1_555 1_555
H9 C14 1_555 1_555
C15 N3 1_555 1_555
H10 C15 1_555 1_555
C16 C8 1_555 1_555
C17 C16 1_555 1_555
H11 C17 1_555 1_555
C18 C17 1_555 1_555
C19 C18 1_555 1_555
H12 C19 1_555 1_555
C20 C19 1_555 1_555
H13 C20 1_555 1_555
C21 C16 1_555 1_555
H14 C21 1_555 1_555
C22 C18 1_555 1_555
C23 C22 1_555 1_555
H15 C23 1_555 1_555
C24 C23 1_555 1_555
C25 C24 1_555 1_555
H16 C25 1_555 1_555
C26 C25 1_555 1_555
H17 C26 1_555 1_555
C27 C22 1_555 1_555
H18 C27 1_555 1_555
C28 C24 1_555 1_555
C29 C28 1_555 1_555
H19 C29 1_555 1_555
N4 Pt1 1_555 1_555
C30 N4 1_555 1_555
H20 C30 1_555 1_555
C31 C30 1_555 1_555
H21 C31 1_555 1_555
C32 C28 1_555 1_555
H22 C32 1_555 1_555
O1 H23 1_555 1_555
C33 O1 1_555 1_555
C34 C33 1_555 1_555
H24 C34 1_555 1_555
C35 C34 1_555 1_555
C36 C35 1_555 1_555
H25 C36 1_555 1_555
C37 C33 1_555 1_555
H26 C37 1_555 1_555
B1 F1 1_555 1_555
F2 B1 1_555 1_555
F3 B1 1_555 1_555
F4 B1 1_555 1_555
B3 F9 1_555 1_555
F10 B3 1_555 1_555
F11 B3 1_555 1_555
F12 B3 1_555 1_555
O2 S1 1_555 1_555
C38 H27 1_555 1_555
H28 C38 1_555 1_555
H29 C38 1_555 1_555
S1 C38 1_555 1_555
C39 S1 1_555 1_555
H33 C39 1_555 1_555
H34 C39 1_555 1_555
H35 C39 1_555 1_555
O3 S3 1_555 1_555
C41 H39 1_555 1_555
H40 C41 1_555 1_555
H41 C41 1_555 1_555
S3 C41 1_555 1_555
C42 S3 1_555 1_555
H45 C42 1_555 1_555
H46 C42 1_555 1_555
H47 C42 1_555 1_555
O4 S5 1_555 1_555
C44 H51 1_555 1_555
H52 C44 1_555 1_555
H53 C44 1_555 1_555
C45 H57 1_555 1_555
H58 C45 1_555 1_555
H59 C45 1_555 1_555
S5 C44 1_555 1_555
Pt1A N1A 1_555 1_555
N1A C1A 1_555 1_555
C1A C2A 1_555 1_555
C2A H1A 1_555 1_555
C3A C2A 1_555 1_555
H2A C3A 1_555 1_555
C4A C3A 1_555 1_555
H3A C4A 1_555 1_555
C5A N1A 1_555 1_555
H4A C5A 1_555 1_555
N2A Pt1A 1_555 1_555
C6A C1A 1_555 1_555
C7A C6A 1_555 1_555
H5A C7A 1_555 1_555
C8A C7A 1_555 1_555
C9A C8A 1_555 1_555
H6A C9A 1_555 1_555
C10A N2A 1_555 1_555
N3A Pt1A 1_555 1_555
C11A C10A 1_555 1_555
C12A C11A 1_555 1_555
H7A C12A 1_555 1_555
C13A C12A 1_555 1_555
H8A C13A 1_555 1_555
C14A C13A 1_555 1_555
H9A C14A 1_555 1_555
C15A N3A 1_555 1_555
H10A C15A 1_555 1_555
C16A C8A 1_555 1_555
C17A C16A 1_555 1_555
H11A C17A 1_555 1_555
C18A C17A 1_555 1_555
C19A C18A 1_555 1_555
H12A C19A 1_555 1_555
C20A C19A 1_555 1_555
H13A C20A 1_555 1_555
C21A C16A 1_555 1_555
H14A C21A 1_555 1_555
C22A C18A 1_555 1_555
C23A C22A 1_555 1_555
H15A C23A 1_555 1_555
C24A C23A 1_555 1_555
C25A C24A 1_555 1_555
H16A C25A 1_555 1_555
C26A C25A 1_555 1_555
H17A C26A 1_555 1_555
C27A C22A 1_555 1_555
H18A C27A 1_555 1_555
C28A C24A 1_555 1_555
C29A N4 1_555 1_555
H19A C29A 1_555 1_555
N4A C29 1_555 1_555
C30A N4A 1_555 1_555
H20A C30A 1_555 1_555
C31A C32 1_555 1_555
H21A C31A 1_555 1_555
C32A C31 1_555 1_555
H22A C32A 1_555 1_555
O1A H23A 1_555 1_555
C33A O1A 1_555 1_555
C34A C33A 1_555 1_555
H24A C34A 1_555 1_555
C35A C35 1_555 1_555
C36A C37 1_555 1_555
H25A C36A 1_555 1_555
C37A C36 1_555 1_555
H26A C37A 1_555 1_555
C4 C5 1_555 1_555
N2 C6 1_555 1_555
C9 C10 1_555 1_555
N3 C11 1_555 1_555
C14 C15 1_555 1_555
C20 C21 1_555 1_555
C26 C27 1_555 1_555
C45 S5 1_555 1_555
Pt1A N4A 1_555 1_555
C4A C5A 1_555 1_555
N2A C6A 1_555 1_555
C9A C10A 1_555 1_555
N3A C11A 1_555 1_555
C14A C15A 1_555 1_555
C20A C21A 1_555 1_555
C26A C27A 1_555 1_555
C28A C29A 1_555 1_555
C28A C32A 1_555 1_555
C30A C31A 1_555 1_555
C33A C37A 1_555 1_555
C34A C35A 1_555 1_555
C35A C36A 1_555 1_555

#END
