# generated using pymatgen
data_H78Pd3C99N23O56
_symmetry_space_group_name_H-M   'P 1'
_cell_length_a   28.99600000
_cell_length_b   28.99600000
_cell_length_c   30.28000000
_cell_angle_alpha   90.00000000
_cell_angle_beta   90.00000000
_cell_angle_gamma   90.00000000
_symmetry_Int_Tables_number   1
_chemical_formula_structural   H78Pd3C99N23O56
_chemical_formula_sum   'H624 Pd24 C792 N184 O448'
_cell_volume   25458.45552448
_cell_formula_units_Z   8
loop_
 _symmetry_equiv_pos_site_id
 _symmetry_equiv_pos_as_xyz
  1  'x, y, z'
loop_
 _atom_site_type_symbol
 _atom_site_label
 _atom_site_symmetry_multiplicity
 _atom_site_fract_x
 _atom_site_fract_y
 _atom_site_fract_z
 _atom_site_occupancy
  H  H1  1  0.128700  0.125300  0.498800  1
  H  H2  1  0.871300  0.874700  0.998800  1
  H  H3  1  0.374700  0.628700  0.748800  1
  H  H4  1  0.625300  0.371300  0.248800  1
  H  H5  1  0.371300  0.625300  0.751200  1
  H  H6  1  0.628700  0.374700  0.251200  1
  H  H7  1  0.125300  0.128700  0.501200  1
  H  H8  1  0.874700  0.871300  0.001200  1
  H  H9  1  0.368500  0.169200  0.468200  1
  H  H10  1  0.631500  0.830800  0.968200  1
  H  H11  1  0.330800  0.868500  0.718200  1
  H  H12  1  0.669200  0.131500  0.218200  1
  H  H13  1  0.131500  0.669200  0.781800  1
  H  H14  1  0.868500  0.330800  0.281800  1
  H  H15  1  0.169200  0.368500  0.531800  1
  H  H16  1  0.830800  0.631500  0.031800  1
  H  H17  1  0.093200  0.156900  0.436500  1.0
  H  H18  1  0.906800  0.843100  0.936500  1.0
  H  H19  1  0.343100  0.593200  0.686500  1.0
  H  H20  1  0.656900  0.406800  0.186500  1.0
  H  H21  1  0.406800  0.656900  0.813500  1.0
  H  H22  1  0.593200  0.343100  0.313500  1.0
  H  H23  1  0.156900  0.093200  0.563500  1.0
  H  H24  1  0.843100  0.906800  0.063500  1.0
  H  H25  1  0.136800  0.197100  0.384900  1.0
  H  H26  1  0.863200  0.802900  0.884900  1.0
  H  H27  1  0.302900  0.636800  0.634900  1.0
  H  H28  1  0.697100  0.363200  0.134900  1.0
  H  H29  1  0.363200  0.697100  0.865100  1.0
  H  H30  1  0.636800  0.302900  0.365100  1.0
  H  H31  1  0.197100  0.136800  0.615100  1.0
  H  H32  1  0.802900  0.863200  0.115100  1.0
  H  H33  1  0.212900  0.218900  0.356600  1.0
  H  H34  1  0.787100  0.781100  0.856600  1.0
  H  H35  1  0.281100  0.712900  0.606600  1.0
  H  H36  1  0.718900  0.287100  0.106600  1.0
  H  H37  1  0.287100  0.718900  0.893400  1.0
  H  H38  1  0.712900  0.281100  0.393400  1.0
  H  H39  1  0.218900  0.212900  0.643400  1.0
  H  H40  1  0.781100  0.787100  0.143400  1.0
  H  H41  1  0.291800  0.217700  0.361200  1.0
  H  H42  1  0.708200  0.782300  0.861200  1.0
  H  H43  1  0.282300  0.791800  0.611200  1.0
  H  H44  1  0.717700  0.208200  0.111200  1.0
  H  H45  1  0.208200  0.717700  0.888800  1.0
  H  H46  1  0.791800  0.282300  0.388800  1.0
  H  H47  1  0.217700  0.291800  0.638800  1.0
  H  H48  1  0.782300  0.708200  0.138800  1.0
  H  H49  1  0.364000  0.199100  0.404400  1.0
  H  H50  1  0.636000  0.800900  0.904400  1.0
  H  H51  1  0.300900  0.864000  0.654400  1.0
  H  H52  1  0.699100  0.136000  0.154400  1.0
  H  H53  1  0.136000  0.699100  0.845600  1.0
  H  H54  1  0.864000  0.300900  0.345600  1.0
  H  H55  1  0.199100  0.364000  0.595600  1.0
  H  H56  1  0.800900  0.636000  0.095600  1.0
  H  H57  1  0.399600  0.169500  0.466700  1.0
  H  H58  1  0.600400  0.830500  0.966700  1.0
  H  H59  1  0.330500  0.899600  0.716700  1.0
  H  H60  1  0.669500  0.100400  0.216700  1.0
  H  H61  1  0.100400  0.669500  0.783300  1.0
  H  H62  1  0.899600  0.330500  0.283300  1.0
  H  H63  1  0.169500  0.399600  0.533300  1.0
  H  H64  1  0.830500  0.600400  0.033300  1.0
  H  H65  1  0.354900  0.134400  0.521400  1.0
  H  H66  1  0.645100  0.865600  0.021400  1.0
  H  H67  1  0.365600  0.854900  0.771400  1.0
  H  H68  1  0.634400  0.145100  0.271400  1.0
  H  H69  1  0.145100  0.634400  0.728600  1.0
  H  H70  1  0.854900  0.365600  0.228600  1.0
  H  H71  1  0.134400  0.354900  0.478600  1.0
  H  H72  1  0.865600  0.645100  0.978600  1.0
  H  H73  1  0.110000  0.188000  0.315300  1.0
  H  H74  1  0.890000  0.812000  0.815300  1.0
  H  H75  1  0.312000  0.610000  0.565300  1.0
  H  H76  1  0.688000  0.390000  0.065300  1.0
  H  H77  1  0.390000  0.688000  0.934700  1.0
  H  H78  1  0.610000  0.312000  0.434700  1.0
  H  H79  1  0.188000  0.110000  0.684700  1.0
  H  H80  1  0.812000  0.890000  0.184700  1.0
  H  H81  1  0.087200  0.169500  0.360100  1.0
  H  H82  1  0.912800  0.830500  0.860100  1.0
  H  H83  1  0.330500  0.587200  0.610100  1.0
  H  H84  1  0.669500  0.412800  0.110100  1.0
  H  H85  1  0.412800  0.669500  0.889900  1.0
  H  H86  1  0.587200  0.330500  0.389900  1.0
  H  H87  1  0.169500  0.087200  0.639900  1.0
  H  H88  1  0.830500  0.912800  0.139900  1.0
  H  H89  1  0.117200  0.135400  0.330000  1.0
  H  H90  1  0.882800  0.864600  0.830000  1.0
  H  H91  1  0.364600  0.617200  0.580000  1.0
  H  H92  1  0.635400  0.382800  0.080000  1.0
  H  H93  1  0.382800  0.635400  0.920000  1.0
  H  H94  1  0.617200  0.364600  0.420000  1.0
  H  H95  1  0.135400  0.117200  0.670000  1.0
  H  H96  1  0.864600  0.882800  0.170000  1.0
  H  H97  1  0.173600  0.234300  0.325800  1.0
  H  H98  1  0.826400  0.765700  0.825800  1.0
  H  H99  1  0.265700  0.673600  0.575800  1.0
  H  H100  1  0.734300  0.326400  0.075800  1.0
  H  H101  1  0.326400  0.734300  0.924200  1.0
  H  H102  1  0.673600  0.265700  0.424200  1.0
  H  H103  1  0.234300  0.173600  0.674200  1.0
  H  H104  1  0.765700  0.826400  0.174200  1.0
  H  H105  1  0.236200  0.259100  0.366900  1.0
  H  H106  1  0.763800  0.740900  0.866900  1.0
  H  H107  1  0.240900  0.736200  0.616900  1.0
  H  H108  1  0.759100  0.263800  0.116900  1.0
  H  H109  1  0.263800  0.759100  0.883100  1.0
  H  H110  1  0.736200  0.240900  0.383100  1.0
  H  H111  1  0.259100  0.236200  0.633100  1.0
  H  H112  1  0.740900  0.763800  0.133100  1.0
  H  H113  1  0.153900  0.218200  0.547900  1.0
  H  H114  1  0.846100  0.781800  0.047900  1.0
  H  H115  1  0.281800  0.653900  0.797900  1.0
  H  H116  1  0.718200  0.346100  0.297900  1.0
  H  H117  1  0.346100  0.718200  0.702100  1.0
  H  H118  1  0.653900  0.281800  0.202100  1.0
  H  H119  1  0.218200  0.153900  0.452100  1.0
  H  H120  1  0.781800  0.846100  0.952100  1.0
  H  H121  1  0.151100  0.131900  0.413600  1.0
  H  H122  1  0.848900  0.868100  0.913600  1.0
  H  H123  1  0.368100  0.651100  0.663600  1.0
  H  H124  1  0.631900  0.348900  0.163600  1.0
  H  H125  1  0.348900  0.631900  0.836400  1.0
  H  H126  1  0.651100  0.368100  0.336400  1.0
  H  H127  1  0.131900  0.151100  0.586400  1.0
  H  H128  1  0.868100  0.848900  0.086400  1.0
  H  H129  1  0.277400  0.287500  0.409700  1.0
  H  H130  1  0.722600  0.712500  0.909700  1.0
  H  H131  1  0.212500  0.777400  0.659700  1.0
  H  H132  1  0.787500  0.222600  0.159700  1.0
  H  H133  1  0.222600  0.787500  0.840300  1.0
  H  H134  1  0.777400  0.212500  0.340300  1.0
  H  H135  1  0.287500  0.277400  0.590300  1.0
  H  H136  1  0.712500  0.722600  0.090300  1.0
  H  H137  1  0.252400  0.282500  0.456400  1.0
  H  H138  1  0.747600  0.717500  0.956400  1.0
  H  H139  1  0.217500  0.752400  0.706400  1.0
  H  H140  1  0.782500  0.247600  0.206400  1.0
  H  H141  1  0.247600  0.782500  0.793600  1.0
  H  H142  1  0.752400  0.217500  0.293600  1.0
  H  H143  1  0.282500  0.252400  0.543600  1.0
  H  H144  1  0.717500  0.747600  0.043600  1.0
  H  H145  1  0.321200  0.328500  0.465700  1.0
  H  H146  1  0.678800  0.671500  0.965700  1.0
  H  H147  1  0.171500  0.821200  0.715700  1.0
  H  H148  1  0.828500  0.178800  0.215700  1.0
  H  H149  1  0.178800  0.828500  0.784300  1.0
  H  H150  1  0.821200  0.171500  0.284300  1.0
  H  H151  1  0.328500  0.321200  0.534300  1.0
  H  H152  1  0.671500  0.678800  0.034300  1.0
  H  H153  1  0.300700  0.275900  0.524000  1.0
  H  H154  1  0.699300  0.724100  0.024000  1.0
  H  H155  1  0.224100  0.800700  0.774000  1.0
  H  H156  1  0.775900  0.199300  0.274000  1.0
  H  H157  1  0.199300  0.775900  0.726000  1.0
  H  H158  1  0.800700  0.224100  0.226000  1.0
  H  H159  1  0.275900  0.300700  0.476000  1.0
  H  H160  1  0.724100  0.699300  0.976000  1.0
  H  H161  1  0.355300  0.278200  0.519700  1.0
  H  H162  1  0.644700  0.721800  0.019700  1.0
  H  H163  1  0.221800  0.855300  0.769700  1.0
  H  H164  1  0.778200  0.144700  0.269700  1.0
  H  H165  1  0.144700  0.778200  0.730300  1.0
  H  H166  1  0.855300  0.221800  0.230300  1.0
  H  H167  1  0.278200  0.355300  0.480300  1.0
  H  H168  1  0.721800  0.644700  0.980300  1.0
  H  H169  1  0.332400  0.199500  0.534700  1.0
  H  H170  1  0.667600  0.800500  0.034700  1.0
  H  H171  1  0.300500  0.832400  0.784700  1.0
  H  H172  1  0.699500  0.167600  0.284700  1.0
  H  H173  1  0.167600  0.699500  0.715300  1.0
  H  H174  1  0.832400  0.300500  0.215300  1.0
  H  H175  1  0.199500  0.332400  0.465300  1.0
  H  H176  1  0.800500  0.667600  0.965300  1.0
  H  H177  1  0.289200  0.165000  0.473900  1.0
  H  H178  1  0.710800  0.835000  0.973900  1.0
  H  H179  1  0.335000  0.789200  0.723900  1.0
  H  H180  1  0.665000  0.210800  0.223900  1.0
  H  H181  1  0.210800  0.665000  0.776100  1.0
  H  H182  1  0.789200  0.335000  0.276100  1.0
  H  H183  1  0.165000  0.289200  0.526100  1.0
  H  H184  1  0.835000  0.710800  0.026100  1.0
  H  H185  1  0.259300  0.204700  0.496600  1.0
  H  H186  1  0.740700  0.795300  0.996600  1.0
  H  H187  1  0.295300  0.759300  0.746600  1.0
  H  H188  1  0.704700  0.240700  0.246600  1.0
  H  H189  1  0.240700  0.704700  0.753400  1.0
  H  H190  1  0.759300  0.295300  0.253400  1.0
  H  H191  1  0.204700  0.259300  0.503400  1.0
  H  H192  1  0.795300  0.740700  0.003400  1.0
  H  H193  1  0.324200  0.175400  0.402200  1.0
  H  H194  1  0.675800  0.824600  0.902200  1.0
  H  H195  1  0.324600  0.824200  0.652200  1.0
  H  H196  1  0.675400  0.175800  0.152200  1.0
  H  H197  1  0.175800  0.675400  0.847800  1.0
  H  H198  1  0.824200  0.324600  0.347800  1.0
  H  H199  1  0.175400  0.324200  0.597800  1.0
  H  H200  1  0.824600  0.675800  0.097800  1.0
  H  H201  1  0.319600  0.223400  0.376900  1.0
  H  H202  1  0.680400  0.776600  0.876900  1.0
  H  H203  1  0.276600  0.819600  0.626900  1.0
  H  H204  1  0.723400  0.180400  0.126900  1.0
  H  H205  1  0.180400  0.723400  0.873100  1.0
  H  H206  1  0.819600  0.276600  0.373100  1.0
  H  H207  1  0.223400  0.319600  0.623100  1.0
  H  H208  1  0.776600  0.680400  0.123100  1.0
  H  H209  1  0.397700  0.216700  0.407400  1.0
  H  H210  1  0.602300  0.783300  0.907400  1.0
  H  H211  1  0.283300  0.897700  0.657400  1.0
  H  H212  1  0.716700  0.102300  0.157400  1.0
  H  H213  1  0.102300  0.716700  0.842600  1.0
  H  H214  1  0.897700  0.283300  0.342600  1.0
  H  H215  1  0.216700  0.397700  0.592600  1.0
  H  H216  1  0.783300  0.602300  0.092600  1.0
  H  H217  1  0.358200  0.290400  0.403900  1.0
  H  H218  1  0.641800  0.709600  0.903900  1.0
  H  H219  1  0.209600  0.858200  0.653900  1.0
  H  H220  1  0.790400  0.141800  0.153900  1.0
  H  H221  1  0.141800  0.790400  0.846100  1.0
  H  H222  1  0.858200  0.209600  0.346100  1.0
  H  H223  1  0.290400  0.358200  0.596100  1.0
  H  H224  1  0.709600  0.641800  0.096100  1.0
  H  H225  1  0.390600  0.288600  0.446100  1.0
  H  H226  1  0.609400  0.711400  0.946100  1.0
  H  H227  1  0.211400  0.890600  0.696100  1.0
  H  H228  1  0.788600  0.109400  0.196100  1.0
  H  H229  1  0.109400  0.788600  0.803900  1.0
  H  H230  1  0.890600  0.211400  0.303900  1.0
  H  H231  1  0.288600  0.390600  0.553900  1.0
  H  H232  1  0.711400  0.609400  0.053900  1.0
  H  H233  1  0.397500  0.211200  0.487100  1.0
  H  H234  1  0.602500  0.788800  0.987100  1.0
  H  H235  1  0.288800  0.897500  0.737100  1.0
  H  H236  1  0.711200  0.102500  0.237100  1.0
  H  H237  1  0.102500  0.711200  0.762900  1.0
  H  H238  1  0.897500  0.288800  0.262900  1.0
  H  H239  1  0.211200  0.397500  0.512900  1.0
  H  H240  1  0.788800  0.602500  0.012900  1.0
  H  H241  1  0.027000  0.050700  0.583000  1.0
  H  H242  1  0.973000  0.949300  0.083000  1.0
  H  H243  1  0.449300  0.527000  0.833000  1.0
  H  H244  1  0.550700  0.473000  0.333000  1.0
  H  H245  1  0.473000  0.550700  0.667000  1.0
  H  H246  1  0.527000  0.449300  0.167000  1.0
  H  H247  1  0.050700  0.027000  0.417000  1.0
  H  H248  1  0.949300  0.973000  0.917000  1.0
  H  H249  1  0.042000  0.126100  0.613000  1.0
  H  H250  1  0.958000  0.873900  0.113000  1.0
  H  H251  1  0.373900  0.542000  0.863000  1.0
  H  H252  1  0.626100  0.458000  0.363000  1.0
  H  H253  1  0.458000  0.626100  0.637000  1.0
  H  H254  1  0.542000  0.373900  0.137000  1.0
  H  H255  1  0.126100  0.042000  0.387000  1.0
  H  H256  1  0.873900  0.958000  0.887000  1.0
  H  H257  1  0.005400  0.176500  0.492400  1.0
  H  H258  1  0.994600  0.823500  0.992400  1.0
  H  H259  1  0.323500  0.505400  0.742400  1.0
  H  H260  1  0.676500  0.494600  0.242400  1.0
  H  H261  1  0.494600  0.676500  0.757600  1.0
  H  H262  1  0.505400  0.323500  0.257600  1.0
  H  H263  1  0.176500  0.005400  0.507600  1.0
  H  H264  1  0.823500  0.994600  0.007600  1.0
  H  H265  1  0.997100  0.103500  0.468200  1.0
  H  H266  1  0.002900  0.896500  0.968200  1.0
  H  H267  1  0.396500  0.497100  0.718200  1.0
  H  H268  1  0.603500  0.502900  0.218200  1.0
  H  H269  1  0.502900  0.603500  0.781800  1.0
  H  H270  1  0.497100  0.396500  0.281800  1.0
  H  H271  1  0.103500  0.997100  0.531800  1.0
  H  H272  1  0.896500  0.002900  0.031800  1.0
  H  H273  1  0.150500  0.341800  0.712500  1.0
  H  H274  1  0.849500  0.658200  0.212500  1.0
  H  H275  1  0.158200  0.650500  0.962500  1.0
  H  H276  1  0.841800  0.349500  0.462500  1.0
  H  H277  1  0.349500  0.841800  0.537500  1.0
  H  H278  1  0.650500  0.158200  0.037500  1.0
  H  H279  1  0.341800  0.150500  0.287500  1.0
  H  H280  1  0.658200  0.849500  0.787500  1.0
  H  H281  1  0.108600  0.332200  0.649900  1.0
  H  H282  1  0.891400  0.667800  0.149900  1.0
  H  H283  1  0.167800  0.608600  0.899900  1.0
  H  H284  1  0.832200  0.391400  0.399900  1.0
  H  H285  1  0.391400  0.832200  0.600100  1.0
  H  H286  1  0.608600  0.167800  0.100100  1.0
  H  H287  1  0.332200  0.108600  0.350100  1.0
  H  H288  1  0.667800  0.891400  0.850100  1.0
  H  H289  1  0.080200  0.200600  0.691500  1.0
  H  H290  1  0.919800  0.799400  0.191500  1.0
  H  H291  1  0.299400  0.580200  0.941500  1.0
  H  H292  1  0.700600  0.419800  0.441500  1.0
  H  H293  1  0.419800  0.700600  0.558500  1.0
  H  H294  1  0.580200  0.299400  0.058500  1.0
  H  H295  1  0.200600  0.080200  0.308500  1.0
  H  H296  1  0.799400  0.919800  0.808500  1.0
  H  H297  1  0.126500  0.214500  0.750200  1.0
  H  H298  1  0.873500  0.785500  0.250200  1.0
  H  H299  1  0.285500  0.626500  0.000200  1.0
  H  H300  1  0.714500  0.373500  0.500200  1.0
  H  H301  1  0.373500  0.714500  0.499800  1.0
  H  H302  1  0.626500  0.285500  0.999800  1.0
  H  H303  1  0.214500  0.126500  0.249800  1.0
  H  H304  1  0.785500  0.873500  0.749800  1.0
  H  H305  1  0.992200  0.348100  0.427700  1.0
  H  H306  1  0.007800  0.651900  0.927700  1.0
  H  H307  1  0.151900  0.492200  0.677700  1.0
  H  H308  1  0.848100  0.507800  0.177700  1.0
  H  H309  1  0.507800  0.848100  0.822300  1.0
  H  H310  1  0.492200  0.151900  0.322300  1.0
  H  H311  1  0.348100  0.992200  0.572300  1.0
  H  H312  1  0.651900  0.007800  0.072300  1.0
  H  H313  1  0.004400  0.287200  0.472800  1.0
  H  H314  1  0.995600  0.712800  0.972800  1.0
  H  H315  1  0.212800  0.504400  0.722800  1.0
  H  H316  1  0.787200  0.495600  0.222800  1.0
  H  H317  1  0.495600  0.787200  0.777200  1.0
  H  H318  1  0.504400  0.212800  0.277200  1.0
  H  H319  1  0.287200  0.004400  0.527200  1.0
  H  H320  1  0.712800  0.995600  0.027200  1.0
  H  H321  1  0.048700  0.374600  0.568500  1.0
  H  H322  1  0.951300  0.625400  0.068500  1.0
  H  H323  1  0.125400  0.548700  0.818500  1.0
  H  H324  1  0.874600  0.451300  0.318500  1.0
  H  H325  1  0.451300  0.874600  0.681500  1.0
  H  H326  1  0.548700  0.125400  0.181500  1.0
  H  H327  1  0.374600  0.048700  0.431500  1.0
  H  H328  1  0.625400  0.951300  0.931500  1.0
  H  H329  1  0.039200  0.434800  0.516300  1.0
  H  H330  1  0.960800  0.565200  0.016300  1.0
  H  H331  1  0.065200  0.539200  0.766300  1.0
  H  H332  1  0.934800  0.460800  0.266300  1.0
  H  H333  1  0.460800  0.934800  0.733700  1.0
  H  H334  1  0.539200  0.065200  0.233700  1.0
  H  H335  1  0.434800  0.039200  0.483700  1.0
  H  H336  1  0.565200  0.960800  0.983700  1.0
  H  H337  1  0.395600  0.443000  0.576000  1.0
  H  H338  1  0.604400  0.557000  0.076000  1.0
  H  H339  1  0.057000  0.895600  0.826000  1.0
  H  H340  1  0.943000  0.104400  0.326000  1.0
  H  H341  1  0.104400  0.943000  0.674000  1.0
  H  H342  1  0.895600  0.057000  0.174000  1.0
  H  H343  1  0.443000  0.395600  0.424000  1.0
  H  H344  1  0.557000  0.604400  0.924000  1.0
  H  H345  1  0.368500  0.382600  0.614900  1.0
  H  H346  1  0.631500  0.617400  0.114900  1.0
  H  H347  1  0.117400  0.868500  0.864900  1.0
  H  H348  1  0.882600  0.131500  0.364900  1.0
  H  H349  1  0.131500  0.882600  0.635100  1.0
  H  H350  1  0.868500  0.117400  0.135100  1.0
  H  H351  1  0.382600  0.368500  0.385100  1.0
  H  H352  1  0.617400  0.631500  0.885100  1.0
  H  H353  1  0.450200  0.294700  0.545000  1.0
  H  H354  1  0.549800  0.705300  0.045000  1.0
  H  H355  1  0.205300  0.950200  0.795000  1.0
  H  H356  1  0.794700  0.049800  0.295000  1.0
  H  H357  1  0.049800  0.794700  0.705000  1.0
  H  H358  1  0.950200  0.205300  0.205000  1.0
  H  H359  1  0.294700  0.450200  0.455000  1.0
  H  H360  1  0.705300  0.549800  0.955000  1.0
  H  H361  1  0.484700  0.363800  0.512200  1.0
  H  H362  1  0.515300  0.636200  0.012200  1.0
  H  H363  1  0.136200  0.984700  0.762200  1.0
  H  H364  1  0.863800  0.015300  0.262200  1.0
  H  H365  1  0.015300  0.863800  0.737800  1.0
  H  H366  1  0.984700  0.136200  0.237800  1.0
  H  H367  1  0.363800  0.484700  0.487800  1.0
  H  H368  1  0.636200  0.515300  0.987800  1.0
  H  H369  1  0.234700  0.217100  0.757200  1.0
  H  H370  1  0.765300  0.782900  0.257200  1.0
  H  H371  1  0.282900  0.734700  0.007200  1.0
  H  H372  1  0.717100  0.265300  0.507200  1.0
  H  H373  1  0.265300  0.717100  0.492800  1.0
  H  H374  1  0.734700  0.282900  0.992800  1.0
  H  H375  1  0.217100  0.234700  0.242800  1.0
  H  H376  1  0.782900  0.765300  0.742800  1.0
  H  H377  1  0.292500  0.203600  0.708300  1.0
  H  H378  1  0.707500  0.796400  0.208300  1.0
  H  H379  1  0.296400  0.792500  0.958300  1.0
  H  H380  1  0.703600  0.207500  0.458300  1.0
  H  H381  1  0.207500  0.703600  0.541700  1.0
  H  H382  1  0.792500  0.296400  0.041700  1.0
  H  H383  1  0.203600  0.292500  0.291700  1.0
  H  H384  1  0.796400  0.707500  0.791700  1.0
  H  H385  1  0.303700  0.342500  0.692500  1.0
  H  H386  1  0.696300  0.657500  0.192500  1.0
  H  H387  1  0.157500  0.803700  0.942500  1.0
  H  H388  1  0.842500  0.196300  0.442500  1.0
  H  H389  1  0.196300  0.842500  0.557500  1.0
  H  H390  1  0.803700  0.157500  0.057500  1.0
  H  H391  1  0.342500  0.303700  0.307500  1.0
  H  H392  1  0.657500  0.696300  0.807500  1.0
  H  H393  1  0.246900  0.350400  0.745900  1.0
  H  H394  1  0.753100  0.649600  0.245900  1.0
  H  H395  1  0.149600  0.746900  0.995900  1.0
  H  H396  1  0.850400  0.253100  0.495900  1.0
  H  H397  1  0.253100  0.850400  0.504100  1.0
  H  H398  1  0.746900  0.149600  0.004100  1.0
  H  H399  1  0.350400  0.246900  0.254100  1.0
  H  H400  1  0.649600  0.753100  0.754100  1.0
  H  H401  1  0.467200  0.111800  0.547500  1.0
  H  H402  1  0.532800  0.888200  0.047500  1.0
  H  H403  1  0.388200  0.967200  0.797500  1.0
  H  H404  1  0.611800  0.032800  0.297500  1.0
  H  H405  1  0.032800  0.611800  0.702500  1.0
  H  H406  1  0.967200  0.388200  0.202500  1.0
  H  H407  1  0.111800  0.467200  0.452500  1.0
  H  H408  1  0.888200  0.532800  0.952500  1.0
  H  H409  1  0.448300  0.186400  0.564800  1.0
  H  H410  1  0.551700  0.813600  0.064800  1.0
  H  H411  1  0.313600  0.948300  0.814800  1.0
  H  H412  1  0.686400  0.051700  0.314800  1.0
  H  H413  1  0.051700  0.686400  0.685200  1.0
  H  H414  1  0.948300  0.313600  0.185200  1.0
  H  H415  1  0.186400  0.448300  0.435200  1.0
  H  H416  1  0.813600  0.551700  0.935200  1.0
  H  H417  1  0.355500  0.136700  0.652100  1.0
  H  H418  1  0.644500  0.863300  0.152100  1.0
  H  H419  1  0.363300  0.855500  0.902100  1.0
  H  H420  1  0.636700  0.144500  0.402100  1.0
  H  H421  1  0.144500  0.636700  0.597900  1.0
  H  H422  1  0.855500  0.363300  0.097900  1.0
  H  H423  1  0.136700  0.355500  0.347900  1.0
  H  H424  1  0.863300  0.644500  0.847900  1.0
  H  H425  1  0.385000  0.063800  0.640100  1.0
  H  H426  1  0.615000  0.936200  0.140100  1.0
  H  H427  1  0.436200  0.885000  0.890100  1.0
  H  H428  1  0.563800  0.115000  0.390100  1.0
  H  H429  1  0.115000  0.563800  0.609900  1.0
  H  H430  1  0.885000  0.436200  0.109900  1.0
  H  H431  1  0.063800  0.385000  0.359900  1.0
  H  H432  1  0.936200  0.615000  0.859900  1.0
  H  H433  1  0.078700  0.495100  0.352900  1.0
  H  H434  1  0.921300  0.504900  0.852900  1.0
  H  H435  1  0.004900  0.578700  0.602900  1.0
  H  H436  1  0.995100  0.421300  0.102900  1.0
  H  H437  1  0.421300  0.995100  0.897100  1.0
  H  H438  1  0.578700  0.004900  0.397100  1.0
  H  H439  1  0.495100  0.078700  0.647100  1.0
  H  H440  1  0.504900  0.921300  0.147100  1.0
  H  H441  1  0.075200  0.562200  0.311700  1.0
  H  H442  1  0.924800  0.437800  0.811700  1.0
  H  H443  1  0.937800  0.575200  0.561700  1.0
  H  H444  1  0.062200  0.424800  0.061700  1.0
  H  H445  1  0.424800  0.062200  0.938300  1.0
  H  H446  1  0.575200  0.937800  0.438300  1.0
  H  H447  1  0.562200  0.075200  0.688300  1.0
  H  H448  1  0.437800  0.924800  0.188300  1.0
  H  H449  1  0.992900  0.586900  0.297100  1.0
  H  H450  1  0.007100  0.413100  0.797100  1.0
  H  H451  1  0.913100  0.492900  0.547100  1.0
  H  H452  1  0.086900  0.507100  0.047100  1.0
  H  H453  1  0.507100  0.086900  0.952900  1.0
  H  H454  1  0.492900  0.913100  0.452900  1.0
  H  H455  1  0.586900  0.992900  0.702900  1.0
  H  H456  1  0.413100  0.007100  0.202900  1.0
  H  H457  1  0.930400  0.559600  0.337400  1.0
  H  H458  1  0.069600  0.440400  0.837400  1.0
  H  H459  1  0.940400  0.430400  0.587400  1.0
  H  H460  1  0.059600  0.569600  0.087400  1.0
  H  H461  1  0.569600  0.059600  0.912600  1.0
  H  H462  1  0.430400  0.940400  0.412600  1.0
  H  H463  1  0.559600  0.930400  0.662600  1.0
  H  H464  1  0.440400  0.069600  0.162600  1.0
  H  H465  1  0.887800  0.538600  0.371400  1.0
  H  H466  1  0.112200  0.461400  0.871400  1.0
  H  H467  1  0.961400  0.387800  0.621400  1.0
  H  H468  1  0.038600  0.612200  0.121400  1.0
  H  H469  1  0.612200  0.038600  0.878600  1.0
  H  H470  1  0.387800  0.961400  0.378600  1.0
  H  H471  1  0.538600  0.887800  0.628600  1.0
  H  H472  1  0.461400  0.112200  0.128600  1.0
  H  H473  1  0.836400  0.515500  0.421700  1.0
  H  H474  1  0.163600  0.484500  0.921700  1.0
  H  H475  1  0.984500  0.336400  0.671700  1.0
  H  H476  1  0.015500  0.663600  0.171700  1.0
  H  H477  1  0.663600  0.015500  0.828300  1.0
  H  H478  1  0.336400  0.984500  0.328300  1.0
  H  H479  1  0.515500  0.836400  0.578300  1.0
  H  H480  1  0.484500  0.163600  0.078300  1.0
  H  H481  1  0.852200  0.457600  0.480800  1.0
  H  H482  1  0.147800  0.542400  0.980800  1.0
  H  H483  1  0.042400  0.352200  0.730800  1.0
  H  H484  1  0.957600  0.647800  0.230800  1.0
  H  H485  1  0.647800  0.957600  0.769200  1.0
  H  H486  1  0.352200  0.042400  0.269200  1.0
  H  H487  1  0.457600  0.852200  0.519200  1.0
  H  H488  1  0.542400  0.147800  0.019200  1.0
  H  H489  1  0.933300  0.432000  0.476900  1.0
  H  H490  1  0.066700  0.568000  0.976900  1.0
  H  H491  1  0.068000  0.433300  0.726900  1.0
  H  H492  1  0.932000  0.566700  0.226900  1.0
  H  H493  1  0.566700  0.932000  0.773100  1.0
  H  H494  1  0.433300  0.068000  0.273100  1.0
  H  H495  1  0.432000  0.933300  0.523100  1.0
  H  H496  1  0.568000  0.066700  0.023100  1.0
  H  H497  1  0.073400  0.295500  0.794200  1.0
  H  H498  1  0.926600  0.704500  0.294200  1.0
  H  H499  1  0.204500  0.573400  0.044200  1.0
  H  H500  1  0.795500  0.426600  0.544200  1.0
  H  H501  1  0.426600  0.795500  0.455800  1.0
  H  H502  1  0.573400  0.204500  0.955800  1.0
  H  H503  1  0.295500  0.073400  0.205800  1.0
  H  H504  1  0.704500  0.926600  0.705800  1.0
  H  H505  1  0.015500  0.308100  0.843600  1.0
  H  H506  1  0.984500  0.691900  0.343600  1.0
  H  H507  1  0.191900  0.515500  0.093600  1.0
  H  H508  1  0.808100  0.484500  0.593600  1.0
  H  H509  1  0.484500  0.808100  0.406400  1.0
  H  H510  1  0.515500  0.191900  0.906400  1.0
  H  H511  1  0.308100  0.015500  0.156400  1.0
  H  H512  1  0.691900  0.984500  0.656400  1.0
  H  H513  1  0.033200  0.361900  0.900900  1.0
  H  H514  1  0.966800  0.638100  0.400900  1.0
  H  H515  1  0.138100  0.533200  0.150900  1.0
  H  H516  1  0.861900  0.466800  0.650900  1.0
  H  H517  1  0.466800  0.861900  0.349100  1.0
  H  H518  1  0.533200  0.138100  0.849100  1.0
  H  H519  1  0.361900  0.033200  0.099100  1.0
  H  H520  1  0.638100  0.966800  0.599100  1.0
  H  H521  1  0.108400  0.353200  0.926900  1.0
  H  H522  1  0.891600  0.646800  0.426900  1.0
  H  H523  1  0.146800  0.608400  0.176900  1.0
  H  H524  1  0.853200  0.391600  0.676900  1.0
  H  H525  1  0.391600  0.853200  0.323100  1.0
  H  H526  1  0.608400  0.146800  0.823100  1.0
  H  H527  1  0.353200  0.108400  0.073100  1.0
  H  H528  1  0.646800  0.891600  0.573100  1.0
  H  H529  1  0.185300  0.337400  0.943500  1.0
  H  H530  1  0.814700  0.662600  0.443500  1.0
  H  H531  1  0.162600  0.685300  0.193500  1.0
  H  H532  1  0.837400  0.314700  0.693500  1.0
  H  H533  1  0.314700  0.837400  0.306500  1.0
  H  H534  1  0.685300  0.162600  0.806500  1.0
  H  H535  1  0.337400  0.185300  0.056500  1.0
  H  H536  1  0.662600  0.814700  0.556500  1.0
  H  H537  1  0.255300  0.356400  0.950600  1.0
  H  H538  1  0.744700  0.643600  0.450600  1.0
  H  H539  1  0.143600  0.755300  0.200600  1.0
  H  H540  1  0.856400  0.244700  0.700600  1.0
  H  H541  1  0.244700  0.856400  0.299400  1.0
  H  H542  1  0.755300  0.143600  0.799400  1.0
  H  H543  1  0.356400  0.255300  0.049400  1.0
  H  H544  1  0.643600  0.744700  0.549400  1.0
  H  H545  1  0.311600  0.332000  0.893200  1.0
  H  H546  1  0.688400  0.668000  0.393200  1.0
  H  H547  1  0.168000  0.811600  0.143200  1.0
  H  H548  1  0.832000  0.188400  0.643200  1.0
  H  H549  1  0.188400  0.832000  0.356800  1.0
  H  H550  1  0.811600  0.168000  0.856800  1.0
  H  H551  1  0.332000  0.311600  0.106800  1.0
  H  H552  1  0.668000  0.688400  0.606800  1.0
  H  H553  1  0.276100  0.297100  0.831200  1.0
  H  H554  1  0.723900  0.702900  0.331200  1.0
  H  H555  1  0.202900  0.776100  0.081200  1.0
  H  H556  1  0.797100  0.223900  0.581200  1.0
  H  H557  1  0.223900  0.797100  0.418800  1.0
  H  H558  1  0.776100  0.202900  0.918800  1.0
  H  H559  1  0.297100  0.276100  0.168800  1.0
  H  H560  1  0.702900  0.723900  0.668800  1.0
  H  H561  1  0.927900  0.059000  0.542600  1.0
  H  H562  1  0.072100  0.941000  0.042600  1.0
  H  H563  1  0.441000  0.427900  0.792600  1.0
  H  H564  1  0.559000  0.572100  0.292600  1.0
  H  H565  1  0.572100  0.559000  0.707400  1.0
  H  H566  1  0.427900  0.441000  0.207400  1.0
  H  H567  1  0.059000  0.927900  0.457400  1.0
  H  H568  1  0.941000  0.072100  0.957400  1.0
  H  H569  1  0.854000  0.044600  0.567900  1.0
  H  H570  1  0.146000  0.955400  0.067900  1.0
  H  H571  1  0.455400  0.354000  0.817900  1.0
  H  H572  1  0.544600  0.646000  0.317900  1.0
  H  H573  1  0.646000  0.544600  0.682100  1.0
  H  H574  1  0.354000  0.455400  0.182100  1.0
  H  H575  1  0.044600  0.854000  0.432100  1.0
  H  H576  1  0.955400  0.146000  0.932100  1.0
  H  H577  1  0.822200  0.968200  0.551500  1.0
  H  H578  1  0.177800  0.031800  0.051500  1.0
  H  H579  1  0.531800  0.322200  0.801500  1.0
  H  H580  1  0.468200  0.677800  0.301500  1.0
  H  H581  1  0.677800  0.468200  0.698500  1.0
  H  H582  1  0.322200  0.531800  0.198500  1.0
  H  H583  1  0.968200  0.822200  0.448500  1.0
  H  H584  1  0.031800  0.177800  0.948500  1.0
  H  H585  1  0.869100  0.915900  0.523300  1.0
  H  H586  1  0.130900  0.084100  0.023300  1.0
  H  H587  1  0.584100  0.369100  0.773300  1.0
  H  H588  1  0.415900  0.630900  0.273300  1.0
  H  H589  1  0.630900  0.415900  0.726700  1.0
  H  H590  1  0.369100  0.584100  0.226700  1.0
  H  H591  1  0.915900  0.869100  0.476700  1.0
  H  H592  1  0.084100  0.130900  0.976700  1.0
  H  H593  1  0.595300  0.554100  0.527400  1.0
  H  H594  1  0.404700  0.445900  0.027400  1.0
  H  H595  1  0.945900  0.095300  0.777400  1.0
  H  H596  1  0.054100  0.904700  0.277400  1.0
  H  H597  1  0.904700  0.054100  0.722600  1.0
  H  H598  1  0.095300  0.945900  0.222600  1.0
  H  H599  1  0.554100  0.595300  0.472600  1.0
  H  H600  1  0.445900  0.404700  0.972600  1.0
  H  H601  1  0.604800  0.537100  0.602400  1.0
  H  H602  1  0.395200  0.462900  0.102400  1.0
  H  H603  1  0.962900  0.104800  0.852400  1.0
  H  H604  1  0.037100  0.895200  0.352400  1.0
  H  H605  1  0.895200  0.037100  0.647600  1.0
  H  H606  1  0.104800  0.962900  0.147600  1.0
  H  H607  1  0.537100  0.604800  0.397600  1.0
  H  H608  1  0.462900  0.395200  0.897600  1.0
  H  H609  1  0.572500  0.464400  0.622500  1.0
  H  H610  1  0.427500  0.535600  0.122500  1.0
  H  H611  1  0.035600  0.072500  0.872500  1.0
  H  H612  1  0.964400  0.927500  0.372500  1.0
  H  H613  1  0.927500  0.964400  0.627500  1.0
  H  H614  1  0.072500  0.035600  0.127500  1.0
  H  H615  1  0.464400  0.572500  0.377500  1.0
  H  H616  1  0.535600  0.427500  0.877500  1.0
  H  H617  1  0.516600  0.432300  0.582600  1.0
  H  H618  1  0.483400  0.567700  0.082600  1.0
  H  H619  1  0.067700  0.016600  0.832600  1.0
  H  H620  1  0.932300  0.983400  0.332600  1.0
  H  H621  1  0.983400  0.932300  0.667400  1.0
  H  H622  1  0.016600  0.067700  0.167400  1.0
  H  H623  1  0.432300  0.516600  0.417400  1.0
  H  H624  1  0.567700  0.483400  0.917400  1.0
  Pd  Pd625  1  0.007030  0.007030  0.500000  1
  Pd  Pd626  1  0.992970  0.992970  0.000000  1
  Pd  Pd627  1  0.492970  0.507030  0.750000  1
  Pd  Pd628  1  0.507030  0.492970  0.250000  1
  Pd  Pd629  1  0.460580  0.460580  0.500000  1
  Pd  Pd630  1  0.539420  0.539420  0.000000  1
  Pd  Pd631  1  0.039420  0.960580  0.750000  1
  Pd  Pd632  1  0.960580  0.039420  0.250000  1
  Pd  Pd633  1  0.177960  0.295320  0.792940  1.0
  Pd  Pd634  1  0.822040  0.704680  0.292940  1.0
  Pd  Pd635  1  0.204680  0.677960  0.042940  1.0
  Pd  Pd636  1  0.795320  0.322040  0.542940  1.0
  Pd  Pd637  1  0.322040  0.795320  0.457060  1.0
  Pd  Pd638  1  0.677960  0.204680  0.957060  1.0
  Pd  Pd639  1  0.295320  0.177960  0.207060  1.0
  Pd  Pd640  1  0.704680  0.822040  0.707060  1.0
  Pd  Pd641  1  0.015750  0.447120  0.422670  1.0
  Pd  Pd642  1  0.984250  0.552880  0.922670  1.0
  Pd  Pd643  1  0.052880  0.515750  0.672670  1.0
  Pd  Pd644  1  0.947120  0.484250  0.172670  1.0
  Pd  Pd645  1  0.484250  0.947120  0.827330  1.0
  Pd  Pd646  1  0.515750  0.052880  0.327330  1.0
  Pd  Pd647  1  0.447120  0.015750  0.577330  1.0
  Pd  Pd648  1  0.552880  0.984250  0.077330  1.0
  C  C649  1  0.120900  0.214000  0.475300  1.0
  C  C650  1  0.879100  0.786000  0.975300  1.0
  C  C651  1  0.286000  0.620900  0.725300  1.0
  C  C652  1  0.714000  0.379100  0.225300  1.0
  C  C653  1  0.379100  0.714000  0.774700  1.0
  C  C654  1  0.620900  0.286000  0.274700  1.0
  C  C655  1  0.214000  0.120900  0.524700  1.0
  C  C656  1  0.786000  0.879100  0.024700  1.0
  C  C657  1  0.141500  0.192000  0.515000  1.0
  C  C658  1  0.858500  0.808000  0.015000  1.0
  C  C659  1  0.308000  0.641500  0.765000  1.0
  C  C660  1  0.692000  0.358500  0.265000  1.0
  C  C661  1  0.358500  0.692000  0.735000  1.0
  C  C662  1  0.641500  0.308000  0.235000  1.0
  C  C663  1  0.192000  0.141500  0.485000  1.0
  C  C664  1  0.808000  0.858500  0.985000  1.0
  C  C665  1  0.141400  0.145000  0.521000  1.0
  C  C666  1  0.858600  0.855000  0.021000  1.0
  C  C667  1  0.355000  0.641400  0.771000  1.0
  C  C668  1  0.645000  0.358600  0.271000  1.0
  C  C669  1  0.358600  0.645000  0.729000  1.0
  C  C670  1  0.641400  0.355000  0.229000  1.0
  C  C671  1  0.145000  0.141400  0.479000  1.0
  C  C672  1  0.855000  0.858600  0.979000  1.0
  C  C673  1  0.126000  0.160000  0.441000  1.0
  C  C674  1  0.874000  0.840000  0.941000  1.0
  C  C675  1  0.340000  0.626000  0.691000  1.0
  C  C676  1  0.660000  0.374000  0.191000  1.0
  C  C677  1  0.374000  0.660000  0.809000  1.0
  C  C678  1  0.626000  0.340000  0.309000  1.0
  C  C679  1  0.160000  0.126000  0.559000  1.0
  C  C680  1  0.840000  0.874000  0.059000  1.0
  C  C681  1  0.151000  0.182000  0.409000  1.0
  C  C682  1  0.849000  0.818000  0.909000  1.0
  C  C683  1  0.318000  0.651000  0.659000  1.0
  C  C684  1  0.682000  0.349000  0.159000  1.0
  C  C685  1  0.349000  0.682000  0.841000  1.0
  C  C686  1  0.651000  0.318000  0.341000  1.0
  C  C687  1  0.182000  0.151000  0.591000  1.0
  C  C688  1  0.818000  0.849000  0.091000  1.0
  C  C689  1  0.200000  0.183000  0.414000  1.0
  C  C690  1  0.800000  0.817000  0.914000  1.0
  C  C691  1  0.317000  0.700000  0.664000  1.0
  C  C692  1  0.683000  0.300000  0.164000  1.0
  C  C693  1  0.300000  0.683000  0.836000  1.0
  C  C694  1  0.700000  0.317000  0.336000  1.0
  C  C695  1  0.183000  0.200000  0.586000  1.0
  C  C696  1  0.817000  0.800000  0.086000  1.0
  C  C697  1  0.227000  0.205000  0.381000  1.0
  C  C698  1  0.773000  0.795000  0.881000  1.0
  C  C699  1  0.295000  0.727000  0.631000  1.0
  C  C700  1  0.705000  0.273000  0.131000  1.0
  C  C701  1  0.273000  0.705000  0.869000  1.0
  C  C702  1  0.727000  0.295000  0.369000  1.0
  C  C703  1  0.205000  0.227000  0.619000  1.0
  C  C704  1  0.795000  0.773000  0.119000  1.0
  C  C705  1  0.274000  0.205000  0.385000  1.0
  C  C706  1  0.726000  0.795000  0.885000  1.0
  C  C707  1  0.295000  0.774000  0.635000  1.0
  C  C708  1  0.705000  0.226000  0.135000  1.0
  C  C709  1  0.226000  0.705000  0.865000  1.0
  C  C710  1  0.774000  0.295000  0.365000  1.0
  C  C711  1  0.205000  0.274000  0.615000  1.0
  C  C712  1  0.795000  0.726000  0.115000  1.0
  C  C713  1  0.297000  0.187000  0.422600  1.0
  C  C714  1  0.703000  0.813000  0.922600  1.0
  C  C715  1  0.313000  0.797000  0.672600  1.0
  C  C716  1  0.687000  0.203000  0.172600  1.0
  C  C717  1  0.203000  0.687000  0.827400  1.0
  C  C718  1  0.797000  0.313000  0.327400  1.0
  C  C719  1  0.187000  0.297000  0.577400  1.0
  C  C720  1  0.813000  0.703000  0.077400  1.0
  C  C721  1  0.346000  0.186000  0.427000  1.0
  C  C722  1  0.654000  0.814000  0.927000  1.0
  C  C723  1  0.314000  0.846000  0.677000  1.0
  C  C724  1  0.686000  0.154000  0.177000  1.0
  C  C725  1  0.154000  0.686000  0.823000  1.0
  C  C726  1  0.846000  0.314000  0.323000  1.0
  C  C727  1  0.186000  0.346000  0.573000  1.0
  C  C728  1  0.814000  0.654000  0.073000  1.0
  C  C729  1  0.367000  0.168000  0.464000  1.0
  C  C730  1  0.633000  0.832000  0.964000  1.0
  C  C731  1  0.332000  0.867000  0.714000  1.0
  C  C732  1  0.668000  0.133000  0.214000  1.0
  C  C733  1  0.133000  0.668000  0.786000  1.0
  C  C734  1  0.867000  0.332000  0.286000  1.0
  C  C735  1  0.168000  0.367000  0.536000  1.0
  C  C736  1  0.832000  0.633000  0.036000  1.0
  C  C737  1  0.340000  0.147000  0.496000  1.0
  C  C738  1  0.660000  0.853000  0.996000  1.0
  C  C739  1  0.353000  0.840000  0.746000  1.0
  C  C740  1  0.647000  0.160000  0.246000  1.0
  C  C741  1  0.160000  0.647000  0.754000  1.0
  C  C742  1  0.840000  0.353000  0.254000  1.0
  C  C743  1  0.147000  0.340000  0.504000  1.0
  C  C744  1  0.853000  0.660000  0.004000  1.0
  C  C745  1  0.293000  0.144000  0.494100  1.0
  C  C746  1  0.707000  0.856000  0.994100  1.0
  C  C747  1  0.356000  0.793000  0.744100  1.0
  C  C748  1  0.644000  0.207000  0.244100  1.0
  C  C749  1  0.207000  0.644000  0.755900  1.0
  C  C750  1  0.793000  0.356000  0.255900  1.0
  C  C751  1  0.144000  0.293000  0.505900  1.0
  C  C752  1  0.856000  0.707000  0.005900  1.0
  C  C753  1  0.122100  0.266000  0.470300  1.0
  C  C754  1  0.877900  0.734000  0.970300  1.0
  C  C755  1  0.234000  0.622100  0.720300  1.0
  C  C756  1  0.766000  0.377900  0.220300  1.0
  C  C757  1  0.377900  0.766000  0.779700  1.0
  C  C758  1  0.622100  0.234000  0.279700  1.0
  C  C759  1  0.266000  0.122100  0.529700  1.0
  C  C760  1  0.734000  0.877900  0.029700  1.0
  C  C761  1  0.163100  0.221000  0.547400  1.0
  C  C762  1  0.836900  0.779000  0.047400  1.0
  C  C763  1  0.279000  0.663100  0.797400  1.0
  C  C764  1  0.721000  0.336900  0.297400  1.0
  C  C765  1  0.336900  0.721000  0.702600  1.0
  C  C766  1  0.663100  0.279000  0.202600  1.0
  C  C767  1  0.221000  0.163100  0.452600  1.0
  C  C768  1  0.779000  0.836900  0.952600  1.0
  C  C769  1  0.271000  0.163000  0.456000  1.0
  C  C770  1  0.729000  0.837000  0.956000  1.0
  C  C771  1  0.337000  0.771000  0.706000  1.0
  C  C772  1  0.663000  0.229000  0.206000  1.0
  C  C773  1  0.229000  0.663000  0.794000  1.0
  C  C774  1  0.771000  0.337000  0.294000  1.0
  C  C775  1  0.163000  0.271000  0.544000  1.0
  C  C776  1  0.837000  0.729000  0.044000  1.0
  C  C777  1  0.114100  0.167000  0.341000  1.0
  C  C778  1  0.885900  0.833000  0.841000  1.0
  C  C779  1  0.333000  0.614100  0.591000  1.0
  C  C780  1  0.667000  0.385900  0.091000  1.0
  C  C781  1  0.385900  0.667000  0.909000  1.0
  C  C782  1  0.614100  0.333000  0.409000  1.0
  C  C783  1  0.167000  0.114100  0.659000  1.0
  C  C784  1  0.833000  0.885900  0.159000  1.0
  C  C785  1  0.157100  0.180800  0.366000  1.0
  C  C786  1  0.842900  0.819200  0.866000  1.0
  C  C787  1  0.319200  0.657100  0.616000  1.0
  C  C788  1  0.680800  0.342900  0.116000  1.0
  C  C789  1  0.342900  0.680800  0.884000  1.0
  C  C790  1  0.657100  0.319200  0.384000  1.0
  C  C791  1  0.180800  0.157100  0.634000  1.0
  C  C792  1  0.819200  0.842900  0.134000  1.0
  C  C793  1  0.182500  0.218000  0.352000  1.0
  C  C794  1  0.817500  0.782000  0.852000  1.0
  C  C795  1  0.282000  0.682500  0.602000  1.0
  C  C796  1  0.718000  0.317500  0.102000  1.0
  C  C797  1  0.317500  0.718000  0.898000  1.0
  C  C798  1  0.682500  0.282000  0.398000  1.0
  C  C799  1  0.218000  0.182500  0.648000  1.0
  C  C800  1  0.782000  0.817500  0.148000  1.0
  C  C801  1  0.220500  0.231600  0.375000  1.0
  C  C802  1  0.779500  0.768400  0.875000  1.0
  C  C803  1  0.268400  0.720500  0.625000  1.0
  C  C804  1  0.731600  0.279500  0.125000  1.0
  C  C805  1  0.279500  0.731600  0.875000  1.0
  C  C806  1  0.720500  0.268400  0.375000  1.0
  C  C807  1  0.231600  0.220500  0.625000  1.0
  C  C808  1  0.768400  0.779500  0.125000  1.0
  C  C809  1  0.236400  0.205100  0.410000  1.0
  C  C810  1  0.763600  0.794900  0.910000  1.0
  C  C811  1  0.294900  0.736400  0.660000  1.0
  C  C812  1  0.705100  0.263600  0.160000  1.0
  C  C813  1  0.263600  0.705100  0.840000  1.0
  C  C814  1  0.736400  0.294900  0.340000  1.0
  C  C815  1  0.205100  0.236400  0.590000  1.0
  C  C816  1  0.794900  0.763600  0.090000  1.0
  C  C817  1  0.209500  0.169700  0.426000  1.0
  C  C818  1  0.790500  0.830300  0.926000  1.0
  C  C819  1  0.330300  0.709500  0.676000  1.0
  C  C820  1  0.669700  0.290500  0.176000  1.0
  C  C821  1  0.290500  0.669700  0.824000  1.0
  C  C822  1  0.709500  0.330300  0.324000  1.0
  C  C823  1  0.169700  0.209500  0.574000  1.0
  C  C824  1  0.830300  0.790500  0.074000  1.0
  C  C825  1  0.169400  0.156800  0.403000  1.0
  C  C826  1  0.830600  0.843200  0.903000  1.0
  C  C827  1  0.343200  0.669400  0.653000  1.0
  C  C828  1  0.656800  0.330600  0.153000  1.0
  C  C829  1  0.330600  0.656800  0.847000  1.0
  C  C830  1  0.669400  0.343200  0.347000  1.0
  C  C831  1  0.156800  0.169400  0.597000  1.0
  C  C832  1  0.843200  0.830600  0.097000  1.0
  C  C833  1  0.280000  0.221000  0.434100  1.0
  C  C834  1  0.720000  0.779000  0.934100  1.0
  C  C835  1  0.279000  0.780000  0.684100  1.0
  C  C836  1  0.721000  0.220000  0.184100  1.0
  C  C837  1  0.220000  0.721000  0.815900  1.0
  C  C838  1  0.780000  0.279000  0.315900  1.0
  C  C839  1  0.221000  0.280000  0.565900  1.0
  C  C840  1  0.779000  0.720000  0.065900  1.0
  C  C841  1  0.280200  0.273500  0.439000  1.0
  C  C842  1  0.719800  0.726500  0.939000  1.0
  C  C843  1  0.226500  0.780200  0.689000  1.0
  C  C844  1  0.773500  0.219800  0.189000  1.0
  C  C845  1  0.219800  0.773500  0.811000  1.0
  C  C846  1  0.780200  0.226500  0.311000  1.0
  C  C847  1  0.273500  0.280200  0.561000  1.0
  C  C848  1  0.726500  0.719800  0.061000  1.0
  C  C849  1  0.322100  0.294200  0.462100  1.0
  C  C850  1  0.677900  0.705800  0.962100  1.0
  C  C851  1  0.205800  0.822100  0.712100  1.0
  C  C852  1  0.794200  0.177900  0.212100  1.0
  C  C853  1  0.177900  0.794200  0.787900  1.0
  C  C854  1  0.822100  0.205800  0.287900  1.0
  C  C855  1  0.294200  0.322100  0.537900  1.0
  C  C856  1  0.705800  0.677900  0.037900  1.0
  C  C857  1  0.327000  0.267000  0.505000  1.0
  C  C858  1  0.673000  0.733000  0.005000  1.0
  C  C859  1  0.233000  0.827000  0.755000  1.0
  C  C860  1  0.767000  0.173000  0.255000  1.0
  C  C861  1  0.173000  0.767000  0.745000  1.0
  C  C862  1  0.827000  0.233000  0.245000  1.0
  C  C863  1  0.267000  0.327000  0.495000  1.0
  C  C864  1  0.733000  0.673000  0.995000  1.0
  C  C865  1  0.329200  0.214000  0.504900  1.0
  C  C866  1  0.670800  0.786000  0.004900  1.0
  C  C867  1  0.286000  0.829200  0.754900  1.0
  C  C868  1  0.714000  0.170800  0.254900  1.0
  C  C869  1  0.170800  0.714000  0.745100  1.0
  C  C870  1  0.829200  0.286000  0.245100  1.0
  C  C871  1  0.214000  0.329200  0.495100  1.0
  C  C872  1  0.786000  0.670800  0.995100  1.0
  C  C873  1  0.287100  0.198800  0.478400  1.0
  C  C874  1  0.712900  0.801200  0.978400  1.0
  C  C875  1  0.301200  0.787100  0.728400  1.0
  C  C876  1  0.698800  0.212900  0.228400  1.0
  C  C877  1  0.212900  0.698800  0.771600  1.0
  C  C878  1  0.787100  0.301200  0.271600  1.0
  C  C879  1  0.198800  0.287100  0.521600  1.0
  C  C880  1  0.801200  0.712900  0.021600  1.0
  C  C881  1  0.323200  0.209200  0.406400  1.0
  C  C882  1  0.676800  0.790800  0.906400  1.0
  C  C883  1  0.290800  0.823200  0.656400  1.0
  C  C884  1  0.709200  0.176800  0.156400  1.0
  C  C885  1  0.176800  0.709200  0.843600  1.0
  C  C886  1  0.823200  0.290800  0.343600  1.0
  C  C887  1  0.209200  0.323200  0.593600  1.0
  C  C888  1  0.790800  0.676800  0.093600  1.0
  C  C889  1  0.370000  0.224600  0.426000  1.0
  C  C890  1  0.630000  0.775400  0.926000  1.0
  C  C891  1  0.275400  0.870000  0.676000  1.0
  C  C892  1  0.724600  0.130000  0.176000  1.0
  C  C893  1  0.130000  0.724600  0.824000  1.0
  C  C894  1  0.870000  0.275400  0.324000  1.0
  C  C895  1  0.224600  0.370000  0.574000  1.0
  C  C896  1  0.775400  0.630000  0.074000  1.0
  C  C897  1  0.361800  0.276100  0.433000  1.0
  C  C898  1  0.638200  0.723900  0.933000  1.0
  C  C899  1  0.223900  0.861800  0.683000  1.0
  C  C900  1  0.776100  0.138200  0.183000  1.0
  C  C901  1  0.138200  0.776100  0.817000  1.0
  C  C902  1  0.861800  0.223900  0.317000  1.0
  C  C903  1  0.276100  0.361800  0.567000  1.0
  C  C904  1  0.723900  0.638200  0.067000  1.0
  C  C905  1  0.368200  0.203000  0.472000  1.0
  C  C906  1  0.631800  0.797000  0.972000  1.0
  C  C907  1  0.297000  0.868200  0.722000  1.0
  C  C908  1  0.703000  0.131800  0.222000  1.0
  C  C909  1  0.131800  0.703000  0.778000  1.0
  C  C910  1  0.868200  0.297000  0.278000  1.0
  C  C911  1  0.203000  0.368200  0.528000  1.0
  C  C912  1  0.797000  0.631800  0.028000  1.0
  C  C913  1  0.024500  0.077000  0.564400  1.0
  C  C914  1  0.975500  0.923000  0.064400  1.0
  C  C915  1  0.423000  0.524500  0.814400  1.0
  C  C916  1  0.577000  0.475500  0.314400  1.0
  C  C917  1  0.475500  0.577000  0.685600  1.0
  C  C918  1  0.524500  0.423000  0.185600  1.0
  C  C919  1  0.077000  0.024500  0.435600  1.0
  C  C920  1  0.923000  0.975500  0.935600  1.0
  C  C921  1  0.033400  0.122300  0.582900  1.0
  C  C922  1  0.966600  0.877700  0.082900  1.0
  C  C923  1  0.377700  0.533400  0.832900  1.0
  C  C924  1  0.622300  0.466600  0.332900  1.0
  C  C925  1  0.466600  0.622300  0.667100  1.0
  C  C926  1  0.533400  0.377700  0.167100  1.0
  C  C927  1  0.122300  0.033400  0.417100  1.0
  C  C928  1  0.877700  0.966600  0.917100  1.0
  C  C929  1  0.028800  0.160800  0.553800  1.0
  C  C930  1  0.971200  0.839200  0.053800  1.0
  C  C931  1  0.339200  0.528800  0.803800  1.0
  C  C932  1  0.660800  0.471200  0.303800  1.0
  C  C933  1  0.471200  0.660800  0.696200  1.0
  C  C934  1  0.528800  0.339200  0.196200  1.0
  C  C935  1  0.160800  0.028800  0.446200  1.0
  C  C936  1  0.839200  0.971200  0.946200  1.0
  C  C937  1  0.012400  0.151600  0.511700  1.0
  C  C938  1  0.987600  0.848400  0.011700  1.0
  C  C939  1  0.348400  0.512400  0.761700  1.0
  C  C940  1  0.651600  0.487600  0.261700  1.0
  C  C941  1  0.487600  0.651600  0.738300  1.0
  C  C942  1  0.512400  0.348400  0.238300  1.0
  C  C943  1  0.151600  0.012400  0.488300  1.0
  C  C944  1  0.848400  0.987600  0.988300  1.0
  C  C945  1  0.006500  0.108600  0.497800  1.0
  C  C946  1  0.993500  0.891400  0.997800  1.0
  C  C947  1  0.391400  0.506500  0.747800  1.0
  C  C948  1  0.608600  0.493500  0.247800  1.0
  C  C949  1  0.493500  0.608600  0.752200  1.0
  C  C950  1  0.506500  0.391400  0.252200  1.0
  C  C951  1  0.108600  0.006500  0.502200  1.0
  C  C952  1  0.891400  0.993500  0.002200  1.0
  C  C953  1  0.135700  0.313000  0.707800  1.0
  C  C954  1  0.864300  0.687000  0.207800  1.0
  C  C955  1  0.187000  0.635700  0.957800  1.0
  C  C956  1  0.813000  0.364300  0.457800  1.0
  C  C957  1  0.364300  0.813000  0.542200  1.0
  C  C958  1  0.635700  0.187000  0.042200  1.0
  C  C959  1  0.313000  0.135700  0.292200  1.0
  C  C960  1  0.687000  0.864300  0.792200  1.0
  C  C961  1  0.111700  0.307500  0.670300  1.0
  C  C962  1  0.888300  0.692500  0.170300  1.0
  C  C963  1  0.192500  0.611700  0.920300  1.0
  C  C964  1  0.807500  0.388300  0.420300  1.0
  C  C965  1  0.388300  0.807500  0.579700  1.0
  C  C966  1  0.611700  0.192500  0.079700  1.0
  C  C967  1  0.307500  0.111700  0.329700  1.0
  C  C968  1  0.692500  0.888300  0.829700  1.0
  C  C969  1  0.091600  0.265000  0.661900  1.0
  C  C970  1  0.908400  0.735000  0.161900  1.0
  C  C971  1  0.235000  0.591600  0.911900  1.0
  C  C972  1  0.765000  0.408400  0.411900  1.0
  C  C973  1  0.408400  0.765000  0.588100  1.0
  C  C974  1  0.591600  0.235000  0.088100  1.0
  C  C975  1  0.265000  0.091600  0.338100  1.0
  C  C976  1  0.735000  0.908400  0.838100  1.0
  C  C977  1  0.095300  0.229400  0.694800  1.0
  C  C978  1  0.904700  0.770600  0.194800  1.0
  C  C979  1  0.270600  0.595300  0.944800  1.0
  C  C980  1  0.729400  0.404700  0.444800  1.0
  C  C981  1  0.404700  0.729400  0.555200  1.0
  C  C982  1  0.595300  0.270600  0.055200  1.0
  C  C983  1  0.229400  0.095300  0.305200  1.0
  C  C984  1  0.770600  0.904700  0.805200  1.0
  C  C985  1  0.121000  0.238800  0.729800  1.0
  C  C986  1  0.879000  0.761200  0.229800  1.0
  C  C987  1  0.261200  0.621000  0.979800  1.0
  C  C988  1  0.738800  0.379000  0.479800  1.0
  C  C989  1  0.379000  0.738800  0.520200  1.0
  C  C990  1  0.621000  0.261200  0.020200  1.0
  C  C991  1  0.238800  0.121000  0.270200  1.0
  C  C992  1  0.761200  0.879000  0.770200  1.0
  C  C993  1  0.004400  0.353300  0.456400  1.0
  C  C994  1  0.995600  0.646700  0.956400  1.0
  C  C995  1  0.146700  0.504400  0.706400  1.0
  C  C996  1  0.853300  0.495600  0.206400  1.0
  C  C997  1  0.495600  0.853300  0.793600  1.0
  C  C998  1  0.504400  0.146700  0.293600  1.0
  C  C999  1  0.353300  0.004400  0.543600  1.0
  C  C1000  1  0.646700  0.995600  0.043600  1.0
  C  C1001  1  0.010900  0.317500  0.482900  1.0
  C  C1002  1  0.989100  0.682500  0.982900  1.0
  C  C1003  1  0.182500  0.510900  0.732900  1.0
  C  C1004  1  0.817500  0.489100  0.232900  1.0
  C  C1005  1  0.489100  0.817500  0.767100  1.0
  C  C1006  1  0.510900  0.182500  0.267100  1.0
  C  C1007  1  0.317500  0.010900  0.517100  1.0
  C  C1008  1  0.682500  0.989100  0.017100  1.0
  C  C1009  1  0.027500  0.324800  0.525700  1.0
  C  C1010  1  0.972500  0.675200  0.025700  1.0
  C  C1011  1  0.175200  0.527500  0.775700  1.0
  C  C1012  1  0.824800  0.472500  0.275700  1.0
  C  C1013  1  0.472500  0.824800  0.724300  1.0
  C  C1014  1  0.527500  0.175200  0.224300  1.0
  C  C1015  1  0.324800  0.027500  0.474300  1.0
  C  C1016  1  0.675200  0.972500  0.974300  1.0
  C  C1017  1  0.037800  0.368500  0.539500  1.0
  C  C1018  1  0.962200  0.631500  0.039500  1.0
  C  C1019  1  0.131500  0.537800  0.789500  1.0
  C  C1020  1  0.868500  0.462200  0.289500  1.0
  C  C1021  1  0.462200  0.868500  0.710500  1.0
  C  C1022  1  0.537800  0.131500  0.210500  1.0
  C  C1023  1  0.368500  0.037800  0.460500  1.0
  C  C1024  1  0.631500  0.962200  0.960500  1.0
  C  C1025  1  0.031200  0.404100  0.508400  1.0
  C  C1026  1  0.968800  0.595900  0.008400  1.0
  C  C1027  1  0.095900  0.531200  0.758400  1.0
  C  C1028  1  0.904100  0.468800  0.258400  1.0
  C  C1029  1  0.468800  0.904100  0.741600  1.0
  C  C1030  1  0.531200  0.095900  0.241600  1.0
  C  C1031  1  0.404100  0.031200  0.491600  1.0
  C  C1032  1  0.595900  0.968800  0.991600  1.0
  C  C1033  1  0.038700  0.206500  0.569300  1.0
  C  C1034  1  0.961300  0.793500  0.069300  1.0
  C  C1035  1  0.293500  0.538700  0.819300  1.0
  C  C1036  1  0.706500  0.461300  0.319300  1.0
  C  C1037  1  0.461300  0.706500  0.680700  1.0
  C  C1038  1  0.538700  0.293500  0.180700  1.0
  C  C1039  1  0.206500  0.038700  0.430700  1.0
  C  C1040  1  0.793500  0.961300  0.930700  1.0
  C  C1041  1  0.065900  0.256500  0.620900  1.0
  C  C1042  1  0.934100  0.743500  0.120900  1.0
  C  C1043  1  0.243500  0.565900  0.870900  1.0
  C  C1044  1  0.756500  0.434100  0.370900  1.0
  C  C1045  1  0.434100  0.756500  0.629100  1.0
  C  C1046  1  0.565900  0.243500  0.129100  1.0
  C  C1047  1  0.256500  0.065900  0.379100  1.0
  C  C1048  1  0.743500  0.934100  0.879100  1.0
  C  C1049  1  0.037900  0.284300  0.555800  1.0
  C  C1050  1  0.962100  0.715700  0.055800  1.0
  C  C1051  1  0.215700  0.537900  0.805800  1.0
  C  C1052  1  0.784300  0.462100  0.305800  1.0
  C  C1053  1  0.462100  0.784300  0.694200  1.0
  C  C1054  1  0.537900  0.215700  0.194200  1.0
  C  C1055  1  0.284300  0.037900  0.444200  1.0
  C  C1056  1  0.715700  0.962100  0.944200  1.0
  C  C1057  1  0.408000  0.413200  0.570600  1.0
  C  C1058  1  0.592000  0.586800  0.070600  1.0
  C  C1059  1  0.086800  0.908000  0.820600  1.0
  C  C1060  1  0.913200  0.092000  0.320600  1.0
  C  C1061  1  0.092000  0.913200  0.679400  1.0
  C  C1062  1  0.908000  0.086800  0.179400  1.0
  C  C1063  1  0.413200  0.408000  0.429400  1.0
  C  C1064  1  0.586800  0.592000  0.929400  1.0
  C  C1065  1  0.392100  0.377700  0.593600  1.0
  C  C1066  1  0.607900  0.622300  0.093600  1.0
  C  C1067  1  0.122300  0.892100  0.843600  1.0
  C  C1068  1  0.877700  0.107900  0.343600  1.0
  C  C1069  1  0.107900  0.877700  0.656400  1.0
  C  C1070  1  0.892100  0.122300  0.156400  1.0
  C  C1071  1  0.377700  0.392100  0.406400  1.0
  C  C1072  1  0.622300  0.607900  0.906400  1.0
  C  C1073  1  0.409100  0.333700  0.587200  1.0
  C  C1074  1  0.590900  0.666300  0.087200  1.0
  C  C1075  1  0.166300  0.909100  0.837200  1.0
  C  C1076  1  0.833700  0.090900  0.337200  1.0
  C  C1077  1  0.090900  0.833700  0.662800  1.0
  C  C1078  1  0.909100  0.166300  0.162800  1.0
  C  C1079  1  0.333700  0.409100  0.412800  1.0
  C  C1080  1  0.666300  0.590900  0.912800  1.0
  C  C1081  1  0.441200  0.325000  0.553300  1.0
  C  C1082  1  0.558800  0.675000  0.053300  1.0
  C  C1083  1  0.175000  0.941200  0.803300  1.0
  C  C1084  1  0.825000  0.058800  0.303300  1.0
  C  C1085  1  0.058800  0.825000  0.696700  1.0
  C  C1086  1  0.941200  0.175000  0.196700  1.0
  C  C1087  1  0.325000  0.441200  0.446700  1.0
  C  C1088  1  0.675000  0.558800  0.946700  1.0
  C  C1089  1  0.459500  0.366000  0.532100  1.0
  C  C1090  1  0.540500  0.634000  0.032100  1.0
  C  C1091  1  0.134000  0.959500  0.782100  1.0
  C  C1092  1  0.866000  0.040500  0.282100  1.0
  C  C1093  1  0.040500  0.866000  0.717900  1.0
  C  C1094  1  0.959500  0.134000  0.217900  1.0
  C  C1095  1  0.366000  0.459500  0.467900  1.0
  C  C1096  1  0.634000  0.540500  0.967900  1.0
  C  C1097  1  0.249200  0.242700  0.743500  1.0
  C  C1098  1  0.750800  0.757300  0.243500  1.0
  C  C1099  1  0.257300  0.749200  0.993500  1.0
  C  C1100  1  0.742700  0.250800  0.493500  1.0
  C  C1101  1  0.250800  0.742700  0.506500  1.0
  C  C1102  1  0.749200  0.257300  0.006500  1.0
  C  C1103  1  0.242700  0.249200  0.256500  1.0
  C  C1104  1  0.757300  0.750800  0.756500  1.0
  C  C1105  1  0.282900  0.234300  0.714400  1.0
  C  C1106  1  0.717100  0.765700  0.214400  1.0
  C  C1107  1  0.265700  0.782900  0.964400  1.0
  C  C1108  1  0.734300  0.217100  0.464400  1.0
  C  C1109  1  0.217100  0.734300  0.535600  1.0
  C  C1110  1  0.782900  0.265700  0.035600  1.0
  C  C1111  1  0.234300  0.282900  0.285600  1.0
  C  C1112  1  0.765700  0.717100  0.785600  1.0
  C  C1113  1  0.303500  0.271500  0.693500  1.0
  C  C1114  1  0.696500  0.728500  0.193500  1.0
  C  C1115  1  0.228500  0.803500  0.943500  1.0
  C  C1116  1  0.771500  0.196500  0.443500  1.0
  C  C1117  1  0.196500  0.771500  0.556500  1.0
  C  C1118  1  0.803500  0.228500  0.056500  1.0
  C  C1119  1  0.271500  0.303500  0.306500  1.0
  C  C1120  1  0.728500  0.696500  0.806500  1.0
  C  C1121  1  0.289800  0.316100  0.705500  1.0
  C  C1122  1  0.710200  0.683900  0.205500  1.0
  C  C1123  1  0.183900  0.789800  0.955500  1.0
  C  C1124  1  0.816100  0.210200  0.455500  1.0
  C  C1125  1  0.210200  0.816100  0.544500  1.0
  C  C1126  1  0.789800  0.183900  0.044500  1.0
  C  C1127  1  0.316100  0.289800  0.294500  1.0
  C  C1128  1  0.683900  0.710200  0.794500  1.0
  C  C1129  1  0.255700  0.320300  0.736700  1.0
  C  C1130  1  0.744300  0.679700  0.236700  1.0
  C  C1131  1  0.179700  0.755700  0.986700  1.0
  C  C1132  1  0.820300  0.244300  0.486700  1.0
  C  C1133  1  0.244300  0.820300  0.513300  1.0
  C  C1134  1  0.755700  0.179700  0.013300  1.0
  C  C1135  1  0.320300  0.255700  0.263300  1.0
  C  C1136  1  0.679700  0.744300  0.763300  1.0
  C  C1137  1  0.444600  0.116800  0.569800  1.0
  C  C1138  1  0.555400  0.883200  0.069800  1.0
  C  C1139  1  0.383200  0.944600  0.819800  1.0
  C  C1140  1  0.616800  0.055400  0.319800  1.0
  C  C1141  1  0.055400  0.616800  0.680200  1.0
  C  C1142  1  0.944600  0.383200  0.180200  1.0
  C  C1143  1  0.116800  0.444600  0.430200  1.0
  C  C1144  1  0.883200  0.555400  0.930200  1.0
  C  C1145  1  0.433100  0.161700  0.579500  1.0
  C  C1146  1  0.566900  0.838300  0.079500  1.0
  C  C1147  1  0.338300  0.933100  0.829500  1.0
  C  C1148  1  0.661700  0.066900  0.329500  1.0
  C  C1149  1  0.066900  0.661700  0.670500  1.0
  C  C1150  1  0.933100  0.338300  0.170500  1.0
  C  C1151  1  0.161700  0.433100  0.420500  1.0
  C  C1152  1  0.838300  0.566900  0.920500  1.0
  C  C1153  1  0.399800  0.170900  0.610500  1.0
  C  C1154  1  0.600200  0.829100  0.110500  1.0
  C  C1155  1  0.329100  0.899800  0.860500  1.0
  C  C1156  1  0.670900  0.100200  0.360500  1.0
  C  C1157  1  0.100200  0.670900  0.639500  1.0
  C  C1158  1  0.899800  0.329100  0.139500  1.0
  C  C1159  1  0.170900  0.399800  0.389500  1.0
  C  C1160  1  0.829100  0.600200  0.889500  1.0
  C  C1161  1  0.379900  0.132400  0.631600  1.0
  C  C1162  1  0.620100  0.867600  0.131600  1.0
  C  C1163  1  0.367600  0.879900  0.881600  1.0
  C  C1164  1  0.632400  0.120100  0.381600  1.0
  C  C1165  1  0.120100  0.632400  0.618400  1.0
  C  C1166  1  0.879900  0.367600  0.118400  1.0
  C  C1167  1  0.132400  0.379900  0.368400  1.0
  C  C1168  1  0.867600  0.620100  0.868400  1.0
  C  C1169  1  0.395700  0.088800  0.622700  1.0
  C  C1170  1  0.604300  0.911200  0.122700  1.0
  C  C1171  1  0.411200  0.895700  0.872700  1.0
  C  C1172  1  0.588800  0.104300  0.372700  1.0
  C  C1173  1  0.104300  0.588800  0.627300  1.0
  C  C1174  1  0.895700  0.411200  0.127300  1.0
  C  C1175  1  0.088800  0.395700  0.377300  1.0
  C  C1176  1  0.911200  0.604300  0.877300  1.0
  C  C1177  1  0.389400  0.293400  0.610400  1.0
  C  C1178  1  0.610600  0.706600  0.110400  1.0
  C  C1179  1  0.206600  0.889400  0.860400  1.0
  C  C1180  1  0.793400  0.110600  0.360400  1.0
  C  C1181  1  0.110600  0.793400  0.639600  1.0
  C  C1182  1  0.889400  0.206600  0.139600  1.0
  C  C1183  1  0.293400  0.389400  0.389600  1.0
  C  C1184  1  0.706600  0.610600  0.889600  1.0
  C  C1185  1  0.340800  0.264500  0.659400  1.0
  C  C1186  1  0.659200  0.735500  0.159400  1.0
  C  C1187  1  0.235500  0.840800  0.909400  1.0
  C  C1188  1  0.764500  0.159200  0.409400  1.0
  C  C1189  1  0.159200  0.764500  0.590600  1.0
  C  C1190  1  0.840800  0.235500  0.090600  1.0
  C  C1191  1  0.264500  0.340800  0.340600  1.0
  C  C1192  1  0.735500  0.659200  0.840600  1.0
  C  C1193  1  0.384600  0.218500  0.621100  1.0
  C  C1194  1  0.615400  0.781500  0.121100  1.0
  C  C1195  1  0.281500  0.884600  0.871100  1.0
  C  C1196  1  0.718500  0.115400  0.371100  1.0
  C  C1197  1  0.115400  0.718500  0.628900  1.0
  C  C1198  1  0.884600  0.281500  0.128900  1.0
  C  C1199  1  0.218500  0.384600  0.378900  1.0
  C  C1200  1  0.781500  0.615400  0.878900  1.0
  C  C1201  1  0.050400  0.511600  0.351500  1.0
  C  C1202  1  0.949600  0.488400  0.851500  1.0
  C  C1203  1  0.988400  0.550400  0.601500  1.0
  C  C1204  1  0.011600  0.449600  0.101500  1.0
  C  C1205  1  0.449600  0.011600  0.898500  1.0
  C  C1206  1  0.550400  0.988400  0.398500  1.0
  C  C1207  1  0.511600  0.050400  0.648500  1.0
  C  C1208  1  0.488400  0.949600  0.148500  1.0
  C  C1209  1  0.049100  0.548100  0.325000  1.0
  C  C1210  1  0.950900  0.451900  0.825000  1.0
  C  C1211  1  0.951900  0.549100  0.575000  1.0
  C  C1212  1  0.048100  0.450900  0.075000  1.0
  C  C1213  1  0.450900  0.048100  0.925000  1.0
  C  C1214  1  0.549100  0.951900  0.425000  1.0
  C  C1215  1  0.548100  0.049100  0.675000  1.0
  C  C1216  1  0.451900  0.950900  0.175000  1.0
  C  C1217  1  0.998000  0.564000  0.318900  1.0
  C  C1218  1  0.002000  0.436000  0.818900  1.0
  C  C1219  1  0.936000  0.498000  0.568900  1.0
  C  C1220  1  0.064000  0.502000  0.068900  1.0
  C  C1221  1  0.502000  0.064000  0.931100  1.0
  C  C1222  1  0.498000  0.936000  0.431100  1.0
  C  C1223  1  0.564000  0.998000  0.681100  1.0
  C  C1224  1  0.436000  0.002000  0.181100  1.0
  C  C1225  1  0.961000  0.548700  0.341600  1.0
  C  C1226  1  0.039000  0.451300  0.841600  1.0
  C  C1227  1  0.951300  0.461000  0.591600  1.0
  C  C1228  1  0.048700  0.539000  0.091600  1.0
  C  C1229  1  0.539000  0.048700  0.908400  1.0
  C  C1230  1  0.461000  0.951300  0.408400  1.0
  C  C1231  1  0.548700  0.961000  0.658400  1.0
  C  C1232  1  0.451300  0.039000  0.158400  1.0
  C  C1233  1  0.973700  0.515100  0.371500  1.0
  C  C1234  1  0.026300  0.484900  0.871500  1.0
  C  C1235  1  0.984900  0.473700  0.621500  1.0
  C  C1236  1  0.015100  0.526300  0.121500  1.0
  C  C1237  1  0.526300  0.015100  0.878500  1.0
  C  C1238  1  0.473700  0.984900  0.378500  1.0
  C  C1239  1  0.515100  0.973700  0.628500  1.0
  C  C1240  1  0.484900  0.026300  0.128500  1.0
  C  C1241  1  0.935700  0.499100  0.400500  1.0
  C  C1242  1  0.064300  0.500900  0.900500  1.0
  C  C1243  1  0.000900  0.435700  0.650500  1.0
  C  C1244  1  0.999100  0.564300  0.150500  1.0
  C  C1245  1  0.564300  0.999100  0.849500  1.0
  C  C1246  1  0.435700  0.000900  0.349500  1.0
  C  C1247  1  0.499100  0.935700  0.599500  1.0
  C  C1248  1  0.500900  0.064300  0.099500  1.0
  C  C1249  1  0.895100  0.517400  0.394300  1.0
  C  C1250  1  0.104900  0.482600  0.894300  1.0
  C  C1251  1  0.982600  0.395100  0.644300  1.0
  C  C1252  1  0.017400  0.604900  0.144300  1.0
  C  C1253  1  0.604900  0.017400  0.855700  1.0
  C  C1254  1  0.395100  0.982600  0.355700  1.0
  C  C1255  1  0.517400  0.895100  0.605700  1.0
  C  C1256  1  0.482600  0.104900  0.105700  1.0
  C  C1257  1  0.866500  0.502800  0.423400  1.0
  C  C1258  1  0.133500  0.497200  0.923400  1.0
  C  C1259  1  0.997200  0.366500  0.673400  1.0
  C  C1260  1  0.002800  0.633500  0.173400  1.0
  C  C1261  1  0.633500  0.002800  0.826600  1.0
  C  C1262  1  0.366500  0.997200  0.326600  1.0
  C  C1263  1  0.502800  0.866500  0.576600  1.0
  C  C1264  1  0.497200  0.133500  0.076600  1.0
  C  C1265  1  0.874200  0.468200  0.459900  1.0
  C  C1266  1  0.125800  0.531800  0.959900  1.0
  C  C1267  1  0.031800  0.374200  0.709900  1.0
  C  C1268  1  0.968200  0.625800  0.209900  1.0
  C  C1269  1  0.625800  0.968200  0.790100  1.0
  C  C1270  1  0.374200  0.031800  0.290100  1.0
  C  C1271  1  0.468200  0.874200  0.540100  1.0
  C  C1272  1  0.531800  0.125800  0.040100  1.0
  C  C1273  1  0.922800  0.454400  0.456400  1.0
  C  C1274  1  0.077200  0.545600  0.956400  1.0
  C  C1275  1  0.045600  0.422800  0.706400  1.0
  C  C1276  1  0.954400  0.577200  0.206400  1.0
  C  C1277  1  0.577200  0.954400  0.793600  1.0
  C  C1278  1  0.422800  0.045600  0.293600  1.0
  C  C1279  1  0.454400  0.922800  0.543600  1.0
  C  C1280  1  0.545600  0.077200  0.043600  1.0
  C  C1281  1  0.080900  0.307500  0.822500  1.0
  C  C1282  1  0.919100  0.692500  0.322500  1.0
  C  C1283  1  0.192500  0.580900  0.072500  1.0
  C  C1284  1  0.807500  0.419100  0.572500  1.0
  C  C1285  1  0.419100  0.807500  0.427500  1.0
  C  C1286  1  0.580900  0.192500  0.927500  1.0
  C  C1287  1  0.307500  0.080900  0.177500  1.0
  C  C1288  1  0.692500  0.919100  0.677500  1.0
  C  C1289  1  0.046000  0.318300  0.849400  1.0
  C  C1290  1  0.954000  0.681700  0.349400  1.0
  C  C1291  1  0.181700  0.546000  0.099400  1.0
  C  C1292  1  0.818300  0.454000  0.599400  1.0
  C  C1293  1  0.454000  0.818300  0.400600  1.0
  C  C1294  1  0.546000  0.181700  0.900600  1.0
  C  C1295  1  0.318300  0.046000  0.150600  1.0
  C  C1296  1  0.681700  0.954000  0.650600  1.0
  C  C1297  1  0.055900  0.344500  0.885500  1.0
  C  C1298  1  0.944100  0.655500  0.385500  1.0
  C  C1299  1  0.155500  0.555900  0.135500  1.0
  C  C1300  1  0.844500  0.444100  0.635500  1.0
  C  C1301  1  0.444100  0.844500  0.364500  1.0
  C  C1302  1  0.555900  0.155500  0.864500  1.0
  C  C1303  1  0.344500  0.055900  0.114500  1.0
  C  C1304  1  0.655500  0.944100  0.614500  1.0
  C  C1305  1  0.101600  0.343600  0.897600  1.0
  C  C1306  1  0.898400  0.656400  0.397600  1.0
  C  C1307  1  0.156400  0.601600  0.147600  1.0
  C  C1308  1  0.843600  0.398400  0.647600  1.0
  C  C1309  1  0.398400  0.843600  0.352400  1.0
  C  C1310  1  0.601600  0.156400  0.852400  1.0
  C  C1311  1  0.343600  0.101600  0.102400  1.0
  C  C1312  1  0.656400  0.898400  0.602400  1.0
  C  C1313  1  0.139100  0.330200  0.871800  1.0
  C  C1314  1  0.860900  0.669800  0.371800  1.0
  C  C1315  1  0.169800  0.639100  0.121800  1.0
  C  C1316  1  0.830200  0.360900  0.621800  1.0
  C  C1317  1  0.360900  0.830200  0.378200  1.0
  C  C1318  1  0.639100  0.169800  0.878200  1.0
  C  C1319  1  0.330200  0.139100  0.128200  1.0
  C  C1320  1  0.669800  0.860900  0.628200  1.0
  C  C1321  1  0.185300  0.334700  0.880100  1.0
  C  C1322  1  0.814700  0.665300  0.380100  1.0
  C  C1323  1  0.165300  0.685300  0.130100  1.0
  C  C1324  1  0.834700  0.314700  0.630100  1.0
  C  C1325  1  0.314700  0.834700  0.369900  1.0
  C  C1326  1  0.685300  0.165300  0.869900  1.0
  C  C1327  1  0.334700  0.185300  0.119900  1.0
  C  C1328  1  0.665300  0.814700  0.619900  1.0
  C  C1329  1  0.204500  0.338500  0.918200  1.0
  C  C1330  1  0.795500  0.661500  0.418200  1.0
  C  C1331  1  0.161500  0.704500  0.168200  1.0
  C  C1332  1  0.838500  0.295500  0.668200  1.0
  C  C1333  1  0.295500  0.838500  0.331800  1.0
  C  C1334  1  0.704500  0.161500  0.831800  1.0
  C  C1335  1  0.338500  0.204500  0.081800  1.0
  C  C1336  1  0.661500  0.795500  0.581800  1.0
  C  C1337  1  0.244700  0.343200  0.923700  1.0
  C  C1338  1  0.755300  0.656800  0.423700  1.0
  C  C1339  1  0.156800  0.744700  0.173700  1.0
  C  C1340  1  0.843200  0.255300  0.673700  1.0
  C  C1341  1  0.255300  0.843200  0.326300  1.0
  C  C1342  1  0.744700  0.156800  0.826300  1.0
  C  C1343  1  0.343200  0.244700  0.076300  1.0
  C  C1344  1  0.656800  0.755300  0.576300  1.0
  C  C1345  1  0.279200  0.329200  0.889800  1.0
  C  C1346  1  0.720800  0.670800  0.389800  1.0
  C  C1347  1  0.170800  0.779200  0.139800  1.0
  C  C1348  1  0.829200  0.220800  0.639800  1.0
  C  C1349  1  0.220800  0.829200  0.360200  1.0
  C  C1350  1  0.779200  0.170800  0.860200  1.0
  C  C1351  1  0.329200  0.279200  0.110200  1.0
  C  C1352  1  0.670800  0.720800  0.610200  1.0
  C  C1353  1  0.258100  0.311700  0.853400  1.0
  C  C1354  1  0.741900  0.688300  0.353400  1.0
  C  C1355  1  0.188300  0.758100  0.103400  1.0
  C  C1356  1  0.811700  0.241900  0.603400  1.0
  C  C1357  1  0.241900  0.811700  0.396600  1.0
  C  C1358  1  0.758100  0.188300  0.896600  1.0
  C  C1359  1  0.311700  0.258100  0.146600  1.0
  C  C1360  1  0.688300  0.741900  0.646600  1.0
  C  C1361  1  0.915600  0.029000  0.538800  1.0
  C  C1362  1  0.084400  0.971000  0.038800  1.0
  C  C1363  1  0.471000  0.415600  0.788800  1.0
  C  C1364  1  0.529000  0.584400  0.288800  1.0
  C  C1365  1  0.584400  0.529000  0.711200  1.0
  C  C1366  1  0.415600  0.471000  0.211200  1.0
  C  C1367  1  0.029000  0.915600  0.461200  1.0
  C  C1368  1  0.971000  0.084400  0.961200  1.0
  C  C1369  1  0.871400  0.021600  0.553100  1.0
  C  C1370  1  0.128600  0.978400  0.053100  1.0
  C  C1371  1  0.478400  0.371400  0.803100  1.0
  C  C1372  1  0.521600  0.628600  0.303100  1.0
  C  C1373  1  0.628600  0.521600  0.696900  1.0
  C  C1374  1  0.371400  0.478400  0.196900  1.0
  C  C1375  1  0.021600  0.871400  0.446900  1.0
  C  C1376  1  0.978400  0.128600  0.946900  1.0
  C  C1377  1  0.853100  0.976000  0.544000  1.0
  C  C1378  1  0.146900  0.024000  0.044000  1.0
  C  C1379  1  0.524000  0.353100  0.794000  1.0
  C  C1380  1  0.476000  0.646900  0.294000  1.0
  C  C1381  1  0.646900  0.476000  0.706000  1.0
  C  C1382  1  0.353100  0.524000  0.206000  1.0
  C  C1383  1  0.976000  0.853100  0.456000  1.0
  C  C1384  1  0.024000  0.146900  0.956000  1.0
  C  C1385  1  0.879800  0.946700  0.525700  1.0
  C  C1386  1  0.120200  0.053300  0.025700  1.0
  C  C1387  1  0.553300  0.379800  0.775700  1.0
  C  C1388  1  0.446700  0.620200  0.275700  1.0
  C  C1389  1  0.620200  0.446700  0.724300  1.0
  C  C1390  1  0.379800  0.553300  0.224300  1.0
  C  C1391  1  0.946700  0.879800  0.474300  1.0
  C  C1392  1  0.053300  0.120200  0.974300  1.0
  C  C1393  1  0.923600  0.956400  0.509000  1.0
  C  C1394  1  0.076400  0.043600  0.009000  1.0
  C  C1395  1  0.543600  0.423600  0.759000  1.0
  C  C1396  1  0.456400  0.576400  0.259000  1.0
  C  C1397  1  0.576400  0.456400  0.741000  1.0
  C  C1398  1  0.423600  0.543600  0.241000  1.0
  C  C1399  1  0.956400  0.923600  0.491000  1.0
  C  C1400  1  0.043600  0.076400  0.991000  1.0
  C  C1401  1  0.536600  0.517300  0.520300  1.0
  C  C1402  1  0.463400  0.482700  0.020300  1.0
  C  C1403  1  0.982700  0.036600  0.770300  1.0
  C  C1404  1  0.017300  0.963400  0.270300  1.0
  C  C1405  1  0.963400  0.017300  0.729700  1.0
  C  C1406  1  0.036600  0.982700  0.229700  1.0
  C  C1407  1  0.517300  0.536600  0.479700  1.0
  C  C1408  1  0.482700  0.463400  0.979700  1.0
  C  C1409  1  0.575200  0.533300  0.542100  1.0
  C  C1410  1  0.424800  0.466700  0.042100  1.0
  C  C1411  1  0.966700  0.075200  0.792100  1.0
  C  C1412  1  0.033300  0.924800  0.292100  1.0
  C  C1413  1  0.924800  0.033300  0.707900  1.0
  C  C1414  1  0.075200  0.966700  0.207900  1.0
  C  C1415  1  0.533300  0.575200  0.457900  1.0
  C  C1416  1  0.466700  0.424800  0.957900  1.0
  C  C1417  1  0.584800  0.520300  0.583500  1.0
  C  C1418  1  0.415200  0.479700  0.083500  1.0
  C  C1419  1  0.979700  0.084800  0.833500  1.0
  C  C1420  1  0.020300  0.915200  0.333500  1.0
  C  C1421  1  0.915200  0.020300  0.666500  1.0
  C  C1422  1  0.084800  0.979700  0.166500  1.0
  C  C1423  1  0.520300  0.584800  0.416500  1.0
  C  C1424  1  0.479700  0.415200  0.916500  1.0
  C  C1425  1  0.562700  0.479300  0.596200  1.0
  C  C1426  1  0.437300  0.520700  0.096200  1.0
  C  C1427  1  0.020700  0.062700  0.846200  1.0
  C  C1428  1  0.979300  0.937300  0.346200  1.0
  C  C1429  1  0.937300  0.979300  0.653800  1.0
  C  C1430  1  0.062700  0.020700  0.153800  1.0
  C  C1431  1  0.479300  0.562700  0.403800  1.0
  C  C1432  1  0.520700  0.437300  0.903800  1.0
  C  C1433  1  0.529500  0.460900  0.573700  1.0
  C  C1434  1  0.470500  0.539100  0.073700  1.0
  C  C1435  1  0.039100  0.029500  0.823700  1.0
  C  C1436  1  0.960900  0.970500  0.323700  1.0
  C  C1437  1  0.970500  0.960900  0.676300  1.0
  C  C1438  1  0.029500  0.039100  0.176300  1.0
  C  C1439  1  0.460900  0.529500  0.426300  1.0
  C  C1440  1  0.539100  0.470500  0.926300  1.0
  N  N1441  1  0.159800  0.413400  0.793400  1
  N  N1442  1  0.840200  0.586600  0.293400  1
  N  N1443  1  0.086600  0.659800  0.043400  1
  N  N1444  1  0.913400  0.340200  0.543400  1
  N  N1445  1  0.340200  0.913400  0.456600  1
  N  N1446  1  0.659800  0.086600  0.956600  1
  N  N1447  1  0.413400  0.159800  0.206600  1
  N  N1448  1  0.586600  0.840200  0.706600  1
  N  N1449  1  0.028100  0.549200  0.470000  1
  N  N1450  1  0.971900  0.450800  0.970000  1
  N  N1451  1  0.950800  0.528100  0.720000  1
  N  N1452  1  0.049200  0.471900  0.220000  1
  N  N1453  1  0.471900  0.049200  0.780000  1
  N  N1454  1  0.528100  0.950800  0.280000  1
  N  N1455  1  0.549200  0.028100  0.530000  1
  N  N1456  1  0.450800  0.971900  0.030000  1
  N  N1457  1  0.945500  0.380800  0.352600  1
  N  N1458  1  0.054500  0.619200  0.852600  1
  N  N1459  1  0.119200  0.445500  0.602600  1
  N  N1460  1  0.880800  0.554500  0.102600  1
  N  N1461  1  0.554500  0.880800  0.897400  1
  N  N1462  1  0.445500  0.119200  0.397400  1
  N  N1463  1  0.380800  0.945500  0.647400  1
  N  N1464  1  0.619200  0.054500  0.147400  1
  N  N1465  1  0.913500  0.029900  0.423300  1
  N  N1466  1  0.086500  0.970100  0.923300  1
  N  N1467  1  0.470100  0.413500  0.673300  1
  N  N1468  1  0.529900  0.586500  0.173300  1
  N  N1469  1  0.586500  0.529900  0.826700  1
  N  N1470  1  0.413500  0.470100  0.326700  1
  N  N1471  1  0.029900  0.913500  0.576700  1
  N  N1472  1  0.970100  0.086500  0.076700  1
  N  N1473  1  0.562500  0.425900  0.446700  1
  N  N1474  1  0.437500  0.574100  0.946700  1
  N  N1475  1  0.074100  0.062500  0.696700  1
  N  N1476  1  0.925900  0.937500  0.196700  1
  N  N1477  1  0.937500  0.925900  0.803300  1
  N  N1478  1  0.062500  0.074100  0.303300  1
  N  N1479  1  0.425900  0.562500  0.553300  1
  N  N1480  1  0.574100  0.437500  0.053300  1
  N  N1481  1  0.013400  0.071500  0.524500  1.0
  N  N1482  1  0.986600  0.928500  0.024500  1.0
  N  N1483  1  0.428500  0.513400  0.774500  1.0
  N  N1484  1  0.571500  0.486600  0.274500  1.0
  N  N1485  1  0.486600  0.571500  0.725500  1.0
  N  N1486  1  0.513400  0.428500  0.225500  1.0
  N  N1487  1  0.071500  0.013400  0.475500  1.0
  N  N1488  1  0.928500  0.986600  0.975500  1.0
  N  N1489  1  0.140200  0.281300  0.738700  1.0
  N  N1490  1  0.859800  0.718700  0.238700  1.0
  N  N1491  1  0.218700  0.640200  0.988700  1.0
  N  N1492  1  0.781300  0.359800  0.488700  1.0
  N  N1493  1  0.359800  0.781300  0.511300  1.0
  N  N1494  1  0.640200  0.218700  0.011300  1.0
  N  N1495  1  0.281300  0.140200  0.261300  1.0
  N  N1496  1  0.718700  0.859800  0.761300  1.0
  N  N1497  1  0.014300  0.396000  0.468600  1.0
  N  N1498  1  0.985700  0.604000  0.968600  1.0
  N  N1499  1  0.104000  0.514300  0.718600  1.0
  N  N1500  1  0.896000  0.485700  0.218600  1.0
  N  N1501  1  0.485700  0.896000  0.781400  1.0
  N  N1502  1  0.514300  0.104000  0.281400  1.0
  N  N1503  1  0.396000  0.014300  0.531400  1.0
  N  N1504  1  0.604000  0.985700  0.031400  1.0
  N  N1505  1  0.058200  0.212400  0.609400  1.0
  N  N1506  1  0.941800  0.787600  0.109400  1.0
  N  N1507  1  0.287600  0.558200  0.859400  1.0
  N  N1508  1  0.712400  0.441800  0.359400  1.0
  N  N1509  1  0.441800  0.712400  0.640600  1.0
  N  N1510  1  0.558200  0.287600  0.140600  1.0
  N  N1511  1  0.212400  0.058200  0.390600  1.0
  N  N1512  1  0.787600  0.941800  0.890600  1.0
  N  N1513  1  0.058200  0.293700  0.594500  1.0
  N  N1514  1  0.941800  0.706300  0.094500  1.0
  N  N1515  1  0.206300  0.558200  0.844500  1.0
  N  N1516  1  0.793700  0.441800  0.344500  1.0
  N  N1517  1  0.441800  0.793700  0.655500  1.0
  N  N1518  1  0.558200  0.206300  0.155500  1.0
  N  N1519  1  0.293700  0.058200  0.405500  1.0
  N  N1520  1  0.706300  0.941800  0.905500  1.0
  N  N1521  1  0.027500  0.243200  0.540600  1.0
  N  N1522  1  0.972500  0.756800  0.040600  1.0
  N  N1523  1  0.256800  0.527500  0.790600  1.0
  N  N1524  1  0.743200  0.472500  0.290600  1.0
  N  N1525  1  0.472500  0.743200  0.709400  1.0
  N  N1526  1  0.527500  0.256800  0.209400  1.0
  N  N1527  1  0.243200  0.027500  0.459400  1.0
  N  N1528  1  0.756800  0.972500  0.959400  1.0
  N  N1529  1  0.439600  0.408600  0.541400  1.0
  N  N1530  1  0.560400  0.591400  0.041400  1.0
  N  N1531  1  0.091400  0.939600  0.791400  1.0
  N  N1532  1  0.908600  0.060400  0.291400  1.0
  N  N1533  1  0.060400  0.908600  0.708600  1.0
  N  N1534  1  0.939600  0.091400  0.208600  1.0
  N  N1535  1  0.408600  0.439600  0.458600  1.0
  N  N1536  1  0.591400  0.560400  0.958600  1.0
  N  N1537  1  0.234600  0.284800  0.754600  1.0
  N  N1538  1  0.765400  0.715200  0.254600  1.0
  N  N1539  1  0.215200  0.734600  0.004600  1.0
  N  N1540  1  0.784800  0.265400  0.504600  1.0
  N  N1541  1  0.265400  0.784800  0.495400  1.0
  N  N1542  1  0.734600  0.215200  0.995400  1.0
  N  N1543  1  0.284800  0.234600  0.245400  1.0
  N  N1544  1  0.715200  0.765400  0.745400  1.0
  N  N1545  1  0.426600  0.080200  0.589000  1.0
  N  N1546  1  0.573400  0.919800  0.089000  1.0
  N  N1547  1  0.419800  0.926600  0.839000  1.0
  N  N1548  1  0.580200  0.073400  0.339000  1.0
  N  N1549  1  0.073400  0.580200  0.661000  1.0
  N  N1550  1  0.926600  0.419800  0.161000  1.0
  N  N1551  1  0.080200  0.426600  0.411000  1.0
  N  N1552  1  0.919800  0.573400  0.911000  1.0
  N  N1553  1  0.357200  0.302200  0.639500  1.0
  N  N1554  1  0.642800  0.697800  0.139500  1.0
  N  N1555  1  0.197800  0.857200  0.889500  1.0
  N  N1556  1  0.802200  0.142800  0.389500  1.0
  N  N1557  1  0.142800  0.802200  0.610500  1.0
  N  N1558  1  0.857200  0.197800  0.110500  1.0
  N  N1559  1  0.302200  0.357200  0.360500  1.0
  N  N1560  1  0.697800  0.642800  0.860500  1.0
  N  N1561  1  0.352000  0.221700  0.651500  1.0
  N  N1562  1  0.648000  0.778300  0.151500  1.0
  N  N1563  1  0.278300  0.852000  0.901500  1.0
  N  N1564  1  0.721700  0.148000  0.401500  1.0
  N  N1565  1  0.148000  0.721700  0.598500  1.0
  N  N1566  1  0.852000  0.278300  0.098500  1.0
  N  N1567  1  0.221700  0.352000  0.348500  1.0
  N  N1568  1  0.778300  0.648000  0.848500  1.0
  N  N1569  1  0.405400  0.250900  0.598300  1.0
  N  N1570  1  0.594600  0.749100  0.098300  1.0
  N  N1571  1  0.249100  0.905400  0.848300  1.0
  N  N1572  1  0.750900  0.094600  0.348300  1.0
  N  N1573  1  0.094600  0.750900  0.651700  1.0
  N  N1574  1  0.905400  0.249100  0.151700  1.0
  N  N1575  1  0.250900  0.405400  0.401700  1.0
  N  N1576  1  0.749100  0.594600  0.901700  1.0
  N  N1577  1  0.015500  0.495600  0.376700  1.0
  N  N1578  1  0.984500  0.504400  0.876700  1.0
  N  N1579  1  0.004400  0.515500  0.626700  1.0
  N  N1580  1  0.995600  0.484500  0.126700  1.0
  N  N1581  1  0.484500  0.995600  0.873300  1.0
  N  N1582  1  0.515500  0.004400  0.373300  1.0
  N  N1583  1  0.495600  0.015500  0.623300  1.0
  N  N1584  1  0.504400  0.984500  0.123300  1.0
  N  N1585  1  0.951600  0.468800  0.429500  1.0
  N  N1586  1  0.048400  0.531200  0.929500  1.0
  N  N1587  1  0.031200  0.451600  0.679500  1.0
  N  N1588  1  0.968800  0.548400  0.179500  1.0
  N  N1589  1  0.548400  0.968800  0.820500  1.0
  N  N1590  1  0.451600  0.031200  0.320500  1.0
  N  N1591  1  0.468800  0.951600  0.570500  1.0
  N  N1592  1  0.531200  0.048400  0.070500  1.0
  N  N1593  1  0.125200  0.312100  0.832200  1.0
  N  N1594  1  0.874800  0.687900  0.332200  1.0
  N  N1595  1  0.187900  0.625200  0.082200  1.0
  N  N1596  1  0.812100  0.374800  0.582200  1.0
  N  N1597  1  0.374800  0.812100  0.417800  1.0
  N  N1598  1  0.625200  0.187900  0.917800  1.0
  N  N1599  1  0.312100  0.125200  0.167800  1.0
  N  N1600  1  0.687900  0.874800  0.667800  1.0
  N  N1601  1  0.212600  0.314700  0.848200  1.0
  N  N1602  1  0.787400  0.685300  0.348200  1.0
  N  N1603  1  0.185300  0.712600  0.098200  1.0
  N  N1604  1  0.814700  0.287400  0.598200  1.0
  N  N1605  1  0.287400  0.814700  0.401800  1.0
  N  N1606  1  0.712600  0.185300  0.901800  1.0
  N  N1607  1  0.314700  0.212600  0.151800  1.0
  N  N1608  1  0.685300  0.787400  0.651800  1.0
  N  N1609  1  0.942900  0.997400  0.519900  1.0
  N  N1610  1  0.057100  0.002600  0.019900  1.0
  N  N1611  1  0.502600  0.442900  0.769900  1.0
  N  N1612  1  0.497400  0.557100  0.269900  1.0
  N  N1613  1  0.557100  0.497400  0.730100  1.0
  N  N1614  1  0.442900  0.502600  0.230100  1.0
  N  N1615  1  0.997400  0.942900  0.480100  1.0
  N  N1616  1  0.002600  0.057100  0.980100  1.0
  N  N1617  1  0.513200  0.482600  0.537100  1.0
  N  N1618  1  0.486800  0.517400  0.037100  1.0
  N  N1619  1  0.017400  0.013200  0.787100  1.0
  N  N1620  1  0.982600  0.986800  0.287100  1.0
  N  N1621  1  0.986800  0.982600  0.712900  1.0
  N  N1622  1  0.013200  0.017400  0.212900  1.0
  N  N1623  1  0.482600  0.513200  0.462900  1.0
  N  N1624  1  0.517400  0.486800  0.962900  1.0
  O  O1625  1  0.750000  0.405000  0.153000  1
  O  O1626  1  0.250000  0.595000  0.653000  1
  O  O1627  1  0.095000  0.250000  0.403000  1
  O  O1628  1  0.905000  0.750000  0.903000  1
  O  O1629  1  0.750000  0.905000  0.097000  1
  O  O1630  1  0.250000  0.095000  0.597000  1
  O  O1631  1  0.405000  0.750000  0.847000  1
  O  O1632  1  0.595000  0.250000  0.347000  1
  O  O1633  1  0.577000  0.338000  0.352000  1
  O  O1634  1  0.423000  0.662000  0.852000  1
  O  O1635  1  0.162000  0.077000  0.602000  1
  O  O1636  1  0.838000  0.923000  0.102000  1
  O  O1637  1  0.923000  0.838000  0.898000  1
  O  O1638  1  0.077000  0.162000  0.398000  1
  O  O1639  1  0.338000  0.577000  0.648000  1
  O  O1640  1  0.662000  0.423000  0.148000  1
  O  O1641  1  0.167000  0.426300  0.830000  1
  O  O1642  1  0.833000  0.573700  0.330000  1
  O  O1643  1  0.073700  0.667000  0.080000  1
  O  O1644  1  0.926300  0.333000  0.580000  1
  O  O1645  1  0.333000  0.926300  0.420000  1
  O  O1646  1  0.667000  0.073700  0.920000  1
  O  O1647  1  0.426300  0.167000  0.170000  1
  O  O1648  1  0.573700  0.833000  0.670000  1
  O  O1649  1  0.121100  0.409800  0.780700  1
  O  O1650  1  0.878900  0.590200  0.280700  1
  O  O1651  1  0.090200  0.621100  0.030700  1
  O  O1652  1  0.909800  0.378900  0.530700  1
  O  O1653  1  0.378900  0.909800  0.469300  1
  O  O1654  1  0.621100  0.090200  0.969300  1
  O  O1655  1  0.409800  0.121100  0.219300  1
  O  O1656  1  0.590200  0.878900  0.719300  1
  O  O1657  1  0.190400  0.403300  0.766800  1
  O  O1658  1  0.809600  0.596700  0.266800  1
  O  O1659  1  0.096700  0.690400  0.016800  1
  O  O1660  1  0.903300  0.309600  0.516800  1
  O  O1661  1  0.309600  0.903300  0.483200  1
  O  O1662  1  0.690400  0.096700  0.983200  1
  O  O1663  1  0.403300  0.190400  0.233200  1
  O  O1664  1  0.596700  0.809600  0.733200  1
  O  O1665  1  0.070200  0.556100  0.448700  1
  O  O1666  1  0.929800  0.443900  0.948700  1
  O  O1667  1  0.943900  0.570200  0.698700  1
  O  O1668  1  0.056100  0.429800  0.198700  1
  O  O1669  1  0.429800  0.056100  0.801300  1
  O  O1670  1  0.570200  0.943900  0.301300  1
  O  O1671  1  0.556100  0.070200  0.551300  1
  O  O1672  1  0.443900  0.929800  0.051300  1
  O  O1673  1  0.038400  0.519000  0.494900  1
  O  O1674  1  0.961600  0.481000  0.994900  1
  O  O1675  1  0.981000  0.538400  0.744900  1
  O  O1676  1  0.019000  0.461600  0.244900  1
  O  O1677  1  0.461600  0.019000  0.755100  1
  O  O1678  1  0.538400  0.981000  0.255100  1
  O  O1679  1  0.519000  0.038400  0.505100  1
  O  O1680  1  0.481000  0.961600  0.005100  1
  O  O1681  1  0.991400  0.567600  0.466300  1
  O  O1682  1  0.008600  0.432400  0.966300  1
  O  O1683  1  0.932400  0.491400  0.716300  1
  O  O1684  1  0.067600  0.508600  0.216300  1
  O  O1685  1  0.508600  0.067600  0.783700  1
  O  O1686  1  0.491400  0.932400  0.283700  1
  O  O1687  1  0.567600  0.991400  0.533700  1
  O  O1688  1  0.432400  0.008600  0.033700  1
  O  O1689  1  0.977000  0.347200  0.353600  1
  O  O1690  1  0.023000  0.652800  0.853600  1
  O  O1691  1  0.152800  0.477000  0.603600  1
  O  O1692  1  0.847200  0.523000  0.103600  1
  O  O1693  1  0.523000  0.847200  0.896400  1
  O  O1694  1  0.477000  0.152800  0.396400  1
  O  O1695  1  0.347200  0.977000  0.646400  1
  O  O1696  1  0.652800  0.023000  0.146400  1
  O  O1697  1  0.958900  0.413600  0.330100  1
  O  O1698  1  0.041100  0.586400  0.830100  1
  O  O1699  1  0.086400  0.458900  0.580100  1
  O  O1700  1  0.913600  0.541100  0.080100  1
  O  O1701  1  0.541100  0.913600  0.919900  1
  O  O1702  1  0.458900  0.086400  0.419900  1
  O  O1703  1  0.413600  0.958900  0.669900  1
  O  O1704  1  0.586400  0.041100  0.169900  1
  O  O1705  1  0.911200  0.381000  0.374700  1
  O  O1706  1  0.088800  0.619000  0.874700  1
  O  O1707  1  0.119000  0.411200  0.624700  1
  O  O1708  1  0.881000  0.588800  0.124700  1
  O  O1709  1  0.588800  0.881000  0.875300  1
  O  O1710  1  0.411200  0.119000  0.375300  1
  O  O1711  1  0.381000  0.911200  0.625300  1
  O  O1712  1  0.619000  0.088800  0.125300  1
  O  O1713  1  0.898400  0.995300  0.408700  1
  O  O1714  1  0.101600  0.004700  0.908700  1
  O  O1715  1  0.504700  0.398400  0.658700  1
  O  O1716  1  0.495300  0.601600  0.158700  1
  O  O1717  1  0.601600  0.495300  0.841300  1
  O  O1718  1  0.398400  0.504700  0.341300  1
  O  O1719  1  0.995300  0.898400  0.591300  1
  O  O1720  1  0.004700  0.101600  0.091300  1
  O  O1721  1  0.883300  0.055400  0.440500  1
  O  O1722  1  0.116700  0.944600  0.940500  1
  O  O1723  1  0.444600  0.383300  0.690500  1
  O  O1724  1  0.555400  0.616700  0.190500  1
  O  O1725  1  0.616700  0.555400  0.809500  1
  O  O1726  1  0.383300  0.444600  0.309500  1
  O  O1727  1  0.055400  0.883300  0.559500  1
  O  O1728  1  0.944600  0.116700  0.059500  1
  O  O1729  1  0.960000  0.048600  0.415800  1
  O  O1730  1  0.040000  0.951400  0.915800  1
  O  O1731  1  0.451400  0.460000  0.665800  1
  O  O1732  1  0.548600  0.540000  0.165800  1
  O  O1733  1  0.540000  0.548600  0.834200  1
  O  O1734  1  0.460000  0.451400  0.334200  1
  O  O1735  1  0.048600  0.960000  0.584200  1
  O  O1736  1  0.951400  0.040000  0.084200  1
  O  O1737  1  0.595900  0.427000  0.469800  1
  O  O1738  1  0.404100  0.573000  0.969800  1
  O  O1739  1  0.073000  0.095900  0.719800  1
  O  O1740  1  0.927000  0.904100  0.219800  1
  O  O1741  1  0.904100  0.927000  0.780200  1
  O  O1742  1  0.095900  0.073000  0.280200  1
  O  O1743  1  0.427000  0.595900  0.530200  1
  O  O1744  1  0.573000  0.404100  0.030200  1
  O  O1745  1  0.534100  0.397200  0.452200  1
  O  O1746  1  0.465900  0.602800  0.952200  1
  O  O1747  1  0.102800  0.034100  0.702200  1
  O  O1748  1  0.897200  0.965900  0.202200  1
  O  O1749  1  0.965900  0.897200  0.797800  1
  O  O1750  1  0.034100  0.102800  0.297800  1
  O  O1751  1  0.397200  0.534100  0.547800  1
  O  O1752  1  0.602800  0.465900  0.047800  1
  O  O1753  1  0.558100  0.455000  0.417800  1
  O  O1754  1  0.441900  0.545000  0.917800  1
  O  O1755  1  0.045000  0.058100  0.667800  1
  O  O1756  1  0.955000  0.941900  0.167800  1
  O  O1757  1  0.941900  0.955000  0.832200  1
  O  O1758  1  0.058100  0.045000  0.332200  1
  O  O1759  1  0.455000  0.558100  0.582200  1
  O  O1760  1  0.545000  0.441900  0.082200  1
  O  O1761  1  0.258900  0.436500  0.840000  1
  O  O1762  1  0.741100  0.563500  0.340000  1
  O  O1763  1  0.063500  0.758900  0.090000  1
  O  O1764  1  0.936500  0.241100  0.590000  1
  O  O1765  1  0.241100  0.936500  0.410000  1
  O  O1766  1  0.758900  0.063500  0.910000  1
  O  O1767  1  0.436500  0.258900  0.160000  1
  O  O1768  1  0.563500  0.741100  0.660000  1
  O  O1769  1  0.908900  0.112600  0.612900  1
  O  O1770  1  0.091100  0.887400  0.112900  1
  O  O1771  1  0.387400  0.408900  0.862900  1
  O  O1772  1  0.612600  0.591100  0.362900  1
  O  O1773  1  0.591100  0.612600  0.637100  1
  O  O1774  1  0.408900  0.387400  0.137100  1
  O  O1775  1  0.112600  0.908900  0.387100  1
  O  O1776  1  0.887400  0.091100  0.887100  1
  O  O1777  1  0.895000  0.161700  0.551500  1
  O  O1778  1  0.105000  0.838300  0.051500  1
  O  O1779  1  0.338300  0.395000  0.801500  1
  O  O1780  1  0.661700  0.605000  0.301500  1
  O  O1781  1  0.605000  0.661700  0.698500  1
  O  O1782  1  0.395000  0.338300  0.198500  1
  O  O1783  1  0.161700  0.895000  0.448500  1
  O  O1784  1  0.838300  0.105000  0.948500  1
  O  O1785  1  0.949800  0.205200  0.414000  1
  O  O1786  1  0.050200  0.794800  0.914000  1
  O  O1787  1  0.294800  0.449800  0.664000  1
  O  O1788  1  0.705200  0.550200  0.164000  1
  O  O1789  1  0.550200  0.705200  0.836000  1
  O  O1790  1  0.449800  0.294800  0.336000  1
  O  O1791  1  0.205200  0.949800  0.586000  1
  O  O1792  1  0.794800  0.050200  0.086000  1
  O  O1793  1  0.998100  0.273000  0.754900  1
  O  O1794  1  0.001900  0.727000  0.254900  1
  O  O1795  1  0.227000  0.498100  0.004900  1
  O  O1796  1  0.773000  0.501900  0.504900  1
  O  O1797  1  0.501900  0.773000  0.495100  1
  O  O1798  1  0.498100  0.227000  0.995100  1
  O  O1799  1  0.273000  0.998100  0.245100  1
  O  O1800  1  0.727000  0.001900  0.745100  1
  O  O1801  1  0.352300  0.392800  0.979000  1
  O  O1802  1  0.647700  0.607200  0.479000  1
  O  O1803  1  0.107200  0.852300  0.229000  1
  O  O1804  1  0.892800  0.147700  0.729000  1
  O  O1805  1  0.147700  0.892800  0.271000  1
  O  O1806  1  0.852300  0.107200  0.771000  1
  O  O1807  1  0.392800  0.352300  0.021000  1
  O  O1808  1  0.607200  0.647700  0.521000  1
  O  O1809  1  0.971000  0.244700  0.666300  1
  O  O1810  1  0.029000  0.755300  0.166300  1
  O  O1811  1  0.255300  0.471000  0.916300  1
  O  O1812  1  0.744700  0.529000  0.416300  1
  O  O1813  1  0.529000  0.744700  0.583700  1
  O  O1814  1  0.471000  0.255300  0.083700  1
  O  O1815  1  0.244700  0.971000  0.333700  1
  O  O1816  1  0.755300  0.029000  0.833700  1
  O  O1817  1  0.149700  0.502900  0.320700  1
  O  O1818  1  0.850300  0.497100  0.820700  1
  O  O1819  1  0.997100  0.649700  0.570700  1
  O  O1820  1  0.002900  0.350300  0.070700  1
  O  O1821  1  0.350300  0.002900  0.929300  1
  O  O1822  1  0.649700  0.997100  0.429300  1
  O  O1823  1  0.502900  0.149700  0.679300  1
  O  O1824  1  0.497100  0.850300  0.179300  1
  O  O1825  1  0.110000  0.611000  0.384200  1
  O  O1826  1  0.890000  0.389000  0.884200  1
  O  O1827  1  0.889000  0.610000  0.634200  1
  O  O1828  1  0.111000  0.390000  0.134200  1
  O  O1829  1  0.390000  0.111000  0.865800  1
  O  O1830  1  0.610000  0.889000  0.365800  1
  O  O1831  1  0.611000  0.110000  0.615800  1
  O  O1832  1  0.389000  0.890000  0.115800  1
  O  O1833  1  0.080100  0.674000  0.370100  1
  O  O1834  1  0.919900  0.326000  0.870100  1
  O  O1835  1  0.826000  0.580100  0.620100  1
  O  O1836  1  0.174000  0.419900  0.120100  1
  O  O1837  1  0.419900  0.174000  0.879900  1
  O  O1838  1  0.580100  0.826000  0.379900  1
  O  O1839  1  0.674000  0.080100  0.629900  1
  O  O1840  1  0.326000  0.919900  0.129900  1
  O  O1841  1  0.967500  0.251500  0.908600  1
  O  O1842  1  0.032500  0.748500  0.408600  1
  O  O1843  1  0.248500  0.467500  0.158600  1
  O  O1844  1  0.751500  0.532500  0.658600  1
  O  O1845  1  0.532500  0.751500  0.341400  1
  O  O1846  1  0.467500  0.248500  0.841400  1
  O  O1847  1  0.251500  0.967500  0.091400  1
  O  O1848  1  0.748500  0.032500  0.591400  1
  O  O1849  1  0.024900  0.264300  0.963600  1
  O  O1850  1  0.975100  0.735700  0.463600  1
  O  O1851  1  0.235700  0.524900  0.213600  1
  O  O1852  1  0.764300  0.475100  0.713600  1
  O  O1853  1  0.475100  0.764300  0.286400  1
  O  O1854  1  0.524900  0.235700  0.786400  1
  O  O1855  1  0.264300  0.024900  0.036400  1
  O  O1856  1  0.735700  0.975100  0.536400  1
  O  O1857  1  0.252000  0.185000  0.862000  1
  O  O1858  1  0.748000  0.815000  0.362000  1
  O  O1859  1  0.315000  0.752000  0.112000  1
  O  O1860  1  0.685000  0.248000  0.612000  1
  O  O1861  1  0.248000  0.685000  0.388000  1
  O  O1862  1  0.752000  0.315000  0.888000  1
  O  O1863  1  0.185000  0.252000  0.138000  1
  O  O1864  1  0.815000  0.748000  0.638000  1
  O  O1865  1  0.139000  0.550000  0.250400  1
  O  O1866  1  0.861000  0.450000  0.750400  1
  O  O1867  1  0.950000  0.639000  0.500400  1
  O  O1868  1  0.050000  0.361000  0.000400  1
  O  O1869  1  0.361000  0.050000  0.999600  1
  O  O1870  1  0.639000  0.950000  0.499600  1
  O  O1871  1  0.550000  0.139000  0.749600  1
  O  O1872  1  0.450000  0.861000  0.249600  1
  O  O1873  1  0.107600  0.617400  0.247100  1
  O  O1874  1  0.892400  0.382600  0.747100  1
  O  O1875  1  0.882600  0.607600  0.497100  1
  O  O1876  1  0.117400  0.392400  0.997100  1
  O  O1877  1  0.392400  0.117400  0.002900  1
  O  O1878  1  0.607600  0.882600  0.502900  1
  O  O1879  1  0.617400  0.107600  0.752900  1
  O  O1880  1  0.382600  0.892400  0.252900  1
  O  O1881  1  0.408800  0.203300  0.326800  1
  O  O1882  1  0.591200  0.796700  0.826800  1
  O  O1883  1  0.296700  0.908800  0.576800  1
  O  O1884  1  0.703300  0.091200  0.076800  1
  O  O1885  1  0.091200  0.703300  0.923200  1
  O  O1886  1  0.908800  0.296700  0.423200  1
  O  O1887  1  0.203300  0.408800  0.673200  1
  O  O1888  1  0.796700  0.591200  0.173200  1
  O  O1889  1  0.622300  0.172800  0.481700  1
  O  O1890  1  0.377700  0.827200  0.981700  1
  O  O1891  1  0.327200  0.122300  0.731700  1
  O  O1892  1  0.672800  0.877700  0.231700  1
  O  O1893  1  0.877700  0.672800  0.768300  1
  O  O1894  1  0.122300  0.327200  0.268300  1
  O  O1895  1  0.172800  0.622300  0.518300  1
  O  O1896  1  0.827200  0.377700  0.018300  1
  O  O1897  1  0.711800  0.509600  0.603600  1
  O  O1898  1  0.288200  0.490400  0.103600  1
  O  O1899  1  0.990400  0.211800  0.853600  1
  O  O1900  1  0.009600  0.788200  0.353600  1
  O  O1901  1  0.788200  0.009600  0.646400  1
  O  O1902  1  0.211800  0.990400  0.146400  1
  O  O1903  1  0.509600  0.711800  0.396400  1
  O  O1904  1  0.490400  0.288200  0.896400  1
  O  O1905  1  0.656300  0.559000  0.422100  1
  O  O1906  1  0.343700  0.441000  0.922100  1
  O  O1907  1  0.941000  0.156300  0.672100  1
  O  O1908  1  0.059000  0.843700  0.172100  1
  O  O1909  1  0.843700  0.059000  0.827900  1
  O  O1910  1  0.156300  0.941000  0.327900  1
  O  O1911  1  0.559000  0.656300  0.577900  1
  O  O1912  1  0.441000  0.343700  0.077900  1
  O  O1913  1  0.679200  0.589700  0.613600  1
  O  O1914  1  0.320800  0.410300  0.113600  1
  O  O1915  1  0.910300  0.179200  0.863600  1
  O  O1916  1  0.089700  0.820800  0.363600  1
  O  O1917  1  0.820800  0.089700  0.636400  1
  O  O1918  1  0.179200  0.910300  0.136400  1
  O  O1919  1  0.589700  0.679200  0.386400  1
  O  O1920  1  0.410300  0.320800  0.886400  1
  O  O1921  1  0.411400  0.360700  0.286900  1
  O  O1922  1  0.588600  0.639300  0.786900  1
  O  O1923  1  0.139300  0.911400  0.536900  1
  O  O1924  1  0.860700  0.088600  0.036900  1
  O  O1925  1  0.088600  0.860700  0.963100  1
  O  O1926  1  0.911400  0.139300  0.463100  1
  O  O1927  1  0.360700  0.411400  0.713100  1
  O  O1928  1  0.639300  0.588600  0.213100  1
  O  O1929  1  0.301400  0.356200  0.193300  1
  O  O1930  1  0.698600  0.643800  0.693300  1
  O  O1931  1  0.143800  0.801400  0.443300  1
  O  O1932  1  0.856200  0.198600  0.943300  1
  O  O1933  1  0.198600  0.856200  0.056700  1
  O  O1934  1  0.801400  0.143800  0.556700  1
  O  O1935  1  0.356200  0.301400  0.806700  1
  O  O1936  1  0.643800  0.698600  0.306700  1
  O  O1937  1  0.361600  0.029100  0.726800  1
  O  O1938  1  0.638400  0.970900  0.226800  1
  O  O1939  1  0.470900  0.861600  0.976800  1
  O  O1940  1  0.529100  0.138400  0.476800  1
  O  O1941  1  0.138400  0.529100  0.523200  1
  O  O1942  1  0.861600  0.470900  0.023200  1
  O  O1943  1  0.029100  0.361600  0.273200  1
  O  O1944  1  0.970900  0.638400  0.773200  1
  O  O1945  1  0.832200  0.561100  0.534400  1
  O  O1946  1  0.167800  0.438900  0.034400  1
  O  O1947  1  0.938900  0.332200  0.784400  1
  O  O1948  1  0.061100  0.667800  0.284400  1
  O  O1949  1  0.667800  0.061100  0.715600  1
  O  O1950  1  0.332200  0.938900  0.215600  1
  O  O1951  1  0.561100  0.832200  0.465600  1
  O  O1952  1  0.438900  0.167800  0.965600  1
  O  O1953  1  0.768800  0.658200  0.537100  1
  O  O1954  1  0.231200  0.341800  0.037100  1
  O  O1955  1  0.841800  0.268800  0.787100  1
  O  O1956  1  0.158200  0.731200  0.287100  1
  O  O1957  1  0.731200  0.158200  0.712900  1
  O  O1958  1  0.268800  0.841800  0.212900  1
  O  O1959  1  0.658200  0.768800  0.462900  1
  O  O1960  1  0.341800  0.231200  0.962900  1
  O  O1961  1  0.669800  0.317600  0.552300  1
  O  O1962  1  0.330200  0.682400  0.052300  1
  O  O1963  1  0.182400  0.169800  0.802300  1
  O  O1964  1  0.817600  0.830200  0.302300  1
  O  O1965  1  0.830200  0.817600  0.697700  1
  O  O1966  1  0.169800  0.182400  0.197700  1
  O  O1967  1  0.317600  0.669800  0.447700  1
  O  O1968  1  0.682400  0.330200  0.947700  1
  O  O1969  1  0.296700  0.463600  0.309400  1
  O  O1970  1  0.703300  0.536400  0.809400  1
  O  O1971  1  0.036400  0.796700  0.559400  1
  O  O1972  1  0.963600  0.203300  0.059400  1
  O  O1973  1  0.203300  0.963600  0.940600  1
  O  O1974  1  0.796700  0.036400  0.440600  1
  O  O1975  1  0.463600  0.296700  0.690600  1
  O  O1976  1  0.536400  0.703300  0.190600  1
  O  O1977  1  0.692300  0.608600  0.538500  1
  O  O1978  1  0.307700  0.391400  0.038500  1
  O  O1979  1  0.891400  0.192300  0.788500  1
  O  O1980  1  0.108600  0.807700  0.288500  1
  O  O1981  1  0.807700  0.108600  0.711500  1
  O  O1982  1  0.192300  0.891400  0.211500  1
  O  O1983  1  0.608600  0.692300  0.461500  1
  O  O1984  1  0.391400  0.307700  0.961500  1
  O  O1985  1  0.663600  0.083900  0.485600  1
  O  O1986  1  0.336400  0.916100  0.985600  1
  O  O1987  1  0.416100  0.163600  0.735600  1
  O  O1988  1  0.583900  0.836400  0.235600  1
  O  O1989  1  0.836400  0.583900  0.764400  1
  O  O1990  1  0.163600  0.416100  0.264400  1
  O  O1991  1  0.083900  0.663600  0.514400  1
  O  O1992  1  0.916100  0.336400  0.014400  1
  O  O1993  1  0.594400  0.348100  0.540400  1
  O  O1994  1  0.405600  0.651900  0.040400  1
  O  O1995  1  0.151900  0.094400  0.790400  1
  O  O1996  1  0.848100  0.905600  0.290400  1
  O  O1997  1  0.905600  0.848100  0.709600  1
  O  O1998  1  0.094400  0.151900  0.209600  1
  O  O1999  1  0.348100  0.594400  0.459600  1
  O  O2000  1  0.651900  0.405600  0.959600  1
  O  O2001  1  0.636800  0.522600  0.438600  1
  O  O2002  1  0.363200  0.477400  0.938600  1
  O  O2003  1  0.977400  0.136800  0.688600  1
  O  O2004  1  0.022600  0.863200  0.188600  1
  O  O2005  1  0.863200  0.022600  0.811400  1
  O  O2006  1  0.136800  0.977400  0.311400  1
  O  O2007  1  0.522600  0.636800  0.561400  1
  O  O2008  1  0.477400  0.363200  0.061400  1
  O  O2009  1  0.703600  0.382500  0.627500  1
  O  O2010  1  0.296400  0.617500  0.127500  1
  O  O2011  1  0.117500  0.203600  0.877500  1
  O  O2012  1  0.882500  0.796400  0.377500  1
  O  O2013  1  0.796400  0.882500  0.622500  1
  O  O2014  1  0.203600  0.117500  0.122500  1
  O  O2015  1  0.382500  0.703600  0.372500  1
  O  O2016  1  0.617500  0.296400  0.872500  1
  O  O2017  1  0.276300  0.425500  0.265700  1
  O  O2018  1  0.723700  0.574500  0.765700  1
  O  O2019  1  0.074500  0.776300  0.515700  1
  O  O2020  1  0.925500  0.223700  0.015700  1
  O  O2021  1  0.223700  0.925500  0.984300  1
  O  O2022  1  0.776300  0.074500  0.484300  1
  O  O2023  1  0.425500  0.276300  0.734300  1
  O  O2024  1  0.574500  0.723700  0.234300  1
  O  O2025  1  0.696500  0.326500  0.576800  1
  O  O2026  1  0.303500  0.673500  0.076800  1
  O  O2027  1  0.173500  0.196500  0.826800  1
  O  O2028  1  0.826500  0.803500  0.326800  1
  O  O2029  1  0.803500  0.826500  0.673200  1
  O  O2030  1  0.196500  0.173500  0.173200  1
  O  O2031  1  0.326500  0.696500  0.423200  1
  O  O2032  1  0.673500  0.303500  0.923200  1
  O  O2033  1  0.102400  0.191000  0.446000  1.0
  O  O2034  1  0.897600  0.809000  0.946000  1.0
  O  O2035  1  0.309000  0.602400  0.696000  1.0
  O  O2036  1  0.691000  0.397600  0.196000  1.0
  O  O2037  1  0.397600  0.691000  0.804000  1.0
  O  O2038  1  0.602400  0.309000  0.304000  1.0
  O  O2039  1  0.191000  0.102400  0.554000  1.0
  O  O2040  1  0.809000  0.897600  0.054000  1.0
  O  O2041  1  0.105000  0.283000  0.437600  1.0
  O  O2042  1  0.895000  0.717000  0.937600  1.0
  O  O2043  1  0.217000  0.605000  0.687600  1.0
  O  O2044  1  0.783000  0.395000  0.187600  1.0
  O  O2045  1  0.395000  0.783000  0.812400  1.0
  O  O2046  1  0.605000  0.217000  0.312400  1.0
  O  O2047  1  0.283000  0.105000  0.562400  1.0
  O  O2048  1  0.717000  0.895000  0.062400  1.0
  O  O2049  1  0.321400  0.238900  0.528200  1.0
  O  O2050  1  0.678600  0.761100  0.028200  1.0
  O  O2051  1  0.261100  0.821400  0.778200  1.0
  O  O2052  1  0.738900  0.178600  0.278200  1.0
  O  O2053  1  0.178600  0.738900  0.721800  1.0
  O  O2054  1  0.821400  0.261100  0.221800  1.0
  O  O2055  1  0.238900  0.321400  0.471800  1.0
  O  O2056  1  0.761100  0.678600  0.971800  1.0
  O  O2057  1  0.182000  0.214000  0.403000  1.0
  O  O2058  1  0.818000  0.786000  0.903000  1.0
  O  O2059  1  0.286000  0.682000  0.653000  1.0
  O  O2060  1  0.714000  0.318000  0.153000  1.0
  O  O2061  1  0.318000  0.714000  0.847000  1.0
  O  O2062  1  0.682000  0.286000  0.347000  1.0
  O  O2063  1  0.214000  0.182000  0.597000  1.0
  O  O2064  1  0.786000  0.818000  0.097000  1.0
  O  O2065  1  0.318000  0.188000  0.479000  1.0
  O  O2066  1  0.682000  0.812000  0.979000  1.0
  O  O2067  1  0.312000  0.818000  0.729000  1.0
  O  O2068  1  0.688000  0.182000  0.229000  1.0
  O  O2069  1  0.182000  0.688000  0.771000  1.0
  O  O2070  1  0.818000  0.312000  0.271000  1.0
  O  O2071  1  0.188000  0.318000  0.521000  1.0
  O  O2072  1  0.812000  0.682000  0.021000  1.0
