# generated using pymatgen
data_H216Pd12C264N102O235
_symmetry_space_group_name_H-M   'P 1'
_cell_length_a   27.55420000
_cell_length_b   27.55420000
_cell_length_c   33.88100000
_cell_angle_alpha   90.00000000
_cell_angle_beta   90.00000000
_cell_angle_gamma   120.00000000
_symmetry_Int_Tables_number   1
_chemical_formula_structural   H216Pd12C264N102O235
_chemical_formula_sum   'H432 Pd24 C528 N204 O470'
_cell_volume   22277.29544258
_cell_formula_units_Z   2
loop_
 _symmetry_equiv_pos_site_id
 _symmetry_equiv_pos_as_xyz
  1  'x, y, z'
loop_
 _atom_site_type_symbol
 _atom_site_label
 _atom_site_symmetry_multiplicity
 _atom_site_fract_x
 _atom_site_fract_y
 _atom_site_fract_z
 _atom_site_occupancy
  H  H1  1  0.613100  0.716900  0.797200  1
  H  H2  1  0.103800  0.386900  0.797200  1
  H  H3  1  0.283100  0.896200  0.797200  1
  H  H4  1  0.896200  0.283100  0.702800  1
  H  H5  1  0.716900  0.613100  0.702800  1
  H  H6  1  0.386900  0.103800  0.702800  1
  H  H7  1  0.386900  0.283100  0.202800  1
  H  H8  1  0.896200  0.613100  0.202800  1
  H  H9  1  0.716900  0.103800  0.202800  1
  H  H10  1  0.103800  0.716900  0.297200  1
  H  H11  1  0.283100  0.386900  0.297200  1
  H  H12  1  0.613100  0.896200  0.297200  1
  H  H13  1  0.644900  0.773600  0.822600  1
  H  H14  1  0.128700  0.355100  0.822600  1
  H  H15  1  0.226400  0.871300  0.822600  1
  H  H16  1  0.871300  0.226400  0.677400  1
  H  H17  1  0.773600  0.644900  0.677400  1
  H  H18  1  0.355100  0.128700  0.677400  1
  H  H19  1  0.355100  0.226400  0.177400  1
  H  H20  1  0.871300  0.644900  0.177400  1
  H  H21  1  0.773600  0.128700  0.177400  1
  H  H22  1  0.128700  0.773600  0.322600  1
  H  H23  1  0.226400  0.355100  0.322600  1
  H  H24  1  0.644900  0.871300  0.322600  1
  H  H25  1  0.282000  0.894900  0.797000  1.0
  H  H26  1  0.612900  0.718000  0.797000  1.0
  H  H27  1  0.105100  0.387100  0.797000  1.0
  H  H28  1  0.387100  0.105100  0.703000  1.0
  H  H29  1  0.894900  0.282000  0.703000  1.0
  H  H30  1  0.718000  0.612900  0.703000  1.0
  H  H31  1  0.718000  0.105100  0.203000  1.0
  H  H32  1  0.387100  0.282000  0.203000  1.0
  H  H33  1  0.894900  0.612900  0.203000  1.0
  H  H34  1  0.612900  0.894900  0.297000  1.0
  H  H35  1  0.105100  0.718000  0.297000  1.0
  H  H36  1  0.282000  0.387100  0.297000  1.0
  H  H37  1  0.303200  0.853000  0.783200  1.0
  H  H38  1  0.549800  0.696800  0.783200  1.0
  H  H39  1  0.147000  0.450200  0.783200  1.0
  H  H40  1  0.450200  0.147000  0.716800  1.0
  H  H41  1  0.853000  0.303200  0.716800  1.0
  H  H42  1  0.696800  0.549800  0.716800  1.0
  H  H43  1  0.696800  0.147000  0.216800  1.0
  H  H44  1  0.450200  0.303200  0.216800  1.0
  H  H45  1  0.853000  0.549800  0.216800  1.0
  H  H46  1  0.549800  0.853000  0.283200  1.0
  H  H47  1  0.147000  0.696800  0.283200  1.0
  H  H48  1  0.303200  0.450200  0.283200  1.0
  H  H49  1  0.295600  0.896200  0.732800  1.0
  H  H50  1  0.600600  0.704400  0.732800  1.0
  H  H51  1  0.103800  0.399400  0.732800  1.0
  H  H52  1  0.399400  0.103800  0.767200  1.0
  H  H53  1  0.896200  0.295600  0.767200  1.0
  H  H54  1  0.704400  0.600600  0.767200  1.0
  H  H55  1  0.704400  0.103800  0.267200  1.0
  H  H56  1  0.399400  0.295600  0.267200  1.0
  H  H57  1  0.896200  0.600600  0.267200  1.0
  H  H58  1  0.600600  0.896200  0.232800  1.0
  H  H59  1  0.103800  0.704400  0.232800  1.0
  H  H60  1  0.295600  0.399400  0.232800  1.0
  H  H61  1  0.285000  0.909800  0.668100  1.0
  H  H62  1  0.624800  0.715000  0.668100  1.0
  H  H63  1  0.090200  0.375200  0.668100  1.0
  H  H64  1  0.375200  0.090200  0.831900  1.0
  H  H65  1  0.909800  0.285000  0.831900  1.0
  H  H66  1  0.715000  0.624800  0.831900  1.0
  H  H67  1  0.715000  0.090200  0.331900  1.0
  H  H68  1  0.375200  0.285000  0.331900  1.0
  H  H69  1  0.909800  0.624800  0.331900  1.0
  H  H70  1  0.624800  0.909800  0.168100  1.0
  H  H71  1  0.090200  0.715000  0.168100  1.0
  H  H72  1  0.285000  0.375200  0.168100  1.0
  H  H73  1  0.140500  0.773600  0.662700  1.0
  H  H74  1  0.633100  0.859500  0.662700  1.0
  H  H75  1  0.226400  0.366900  0.662700  1.0
  H  H76  1  0.366900  0.226400  0.837300  1.0
  H  H77  1  0.773600  0.140500  0.837300  1.0
  H  H78  1  0.859500  0.633100  0.837300  1.0
  H  H79  1  0.859500  0.226400  0.337300  1.0
  H  H80  1  0.366900  0.140500  0.337300  1.0
  H  H81  1  0.773600  0.633100  0.337300  1.0
  H  H82  1  0.633100  0.773600  0.162700  1.0
  H  H83  1  0.226400  0.859500  0.162700  1.0
  H  H84  1  0.140500  0.366900  0.162700  1.0
  H  H85  1  0.143100  0.760300  0.729700  1.0
  H  H86  1  0.617200  0.856900  0.729700  1.0
  H  H87  1  0.239700  0.382800  0.729700  1.0
  H  H88  1  0.382800  0.239700  0.770300  1.0
  H  H89  1  0.760300  0.143100  0.770300  1.0
  H  H90  1  0.856900  0.617200  0.770300  1.0
  H  H91  1  0.856900  0.239700  0.270300  1.0
  H  H92  1  0.382800  0.143100  0.270300  1.0
  H  H93  1  0.760300  0.617200  0.270300  1.0
  H  H94  1  0.617200  0.760300  0.229700  1.0
  H  H95  1  0.239700  0.856900  0.229700  1.0
  H  H96  1  0.143100  0.382800  0.229700  1.0
  H  H97  1  0.367800  0.928800  0.812500  1.0
  H  H98  1  0.561000  0.632200  0.812500  1.0
  H  H99  1  0.071200  0.439000  0.812500  1.0
  H  H100  1  0.439000  0.071200  0.687500  1.0
  H  H101  1  0.928800  0.367800  0.687500  1.0
  H  H102  1  0.632200  0.561000  0.687500  1.0
  H  H103  1  0.632200  0.071200  0.187500  1.0
  H  H104  1  0.439000  0.367800  0.187500  1.0
  H  H105  1  0.928800  0.561000  0.187500  1.0
  H  H106  1  0.561000  0.928800  0.312500  1.0
  H  H107  1  0.071200  0.632200  0.312500  1.0
  H  H108  1  0.367800  0.439000  0.312500  1.0
  H  H109  1  0.451300  0.976600  0.841800  1.0
  H  H110  1  0.525300  0.548700  0.841800  1.0
  H  H111  1  0.023400  0.474700  0.841800  1.0
  H  H112  1  0.474700  0.023400  0.658200  1.0
  H  H113  1  0.976600  0.451300  0.658200  1.0
  H  H114  1  0.548700  0.525300  0.658200  1.0
  H  H115  1  0.548700  0.023400  0.158200  1.0
  H  H116  1  0.474700  0.451300  0.158200  1.0
  H  H117  1  0.976600  0.525300  0.158200  1.0
  H  H118  1  0.525300  0.976600  0.341800  1.0
  H  H119  1  0.023400  0.548700  0.341800  1.0
  H  H120  1  0.451300  0.474700  0.341800  1.0
  H  H121  1  0.404200  0.875100  0.929900  1.0
  H  H122  1  0.470900  0.595800  0.929900  1.0
  H  H123  1  0.124900  0.529100  0.929900  1.0
  H  H124  1  0.529100  0.124900  0.570100  1.0
  H  H125  1  0.875100  0.404200  0.570100  1.0
  H  H126  1  0.595800  0.470900  0.570100  1.0
  H  H127  1  0.595800  0.124900  0.070100  1.0
  H  H128  1  0.529100  0.404200  0.070100  1.0
  H  H129  1  0.875100  0.470900  0.070100  1.0
  H  H130  1  0.470900  0.875100  0.429900  1.0
  H  H131  1  0.124900  0.595800  0.429900  1.0
  H  H132  1  0.404200  0.529100  0.429900  1.0
  H  H133  1  0.314300  0.824800  0.905300  1.0
  H  H134  1  0.510500  0.685700  0.905300  1.0
  H  H135  1  0.175200  0.489500  0.905300  1.0
  H  H136  1  0.489500  0.175200  0.594700  1.0
  H  H137  1  0.824800  0.314300  0.594700  1.0
  H  H138  1  0.685700  0.510500  0.594700  1.0
  H  H139  1  0.685700  0.175200  0.094700  1.0
  H  H140  1  0.489500  0.314300  0.094700  1.0
  H  H141  1  0.824800  0.510500  0.094700  1.0
  H  H142  1  0.510500  0.824800  0.405300  1.0
  H  H143  1  0.175200  0.685700  0.405300  1.0
  H  H144  1  0.314300  0.489500  0.405300  1.0
  H  H145  1  0.192500  0.721500  0.903600  1.0
  H  H146  1  0.529000  0.807500  0.903600  1.0
  H  H147  1  0.278500  0.471000  0.903600  1.0
  H  H148  1  0.471000  0.278500  0.596400  1.0
  H  H149  1  0.721500  0.192500  0.596400  1.0
  H  H150  1  0.807500  0.529000  0.596400  1.0
  H  H151  1  0.807500  0.278500  0.096400  1.0
  H  H152  1  0.471000  0.192500  0.096400  1.0
  H  H153  1  0.721500  0.529000  0.096400  1.0
  H  H154  1  0.529000  0.721500  0.403600  1.0
  H  H155  1  0.278500  0.807500  0.403600  1.0
  H  H156  1  0.192500  0.471000  0.403600  1.0
  H  H157  1  0.136200  0.635400  0.927800  1.0
  H  H158  1  0.499200  0.863800  0.927800  1.0
  H  H159  1  0.364600  0.500800  0.927800  1.0
  H  H160  1  0.500800  0.364600  0.572200  1.0
  H  H161  1  0.635400  0.136200  0.572200  1.0
  H  H162  1  0.863800  0.499200  0.572200  1.0
  H  H163  1  0.863800  0.364600  0.072200  1.0
  H  H164  1  0.500800  0.136200  0.072200  1.0
  H  H165  1  0.635400  0.499200  0.072200  1.0
  H  H166  1  0.499200  0.635400  0.427800  1.0
  H  H167  1  0.364600  0.863800  0.427800  1.0
  H  H168  1  0.136200  0.500800  0.427800  1.0
  H  H169  1  0.565000  0.969700  0.842300  1.0
  H  H170  1  0.404700  0.435000  0.842300  1.0
  H  H171  1  0.030300  0.595300  0.842300  1.0
  H  H172  1  0.595300  0.030300  0.657700  1.0
  H  H173  1  0.969700  0.565000  0.657700  1.0
  H  H174  1  0.435000  0.404700  0.657700  1.0
  H  H175  1  0.435000  0.030300  0.157700  1.0
  H  H176  1  0.595300  0.565000  0.157700  1.0
  H  H177  1  0.969700  0.404700  0.157700  1.0
  H  H178  1  0.404700  0.969700  0.342300  1.0
  H  H179  1  0.030300  0.435000  0.342300  1.0
  H  H180  1  0.565000  0.595300  0.342300  1.0
  H  H181  1  0.094700  0.675700  0.807200  1.0
  H  H182  1  0.581000  0.905300  0.807200  1.0
  H  H183  1  0.324300  0.419000  0.807200  1.0
  H  H184  1  0.419000  0.324300  0.692800  1.0
  H  H185  1  0.675700  0.094700  0.692800  1.0
  H  H186  1  0.905300  0.581000  0.692800  1.0
  H  H187  1  0.905300  0.324300  0.192800  1.0
  H  H188  1  0.419000  0.094700  0.192800  1.0
  H  H189  1  0.675700  0.581000  0.192800  1.0
  H  H190  1  0.581000  0.675700  0.307200  1.0
  H  H191  1  0.324300  0.905300  0.307200  1.0
  H  H192  1  0.094700  0.419000  0.307200  1.0
  H  H193  1  0.621200  0.979700  0.927300  1.0
  H  H194  1  0.358500  0.378800  0.927300  1.0
  H  H195  1  0.020300  0.641500  0.927300  1.0
  H  H196  1  0.641500  0.020300  0.572700  1.0
  H  H197  1  0.979700  0.621200  0.572700  1.0
  H  H198  1  0.378800  0.358500  0.572700  1.0
  H  H199  1  0.378800  0.020300  0.072700  1.0
  H  H200  1  0.641500  0.621200  0.072700  1.0
  H  H201  1  0.979700  0.358500  0.072700  1.0
  H  H202  1  0.358500  0.979700  0.427300  1.0
  H  H203  1  0.020300  0.378800  0.427300  1.0
  H  H204  1  0.621200  0.641500  0.427300  1.0
  H  H205  1  0.708600  0.037900  0.961400  1.0
  H  H206  1  0.329300  0.291400  0.961400  1.0
  H  H207  1  0.962100  0.670700  0.961400  1.0
  H  H208  1  0.670700  0.962100  0.538600  1.0
  H  H209  1  0.037900  0.708600  0.538600  1.0
  H  H210  1  0.291400  0.329300  0.538600  1.0
  H  H211  1  0.291400  0.962100  0.038600  1.0
  H  H212  1  0.670700  0.708600  0.038600  1.0
  H  H213  1  0.037900  0.329300  0.038600  1.0
  H  H214  1  0.329300  0.037900  0.461400  1.0
  H  H215  1  0.962100  0.291400  0.461400  1.0
  H  H216  1  0.708600  0.670700  0.461400  1.0
  H  H217  1  0.707100  0.113300  0.997400  1.0
  H  H218  1  0.406200  0.292900  0.997400  1.0
  H  H219  1  0.886700  0.593800  0.997400  1.0
  H  H220  1  0.593800  0.886700  0.502600  1.0
  H  H221  1  0.113300  0.707100  0.502600  1.0
  H  H222  1  0.292900  0.406200  0.502600  1.0
  H  H223  1  0.292900  0.886700  0.002600  1.0
  H  H224  1  0.593800  0.707100  0.002600  1.0
  H  H225  1  0.113300  0.406200  0.002600  1.0
  H  H226  1  0.406200  0.113300  0.497400  1.0
  H  H227  1  0.886700  0.292900  0.497400  1.0
  H  H228  1  0.707100  0.593800  0.497400  1.0
  H  H229  1  0.635100  0.127000  0.998600  1.0
  H  H230  1  0.491900  0.364900  0.998600  1.0
  H  H231  1  0.873000  0.508100  0.998600  1.0
  H  H232  1  0.508100  0.873000  0.501400  1.0
  H  H233  1  0.127000  0.635100  0.501400  1.0
  H  H234  1  0.364900  0.491900  0.501400  1.0
  H  H235  1  0.364900  0.873000  0.001400  1.0
  H  H236  1  0.508100  0.635100  0.001400  1.0
  H  H237  1  0.127000  0.491900  0.001400  1.0
  H  H238  1  0.491900  0.127000  0.498600  1.0
  H  H239  1  0.873000  0.364900  0.498600  1.0
  H  H240  1  0.635100  0.508100  0.498600  1.0
  H  H241  1  0.412500  0.989100  0.930700  1.0
  H  H242  1  0.576600  0.587500  0.930700  1.0
  H  H243  1  0.010900  0.423400  0.930700  1.0
  H  H244  1  0.423400  0.010900  0.569300  1.0
  H  H245  1  0.989100  0.412500  0.569300  1.0
  H  H246  1  0.587500  0.576600  0.569300  1.0
  H  H247  1  0.587500  0.010900  0.069300  1.0
  H  H248  1  0.423400  0.412500  0.069300  1.0
  H  H249  1  0.989100  0.576600  0.069300  1.0
  H  H250  1  0.576600  0.989100  0.430700  1.0
  H  H251  1  0.010900  0.587500  0.430700  1.0
  H  H252  1  0.412500  0.423400  0.430700  1.0
  H  H253  1  0.400000  0.061400  0.971700  1.0
  H  H254  1  0.661400  0.600000  0.971700  1.0
  H  H255  1  0.938600  0.338600  0.971700  1.0
  H  H256  1  0.338600  0.938600  0.528300  1.0
  H  H257  1  0.061400  0.400000  0.528300  1.0
  H  H258  1  0.600000  0.661400  0.528300  1.0
  H  H259  1  0.600000  0.938600  0.028300  1.0
  H  H260  1  0.338600  0.400000  0.028300  1.0
  H  H261  1  0.061400  0.661400  0.028300  1.0
  H  H262  1  0.661400  0.061400  0.471700  1.0
  H  H263  1  0.938600  0.600000  0.471700  1.0
  H  H264  1  0.400000  0.338600  0.471700  1.0
  H  H265  1  0.480400  0.126500  0.005500  1.0
  H  H266  1  0.646100  0.519600  0.005500  1.0
  H  H267  1  0.873500  0.353900  0.005500  1.0
  H  H268  1  0.353900  0.873500  0.494500  1.0
  H  H269  1  0.126500  0.480400  0.494500  1.0
  H  H270  1  0.519600  0.646100  0.494500  1.0
  H  H271  1  0.519600  0.873500  0.994500  1.0
  H  H272  1  0.353900  0.480400  0.994500  1.0
  H  H273  1  0.126500  0.646100  0.994500  1.0
  H  H274  1  0.646100  0.126500  0.505500  1.0
  H  H275  1  0.873500  0.519600  0.505500  1.0
  H  H276  1  0.480400  0.353900  0.505500  1.0
  H  H277  1  0.564000  0.129500  0.000200  1.0
  H  H278  1  0.565500  0.436000  0.000200  1.0
  H  H279  1  0.870500  0.434500  0.000200  1.0
  H  H280  1  0.434500  0.870500  0.499800  1.0
  H  H281  1  0.129500  0.564000  0.499800  1.0
  H  H282  1  0.436000  0.565500  0.499800  1.0
  H  H283  1  0.436000  0.870500  0.999800  1.0
  H  H284  1  0.434500  0.564000  0.999800  1.0
  H  H285  1  0.129500  0.565500  0.999800  1.0
  H  H286  1  0.565500  0.129500  0.500200  1.0
  H  H287  1  0.870500  0.436000  0.500200  1.0
  H  H288  1  0.564000  0.434500  0.500200  1.0
  H  H289  1  0.178000  0.909000  0.667900  1.0
  H  H290  1  0.731000  0.822000  0.667900  1.0
  H  H291  1  0.091000  0.269000  0.667900  1.0
  H  H292  1  0.269000  0.091000  0.832100  1.0
  H  H293  1  0.909000  0.178000  0.832100  1.0
  H  H294  1  0.822000  0.731000  0.832100  1.0
  H  H295  1  0.822000  0.091000  0.332100  1.0
  H  H296  1  0.269000  0.178000  0.332100  1.0
  H  H297  1  0.909000  0.731000  0.332100  1.0
  H  H298  1  0.731000  0.909000  0.167900  1.0
  H  H299  1  0.091000  0.822000  0.167900  1.0
  H  H300  1  0.178000  0.269000  0.167900  1.0
  H  H301  1  0.147300  0.976600  0.671500  1.0
  H  H302  1  0.829300  0.852700  0.671500  1.0
  H  H303  1  0.023400  0.170700  0.671500  1.0
  H  H304  1  0.170700  0.023400  0.828500  1.0
  H  H305  1  0.976600  0.147300  0.828500  1.0
  H  H306  1  0.852700  0.829300  0.828500  1.0
  H  H307  1  0.852700  0.023400  0.328500  1.0
  H  H308  1  0.170700  0.147300  0.328500  1.0
  H  H309  1  0.976600  0.829300  0.328500  1.0
  H  H310  1  0.829300  0.976600  0.171500  1.0
  H  H311  1  0.023400  0.852700  0.171500  1.0
  H  H312  1  0.147300  0.170700  0.171500  1.0
  H  H313  1  0.124300  0.004400  0.616000  1.0
  H  H314  1  0.880100  0.875700  0.616000  1.0
  H  H315  1  0.995600  0.119900  0.616000  1.0
  H  H316  1  0.119900  0.995600  0.884000  1.0
  H  H317  1  0.004400  0.124300  0.884000  1.0
  H  H318  1  0.875700  0.880100  0.884000  1.0
  H  H319  1  0.875700  0.995600  0.384000  1.0
  H  H320  1  0.119900  0.124300  0.384000  1.0
  H  H321  1  0.004400  0.880100  0.384000  1.0
  H  H322  1  0.880100  0.004400  0.116000  1.0
  H  H323  1  0.995600  0.875700  0.116000  1.0
  H  H324  1  0.124300  0.119900  0.116000  1.0
  H  H325  1  0.164400  0.006000  0.557600  1.0
  H  H326  1  0.841600  0.835600  0.557600  1.0
  H  H327  1  0.994000  0.158400  0.557600  1.0
  H  H328  1  0.158400  0.994000  0.942400  1.0
  H  H329  1  0.006000  0.164400  0.942400  1.0
  H  H330  1  0.835600  0.841600  0.942400  1.0
  H  H331  1  0.835600  0.994000  0.442400  1.0
  H  H332  1  0.158400  0.164400  0.442400  1.0
  H  H333  1  0.006000  0.841600  0.442400  1.0
  H  H334  1  0.841600  0.006000  0.057600  1.0
  H  H335  1  0.994000  0.835600  0.057600  1.0
  H  H336  1  0.164400  0.158400  0.057600  1.0
  H  H337  1  0.235100  0.825600  0.515500  1.0
  H  H338  1  0.590500  0.764900  0.515500  1.0
  H  H339  1  0.174400  0.409500  0.515500  1.0
  H  H340  1  0.409500  0.174400  0.984500  1.0
  H  H341  1  0.825600  0.235100  0.984500  1.0
  H  H342  1  0.764900  0.590500  0.984500  1.0
  H  H343  1  0.764900  0.174400  0.484500  1.0
  H  H344  1  0.409500  0.235100  0.484500  1.0
  H  H345  1  0.825600  0.590500  0.484500  1.0
  H  H346  1  0.590500  0.825600  0.015500  1.0
  H  H347  1  0.174400  0.764900  0.015500  1.0
  H  H348  1  0.235100  0.409500  0.015500  1.0
  H  H349  1  0.241700  0.865400  0.454700  1.0
  H  H350  1  0.623700  0.758300  0.454700  1.0
  H  H351  1  0.134600  0.376300  0.454700  1.0
  H  H352  1  0.376300  0.134600  0.045300  1.0
  H  H353  1  0.865400  0.241700  0.045300  1.0
  H  H354  1  0.758300  0.623700  0.045300  1.0
  H  H355  1  0.758300  0.134600  0.545300  1.0
  H  H356  1  0.376300  0.241700  0.545300  1.0
  H  H357  1  0.865400  0.623700  0.545300  1.0
  H  H358  1  0.623700  0.865400  0.954700  1.0
  H  H359  1  0.134600  0.758300  0.954700  1.0
  H  H360  1  0.241700  0.376300  0.954700  1.0
  H  H361  1  0.218400  0.933200  0.444100  1.0
  H  H362  1  0.714800  0.781600  0.444100  1.0
  H  H363  1  0.066800  0.285200  0.444100  1.0
  H  H364  1  0.285200  0.066800  0.055900  1.0
  H  H365  1  0.933200  0.218400  0.055900  1.0
  H  H366  1  0.781600  0.714800  0.055900  1.0
  H  H367  1  0.781600  0.066800  0.555900  1.0
  H  H368  1  0.285200  0.218400  0.555900  1.0
  H  H369  1  0.933200  0.714800  0.555900  1.0
  H  H370  1  0.714800  0.933200  0.944100  1.0
  H  H371  1  0.066800  0.781600  0.944100  1.0
  H  H372  1  0.218400  0.285200  0.944100  1.0
  H  H373  1  0.195900  0.971200  0.496900  1.0
  H  H374  1  0.775300  0.804100  0.496900  1.0
  H  H375  1  0.028800  0.224700  0.496900  1.0
  H  H376  1  0.224700  0.028800  0.003100  1.0
  H  H377  1  0.971200  0.195900  0.003100  1.0
  H  H378  1  0.804100  0.775300  0.003100  1.0
  H  H379  1  0.804100  0.028800  0.503100  1.0
  H  H380  1  0.224700  0.195900  0.503100  1.0
  H  H381  1  0.971200  0.775300  0.503100  1.0
  H  H382  1  0.775300  0.971200  0.996900  1.0
  H  H383  1  0.028800  0.804100  0.996900  1.0
  H  H384  1  0.195900  0.224700  0.996900  1.0
  H  H385  1  0.359200  0.809200  0.588000  1.0
  H  H386  1  0.450000  0.640800  0.588000  1.0
  H  H387  1  0.190800  0.550000  0.588000  1.0
  H  H388  1  0.550000  0.190800  0.912000  1.0
  H  H389  1  0.809200  0.359200  0.912000  1.0
  H  H390  1  0.640800  0.450000  0.912000  1.0
  H  H391  1  0.640800  0.190800  0.412000  1.0
  H  H392  1  0.550000  0.359200  0.412000  1.0
  H  H393  1  0.809200  0.450000  0.412000  1.0
  H  H394  1  0.450000  0.809200  0.088000  1.0
  H  H395  1  0.190800  0.640800  0.088000  1.0
  H  H396  1  0.359200  0.550000  0.088000  1.0
  H  H397  1  0.318000  0.861600  0.596500  1.0
  H  H398  1  0.543600  0.682000  0.596500  1.0
  H  H399  1  0.138400  0.456400  0.596500  1.0
  H  H400  1  0.456400  0.138400  0.903500  1.0
  H  H401  1  0.861600  0.318000  0.903500  1.0
  H  H402  1  0.682000  0.543600  0.903500  1.0
  H  H403  1  0.682000  0.138400  0.403500  1.0
  H  H404  1  0.456400  0.318000  0.403500  1.0
  H  H405  1  0.861600  0.543600  0.403500  1.0
  H  H406  1  0.543600  0.861600  0.096500  1.0
  H  H407  1  0.138400  0.682000  0.096500  1.0
  H  H408  1  0.318000  0.456400  0.096500  1.0
  H  H409  1  0.168500  0.735800  0.584500  1.0
  H  H410  1  0.567300  0.831500  0.584500  1.0
  H  H411  1  0.264200  0.432700  0.584500  1.0
  H  H412  1  0.432700  0.264200  0.915500  1.0
  H  H413  1  0.735800  0.168500  0.915500  1.0
  H  H414  1  0.831500  0.567300  0.915500  1.0
  H  H415  1  0.831500  0.264200  0.415500  1.0
  H  H416  1  0.432700  0.168500  0.415500  1.0
  H  H417  1  0.735800  0.567300  0.415500  1.0
  H  H418  1  0.567300  0.735800  0.084500  1.0
  H  H419  1  0.264200  0.831500  0.084500  1.0
  H  H420  1  0.168500  0.432700  0.084500  1.0
  H  H421  1  0.204600  0.675900  0.576700  1.0
  H  H422  1  0.471300  0.795400  0.576700  1.0
  H  H423  1  0.324100  0.528700  0.576700  1.0
  H  H424  1  0.528700  0.324100  0.923300  1.0
  H  H425  1  0.675900  0.204600  0.923300  1.0
  H  H426  1  0.795400  0.471300  0.923300  1.0
  H  H427  1  0.795400  0.324100  0.423300  1.0
  H  H428  1  0.528700  0.204600  0.423300  1.0
  H  H429  1  0.675900  0.471300  0.423300  1.0
  H  H430  1  0.471300  0.675900  0.076700  1.0
  H  H431  1  0.324100  0.795400  0.076700  1.0
  H  H432  1  0.204600  0.528700  0.076700  1.0
  Pd  Pd433  1  0.509460  0.970770  0.915710  1.0
  Pd  Pd434  1  0.461310  0.490540  0.915710  1.0
  Pd  Pd435  1  0.029230  0.538690  0.915710  1.0
  Pd  Pd436  1  0.538690  0.029230  0.584290  1.0
  Pd  Pd437  1  0.970770  0.509460  0.584290  1.0
  Pd  Pd438  1  0.490540  0.461310  0.584290  1.0
  Pd  Pd439  1  0.490540  0.029230  0.084290  1.0
  Pd  Pd440  1  0.538690  0.509460  0.084290  1.0
  Pd  Pd441  1  0.970770  0.461310  0.084290  1.0
  Pd  Pd442  1  0.461310  0.970770  0.415710  1.0
  Pd  Pd443  1  0.029230  0.490540  0.415710  1.0
  Pd  Pd444  1  0.509460  0.538690  0.415710  1.0
  Pd  Pd445  1  0.213850  0.858720  0.601380  1.0
  Pd  Pd446  1  0.644870  0.786150  0.601380  1.0
  Pd  Pd447  1  0.141280  0.355130  0.601380  1.0
  Pd  Pd448  1  0.355130  0.141280  0.898620  1.0
  Pd  Pd449  1  0.858720  0.213850  0.898620  1.0
  Pd  Pd450  1  0.786150  0.644870  0.898620  1.0
  Pd  Pd451  1  0.786150  0.141280  0.398620  1.0
  Pd  Pd452  1  0.355130  0.213850  0.398620  1.0
  Pd  Pd453  1  0.858720  0.644870  0.398620  1.0
  Pd  Pd454  1  0.644870  0.858720  0.101380  1.0
  Pd  Pd455  1  0.141280  0.786150  0.101380  1.0
  Pd  Pd456  1  0.213850  0.355130  0.101380  1.0
  C  C457  1  0.609000  0.747000  0.809000  1
  C  C458  1  0.138000  0.391000  0.809000  1
  C  C459  1  0.253000  0.862000  0.809000  1
  C  C460  1  0.862000  0.253000  0.691000  1
  C  C461  1  0.747000  0.609000  0.691000  1
  C  C462  1  0.391000  0.138000  0.691000  1
  C  C463  1  0.391000  0.253000  0.191000  1
  C  C464  1  0.862000  0.609000  0.191000  1
  C  C465  1  0.747000  0.138000  0.191000  1
  C  C466  1  0.138000  0.747000  0.309000  1
  C  C467  1  0.253000  0.391000  0.309000  1
  C  C468  1  0.609000  0.862000  0.309000  1
  C  C469  1  0.274000  0.856000  0.797900  1.0
  C  C470  1  0.582000  0.726000  0.797900  1.0
  C  C471  1  0.144000  0.418000  0.797900  1.0
  C  C472  1  0.418000  0.144000  0.702100  1.0
  C  C473  1  0.856000  0.274000  0.702100  1.0
  C  C474  1  0.726000  0.582000  0.702100  1.0
  C  C475  1  0.726000  0.144000  0.202100  1.0
  C  C476  1  0.418000  0.274000  0.202100  1.0
  C  C477  1  0.856000  0.582000  0.202100  1.0
  C  C478  1  0.582000  0.856000  0.297900  1.0
  C  C479  1  0.144000  0.726000  0.297900  1.0
  C  C480  1  0.274000  0.418000  0.297900  1.0
  C  C481  1  0.190000  0.765100  0.835200  1.0
  C  C482  1  0.575100  0.810000  0.835200  1.0
  C  C483  1  0.234900  0.424900  0.835200  1.0
  C  C484  1  0.424900  0.234900  0.664800  1.0
  C  C485  1  0.765100  0.190000  0.664800  1.0
  C  C486  1  0.810000  0.575100  0.664800  1.0
  C  C487  1  0.810000  0.234900  0.164800  1.0
  C  C488  1  0.424900  0.190000  0.164800  1.0
  C  C489  1  0.765100  0.575100  0.164800  1.0
  C  C490  1  0.575100  0.765100  0.335200  1.0
  C  C491  1  0.234900  0.810000  0.335200  1.0
  C  C492  1  0.190000  0.424900  0.335200  1.0
  C  C493  1  0.220300  0.827200  0.742300  1.0
  C  C494  1  0.606900  0.779700  0.742300  1.0
  C  C495  1  0.172800  0.393100  0.742300  1.0
  C  C496  1  0.393100  0.172800  0.757700  1.0
  C  C497  1  0.827200  0.220300  0.757700  1.0
  C  C498  1  0.779700  0.606900  0.757700  1.0
  C  C499  1  0.779700  0.172800  0.257700  1.0
  C  C500  1  0.393100  0.220300  0.257700  1.0
  C  C501  1  0.827200  0.606900  0.257700  1.0
  C  C502  1  0.606900  0.827200  0.242300  1.0
  C  C503  1  0.172800  0.779700  0.242300  1.0
  C  C504  1  0.220300  0.393100  0.242300  1.0
  C  C505  1  0.261600  0.870400  0.720100  1.0
  C  C506  1  0.608800  0.738400  0.720100  1.0
  C  C507  1  0.129600  0.391200  0.720100  1.0
  C  C508  1  0.391200  0.129600  0.779900  1.0
  C  C509  1  0.870400  0.261600  0.779900  1.0
  C  C510  1  0.738400  0.608800  0.779900  1.0
  C  C511  1  0.738400  0.129600  0.279900  1.0
  C  C512  1  0.391200  0.261600  0.279900  1.0
  C  C513  1  0.870400  0.608800  0.279900  1.0
  C  C514  1  0.608800  0.870400  0.220100  1.0
  C  C515  1  0.129600  0.738400  0.220100  1.0
  C  C516  1  0.261600  0.391200  0.220100  1.0
  C  C517  1  0.256000  0.877700  0.680900  1.0
  C  C518  1  0.621700  0.744000  0.680900  1.0
  C  C519  1  0.122300  0.378300  0.680900  1.0
  C  C520  1  0.378300  0.122300  0.819100  1.0
  C  C521  1  0.877700  0.256000  0.819100  1.0
  C  C522  1  0.744000  0.621700  0.819100  1.0
  C  C523  1  0.744000  0.122300  0.319100  1.0
  C  C524  1  0.378300  0.256000  0.319100  1.0
  C  C525  1  0.877700  0.621700  0.319100  1.0
  C  C526  1  0.621700  0.877700  0.180900  1.0
  C  C527  1  0.122300  0.744000  0.180900  1.0
  C  C528  1  0.256000  0.378300  0.180900  1.0
  C  C529  1  0.172000  0.799600  0.677700  1.0
  C  C530  1  0.627600  0.828000  0.677700  1.0
  C  C531  1  0.200400  0.372400  0.677700  1.0
  C  C532  1  0.372400  0.200400  0.822300  1.0
  C  C533  1  0.799600  0.172000  0.822300  1.0
  C  C534  1  0.828000  0.627600  0.822300  1.0
  C  C535  1  0.828000  0.200400  0.322300  1.0
  C  C536  1  0.372400  0.172000  0.322300  1.0
  C  C537  1  0.799600  0.627600  0.322300  1.0
  C  C538  1  0.627600  0.799600  0.177700  1.0
  C  C539  1  0.200400  0.828000  0.177700  1.0
  C  C540  1  0.172000  0.372400  0.177700  1.0
  C  C541  1  0.174300  0.791600  0.717800  1.0
  C  C542  1  0.617300  0.825700  0.717800  1.0
  C  C543  1  0.208400  0.382700  0.717800  1.0
  C  C544  1  0.382700  0.208400  0.782200  1.0
  C  C545  1  0.791600  0.174300  0.782200  1.0
  C  C546  1  0.825700  0.617300  0.782200  1.0
  C  C547  1  0.825700  0.208400  0.282200  1.0
  C  C548  1  0.382700  0.174300  0.282200  1.0
  C  C549  1  0.791600  0.617300  0.282200  1.0
  C  C550  1  0.617300  0.791600  0.217800  1.0
  C  C551  1  0.208400  0.825700  0.217800  1.0
  C  C552  1  0.174300  0.382700  0.217800  1.0
  C  C553  1  0.325900  0.869200  0.853700  1.0
  C  C554  1  0.543300  0.674100  0.853700  1.0
  C  C555  1  0.130800  0.456700  0.853700  1.0
  C  C556  1  0.456700  0.130800  0.646300  1.0
  C  C557  1  0.869200  0.325900  0.646300  1.0
  C  C558  1  0.674100  0.543300  0.646300  1.0
  C  C559  1  0.674100  0.130800  0.146300  1.0
  C  C560  1  0.456700  0.325900  0.146300  1.0
  C  C561  1  0.869200  0.543300  0.146300  1.0
  C  C562  1  0.543300  0.869200  0.353700  1.0
  C  C563  1  0.130800  0.674100  0.353700  1.0
  C  C564  1  0.325900  0.456700  0.353700  1.0
  C  C565  1  0.372300  0.916100  0.837500  1.0
  C  C566  1  0.543800  0.627700  0.837500  1.0
  C  C567  1  0.083900  0.456200  0.837500  1.0
  C  C568  1  0.456200  0.083900  0.662500  1.0
  C  C569  1  0.916100  0.372300  0.662500  1.0
  C  C570  1  0.627700  0.543800  0.662500  1.0
  C  C571  1  0.627700  0.083900  0.162500  1.0
  C  C572  1  0.456200  0.372300  0.162500  1.0
  C  C573  1  0.916100  0.543800  0.162500  1.0
  C  C574  1  0.543800  0.916100  0.337500  1.0
  C  C575  1  0.083900  0.627700  0.337500  1.0
  C  C576  1  0.372300  0.456200  0.337500  1.0
  C  C577  1  0.422900  0.944500  0.854900  1.0
  C  C578  1  0.521600  0.577100  0.854900  1.0
  C  C579  1  0.055500  0.478400  0.854900  1.0
  C  C580  1  0.478400  0.055500  0.645100  1.0
  C  C581  1  0.944500  0.422900  0.645100  1.0
  C  C582  1  0.577100  0.521600  0.645100  1.0
  C  C583  1  0.577100  0.055500  0.145100  1.0
  C  C584  1  0.478400  0.422900  0.145100  1.0
  C  C585  1  0.944500  0.521600  0.145100  1.0
  C  C586  1  0.521600  0.944500  0.354900  1.0
  C  C587  1  0.055500  0.577100  0.354900  1.0
  C  C588  1  0.422900  0.478400  0.354900  1.0
  C  C589  1  0.395700  0.886700  0.905800  1.0
  C  C590  1  0.491000  0.604300  0.905800  1.0
  C  C591  1  0.113300  0.509000  0.905800  1.0
  C  C592  1  0.509000  0.113300  0.594200  1.0
  C  C593  1  0.886700  0.395700  0.594200  1.0
  C  C594  1  0.604300  0.491000  0.594200  1.0
  C  C595  1  0.604300  0.113300  0.094200  1.0
  C  C596  1  0.509000  0.395700  0.094200  1.0
  C  C597  1  0.886700  0.491000  0.094200  1.0
  C  C598  1  0.491000  0.886700  0.405800  1.0
  C  C599  1  0.113300  0.604300  0.405800  1.0
  C  C600  1  0.395700  0.509000  0.405800  1.0
  C  C601  1  0.341700  0.855800  0.890600  1.0
  C  C602  1  0.514100  0.658300  0.890600  1.0
  C  C603  1  0.144200  0.485900  0.890600  1.0
  C  C604  1  0.485900  0.144200  0.609400  1.0
  C  C605  1  0.855800  0.341700  0.609400  1.0
  C  C606  1  0.658300  0.514100  0.609400  1.0
  C  C607  1  0.658300  0.144200  0.109400  1.0
  C  C608  1  0.485900  0.341700  0.109400  1.0
  C  C609  1  0.855800  0.514100  0.109400  1.0
  C  C610  1  0.514100  0.855800  0.390600  1.0
  C  C611  1  0.144200  0.658300  0.390600  1.0
  C  C612  1  0.341700  0.485900  0.390600  1.0
  C  C613  1  0.151500  0.713600  0.852600  1.0
  C  C614  1  0.562100  0.848500  0.852600  1.0
  C  C615  1  0.286400  0.437900  0.852600  1.0
  C  C616  1  0.437900  0.286400  0.647400  1.0
  C  C617  1  0.713600  0.151500  0.647400  1.0
  C  C618  1  0.848500  0.562100  0.647400  1.0
  C  C619  1  0.848500  0.286400  0.147400  1.0
  C  C620  1  0.437900  0.151500  0.147400  1.0
  C  C621  1  0.713600  0.562100  0.147400  1.0
  C  C622  1  0.562100  0.713600  0.352600  1.0
  C  C623  1  0.286400  0.848500  0.352600  1.0
  C  C624  1  0.151500  0.437900  0.352600  1.0
  C  C625  1  0.160300  0.696300  0.888800  1.0
  C  C626  1  0.536000  0.839700  0.888800  1.0
  C  C627  1  0.303700  0.464000  0.888800  1.0
  C  C628  1  0.464000  0.303700  0.611200  1.0
  C  C629  1  0.696300  0.160300  0.611200  1.0
  C  C630  1  0.839700  0.536000  0.611200  1.0
  C  C631  1  0.839700  0.303700  0.111200  1.0
  C  C632  1  0.464000  0.160300  0.111200  1.0
  C  C633  1  0.696300  0.536000  0.111200  1.0
  C  C634  1  0.536000  0.696300  0.388800  1.0
  C  C635  1  0.303700  0.839700  0.388800  1.0
  C  C636  1  0.160300  0.464000  0.388800  1.0
  C  C637  1  0.125400  0.645500  0.903900  1.0
  C  C638  1  0.520100  0.874600  0.903900  1.0
  C  C639  1  0.354500  0.479900  0.903900  1.0
  C  C640  1  0.479900  0.354500  0.596100  1.0
  C  C641  1  0.645500  0.125400  0.596100  1.0
  C  C642  1  0.874600  0.520100  0.596100  1.0
  C  C643  1  0.874600  0.354500  0.096100  1.0
  C  C644  1  0.479900  0.125400  0.096100  1.0
  C  C645  1  0.645500  0.520100  0.096100  1.0
  C  C646  1  0.520100  0.645500  0.403900  1.0
  C  C647  1  0.354500  0.874600  0.403900  1.0
  C  C648  1  0.125400  0.479900  0.403900  1.0
  C  C649  1  0.555700  0.934700  0.853800  1.0
  C  C650  1  0.379000  0.444300  0.853800  1.0
  C  C651  1  0.065300  0.621000  0.853800  1.0
  C  C652  1  0.621000  0.065300  0.646200  1.0
  C  C653  1  0.934700  0.555700  0.646200  1.0
  C  C654  1  0.444300  0.379000  0.646200  1.0
  C  C655  1  0.444300  0.065300  0.146200  1.0
  C  C656  1  0.621000  0.555700  0.146200  1.0
  C  C657  1  0.934700  0.379000  0.146200  1.0
  C  C658  1  0.379000  0.934700  0.353800  1.0
  C  C659  1  0.065300  0.444300  0.353800  1.0
  C  C660  1  0.555700  0.621000  0.353800  1.0
  C  C661  1  0.102400  0.670600  0.833800  1.0
  C  C662  1  0.568200  0.897600  0.833800  1.0
  C  C663  1  0.329400  0.431800  0.833800  1.0
  C  C664  1  0.431800  0.329400  0.666200  1.0
  C  C665  1  0.670600  0.102400  0.666200  1.0
  C  C666  1  0.897600  0.568200  0.666200  1.0
  C  C667  1  0.897600  0.329400  0.166200  1.0
  C  C668  1  0.431800  0.102400  0.166200  1.0
  C  C669  1  0.670600  0.568200  0.166200  1.0
  C  C670  1  0.568200  0.670600  0.333800  1.0
  C  C671  1  0.329400  0.897600  0.333800  1.0
  C  C672  1  0.102400  0.431800  0.333800  1.0
  C  C673  1  0.624500  0.010000  0.942800  1.0
  C  C674  1  0.385500  0.375500  0.942800  1.0
  C  C675  1  0.990000  0.614500  0.942800  1.0
  C  C676  1  0.614500  0.990000  0.557200  1.0
  C  C677  1  0.010000  0.624500  0.557200  1.0
  C  C678  1  0.375500  0.385500  0.557200  1.0
  C  C679  1  0.375500  0.990000  0.057200  1.0
  C  C680  1  0.614500  0.624500  0.057200  1.0
  C  C681  1  0.010000  0.385500  0.057200  1.0
  C  C682  1  0.385500  0.010000  0.442800  1.0
  C  C683  1  0.990000  0.375500  0.442800  1.0
  C  C684  1  0.624500  0.614500  0.442800  1.0
  C  C685  1  0.677400  0.043700  0.962200  1.0
  C  C686  1  0.366300  0.322600  0.962200  1.0
  C  C687  1  0.956300  0.633700  0.962200  1.0
  C  C688  1  0.633700  0.956300  0.537800  1.0
  C  C689  1  0.043700  0.677400  0.537800  1.0
  C  C690  1  0.322600  0.366300  0.537800  1.0
  C  C691  1  0.322600  0.956300  0.037800  1.0
  C  C692  1  0.633700  0.677400  0.037800  1.0
  C  C693  1  0.043700  0.366300  0.037800  1.0
  C  C694  1  0.366300  0.043700  0.462200  1.0
  C  C695  1  0.956300  0.322600  0.462200  1.0
  C  C696  1  0.677400  0.633700  0.462200  1.0
  C  C697  1  0.674500  0.087700  0.983200  1.0
  C  C698  1  0.413200  0.325500  0.983200  1.0
  C  C699  1  0.912300  0.586800  0.983200  1.0
  C  C700  1  0.586800  0.912300  0.516800  1.0
  C  C701  1  0.087700  0.674500  0.516800  1.0
  C  C702  1  0.325500  0.413200  0.516800  1.0
  C  C703  1  0.325500  0.912300  0.016800  1.0
  C  C704  1  0.586800  0.674500  0.016800  1.0
  C  C705  1  0.087700  0.413200  0.016800  1.0
  C  C706  1  0.413200  0.087700  0.483200  1.0
  C  C707  1  0.912300  0.325500  0.483200  1.0
  C  C708  1  0.674500  0.586800  0.483200  1.0
  C  C709  1  0.632900  0.096000  0.984800  1.0
  C  C710  1  0.463100  0.367100  0.984800  1.0
  C  C711  1  0.904000  0.536900  0.984800  1.0
  C  C712  1  0.536900  0.904000  0.515200  1.0
  C  C713  1  0.096000  0.632900  0.515200  1.0
  C  C714  1  0.367100  0.463100  0.515200  1.0
  C  C715  1  0.367100  0.904000  0.015200  1.0
  C  C716  1  0.536900  0.632900  0.015200  1.0
  C  C717  1  0.096000  0.463100  0.015200  1.0
  C  C718  1  0.463100  0.096000  0.484800  1.0
  C  C719  1  0.904000  0.367100  0.484800  1.0
  C  C720  1  0.632900  0.536900  0.484800  1.0
  C  C721  1  0.583500  0.056900  0.964900  1.0
  C  C722  1  0.473400  0.416500  0.964900  1.0
  C  C723  1  0.943100  0.526600  0.964900  1.0
  C  C724  1  0.526600  0.943100  0.535100  1.0
  C  C725  1  0.056900  0.583500  0.535100  1.0
  C  C726  1  0.416500  0.473400  0.535100  1.0
  C  C727  1  0.416500  0.943100  0.035100  1.0
  C  C728  1  0.526600  0.583500  0.035100  1.0
  C  C729  1  0.056900  0.473400  0.035100  1.0
  C  C730  1  0.473400  0.056900  0.464900  1.0
  C  C731  1  0.943100  0.416500  0.464900  1.0
  C  C732  1  0.583500  0.526600  0.464900  1.0
  C  C733  1  0.442100  0.017700  0.945600  1.0
  C  C734  1  0.575600  0.557900  0.945600  1.0
  C  C735  1  0.982300  0.424400  0.945600  1.0
  C  C736  1  0.424400  0.982300  0.554400  1.0
  C  C737  1  0.017700  0.442100  0.554400  1.0
  C  C738  1  0.557900  0.575600  0.554400  1.0
  C  C739  1  0.557900  0.982300  0.054400  1.0
  C  C740  1  0.424400  0.442100  0.054400  1.0
  C  C741  1  0.017700  0.575600  0.054400  1.0
  C  C742  1  0.575600  0.017700  0.445600  1.0
  C  C743  1  0.982300  0.557900  0.445600  1.0
  C  C744  1  0.442100  0.424400  0.445600  1.0
  C  C745  1  0.434300  0.061200  0.970200  1.0
  C  C746  1  0.626900  0.565700  0.970200  1.0
  C  C747  1  0.938800  0.373100  0.970200  1.0
  C  C748  1  0.373100  0.938800  0.529800  1.0
  C  C749  1  0.061200  0.434300  0.529800  1.0
  C  C750  1  0.565700  0.626900  0.529800  1.0
  C  C751  1  0.565700  0.938800  0.029800  1.0
  C  C752  1  0.373100  0.434300  0.029800  1.0
  C  C753  1  0.061200  0.626900  0.029800  1.0
  C  C754  1  0.626900  0.061200  0.470200  1.0
  C  C755  1  0.938800  0.565700  0.470200  1.0
  C  C756  1  0.434300  0.373100  0.470200  1.0
  C  C757  1  0.482300  0.099300  0.989400  1.0
  C  C758  1  0.617000  0.517700  0.989400  1.0
  C  C759  1  0.900700  0.383000  0.989400  1.0
  C  C760  1  0.383000  0.900700  0.510600  1.0
  C  C761  1  0.099300  0.482300  0.510600  1.0
  C  C762  1  0.517700  0.617000  0.510600  1.0
  C  C763  1  0.517700  0.900700  0.010600  1.0
  C  C764  1  0.383000  0.482300  0.010600  1.0
  C  C765  1  0.099300  0.617000  0.010600  1.0
  C  C766  1  0.617000  0.099300  0.489400  1.0
  C  C767  1  0.900700  0.517700  0.489400  1.0
  C  C768  1  0.482300  0.383000  0.489400  1.0
  C  C769  1  0.532400  0.100700  0.986900  1.0
  C  C770  1  0.568300  0.467600  0.986900  1.0
  C  C771  1  0.899300  0.431700  0.986900  1.0
  C  C772  1  0.431700  0.899300  0.513100  1.0
  C  C773  1  0.100700  0.532400  0.513100  1.0
  C  C774  1  0.467600  0.568300  0.513100  1.0
  C  C775  1  0.467600  0.899300  0.013100  1.0
  C  C776  1  0.431700  0.532400  0.013100  1.0
  C  C777  1  0.100700  0.568300  0.013100  1.0
  C  C778  1  0.568300  0.100700  0.486900  1.0
  C  C779  1  0.899300  0.467600  0.486900  1.0
  C  C780  1  0.532400  0.431700  0.486900  1.0
  C  C781  1  0.538100  0.061700  0.965900  1.0
  C  C782  1  0.523600  0.461900  0.965900  1.0
  C  C783  1  0.938300  0.476400  0.965900  1.0
  C  C784  1  0.476400  0.938300  0.534100  1.0
  C  C785  1  0.061700  0.538100  0.534100  1.0
  C  C786  1  0.461900  0.523600  0.534100  1.0
  C  C787  1  0.461900  0.938300  0.034100  1.0
  C  C788  1  0.476400  0.538100  0.034100  1.0
  C  C789  1  0.061700  0.523600  0.034100  1.0
  C  C790  1  0.523600  0.061700  0.465900  1.0
  C  C791  1  0.938300  0.461900  0.465900  1.0
  C  C792  1  0.538100  0.476400  0.465900  1.0
  C  C793  1  0.174200  0.925700  0.644400  1.0
  C  C794  1  0.751500  0.825800  0.644400  1.0
  C  C795  1  0.074300  0.248500  0.644400  1.0
  C  C796  1  0.248500  0.074300  0.855600  1.0
  C  C797  1  0.925700  0.174200  0.855600  1.0
  C  C798  1  0.825800  0.751500  0.855600  1.0
  C  C799  1  0.825800  0.074300  0.355600  1.0
  C  C800  1  0.248500  0.174200  0.355600  1.0
  C  C801  1  0.925700  0.751500  0.355600  1.0
  C  C802  1  0.751500  0.925700  0.144400  1.0
  C  C803  1  0.074300  0.825800  0.144400  1.0
  C  C804  1  0.174200  0.248500  0.144400  1.0
  C  C805  1  0.154300  0.965600  0.646600  1.0
  C  C806  1  0.811300  0.845700  0.646600  1.0
  C  C807  1  0.034400  0.188700  0.646600  1.0
  C  C808  1  0.188700  0.034400  0.853400  1.0
  C  C809  1  0.965600  0.154300  0.853400  1.0
  C  C810  1  0.845700  0.811300  0.853400  1.0
  C  C811  1  0.845700  0.034400  0.353400  1.0
  C  C812  1  0.188700  0.154300  0.353400  1.0
  C  C813  1  0.965600  0.811300  0.353400  1.0
  C  C814  1  0.811300  0.965600  0.146600  1.0
  C  C815  1  0.034400  0.845700  0.146600  1.0
  C  C816  1  0.154300  0.188700  0.146600  1.0
  C  C817  1  0.145900  0.986300  0.613800  1.0
  C  C818  1  0.840400  0.854100  0.613800  1.0
  C  C819  1  0.013700  0.159600  0.613800  1.0
  C  C820  1  0.159600  0.013700  0.886200  1.0
  C  C821  1  0.986300  0.145900  0.886200  1.0
  C  C822  1  0.854100  0.840400  0.886200  1.0
  C  C823  1  0.854100  0.013700  0.386200  1.0
  C  C824  1  0.159600  0.145900  0.386200  1.0
  C  C825  1  0.986300  0.840400  0.386200  1.0
  C  C826  1  0.840400  0.986300  0.113800  1.0
  C  C827  1  0.013700  0.854100  0.113800  1.0
  C  C828  1  0.145900  0.159600  0.113800  1.0
  C  C829  1  0.163900  0.984100  0.579400  1.0
  C  C830  1  0.820200  0.836100  0.579400  1.0
  C  C831  1  0.015900  0.179800  0.579400  1.0
  C  C832  1  0.179800  0.015900  0.920600  1.0
  C  C833  1  0.984100  0.163900  0.920600  1.0
  C  C834  1  0.836100  0.820200  0.920600  1.0
  C  C835  1  0.836100  0.015900  0.420600  1.0
  C  C836  1  0.179800  0.163900  0.420600  1.0
  C  C837  1  0.984100  0.820200  0.420600  1.0
  C  C838  1  0.820200  0.984100  0.079400  1.0
  C  C839  1  0.015900  0.836100  0.079400  1.0
  C  C840  1  0.163900  0.179800  0.079400  1.0
  C  C841  1  0.185900  0.939200  0.577800  1.0
  C  C842  1  0.753300  0.814100  0.577800  1.0
  C  C843  1  0.060800  0.246700  0.577800  1.0
  C  C844  1  0.246700  0.060800  0.922200  1.0
  C  C845  1  0.939200  0.185900  0.922200  1.0
  C  C846  1  0.814100  0.753300  0.922200  1.0
  C  C847  1  0.814100  0.060800  0.422200  1.0
  C  C848  1  0.246700  0.185900  0.422200  1.0
  C  C849  1  0.939200  0.753300  0.422200  1.0
  C  C850  1  0.753300  0.939200  0.077800  1.0
  C  C851  1  0.060800  0.814100  0.077800  1.0
  C  C852  1  0.185900  0.246700  0.077800  1.0
  C  C853  1  0.228000  0.855700  0.512200  1.0
  C  C854  1  0.627700  0.772000  0.512200  1.0
  C  C855  1  0.144300  0.372300  0.512200  1.0
  C  C856  1  0.372300  0.144300  0.987800  1.0
  C  C857  1  0.855700  0.228000  0.987800  1.0
  C  C858  1  0.772000  0.627700  0.987800  1.0
  C  C859  1  0.772000  0.144300  0.487800  1.0
  C  C860  1  0.372300  0.228000  0.487800  1.0
  C  C861  1  0.855700  0.627700  0.487800  1.0
  C  C862  1  0.627700  0.855700  0.012200  1.0
  C  C863  1  0.144300  0.772000  0.012200  1.0
  C  C864  1  0.228000  0.372300  0.012200  1.0
  C  C865  1  0.230500  0.878800  0.476700  1.0
  C  C866  1  0.648300  0.769500  0.476700  1.0
  C  C867  1  0.121200  0.351700  0.476700  1.0
  C  C868  1  0.351700  0.121200  0.023300  1.0
  C  C869  1  0.878800  0.230500  0.023300  1.0
  C  C870  1  0.769500  0.648300  0.023300  1.0
  C  C871  1  0.769500  0.121200  0.523300  1.0
  C  C872  1  0.351700  0.230500  0.523300  1.0
  C  C873  1  0.878800  0.648300  0.523300  1.0
  C  C874  1  0.648300  0.878800  0.976700  1.0
  C  C875  1  0.121200  0.769500  0.976700  1.0
  C  C876  1  0.230500  0.351700  0.976700  1.0
  C  C877  1  0.217900  0.920100  0.470100  1.0
  C  C878  1  0.702200  0.782100  0.470100  1.0
  C  C879  1  0.079900  0.297800  0.470100  1.0
  C  C880  1  0.297800  0.079900  0.029900  1.0
  C  C881  1  0.920100  0.217900  0.029900  1.0
  C  C882  1  0.782100  0.702200  0.029900  1.0
  C  C883  1  0.782100  0.079900  0.529900  1.0
  C  C884  1  0.297800  0.217900  0.529900  1.0
  C  C885  1  0.920100  0.702200  0.529900  1.0
  C  C886  1  0.702200  0.920100  0.970100  1.0
  C  C887  1  0.079900  0.782100  0.970100  1.0
  C  C888  1  0.217900  0.297800  0.970100  1.0
  C  C889  1  0.204700  0.942500  0.501400  1.0
  C  C890  1  0.737800  0.795300  0.501400  1.0
  C  C891  1  0.057500  0.262200  0.501400  1.0
  C  C892  1  0.262200  0.057500  0.998600  1.0
  C  C893  1  0.942500  0.204700  0.998600  1.0
  C  C894  1  0.795300  0.737800  0.998600  1.0
  C  C895  1  0.795300  0.057500  0.498600  1.0
  C  C896  1  0.262200  0.204700  0.498600  1.0
  C  C897  1  0.942500  0.737800  0.498600  1.0
  C  C898  1  0.737800  0.942500  0.001400  1.0
  C  C899  1  0.057500  0.795300  0.001400  1.0
  C  C900  1  0.204700  0.262200  0.001400  1.0
  C  C901  1  0.203600  0.923100  0.542400  1.0
  C  C902  1  0.719500  0.796400  0.542400  1.0
  C  C903  1  0.076900  0.280500  0.542400  1.0
  C  C904  1  0.280500  0.076900  0.957600  1.0
  C  C905  1  0.923100  0.203600  0.957600  1.0
  C  C906  1  0.796400  0.719500  0.957600  1.0
  C  C907  1  0.796400  0.076900  0.457600  1.0
  C  C908  1  0.280500  0.203600  0.457600  1.0
  C  C909  1  0.923100  0.719500  0.457600  1.0
  C  C910  1  0.719500  0.923100  0.042400  1.0
  C  C911  1  0.076900  0.796400  0.042400  1.0
  C  C912  1  0.203600  0.280500  0.042400  1.0
  C  C913  1  0.288500  0.734100  0.581100  1.0
  C  C914  1  0.445600  0.711500  0.581100  1.0
  C  C915  1  0.265900  0.554400  0.581100  1.0
  C  C916  1  0.554400  0.265900  0.918900  1.0
  C  C917  1  0.734100  0.288500  0.918900  1.0
  C  C918  1  0.711500  0.445600  0.918900  1.0
  C  C919  1  0.711500  0.265900  0.418900  1.0
  C  C920  1  0.554400  0.288500  0.418900  1.0
  C  C921  1  0.734100  0.445600  0.418900  1.0
  C  C922  1  0.445600  0.734100  0.081100  1.0
  C  C923  1  0.265900  0.711500  0.081100  1.0
  C  C924  1  0.288500  0.554400  0.081100  1.0
  C  C925  1  0.319500  0.791400  0.587100  1.0
  C  C926  1  0.471900  0.680500  0.587100  1.0
  C  C927  1  0.208600  0.528100  0.587100  1.0
  C  C928  1  0.528100  0.208600  0.912900  1.0
  C  C929  1  0.791400  0.319500  0.912900  1.0
  C  C930  1  0.680500  0.471900  0.912900  1.0
  C  C931  1  0.680500  0.208600  0.412900  1.0
  C  C932  1  0.528100  0.319500  0.412900  1.0
  C  C933  1  0.791400  0.471900  0.412900  1.0
  C  C934  1  0.471900  0.791400  0.087100  1.0
  C  C935  1  0.208600  0.680500  0.087100  1.0
  C  C936  1  0.319500  0.528100  0.087100  1.0
  C  C937  1  0.294400  0.822600  0.591700  1.0
  C  C938  1  0.528200  0.705600  0.591700  1.0
  C  C939  1  0.177400  0.471800  0.591700  1.0
  C  C940  1  0.471800  0.177400  0.908300  1.0
  C  C941  1  0.822600  0.294400  0.908300  1.0
  C  C942  1  0.705600  0.528200  0.908300  1.0
  C  C943  1  0.705600  0.177400  0.408300  1.0
  C  C944  1  0.471800  0.294400  0.408300  1.0
  C  C945  1  0.822600  0.528200  0.408300  1.0
  C  C946  1  0.528200  0.822600  0.091700  1.0
  C  C947  1  0.177400  0.705600  0.091700  1.0
  C  C948  1  0.294400  0.471800  0.091700  1.0
  C  C949  1  0.207900  0.750700  0.585100  1.0
  C  C950  1  0.542800  0.792100  0.585100  1.0
  C  C951  1  0.249300  0.457200  0.585100  1.0
  C  C952  1  0.457200  0.249300  0.914900  1.0
  C  C953  1  0.750700  0.207900  0.914900  1.0
  C  C954  1  0.792100  0.542800  0.914900  1.0
  C  C955  1  0.792100  0.249300  0.414900  1.0
  C  C956  1  0.457200  0.207900  0.414900  1.0
  C  C957  1  0.750700  0.542800  0.414900  1.0
  C  C958  1  0.542800  0.750700  0.085100  1.0
  C  C959  1  0.249300  0.792100  0.085100  1.0
  C  C960  1  0.207900  0.457200  0.085100  1.0
  C  C961  1  0.229900  0.714800  0.580500  1.0
  C  C962  1  0.484900  0.770100  0.580500  1.0
  C  C963  1  0.285200  0.515100  0.580500  1.0
  C  C964  1  0.515100  0.285200  0.919500  1.0
  C  C965  1  0.714800  0.229900  0.919500  1.0
  C  C966  1  0.770100  0.484900  0.919500  1.0
  C  C967  1  0.770100  0.285200  0.419500  1.0
  C  C968  1  0.515100  0.229900  0.419500  1.0
  C  C969  1  0.714800  0.484900  0.419500  1.0
  C  C970  1  0.484900  0.714800  0.080500  1.0
  C  C971  1  0.285200  0.770100  0.080500  1.0
  C  C972  1  0.229900  0.515100  0.080500  1.0
  C  C973  1  0.311400  0.700200  0.575000  1.0
  C  C974  1  0.388800  0.688600  0.575000  1.0
  C  C975  1  0.299800  0.611200  0.575000  1.0
  C  C976  1  0.611200  0.299800  0.925000  1.0
  C  C977  1  0.700200  0.311400  0.925000  1.0
  C  C978  1  0.688600  0.388800  0.925000  1.0
  C  C979  1  0.688600  0.299800  0.425000  1.0
  C  C980  1  0.611200  0.311400  0.425000  1.0
  C  C981  1  0.700200  0.388800  0.425000  1.0
  C  C982  1  0.388800  0.700200  0.075000  1.0
  C  C983  1  0.299800  0.688600  0.075000  1.0
  C  C984  1  0.311400  0.611200  0.075000  1.0
  N  N985  1  0.513100  0.260200  0.022400  1
  N  N986  1  0.747100  0.486900  0.022400  1
  N  N987  1  0.739800  0.252900  0.022400  1
  N  N988  1  0.252900  0.739800  0.477600  1
  N  N989  1  0.260200  0.513100  0.477600  1
  N  N990  1  0.486900  0.747100  0.477600  1
  N  N991  1  0.486900  0.739800  0.977600  1
  N  N992  1  0.252900  0.513100  0.977600  1
  N  N993  1  0.260200  0.747100  0.977600  1
  N  N994  1  0.747100  0.260200  0.522400  1
  N  N995  1  0.739800  0.486900  0.522400  1
  N  N996  1  0.513100  0.252900  0.522400  1
  N  N997  1  0.318000  0.989700  0.893700  1
  N  N998  1  0.671700  0.682000  0.893700  1
  N  N999  1  0.010300  0.328300  0.893700  1
  N  N1000  1  0.328300  0.010300  0.606300  1
  N  N1001  1  0.989700  0.318000  0.606300  1
  N  N1002  1  0.682000  0.671700  0.606300  1
  N  N1003  1  0.682000  0.010300  0.106300  1
  N  N1004  1  0.328300  0.318000  0.106300  1
  N  N1005  1  0.989700  0.671700  0.106300  1
  N  N1006  1  0.671700  0.989700  0.393700  1
  N  N1007  1  0.010300  0.682000  0.393700  1
  N  N1008  1  0.318000  0.328300  0.393700  1
  N  N1009  1  0.450500  0.540900  0.634700  1
  N  N1010  1  0.090400  0.549500  0.634700  1
  N  N1011  1  0.459100  0.909600  0.634700  1
  N  N1012  1  0.909600  0.459100  0.865300  1
  N  N1013  1  0.540900  0.450500  0.865300  1
  N  N1014  1  0.549500  0.090400  0.865300  1
  N  N1015  1  0.549500  0.459100  0.365300  1
  N  N1016  1  0.909600  0.450500  0.365300  1
  N  N1017  1  0.540900  0.090400  0.365300  1
  N  N1018  1  0.090400  0.540900  0.134700  1
  N  N1019  1  0.459100  0.549500  0.134700  1
  N  N1020  1  0.450500  0.909600  0.134700  1
  N  N1021  1  0.498700  0.399700  0.868900  1
  N  N1022  1  0.901000  0.501300  0.868900  1
  N  N1023  1  0.600300  0.099000  0.868900  1
  N  N1024  1  0.099000  0.600300  0.631100  1
  N  N1025  1  0.399700  0.498700  0.631100  1
  N  N1026  1  0.501300  0.901000  0.631100  1
  N  N1027  1  0.501300  0.600300  0.131100  1
  N  N1028  1  0.099000  0.498700  0.131100  1
  N  N1029  1  0.399700  0.901000  0.131100  1
  N  N1030  1  0.901000  0.399700  0.368900  1
  N  N1031  1  0.600300  0.501300  0.368900  1
  N  N1032  1  0.498700  0.099000  0.368900  1
  N  N1033  1  0.224800  0.823100  0.781000  1.0
  N  N1034  1  0.598300  0.775200  0.781000  1.0
  N  N1035  1  0.176900  0.401700  0.781000  1.0
  N  N1036  1  0.401700  0.176900  0.719000  1.0
  N  N1037  1  0.823100  0.224800  0.719000  1.0
  N  N1038  1  0.775200  0.598300  0.719000  1.0
  N  N1039  1  0.775200  0.176900  0.219000  1.0
  N  N1040  1  0.401700  0.224800  0.219000  1.0
  N  N1041  1  0.823100  0.598300  0.219000  1.0
  N  N1042  1  0.598300  0.823100  0.281000  1.0
  N  N1043  1  0.176900  0.775200  0.281000  1.0
  N  N1044  1  0.224800  0.401700  0.281000  1.0
  N  N1045  1  0.273200  0.840600  0.834900  1.0
  N  N1046  1  0.567400  0.726800  0.834900  1.0
  N  N1047  1  0.159400  0.432600  0.834900  1.0
  N  N1048  1  0.432600  0.159400  0.665100  1.0
  N  N1049  1  0.840600  0.273200  0.665100  1.0
  N  N1050  1  0.726800  0.567400  0.665100  1.0
  N  N1051  1  0.726800  0.159400  0.165100  1.0
  N  N1052  1  0.432600  0.273200  0.165100  1.0
  N  N1053  1  0.840600  0.567400  0.165100  1.0
  N  N1054  1  0.567400  0.840600  0.334900  1.0
  N  N1055  1  0.159400  0.726800  0.334900  1.0
  N  N1056  1  0.273200  0.432600  0.334900  1.0
  N  N1057  1  0.235300  0.795900  0.854500  1.0
  N  N1058  1  0.560600  0.764700  0.854500  1.0
  N  N1059  1  0.204100  0.439400  0.854500  1.0
  N  N1060  1  0.439400  0.204100  0.645500  1.0
  N  N1061  1  0.795900  0.235300  0.645500  1.0
  N  N1062  1  0.764700  0.560600  0.645500  1.0
  N  N1063  1  0.764700  0.204100  0.145500  1.0
  N  N1064  1  0.439400  0.235300  0.145500  1.0
  N  N1065  1  0.795900  0.560600  0.145500  1.0
  N  N1066  1  0.560600  0.795900  0.354500  1.0
  N  N1067  1  0.204100  0.764700  0.354500  1.0
  N  N1068  1  0.235300  0.439400  0.354500  1.0
  N  N1069  1  0.184200  0.780900  0.799400  1.0
  N  N1070  1  0.596700  0.815800  0.799400  1.0
  N  N1071  1  0.219100  0.403300  0.799400  1.0
  N  N1072  1  0.403300  0.219100  0.700600  1.0
  N  N1073  1  0.780900  0.184200  0.700600  1.0
  N  N1074  1  0.815800  0.596700  0.700600  1.0
  N  N1075  1  0.815800  0.219100  0.200600  1.0
  N  N1076  1  0.403300  0.184200  0.200600  1.0
  N  N1077  1  0.780900  0.596700  0.200600  1.0
  N  N1078  1  0.596700  0.780900  0.299400  1.0
  N  N1079  1  0.219100  0.815800  0.299400  1.0
  N  N1080  1  0.184200  0.403300  0.299400  1.0
  N  N1081  1  0.213100  0.842900  0.660700  1.0
  N  N1082  1  0.629800  0.786900  0.660700  1.0
  N  N1083  1  0.157100  0.370200  0.660700  1.0
  N  N1084  1  0.370200  0.157100  0.839300  1.0
  N  N1085  1  0.842900  0.213100  0.839300  1.0
  N  N1086  1  0.786900  0.629800  0.839300  1.0
  N  N1087  1  0.786900  0.157100  0.339300  1.0
  N  N1088  1  0.370200  0.213100  0.339300  1.0
  N  N1089  1  0.842900  0.629800  0.339300  1.0
  N  N1090  1  0.629800  0.842900  0.160700  1.0
  N  N1091  1  0.157100  0.786900  0.160700  1.0
  N  N1092  1  0.213100  0.370200  0.160700  1.0
  N  N1093  1  0.435000  0.930900  0.888100  1.0
  N  N1094  1  0.495900  0.565000  0.888100  1.0
  N  N1095  1  0.069100  0.504100  0.888100  1.0
  N  N1096  1  0.504100  0.069100  0.611900  1.0
  N  N1097  1  0.930900  0.435000  0.611900  1.0
  N  N1098  1  0.565000  0.495900  0.611900  1.0
  N  N1099  1  0.565000  0.069100  0.111900  1.0
  N  N1100  1  0.504100  0.435000  0.111900  1.0
  N  N1101  1  0.930900  0.495900  0.111900  1.0
  N  N1102  1  0.495900  0.930900  0.388100  1.0
  N  N1103  1  0.069100  0.565000  0.388100  1.0
  N  N1104  1  0.435000  0.504100  0.388100  1.0
  N  N1105  1  0.531100  0.921100  0.888600  1.0
  N  N1106  1  0.390000  0.468900  0.888600  1.0
  N  N1107  1  0.078900  0.610000  0.888600  1.0
  N  N1108  1  0.610000  0.078900  0.611400  1.0
  N  N1109  1  0.921100  0.531100  0.611400  1.0
  N  N1110  1  0.468900  0.390000  0.611400  1.0
  N  N1111  1  0.468900  0.078900  0.111400  1.0
  N  N1112  1  0.610000  0.531100  0.111400  1.0
  N  N1113  1  0.921100  0.390000  0.111400  1.0
  N  N1114  1  0.390000  0.921100  0.388600  1.0
  N  N1115  1  0.078900  0.468900  0.388600  1.0
  N  N1116  1  0.531100  0.610000  0.388600  1.0
  N  N1117  1  0.582100  0.015800  0.943800  1.0
  N  N1118  1  0.433700  0.417900  0.943800  1.0
  N  N1119  1  0.984200  0.566300  0.943800  1.0
  N  N1120  1  0.566300  0.984200  0.556200  1.0
  N  N1121  1  0.015800  0.582100  0.556200  1.0
  N  N1122  1  0.417900  0.433700  0.556200  1.0
  N  N1123  1  0.417900  0.984200  0.056200  1.0
  N  N1124  1  0.566300  0.582100  0.056200  1.0
  N  N1125  1  0.015800  0.433700  0.056200  1.0
  N  N1126  1  0.433700  0.015800  0.443800  1.0
  N  N1127  1  0.984200  0.417900  0.443800  1.0
  N  N1128  1  0.582100  0.566300  0.443800  1.0
  N  N1129  1  0.492600  0.023400  0.947000  1.0
  N  N1130  1  0.530800  0.507400  0.947000  1.0
  N  N1131  1  0.976600  0.469200  0.947000  1.0
  N  N1132  1  0.469200  0.976600  0.553000  1.0
  N  N1133  1  0.023400  0.492600  0.553000  1.0
  N  N1134  1  0.507400  0.530800  0.553000  1.0
  N  N1135  1  0.507400  0.976600  0.053000  1.0
  N  N1136  1  0.469200  0.492600  0.053000  1.0
  N  N1137  1  0.023400  0.530800  0.053000  1.0
  N  N1138  1  0.530800  0.023400  0.447000  1.0
  N  N1139  1  0.976600  0.507400  0.447000  1.0
  N  N1140  1  0.492600  0.469200  0.447000  1.0
  N  N1141  1  0.186900  0.913200  0.611100  1.0
  N  N1142  1  0.726300  0.813100  0.611100  1.0
  N  N1143  1  0.086800  0.273700  0.611100  1.0
  N  N1144  1  0.273700  0.086800  0.888900  1.0
  N  N1145  1  0.913200  0.186900  0.888900  1.0
  N  N1146  1  0.813100  0.726300  0.888900  1.0
  N  N1147  1  0.813100  0.086800  0.388900  1.0
  N  N1148  1  0.273700  0.186900  0.388900  1.0
  N  N1149  1  0.913200  0.726300  0.388900  1.0
  N  N1150  1  0.726300  0.913200  0.111100  1.0
  N  N1151  1  0.086800  0.813100  0.111100  1.0
  N  N1152  1  0.186900  0.273700  0.111100  1.0
  N  N1153  1  0.213700  0.879400  0.544700  1.0
  N  N1154  1  0.665700  0.786300  0.544700  1.0
  N  N1155  1  0.120600  0.334300  0.544700  1.0
  N  N1156  1  0.334300  0.120600  0.955300  1.0
  N  N1157  1  0.879400  0.213700  0.955300  1.0
  N  N1158  1  0.786300  0.665700  0.955300  1.0
  N  N1159  1  0.786300  0.120600  0.455300  1.0
  N  N1160  1  0.334300  0.213700  0.455300  1.0
  N  N1161  1  0.879400  0.665700  0.455300  1.0
  N  N1162  1  0.665700  0.879400  0.044700  1.0
  N  N1163  1  0.120600  0.786300  0.044700  1.0
  N  N1164  1  0.213700  0.334300  0.044700  1.0
  N  N1165  1  0.241000  0.803700  0.590200  1.0
  N  N1166  1  0.562700  0.759000  0.590200  1.0
  N  N1167  1  0.196300  0.437300  0.590200  1.0
  N  N1168  1  0.437300  0.196300  0.909800  1.0
  N  N1169  1  0.803700  0.241000  0.909800  1.0
  N  N1170  1  0.759000  0.562700  0.909800  1.0
  N  N1171  1  0.759000  0.196300  0.409800  1.0
  N  N1172  1  0.437300  0.241000  0.409800  1.0
  N  N1173  1  0.803700  0.562700  0.409800  1.0
  N  N1174  1  0.562700  0.803700  0.090200  1.0
  N  N1175  1  0.196300  0.759000  0.090200  1.0
  N  N1176  1  0.241000  0.437300  0.090200  1.0
  N  N1177  1  0.367000  0.724000  0.572100  1.0
  N  N1178  1  0.357000  0.633000  0.572100  1.0
  N  N1179  1  0.276000  0.643000  0.572100  1.0
  N  N1180  1  0.643000  0.276000  0.927900  1.0
  N  N1181  1  0.724000  0.367000  0.927900  1.0
  N  N1182  1  0.633000  0.357000  0.927900  1.0
  N  N1183  1  0.633000  0.276000  0.427900  1.0
  N  N1184  1  0.643000  0.367000  0.427900  1.0
  N  N1185  1  0.724000  0.357000  0.427900  1.0
  N  N1186  1  0.357000  0.724000  0.072100  1.0
  N  N1187  1  0.276000  0.633000  0.072100  1.0
  N  N1188  1  0.367000  0.643000  0.072100  1.0
  O  O1189  1  0.563000  0.283000  0.019900  1
  O  O1190  1  0.720000  0.437000  0.019900  1
  O  O1191  1  0.717000  0.280000  0.019900  1
  O  O1192  1  0.280000  0.717000  0.480100  1
  O  O1193  1  0.283000  0.563000  0.480100  1
  O  O1194  1  0.437000  0.720000  0.480100  1
  O  O1195  1  0.437000  0.717000  0.980100  1
  O  O1196  1  0.280000  0.563000  0.980100  1
  O  O1197  1  0.283000  0.720000  0.980100  1
  O  O1198  1  0.720000  0.283000  0.519900  1
  O  O1199  1  0.717000  0.437000  0.519900  1
  O  O1200  1  0.563000  0.280000  0.519900  1
  O  O1201  1  0.483000  0.205800  0.023200  1
  O  O1202  1  0.722800  0.517000  0.023200  1
  O  O1203  1  0.794200  0.277200  0.023200  1
  O  O1204  1  0.277200  0.794200  0.476800  1
  O  O1205  1  0.205800  0.483000  0.476800  1
  O  O1206  1  0.517000  0.722800  0.476800  1
  O  O1207  1  0.517000  0.794200  0.976800  1
  O  O1208  1  0.277200  0.483000  0.976800  1
  O  O1209  1  0.205800  0.722800  0.976800  1
  O  O1210  1  0.722800  0.205800  0.523200  1
  O  O1211  1  0.794200  0.517000  0.523200  1
  O  O1212  1  0.483000  0.277200  0.523200  1
  O  O1213  1  0.486100  0.280400  0.028900  1
  O  O1214  1  0.794300  0.513900  0.028900  1
  O  O1215  1  0.719600  0.205700  0.028900  1
  O  O1216  1  0.205700  0.719600  0.471100  1
  O  O1217  1  0.280400  0.486100  0.471100  1
  O  O1218  1  0.513900  0.794300  0.471100  1
  O  O1219  1  0.513900  0.719600  0.971100  1
  O  O1220  1  0.205700  0.486100  0.971100  1
  O  O1221  1  0.280400  0.794300  0.971100  1
  O  O1222  1  0.794300  0.280400  0.528900  1
  O  O1223  1  0.719600  0.513900  0.528900  1
  O  O1224  1  0.486100  0.205700  0.528900  1
  O  O1225  1  0.362800  0.029900  0.884200  1
  O  O1226  1  0.667100  0.637200  0.884200  1
  O  O1227  1  0.970100  0.332900  0.884200  1
  O  O1228  1  0.332900  0.970100  0.615800  1
  O  O1229  1  0.029900  0.362800  0.615800  1
  O  O1230  1  0.637200  0.667100  0.615800  1
  O  O1231  1  0.637200  0.970100  0.115800  1
  O  O1232  1  0.332900  0.362800  0.115800  1
  O  O1233  1  0.029900  0.667100  0.115800  1
  O  O1234  1  0.667100  0.029900  0.384200  1
  O  O1235  1  0.970100  0.637200  0.384200  1
  O  O1236  1  0.362800  0.332900  0.384200  1
  O  O1237  1  0.312800  0.977000  0.930700  1
  O  O1238  1  0.664200  0.687200  0.930700  1
  O  O1239  1  0.023000  0.335800  0.930700  1
  O  O1240  1  0.335800  0.023000  0.569300  1
  O  O1241  1  0.977000  0.312800  0.569300  1
  O  O1242  1  0.687200  0.664200  0.569300  1
  O  O1243  1  0.687200  0.023000  0.069300  1
  O  O1244  1  0.335800  0.312800  0.069300  1
  O  O1245  1  0.977000  0.664200  0.069300  1
  O  O1246  1  0.664200  0.977000  0.430700  1
  O  O1247  1  0.023000  0.687200  0.430700  1
  O  O1248  1  0.312800  0.335800  0.430700  1
  O  O1249  1  0.281000  0.965000  0.872800  1
  O  O1250  1  0.684000  0.719000  0.872800  1
  O  O1251  1  0.035000  0.316000  0.872800  1
  O  O1252  1  0.316000  0.035000  0.627200  1
  O  O1253  1  0.965000  0.281000  0.627200  1
  O  O1254  1  0.719000  0.684000  0.627200  1
  O  O1255  1  0.719000  0.035000  0.127200  1
  O  O1256  1  0.316000  0.281000  0.127200  1
  O  O1257  1  0.965000  0.684000  0.127200  1
  O  O1258  1  0.684000  0.965000  0.372800  1
  O  O1259  1  0.035000  0.719000  0.372800  1
  O  O1260  1  0.281000  0.316000  0.372800  1
  O  O1261  1  0.446900  0.501100  0.653400  1
  O  O1262  1  0.054200  0.553100  0.653400  1
  O  O1263  1  0.498900  0.945800  0.653400  1
  O  O1264  1  0.945800  0.498900  0.846600  1
  O  O1265  1  0.501100  0.446900  0.846600  1
  O  O1266  1  0.553100  0.054200  0.846600  1
  O  O1267  1  0.553100  0.498900  0.346600  1
  O  O1268  1  0.945800  0.446900  0.346600  1
  O  O1269  1  0.501100  0.054200  0.346600  1
  O  O1270  1  0.054200  0.501100  0.153400  1
  O  O1271  1  0.498900  0.553100  0.153400  1
  O  O1272  1  0.446900  0.945800  0.153400  1
  O  O1273  1  0.410500  0.533100  0.611200  1
  O  O1274  1  0.122600  0.589500  0.611200  1
  O  O1275  1  0.466900  0.877400  0.611200  1
  O  O1276  1  0.877400  0.466900  0.888800  1
  O  O1277  1  0.533100  0.410500  0.888800  1
  O  O1278  1  0.589500  0.122600  0.888800  1
  O  O1279  1  0.589500  0.466900  0.388800  1
  O  O1280  1  0.877400  0.410500  0.388800  1
  O  O1281  1  0.533100  0.122600  0.388800  1
  O  O1282  1  0.122600  0.533100  0.111200  1
  O  O1283  1  0.466900  0.589500  0.111200  1
  O  O1284  1  0.410500  0.877400  0.111200  1
  O  O1285  1  0.492300  0.583500  0.637900  1
  O  O1286  1  0.091200  0.507700  0.637900  1
  O  O1287  1  0.416500  0.908800  0.637900  1
  O  O1288  1  0.908800  0.416500  0.862100  1
  O  O1289  1  0.583500  0.492300  0.862100  1
  O  O1290  1  0.507700  0.091200  0.862100  1
  O  O1291  1  0.507700  0.416500  0.362100  1
  O  O1292  1  0.908800  0.492300  0.362100  1
  O  O1293  1  0.583500  0.091200  0.362100  1
  O  O1294  1  0.091200  0.583500  0.137900  1
  O  O1295  1  0.416500  0.507700  0.137900  1
  O  O1296  1  0.492300  0.908800  0.137900  1
  O  O1297  1  0.603100  0.211700  0.038300  1
  O  O1298  1  0.608600  0.396900  0.038300  1
  O  O1299  1  0.788300  0.391400  0.038300  1
  O  O1300  1  0.391400  0.788300  0.461700  1
  O  O1301  1  0.211700  0.603100  0.461700  1
  O  O1302  1  0.396900  0.608600  0.461700  1
  O  O1303  1  0.396900  0.788300  0.961700  1
  O  O1304  1  0.391400  0.603100  0.961700  1
  O  O1305  1  0.211700  0.608600  0.961700  1
  O  O1306  1  0.608600  0.211700  0.538300  1
  O  O1307  1  0.788300  0.396900  0.538300  1
  O  O1308  1  0.603100  0.391400  0.538300  1
  O  O1309  1  0.333333  0.666667  0.755300  1
  O  O1310  1  0.666667  0.333333  0.744700  1
  O  O1311  1  0.666667  0.333333  0.244700  1
  O  O1312  1  0.333333  0.666667  0.255300  1
  O  O1313  1  0.736800  0.913800  0.513600  1
  O  O1314  1  0.177000  0.263200  0.513600  1
  O  O1315  1  0.086200  0.823000  0.513600  1
  O  O1316  1  0.823000  0.086200  0.986400  1
  O  O1317  1  0.913800  0.736800  0.986400  1
  O  O1318  1  0.263200  0.177000  0.986400  1
  O  O1319  1  0.263200  0.086200  0.486400  1
  O  O1320  1  0.823000  0.736800  0.486400  1
  O  O1321  1  0.913800  0.177000  0.486400  1
  O  O1322  1  0.177000  0.913800  0.013600  1
  O  O1323  1  0.086200  0.263200  0.013600  1
  O  O1324  1  0.736800  0.823000  0.013600  1
  O  O1325  1  0.337300  0.508800  0.744200  1
  O  O1326  1  0.171500  0.662700  0.744200  1
  O  O1327  1  0.491200  0.828500  0.744200  1
  O  O1328  1  0.828500  0.491200  0.755800  1
  O  O1329  1  0.508800  0.337300  0.755800  1
  O  O1330  1  0.662700  0.171500  0.755800  1
  O  O1331  1  0.662700  0.491200  0.255800  1
  O  O1332  1  0.828500  0.337300  0.255800  1
  O  O1333  1  0.508800  0.171500  0.255800  1
  O  O1334  1  0.171500  0.508800  0.244200  1
  O  O1335  1  0.491200  0.662700  0.244200  1
  O  O1336  1  0.337300  0.828500  0.244200  1
  O  O1337  1  0.783000  0.080400  0.905900  1
  O  O1338  1  0.297400  0.217000  0.905900  1
  O  O1339  1  0.919600  0.702600  0.905900  1
  O  O1340  1  0.702600  0.919600  0.594100  1
  O  O1341  1  0.080400  0.783000  0.594100  1
  O  O1342  1  0.217000  0.297400  0.594100  1
  O  O1343  1  0.217000  0.919600  0.094100  1
  O  O1344  1  0.702600  0.783000  0.094100  1
  O  O1345  1  0.080400  0.297400  0.094100  1
  O  O1346  1  0.297400  0.080400  0.405900  1
  O  O1347  1  0.919600  0.217000  0.405900  1
  O  O1348  1  0.783000  0.702600  0.405900  1
  O  O1349  1  0.207000  0.893000  0.946800  1
  O  O1350  1  0.686000  0.793000  0.946800  1
  O  O1351  1  0.107000  0.314000  0.946800  1
  O  O1352  1  0.314000  0.107000  0.553200  1
  O  O1353  1  0.893000  0.207000  0.553200  1
  O  O1354  1  0.793000  0.686000  0.553200  1
  O  O1355  1  0.793000  0.107000  0.053200  1
  O  O1356  1  0.314000  0.207000  0.053200  1
  O  O1357  1  0.893000  0.686000  0.053200  1
  O  O1358  1  0.686000  0.893000  0.446800  1
  O  O1359  1  0.107000  0.793000  0.446800  1
  O  O1360  1  0.207000  0.314000  0.446800  1
  O  O1361  1  0.725900  0.871600  0.883400  1
  O  O1362  1  0.145700  0.274100  0.883400  1
  O  O1363  1  0.128400  0.854300  0.883400  1
  O  O1364  1  0.854300  0.128400  0.616600  1
  O  O1365  1  0.871600  0.725900  0.616600  1
  O  O1366  1  0.274100  0.145700  0.616600  1
  O  O1367  1  0.274100  0.128400  0.116600  1
  O  O1368  1  0.854300  0.725900  0.116600  1
  O  O1369  1  0.871600  0.145700  0.116600  1
  O  O1370  1  0.145700  0.871600  0.383400  1
  O  O1371  1  0.128400  0.274100  0.383400  1
  O  O1372  1  0.725900  0.854300  0.383400  1
  O  O1373  1  0.701900  0.688400  0.701500  1
  O  O1374  1  0.986500  0.298100  0.701500  1
  O  O1375  1  0.311600  0.013500  0.701500  1
  O  O1376  1  0.013500  0.311600  0.798500  1
  O  O1377  1  0.688400  0.701900  0.798500  1
  O  O1378  1  0.298100  0.986500  0.798500  1
  O  O1379  1  0.298100  0.311600  0.298500  1
  O  O1380  1  0.013500  0.701900  0.298500  1
  O  O1381  1  0.688400  0.986500  0.298500  1
  O  O1382  1  0.986500  0.688400  0.201500  1
  O  O1383  1  0.311600  0.298100  0.201500  1
  O  O1384  1  0.701900  0.013500  0.201500  1
  O  O1385  1  0.689500  0.969400  0.880300  1
  O  O1386  1  0.279900  0.310500  0.880300  1
  O  O1387  1  0.030600  0.720100  0.880300  1
  O  O1388  1  0.720100  0.030600  0.619700  1
  O  O1389  1  0.969400  0.689500  0.619700  1
  O  O1390  1  0.310500  0.279900  0.619700  1
  O  O1391  1  0.310500  0.030600  0.119700  1
  O  O1392  1  0.720100  0.689500  0.119700  1
  O  O1393  1  0.969400  0.279900  0.119700  1
  O  O1394  1  0.279900  0.969400  0.380300  1
  O  O1395  1  0.030600  0.310500  0.380300  1
  O  O1396  1  0.689500  0.720100  0.380300  1
  O  O1397  1  0.841300  0.940400  0.501700  1
  O  O1398  1  0.099100  0.158700  0.501700  1
  O  O1399  1  0.059600  0.900900  0.501700  1
  O  O1400  1  0.900900  0.059600  0.998300  1
  O  O1401  1  0.940400  0.841300  0.998300  1
  O  O1402  1  0.158700  0.099100  0.998300  1
  O  O1403  1  0.158700  0.059600  0.498300  1
  O  O1404  1  0.900900  0.841300  0.498300  1
  O  O1405  1  0.940400  0.099100  0.498300  1
  O  O1406  1  0.099100  0.940400  0.001700  1
  O  O1407  1  0.059600  0.158700  0.001700  1
  O  O1408  1  0.841300  0.900900  0.001700  1
  O  O1409  1  0.623000  0.623000  0.750000  1
  O  O1410  1  1.000000  0.377000  0.750000  1
  O  O1411  1  0.377000  0.000000  0.750000  1
  O  O1412  1  0.377000  0.377000  0.250000  1
  O  O1413  1  1.000000  0.623000  0.250000  1
  O  O1414  1  0.623000  0.000000  0.250000  1
  O  O1415  1  0.523000  0.599000  0.719300  1
  O  O1416  1  0.076000  0.477000  0.719300  1
  O  O1417  1  0.401000  0.924000  0.719300  1
  O  O1418  1  0.924000  0.401000  0.780700  1
  O  O1419  1  0.599000  0.523000  0.780700  1
  O  O1420  1  0.477000  0.076000  0.780700  1
  O  O1421  1  0.477000  0.401000  0.280700  1
  O  O1422  1  0.924000  0.523000  0.280700  1
  O  O1423  1  0.599000  0.076000  0.280700  1
  O  O1424  1  0.076000  0.599000  0.219300  1
  O  O1425  1  0.401000  0.477000  0.219300  1
  O  O1426  1  0.523000  0.924000  0.219300  1
  O  O1427  1  0.517000  0.556000  0.742000  1
  O  O1428  1  0.039000  0.483000  0.742000  1
  O  O1429  1  0.444000  0.961000  0.742000  1
  O  O1430  1  0.961000  0.444000  0.758000  1
  O  O1431  1  0.556000  0.517000  0.758000  1
  O  O1432  1  0.483000  0.039000  0.758000  1
  O  O1433  1  0.483000  0.444000  0.258000  1
  O  O1434  1  0.961000  0.517000  0.258000  1
  O  O1435  1  0.556000  0.039000  0.258000  1
  O  O1436  1  0.039000  0.556000  0.242000  1
  O  O1437  1  0.444000  0.483000  0.242000  1
  O  O1438  1  0.517000  0.961000  0.242000  1
  O  O1439  1  0.456000  0.619000  0.748500  1
  O  O1440  1  0.163000  0.544000  0.748500  1
  O  O1441  1  0.381000  0.837000  0.748500  1
  O  O1442  1  0.837000  0.381000  0.751500  1
  O  O1443  1  0.619000  0.456000  0.751500  1
  O  O1444  1  0.544000  0.163000  0.751500  1
  O  O1445  1  0.544000  0.381000  0.251500  1
  O  O1446  1  0.837000  0.456000  0.251500  1
  O  O1447  1  0.619000  0.163000  0.251500  1
  O  O1448  1  0.163000  0.619000  0.248500  1
  O  O1449  1  0.381000  0.544000  0.248500  1
  O  O1450  1  0.456000  0.837000  0.248500  1
  O  O1451  1  0.465500  0.678600  0.698700  1
  O  O1452  1  0.213100  0.534500  0.698700  1
  O  O1453  1  0.321400  0.786900  0.698700  1
  O  O1454  1  0.786900  0.321400  0.801300  1
  O  O1455  1  0.678600  0.465500  0.801300  1
  O  O1456  1  0.534500  0.213100  0.801300  1
  O  O1457  1  0.534500  0.321400  0.301300  1
  O  O1458  1  0.786900  0.465500  0.301300  1
  O  O1459  1  0.678600  0.213100  0.301300  1
  O  O1460  1  0.213100  0.678600  0.198700  1
  O  O1461  1  0.321400  0.534500  0.198700  1
  O  O1462  1  0.465500  0.786900  0.198700  1
  O  O1463  1  0.599300  0.377300  0.830000  1
  O  O1464  1  0.778000  0.400700  0.830000  1
  O  O1465  1  0.622700  0.222000  0.830000  1
  O  O1466  1  0.222000  0.622700  0.670000  1
  O  O1467  1  0.377300  0.599300  0.670000  1
  O  O1468  1  0.400700  0.778000  0.670000  1
  O  O1469  1  0.400700  0.622700  0.170000  1
  O  O1470  1  0.222000  0.599300  0.170000  1
  O  O1471  1  0.377300  0.778000  0.170000  1
  O  O1472  1  0.778000  0.377300  0.330000  1
  O  O1473  1  0.622700  0.400700  0.330000  1
  O  O1474  1  0.599300  0.222000  0.330000  1
  O  O1475  1  0.538000  0.329000  0.854000  1
  O  O1476  1  0.791000  0.462000  0.854000  1
  O  O1477  1  0.671000  0.209000  0.854000  1
  O  O1478  1  0.209000  0.671000  0.646000  1
  O  O1479  1  0.329000  0.538000  0.646000  1
  O  O1480  1  0.462000  0.791000  0.646000  1
  O  O1481  1  0.462000  0.671000  0.146000  1
  O  O1482  1  0.209000  0.538000  0.146000  1
  O  O1483  1  0.329000  0.791000  0.146000  1
  O  O1484  1  0.791000  0.329000  0.354000  1
  O  O1485  1  0.671000  0.462000  0.354000  1
  O  O1486  1  0.538000  0.209000  0.354000  1
  O  O1487  1  0.509200  0.294600  0.816900  1
  O  O1488  1  0.785400  0.490800  0.816900  1
  O  O1489  1  0.705400  0.214600  0.816900  1
  O  O1490  1  0.214600  0.705400  0.683100  1
  O  O1491  1  0.294600  0.509200  0.683100  1
  O  O1492  1  0.490800  0.785400  0.683100  1
  O  O1493  1  0.490800  0.705400  0.183100  1
  O  O1494  1  0.214600  0.509200  0.183100  1
  O  O1495  1  0.294600  0.785400  0.183100  1
  O  O1496  1  0.785400  0.294600  0.316900  1
  O  O1497  1  0.705400  0.490800  0.316900  1
  O  O1498  1  0.509200  0.214600  0.316900  1
  O  O1499  1  0.333333  0.666667  0.675500  1
  O  O1500  1  0.666667  0.333333  0.824500  1
  O  O1501  1  0.666667  0.333333  0.324500  1
  O  O1502  1  0.333333  0.666667  0.175500  1
  O  O1503  1  0.631800  0.376900  0.119800  1
  O  O1504  1  0.745100  0.368200  0.119800  1
  O  O1505  1  0.623100  0.254900  0.119800  1
  O  O1506  1  0.254900  0.623100  0.380200  1
  O  O1507  1  0.376900  0.631800  0.380200  1
  O  O1508  1  0.368200  0.745100  0.380200  1
  O  O1509  1  0.368200  0.623100  0.880200  1
  O  O1510  1  0.254900  0.631800  0.880200  1
  O  O1511  1  0.376900  0.745100  0.880200  1
  O  O1512  1  0.745100  0.376900  0.619800  1
  O  O1513  1  0.623100  0.368200  0.619800  1
  O  O1514  1  0.631800  0.254900  0.619800  1
  O  O1515  1  0.723000  0.431000  0.141700  1
  O  O1516  1  0.708000  0.277000  0.141700  1
  O  O1517  1  0.569000  0.292000  0.141700  1
  O  O1518  1  0.292000  0.569000  0.358300  1
  O  O1519  1  0.431000  0.723000  0.358300  1
  O  O1520  1  0.277000  0.708000  0.358300  1
  O  O1521  1  0.277000  0.569000  0.858300  1
  O  O1522  1  0.292000  0.723000  0.858300  1
  O  O1523  1  0.431000  0.708000  0.858300  1
  O  O1524  1  0.708000  0.431000  0.641700  1
  O  O1525  1  0.569000  0.277000  0.641700  1
  O  O1526  1  0.723000  0.292000  0.641700  1
  O  O1527  1  0.416000  0.346000  0.777800  1
  O  O1528  1  0.930000  0.584000  0.777800  1
  O  O1529  1  0.654000  0.070000  0.777800  1
  O  O1530  1  0.070000  0.654000  0.722200  1
  O  O1531  1  0.346000  0.416000  0.722200  1
  O  O1532  1  0.584000  0.930000  0.722200  1
  O  O1533  1  0.584000  0.654000  0.222200  1
  O  O1534  1  0.070000  0.416000  0.222200  1
  O  O1535  1  0.346000  0.930000  0.222200  1
  O  O1536  1  0.930000  0.346000  0.277800  1
  O  O1537  1  0.654000  0.584000  0.277800  1
  O  O1538  1  0.416000  0.070000  0.277800  1
  O  O1539  1  0.347000  0.324000  0.819500  1
  O  O1540  1  0.977000  0.653000  0.819500  1
  O  O1541  1  0.676000  0.023000  0.819500  1
  O  O1542  1  0.023000  0.676000  0.680500  1
  O  O1543  1  0.324000  0.347000  0.680500  1
  O  O1544  1  0.653000  0.977000  0.680500  1
  O  O1545  1  0.653000  0.676000  0.180500  1
  O  O1546  1  0.023000  0.347000  0.180500  1
  O  O1547  1  0.324000  0.977000  0.180500  1
  O  O1548  1  0.977000  0.324000  0.319500  1
  O  O1549  1  0.676000  0.653000  0.319500  1
  O  O1550  1  0.347000  0.023000  0.319500  1
  O  O1551  1  0.294600  0.729800  0.780800  1
  O  O1552  1  0.435200  0.705400  0.780800  1
  O  O1553  1  0.270200  0.564800  0.780800  1
  O  O1554  1  0.564800  0.270200  0.719200  1
  O  O1555  1  0.729800  0.294600  0.719200  1
  O  O1556  1  0.705400  0.435200  0.719200  1
  O  O1557  1  0.705400  0.270200  0.219200  1
  O  O1558  1  0.564800  0.294600  0.219200  1
  O  O1559  1  0.729800  0.435200  0.219200  1
  O  O1560  1  0.435200  0.729800  0.280800  1
  O  O1561  1  0.270200  0.705400  0.280800  1
  O  O1562  1  0.294600  0.564800  0.280800  1
  O  O1563  1  0.404000  0.591000  0.819000  1
  O  O1564  1  0.187000  0.596000  0.819000  1
  O  O1565  1  0.409000  0.813000  0.819000  1
  O  O1566  1  0.813000  0.409000  0.681000  1
  O  O1567  1  0.591000  0.404000  0.681000  1
  O  O1568  1  0.596000  0.187000  0.681000  1
  O  O1569  1  0.596000  0.409000  0.181000  1
  O  O1570  1  0.813000  0.404000  0.181000  1
  O  O1571  1  0.591000  0.187000  0.181000  1
  O  O1572  1  0.187000  0.591000  0.319000  1
  O  O1573  1  0.409000  0.596000  0.319000  1
  O  O1574  1  0.404000  0.813000  0.319000  1
  O  O1575  1  0.522000  0.222000  0.025300  1
  O  O1576  1  0.700000  0.478000  0.025300  1
  O  O1577  1  0.778000  0.300000  0.025300  1
  O  O1578  1  0.300000  0.778000  0.474700  1
  O  O1579  1  0.222000  0.522000  0.474700  1
  O  O1580  1  0.478000  0.700000  0.474700  1
  O  O1581  1  0.478000  0.778000  0.974700  1
  O  O1582  1  0.300000  0.522000  0.974700  1
  O  O1583  1  0.222000  0.700000  0.974700  1
  O  O1584  1  0.700000  0.222000  0.525300  1
  O  O1585  1  0.778000  0.478000  0.525300  1
  O  O1586  1  0.522000  0.300000  0.525300  1
  O  O1587  1  0.351000  0.981000  0.867000  1
  O  O1588  1  0.630000  0.649000  0.867000  1
  O  O1589  1  0.019000  0.370000  0.867000  1
  O  O1590  1  0.370000  0.019000  0.633000  1
  O  O1591  1  0.981000  0.351000  0.633000  1
  O  O1592  1  0.649000  0.630000  0.633000  1
  O  O1593  1  0.649000  0.019000  0.133000  1
  O  O1594  1  0.370000  0.351000  0.133000  1
  O  O1595  1  0.981000  0.630000  0.133000  1
  O  O1596  1  0.630000  0.981000  0.367000  1
  O  O1597  1  0.019000  0.649000  0.367000  1
  O  O1598  1  0.351000  0.370000  0.367000  1
  O  O1599  1  0.487000  0.429000  0.848500  1
  O  O1600  1  0.942000  0.513000  0.848500  1
  O  O1601  1  0.571000  0.058000  0.848500  1
  O  O1602  1  0.058000  0.571000  0.651500  1
  O  O1603  1  0.429000  0.487000  0.651500  1
  O  O1604  1  0.513000  0.942000  0.651500  1
  O  O1605  1  0.513000  0.571000  0.151500  1
  O  O1606  1  0.058000  0.487000  0.151500  1
  O  O1607  1  0.429000  0.942000  0.151500  1
  O  O1608  1  0.942000  0.429000  0.348500  1
  O  O1609  1  0.571000  0.513000  0.348500  1
  O  O1610  1  0.487000  0.058000  0.348500  1
  O  O1611  1  0.547000  0.421000  0.885200  1
  O  O1612  1  0.874000  0.453000  0.885200  1
  O  O1613  1  0.579000  0.126000  0.885200  1
  O  O1614  1  0.126000  0.579000  0.614800  1
  O  O1615  1  0.421000  0.547000  0.614800  1
  O  O1616  1  0.453000  0.874000  0.614800  1
  O  O1617  1  0.453000  0.579000  0.114800  1
  O  O1618  1  0.126000  0.547000  0.114800  1
  O  O1619  1  0.421000  0.874000  0.114800  1
  O  O1620  1  0.874000  0.421000  0.385200  1
  O  O1621  1  0.579000  0.453000  0.385200  1
  O  O1622  1  0.547000  0.126000  0.385200  1
  O  O1623  1  0.464000  0.359000  0.883000  1
  O  O1624  1  0.895000  0.536000  0.883000  1
  O  O1625  1  0.641000  0.105000  0.883000  1
  O  O1626  1  0.105000  0.641000  0.617000  1
  O  O1627  1  0.359000  0.464000  0.617000  1
  O  O1628  1  0.536000  0.895000  0.617000  1
  O  O1629  1  0.536000  0.641000  0.117000  1
  O  O1630  1  0.105000  0.464000  0.117000  1
  O  O1631  1  0.359000  0.895000  0.117000  1
  O  O1632  1  0.895000  0.359000  0.383000  1
  O  O1633  1  0.641000  0.536000  0.383000  1
  O  O1634  1  0.464000  0.105000  0.383000  1
  O  O1635  1  0.429800  0.330600  0.853800  1
  O  O1636  1  0.900800  0.570200  0.853800  1
  O  O1637  1  0.669400  0.099200  0.853800  1
  O  O1638  1  0.099200  0.669400  0.646200  1
  O  O1639  1  0.330600  0.429800  0.646200  1
  O  O1640  1  0.570200  0.900800  0.646200  1
  O  O1641  1  0.570200  0.669400  0.146200  1
  O  O1642  1  0.099200  0.429800  0.146200  1
  O  O1643  1  0.330600  0.900800  0.146200  1
  O  O1644  1  0.900800  0.330600  0.353800  1
  O  O1645  1  0.669400  0.570200  0.353800  1
  O  O1646  1  0.429800  0.099200  0.353800  1
  O  O1647  1  0.560000  0.609000  0.724000  1
  O  O1648  1  0.049000  0.440000  0.724000  1
  O  O1649  1  0.391000  0.951000  0.724000  1
  O  O1650  1  0.951000  0.391000  0.776000  1
  O  O1651  1  0.609000  0.560000  0.776000  1
  O  O1652  1  0.440000  0.049000  0.776000  1
  O  O1653  1  0.440000  0.391000  0.276000  1
  O  O1654  1  0.951000  0.560000  0.276000  1
  O  O1655  1  0.609000  0.049000  0.276000  1
  O  O1656  1  0.049000  0.609000  0.224000  1
  O  O1657  1  0.391000  0.440000  0.224000  1
  O  O1658  1  0.560000  0.951000  0.224000  1
