
#######################################################################
#
#                 Cambridge Crystallographic Data Centre
#                                CCDC 
#
#######################################################################
#
# If this CIF has been generated from an entry in the Cambridge 
# Structural Database, then it will include bibliographic, chemical, 
# crystal, experimental, refinement or atomic coordinate data resulting 
# from the CCDC's data processing and validation procedures.
#
#######################################################################

data_GIYMUX
_chemical_formula_moiety         
'C132 H96 N36 Pd6 12+,12(N1 O3 1-),0.6(C16 H8 O2),0.6(C17 H22),36(H2 O1)'
_chemical_name_systematic        
"tetrakis(\m~3~-2,4,6-tris(4-Pyridyl)-1,3,5-triazine-N,N',N'')-hexakis(2,2'-bipyridine)-hexa-palladium dodecakis(nitrate) 4-(1-adamantyl)toluene pyrene-3,4-dione clathrate hydrate"
_symmetry_cell_setting           tetragonal
_symmetry_space_group_name_H-M   'P 41 21 2'
_symmetry_Int_Tables_number      92
_space_group_name_Hall           'P 4abw 2nw'
loop_
_symmetry_equiv_pos_site_id
_symmetry_equiv_pos_as_xyz
1 x,y,z
2 -x,-y,1/2+z
3 1/2-y,1/2+x,1/4+z
4 1/2+y,1/2-x,3/4+z
5 1/2-x,1/2+y,1/4-z
6 1/2+x,1/2-y,3/4-z
7 y,x,-z
8 -y,-x,1/2-z
_cell_length_a                   28.996(3)
_cell_length_b                   28.996(3)
_cell_length_c                   30.280(6)
_cell_angle_alpha                90
_cell_angle_beta                 90
_cell_angle_gamma                90
_cell_volume                     25458.5
_exptl_crystal_colour            yellow
_exptl_crystal_description       block
_cell_formula_units_Z            4
loop_
_atom_site_label
_atom_site_type_symbol
_atom_site_fract_x
_atom_site_fract_y
_atom_site_fract_z
O1 O 0.1024(16) -0.809(2) 0.446(2)
O2 O 0.1050(16) -0.717(3) 0.4376(19)
C67 C 0.1209(12) -0.786(2) 0.4753(17)
C68 C 0.1415(14) -0.808(2) 0.5150(19)
C69 C 0.1414(15) -0.855(2) 0.521(2)
H49 H 0.1287 -0.8747 0.4988
C70 C 0.1260(18) -0.840(2) 0.441(3)
H50 H 0.0932 -0.8431 0.4365
C71 C 0.1510(19) -0.818(2) 0.409(3)
H51 H 0.1368 -0.8029 0.3849
C72 C 0.2000(17) -0.817(2) 0.414(2)
C73 C 0.2270(19) -0.795(2) 0.381(2)
H52 H 0.2129 -0.7811 0.3566
C74 C 0.2740(18) -0.795(2) 0.385(2)
H53 H 0.2918 -0.7823 0.3612
C75 C 0.2970(15) -0.813(2) 0.4226(19)
C76 C 0.3460(18) -0.814(2) 0.427(2)
H54 H 0.3640 -0.8009 0.4044
C77 C 0.3670(17) -0.832(2) 0.464(2)
H55 H 0.3996 -0.8305 0.4667
C78 C 0.3400(13) -0.853(2) 0.496(2)
H56 H 0.3549 -0.8656 0.5214
C79 C 0.2930(13) -0.856(2) 0.4941(19)
C80 C 0.1221(15) -0.734(2) 0.4703(18)
C81 C 0.1631(14) -0.779(2) 0.5474(18)
C82 C 0.2710(14) -0.837(2) 0.4560(17)
C83 C 0.1141(16) -0.833(2) 0.341(3)
H57 H 0.1100 -0.8120 0.3153
H58 H 0.0872 -0.8305 0.3601
H59 H 0.1172 -0.8646 0.3300
C84 C 0.1571(13) -0.8192(17) 0.366(2)
C85 C 0.1825(18) -0.782(2) 0.352(2)
H60 H 0.1736 -0.7657 0.3258
C86 C 0.2205(19) -0.7684(19) 0.375(2)
H61 H 0.2362 -0.7409 0.3669
C87 C 0.2364(15) -0.7949(16) 0.410(2)
C88 C 0.2095(17) -0.8303(17) 0.426(2)
H62 H 0.1539 -0.7818 0.5479
C89 C 0.1694(15) -0.8432(16) 0.403(2)
H63 H 0.1511 -0.8681 0.4136
C90 C 0.2800(15) -0.7790(13) 0.4341(17)
C91 C 0.2802(16) -0.7265(12) 0.439(2)
H64 H 0.2774 -0.7125 0.4097
H65 H 0.2524 -0.7175 0.4564
C92 C 0.3221(16) -0.7058(17) 0.4621(19)
H66 H 0.3212 -0.6715 0.4657
C93 C 0.327(2) -0.7330(17) 0.505(2)
H67 H 0.3007 -0.7241 0.5240
H68 H 0.3553 -0.7218 0.5197
C94 C 0.3292(17) -0.7860(17) 0.5049(19)
H69 H 0.3324 -0.8005 0.5347
C95 C 0.2871(16) -0.8012(16) 0.4784(17)
H70 H 0.2892 -0.8350 0.4739
H71 H 0.2593 -0.7953 0.4966
C96 C 0.3232(14) -0.7908(17) 0.4064(19)
H72 H 0.3242 -0.8246 0.4022
H73 H 0.3196 -0.7766 0.3769
C97 C 0.3700(16) -0.7754(16) 0.426(2)
H74 H 0.3977 -0.7833 0.4074
C98 C 0.3618(18) -0.7239(16) 0.433(3)
H75 H 0.3582 -0.7096 0.4039
H76 H 0.3906 -0.7114 0.4461
C99 C 0.3682(17) -0.797(2) 0.472(2)
H77 H 0.3685 -0.8308 0.4682
H78 H 0.3975 -0.7888 0.4871
O3 O 0.3214(17) -0.7611(17) 0.5282(15)
O6 O 0.182(4) -0.786(4) 0.403(4)
O7 O 0.318(3) -0.812(3) 0.479(3)
O1F O 0.191(2) -0.8976(16) 0.554(2)
O2F O 0.283(3) -0.8950(16) 0.5624(19)
C67F C 0.214(2) -0.8791(12) 0.5247(17)
C68F C 0.192(2) -0.8585(14) 0.4850(19)
C69F C 0.145(2) -0.8586(15) 0.479(2)
C70F C 0.160(2) -0.8740(18) 0.559(3)
H50F H 0.1569 -0.9068 0.5635
C71F C 0.182(2) -0.8490(19) 0.591(3)
H51F H 0.1971 -0.8632 0.6151
C72F C 0.183(2) -0.8000(17) 0.586(2)
C73F C 0.205(2) -0.7730(19) 0.619(2)
H52F H 0.2189 -0.7871 0.6434
C74F C 0.205(2) -0.7260(18) 0.615(2)
H53F H 0.2177 -0.7082 0.6388
C75F C 0.187(2) -0.7030(15) 0.5774(19)
C76F C 0.186(2) -0.6540(18) 0.573(2)
H54F H 0.1991 -0.6360 0.5956
C77F C 0.168(2) -0.6330(17) 0.536(2)
H55F H 0.1695 -0.6004 0.5333
C78F C 0.147(2) -0.6600(13) 0.504(2)
H56F H 0.1344 -0.6451 0.4786
C79F C 0.144(2) -0.7070(13) 0.5059(19)
C80F C 0.266(2) -0.8779(15) 0.5297(18)
C81F C 0.221(2) -0.8369(14) 0.4526(18)
C82F C 0.163(2) -0.7290(14) 0.5440(17)
C83F C 0.167(2) -0.8859(16) 0.659(3)
H57F H 0.1880 -0.8900 0.6847
H58F H 0.1695 -0.9128 0.6399
H59F H 0.1354 -0.8828 0.6700
C84F C 0.1808(17) -0.8429(13) 0.634(2)
C85F C 0.218(2) -0.8175(18) 0.648(2)
H60F H 0.2343 -0.8264 0.6742
C86F C 0.2316(19) -0.7795(19) 0.625(2)
H61F H 0.2591 -0.7638 0.6331
C87F C 0.2051(16) -0.7636(15) 0.590(2)
C88F C 0.1697(17) -0.7905(17) 0.574(2)
H62F H 0.2182 -0.8461 0.4521
C89F C 0.1568(16) -0.8306(15) 0.597(2)
H63F H 0.1319 -0.8489 0.5864
C90F C 0.2210(13) -0.7200(15) 0.5659(17)
C91F C 0.2735(12) -0.7198(16) 0.561(2)
H64F H 0.2875 -0.7226 0.5903
H65F H 0.2825 -0.7476 0.5436
C92F C 0.2942(17) -0.6779(16) 0.5379(19)
H66F H 0.3285 -0.6788 0.5343
C93F C 0.2670(17) -0.673(2) 0.495(2)
H67F H 0.2759 -0.6993 0.4760
H68F H 0.2782 -0.6447 0.4803
C94F C 0.2140(17) -0.6708(17) 0.4951(19)
H69F H 0.1995 -0.6676 0.4653
C95F C 0.1988(16) -0.7129(16) 0.5216(17)
H70F H 0.1650 -0.7108 0.5261
H71F H 0.2047 -0.7407 0.5034
C96F C 0.2092(17) -0.6768(14) 0.5936(19)
H72F H 0.1754 -0.6758 0.5978
H73F H 0.2234 -0.6804 0.6231
C97F C 0.2246(16) -0.6300(16) 0.574(2)
H74F H 0.2167 -0.6023 0.5926
C98F C 0.2761(16) -0.6382(18) 0.567(3)
H75F H 0.2904 -0.6418 0.5961
H76F H 0.2886 -0.6094 0.5539
C99F C 0.203(2) -0.6318(17) 0.528(2)
H78F H 0.2112 -0.6025 0.5129
O3F O 0.2389(17) -0.6786(17) 0.4718(15)
O6F O 0.214(4) -0.818(4) 0.597(4)
O7F O 0.188(3) -0.682(3) 0.521(3)
O4 O 0.750(3) -0.595(3) 0.153(3)
O5 O 0.577(3) -0.662(3) 0.352(2)
N19 N 0.1598(5) -0.5866(5) 0.7934(5)
O8 O 0.1670(5) -0.5737(5) 0.8300(5)
O9 O 0.1211(5) -0.5902(5) 0.7807(5)
O10 O 0.1904(4) -0.5967(4) 0.7668(4)
N20 N 0.0281(14) -0.4508(12) 0.4700(10)
O11 O 0.0702(17) -0.4439(17) 0.4487(16)
O12 O 0.0384(12) -0.4810(13) 0.4949(11)
O13 O -0.0086(14) -0.4324(13) 0.4663(11)
N21 N -0.0545(6) -0.6192(6) 0.3526(5)
O14 O -0.0230(5) -0.6528(5) 0.3536(5)
O15 O -0.0411(6) -0.5864(6) 0.3301(5)
O16 O -0.0888(5) -0.6190(5) 0.3747(4)
N22 N -0.0865(12) -0.9701(12) 0.4233(8)
O17 O -0.1016(8) -1.0047(8) 0.4087(7)
O18 O -0.1167(10) -0.9446(10) 0.4405(9)
O19 O -0.0400(7) -0.9514(7) 0.4158(6)
N23 N 0.5625(13) -0.5741(12) 0.4467(11)
O20 O 0.5959(14) -0.5730(16) 0.4698(14)
O21 O 0.5341(13) -0.6028(13) 0.4522(12)
O22 O 0.5581(12) -0.5450(11) 0.4178(10)
O23 O 0.2589(10) -0.5635(10) 0.8400(9)
O24 O -0.0911(12) -0.8874(13) 0.6129(11)
O25 O -0.1050(11) -0.8383(11) 0.5515(10)
O26 O -0.0502(13) -0.7948(13) 0.4140(11)
O27 O -0.0019(9) -0.7270(9) 0.7549(8)
O28 O 0.3523(16) -0.6072(16) 0.9790(14)
O29 O -0.0290(8) -0.7553(8) 0.6663(7)
O30 O 0.1497(19) -0.4971(19) 0.3207(17)
O31 O 0.110(2) -0.389(2) 0.3842(19)
O32 O 0.0801(14) -0.3260(15) 0.3701(13)
O33 O -0.0325(18) -0.7485(18) 0.9086(16)
O34 O 0.0249(19) -0.7357(19) 0.9636(17)
O35 O 0.252(2) -0.815(2) 0.862(2)
O36 O 0.139(2) -0.450(2) 0.2504(19)
O37 O 0.1076(18) -0.3826(18) 0.2471(17)
O38 O 0.4088(6) -0.7967(6) 0.3268(5)
O39 O 0.6223(14) -0.8272(14) 0.4817(13)
O40 O 0.7118(18) -0.4904(18) 0.6036(16)
O41 O 0.6563(19) -0.441(2) 0.4221(17)
O42 O 0.6792(17) -0.4103(16) 0.6136(15)
O43 O 0.4114(9) -0.6393(9) 0.2869(8)
O44 O 0.3014(11) -0.6438(11) 0.1933(10)
O45 O 0.3616(9) -0.9709(9) 0.7268(8)
O46 O 0.8322(16) -0.4389(16) 0.5344(14)
O47 O 0.7688(19) -0.3418(19) 0.5371(17)
O49 O 0.6698(17) -0.6824(17) 0.5523(16)
O50 O 0.2967(17) -0.5364(17) 0.3094(15)
O51 O 0.6923(16) -0.3914(16) 0.5385(14)
O52 O 0.6636(14) -0.9161(14) 0.4856(13)
O53 O 0.5944(17) -0.6519(18) 0.5404(17)
O54 O 0.6368(11) -0.4774(12) 0.4386(10)
O55 O 0.7036(13) -0.6175(13) 0.6275(12)
O56 O 0.2763(15) -0.5745(15) 0.2657(14)
Pd1 Pd 0.00703(3) -0.99297(3) 0.5000
Pd2 Pd 0.17796(4) -0.70468(3) 0.79294(3)
Pd3 Pd 0.46058(3) -0.53942(3) 0.5000
Pd4 Pd 0.01575(4) -0.55288(4) 0.42267(4)
C1 C 0.0245(5) -0.9230(5) 0.5644(6)
H1 H 0.0270 -0.9493 0.5830
C2 C 0.0334(6) -0.8777(5) 0.5829(6)
H2 H 0.0420 -0.8739 0.6130
C3 C 0.0288(5) -0.8392(5) 0.5538(6)
C4 C 0.0124(5) -0.8484(4) 0.5117(5)
H3 H 0.0054 -0.8235 0.4924
C5 C 0.0065(4) -0.8914(4) 0.4978(5)
H4 H -0.0029 -0.8965 0.4682
C6 C 0.1357(4) -0.6870(4) 0.7078(4)
H5 H 0.1505 -0.6582 0.7125
C7 C 0.1117(5) -0.6925(5) 0.6703(5)
H6 H 0.1086 -0.6678 0.6499
C8 C 0.0916(5) -0.7350(4) 0.6619(4)
C9 C 0.0953(5) -0.7706(5) 0.6948(4)
H7 H 0.0802 -0.7994 0.6915
C10 C 0.1210(6) -0.7612(5) 0.7298(5)
H8 H 0.1265 -0.7855 0.7502
C11 C 0.0044(5) -0.6467(5) 0.4564(5)
H9 H -0.0078 -0.6519 0.4277
C12 C 0.0109(5) -0.6825(5) 0.4829(6)
H10 H 0.0044 -0.7128 0.4728
C13 C 0.0275(4) -0.6752(5) 0.5257(6)
C14 C 0.0378(4) -0.6315(5) 0.5395(5)
H11 H 0.0487 -0.6254 0.5685
C15 C 0.0312(4) -0.5959(5) 0.5084(7)
H12 H 0.0392 -0.5652 0.5163
C16 C 0.0387(4) -0.7935(4) 0.5693(5)
C17 C 0.0659(4) -0.7435(4) 0.6209(5)
C18 C 0.0379(4) -0.7157(4) 0.5558(4)
N1 N 0.0134(3) -0.9285(3) 0.5245(4)
N2 N 0.1402(4) -0.7187(3) 0.7387(3)
N3 N 0.0143(4) -0.6040(3) 0.4686(4)
N4 N 0.0582(4) -0.7876(3) 0.6094(4)
N5 N 0.0582(4) -0.7063(4) 0.5945(4)
N6 N 0.0275(4) -0.7568(4) 0.5406(4)
C19 C 0.4080(8) -0.5868(7) 0.5706(5)
H13 H 0.3956 -0.5570 0.5760
C20 C 0.3921(6) -0.6223(5) 0.5936(6)
H14 H 0.3685 -0.6174 0.6149
C21 C 0.4091(5) -0.6663(5) 0.5872(5)
C22 C 0.4412(6) -0.6750(8) 0.5533(7)
H15 H 0.4502 -0.7053 0.5450
C23 C 0.4595(7) -0.6340(9) 0.5321(7)
H16 H 0.4847 -0.6362 0.5122
C24 C 0.2492(5) -0.7573(4) 0.7435(5)
H17 H 0.2347 -0.7829 0.7572
C25 C 0.2829(5) -0.7657(5) 0.7144(5)
H18 H 0.2925 -0.7964 0.7083
C26 C 0.3035(4) -0.7285(4) 0.6935(6)
C27 C 0.2898(5) -0.6839(5) 0.7055(5)
H19 H 0.3037 -0.6575 0.6925
C28 C 0.2557(5) -0.6797(4) 0.7367(5)
H20 H 0.2469 -0.6496 0.7459
C29 C 0.4446(7) -0.8832(6) 0.5698(6)
H21 H 0.4672 -0.8882 0.5475
C30 C 0.4331(6) -0.8383(6) 0.5795(7)
H22 H 0.4483 -0.8136 0.5648
C31 C 0.3998(5) -0.8291(5) 0.6105(5)
C32 C 0.3799(6) -0.8676(7) 0.6316(6)
H23 H 0.3555 -0.8633 0.6521
C33 C 0.3957(5) -0.9112(6) 0.6227(6)
H24 H 0.3850 -0.9362 0.6401
C34 C 0.3894(4) -0.7066(5) 0.6104(5)
C35 C 0.3408(4) -0.7355(4) 0.6594(4)
C36 C 0.3846(5) -0.7815(4) 0.6211(6)
N7 N 0.4396(7) -0.5914(6) 0.5414(6)
N8 N 0.2346(3) -0.7152(4) 0.7546(4)
N9 N 0.4266(4) -0.9198(5) 0.5890(5)
N10 N 0.3572(4) -0.6978(3) 0.6395(4)
N11 N 0.3520(4) -0.7783(4) 0.6515(4)
N12 N 0.4054(4) -0.7491(4) 0.5983(4)
C37 C 0.0504(9) -0.4884(9) 0.3515(8)
H25 H 0.0787 -0.5049 0.3529
C38 C 0.0491(11) -0.4519(8) 0.3250(7)
H26 H 0.0752 -0.4378 0.3117
C39 C -0.002(2) -0.4360(11) 0.3189(13)
H27 H -0.0071 -0.4131 0.2971
C40 C -0.0390(15) -0.4513(12) 0.3416(12)
H28 H -0.0696 -0.4404 0.3374
C41 C -0.0263(8) -0.4849(6) 0.3715(8)
C42 C -0.0643(5) -0.5009(5) 0.4005(6)
C43 C -0.1049(12) -0.4826(11) 0.3943(8)
H29 H -0.1122 -0.4614 0.3714
C44 C -0.1335(11) -0.4972(9) 0.4234(13)
H30 H -0.1636 -0.4845 0.4217
C45 C -0.1258(7) -0.5318(7) 0.4599(8)
H31 H -0.1478 -0.5424 0.4808
C46 C -0.0772(5) -0.5456(6) 0.4564(6)
H32 H -0.0667 -0.5680 0.4769
N13 N 0.0155(6) -0.5044(5) 0.3767(6)
N14 N -0.0484(5) -0.5312(4) 0.4295(5)
C47 C 0.0809(5) -0.6925(7) 0.8225(5)
H33 H 0.0734 -0.7045 0.7942
C48 C 0.0460(9) -0.6817(9) 0.8494(11)
H34 H 0.0155 -0.6919 0.8436
C49 C 0.0559(10) -0.6555(9) 0.8855(8)
H35 H 0.0332 -0.6381 0.9009
C50 C 0.1016(15) -0.6564(9) 0.8976(8)
H36 H 0.1084 -0.6468 0.9269
C51 C 0.1391(8) -0.6698(6) 0.8718(5)
C52 C 0.1853(9) -0.6653(7) 0.8801(5)
C53 C 0.2045(12) -0.6615(16) 0.9182(8)
H37 H 0.1853 -0.6626 0.9435
C54 C 0.2447(18) -0.6568(10) 0.9237(11)
H38 H 0.2553 -0.6436 0.9506
C55 C 0.2792(9) -0.6708(10) 0.8898(11)
H39 H 0.3116 -0.6680 0.8932
C56 C 0.2581(6) -0.6883(8) 0.8534(6)
H40 H 0.2761 -0.7029 0.8312
N15 N 0.1252(5) -0.6879(4) 0.8322(4)
N16 N 0.2126(5) -0.6853(4) 0.8482(4)
C57 C -0.0844(5) -0.9710(7) 0.5388(5)
H41 H -0.0721 -0.9410 0.5426
C58 C -0.1286(5) -0.9784(9) 0.5531(7)
H42 H -0.1460 -0.9554 0.5679
C59 C -0.1469(9) -1.0240(11) 0.5440(10)
H43 H -0.1778 -1.0318 0.5515
C60 C -0.1202(9) -1.0533(10) 0.5257(11)
H44 H -0.1309 -1.0841 0.5233
C61 C -0.0764(5) -1.0436(6) 0.5090(6)
C62 C 0.5366(6) -0.4827(6) 0.5203(5)
C63 C 0.5752(8) -0.4667(8) 0.5421(8)
H45 H 0.5953 -0.4459 0.5274
C64 C 0.5848(9) -0.4797(10) 0.5835(12)
H46 H 0.6048 -0.4629 0.6024
C65 C 0.5627(9) -0.5207(9) 0.5962(6)
H47 H 0.5725 -0.5356 0.6225
C66 C 0.5295(5) -0.5391(7) 0.5737(6)
H48 H 0.5166 -0.5677 0.5826
N17 N -0.0571(4) -1.0026(4) 0.5199(4)
N18 N 0.5132(5) -0.5174(6) 0.5371(5)
Pd2F Pd 0.29532(3) -0.82204(4) 0.20706(3)
Pd4F Pd 0.44712(4) -0.98425(4) 0.57733(4)
C1F C 0.0770(5) -0.9755(5) 0.4356(6)
H1F H 0.0507 -0.9730 0.4170
C2F C 0.1223(5) -0.9666(6) 0.4171(6)
H2F H 0.1261 -0.9580 0.3870
C3F C 0.1608(5) -0.9712(5) 0.4462(6)
C4F C 0.1516(4) -0.9876(5) 0.4883(5)
H3F H 0.1765 -0.9946 0.5076
C5F C 0.1086(4) -0.9935(4) 0.5022(5)
H4F H 0.1035 -1.0029 0.5318
C6F C 0.3130(4) -0.8643(4) 0.2922(4)
H5F H 0.3418 -0.8495 0.2875
C7F C 0.3075(5) -0.8883(5) 0.3297(5)
H6F H 0.3322 -0.8914 0.3501
C8F C 0.2650(4) -0.9084(5) 0.3381(4)
C9F C 0.2294(5) -0.9047(5) 0.3052(4)
H7F H 0.2006 -0.9198 0.3085
C10F C 0.2388(5) -0.8790(6) 0.2702(5)
H8F H 0.2145 -0.8735 0.2498
C11F C 0.3533(5) -0.9956(5) 0.5436(5)
H9F H 0.3481 -1.0078 0.5723
C12F C 0.3175(5) -0.9891(5) 0.5171(6)
H10F H 0.2872 -0.9956 0.5272
C13F C 0.3248(5) -0.9725(4) 0.4743(6)
C14F C 0.3685(5) -0.9622(4) 0.4605(5)
H11F H 0.3746 -0.9513 0.4315
C15F C 0.4041(5) -0.9688(4) 0.4916(7)
H12F H 0.4348 -0.9608 0.4837
C16F C 0.2065(4) -0.9613(4) 0.4307(5)
C17F C 0.2565(4) -0.9341(4) 0.3791(5)
C18F C 0.2843(4) -0.9621(4) 0.4442(4)
N1F N 0.0715(3) -0.9866(3) 0.4755(4)
N2F N 0.2813(3) -0.8598(4) 0.2613(3)
N3F N 0.3960(3) -0.9857(4) 0.5314(4)
N4F N 0.2124(3) -0.9418(4) 0.3906(4)
N5F N 0.2937(4) -0.9418(4) 0.4055(4)
N6F N 0.2432(4) -0.9725(4) 0.4594(4)
C19F C 0.4132(7) -0.5920(8) 0.4294(5)
H13F H 0.4430 -0.6044 0.4240
C20F C 0.3777(5) -0.6079(6) 0.4064(6)
H14F H 0.3826 -0.6315 0.3851
C21F C 0.3337(5) -0.5909(5) 0.4128(5)
C22F C 0.3250(8) -0.5588(6) 0.4467(7)
H15F H 0.2947 -0.5498 0.4550
C23F C 0.3660(9) -0.5405(7) 0.4679(7)
H16F H 0.3638 -0.5153 0.4878
C24F C 0.2427(4) -0.7508(5) 0.2565(5)
H17F H 0.2171 -0.7653 0.2428
C25F C 0.2343(5) -0.7171(5) 0.2856(5)
H18F H 0.2036 -0.7075 0.2917
C26F C 0.2715(4) -0.6965(4) 0.3065(6)
C27F C 0.3161(5) -0.7102(5) 0.2945(5)
H19F H 0.3425 -0.6963 0.3075
C28F C 0.3203(4) -0.7443(5) 0.2633(5)
H20F H 0.3504 -0.7531 0.2541
C29F C 0.1168(6) -0.5554(7) 0.4302(6)
H21F H 0.1118 -0.5328 0.4525
C30F C 0.1617(6) -0.5669(6) 0.4205(7)
H22F H 0.1864 -0.5517 0.4352
C31F C 0.1709(5) -0.6002(5) 0.3895(5)
C32F C 0.1324(7) -0.6201(6) 0.3684(6)
H23F H 0.1367 -0.6445 0.3479
C33F C 0.0888(6) -0.6043(5) 0.3773(6)
H24F H 0.0638 -0.6150 0.3599
C34F C 0.2934(5) -0.6106(4) 0.3896(5)
C35F C 0.2645(4) -0.6592(4) 0.3406(4)
C36F C 0.2185(4) -0.6154(5) 0.3789(6)
N7F N 0.4086(6) -0.5604(7) 0.4586(6)
N8F N 0.2848(4) -0.7654(3) 0.2454(4)
N9F N 0.0802(5) -0.5734(4) 0.4110(5)
N10F N 0.3022(3) -0.6428(4) 0.3605(4)
N11F N 0.2217(4) -0.6480(4) 0.3485(4)
N12F N 0.2509(4) -0.5946(4) 0.4017(4)
C37F C 0.5116(9) -0.9496(9) 0.6485(8)
H25F H 0.4951 -0.9213 0.6471
C38F C 0.5481(8) -0.9509(11) 0.6750(7)
H26F H 0.5622 -0.9248 0.6883
C39F C 0.5640(11) -1.002(2) 0.6811(13)
H27F H 0.5869 -1.0071 0.7029
C40F C 0.5487(12) -1.0390(15) 0.6584(12)
H28F H 0.5596 -1.0696 0.6626
C41F C 0.5151(6) -1.0263(8) 0.6285(8)
C42F C 0.4991(5) -1.0643(5) 0.5995(6)
C43F C 0.5174(11) -1.1049(12) 0.6057(8)
H29F H 0.5386 -1.1122 0.6286
C44F C 0.5028(9) -1.1335(11) 0.5766(13)
H30F H 0.5155 -1.1636 0.5783
C45F C 0.4682(7) -1.1258(7) 0.5401(8)
H31F H 0.4576 -1.1478 0.5192
C46F C 0.4544(6) -1.0772(5) 0.5436(6)
H32F H 0.4320 -1.0667 0.5231
N13F N 0.4956(5) -0.9845(6) 0.6233(6)
N14F N 0.4688(4) -1.0484(5) 0.5705(5)
C47F C 0.3075(7) -0.9191(5) 0.1775(5)
H33F H 0.2955 -0.9266 0.2058
C48F C 0.3183(9) -0.9540(9) 0.1506(11)
H34F H 0.3081 -0.9845 0.1564
C49F C 0.3445(9) -0.9441(10) 0.1145(8)
H35F H 0.3619 -0.9668 0.0991
C50F C 0.3436(9) -0.8984(15) 0.1024(8)
H36F H 0.3532 -0.8916 0.0731
C51F C 0.3302(6) -0.8609(8) 0.1282(5)
C52F C 0.3347(7) -0.8147(9) 0.1199(5)
C53F C 0.3385(16) -0.7955(12) 0.0818(8)
H37F H 0.3374 -0.8147 0.0565
C54F C 0.3432(10) -0.7553(18) 0.0763(11)
H38F H 0.3564 -0.7447 0.0494
C55F C 0.3292(10) -0.7208(9) 0.1102(11)
H39F H 0.3320 -0.6884 0.1068
C56F C 0.3117(8) -0.7419(6) 0.1466(6)
H40F H 0.2971 -0.7239 0.1688
N15F N 0.3121(4) -0.8748(5) 0.1678(4)
N16F N 0.3147(4) -0.7874(5) 0.1518(4)
C57F C 0.0290(7) -1.0844(5) 0.4612(5)
H41F H 0.0590 -1.0721 0.4574
C58F C 0.0216(9) -1.1286(5) 0.4469(7)
H42F H 0.0446 -1.1460 0.4321
C59F C -0.0240(11) -1.1469(9) 0.4560(10)
H43F H -0.0318 -1.1778 0.4485
C60F C -0.0533(10) -1.1202(9) 0.4743(11)
H44F H -0.0841 -1.1309 0.4767
C61F C -0.0436(6) -1.0764(5) 0.4910(6)
C62F C 0.5173(6) -0.4634(6) 0.4797(5)
C63F C 0.5333(8) -0.4248(8) 0.4579(8)
H45F H 0.5541 -0.4047 0.4726
C64F C 0.5203(10) -0.4152(9) 0.4165(12)
H46F H 0.5371 -0.3952 0.3976
C65F C 0.4793(9) -0.4373(9) 0.4038(6)
H47F H 0.4644 -0.4275 0.3775
C66F C 0.4609(7) -0.4705(5) 0.4263(6)
H48F H 0.4323 -0.4834 0.4174
N17F N -0.0026(4) -1.0571(4) 0.4801(4)
N18F N 0.4826(6) -0.4868(5) 0.4629(5)
O48? O 0.6965(13) -0.6735(13) 0.5768(12)
loop_
_geom_bond_atom_site_label_1
_geom_bond_atom_site_label_2
_geom_bond_site_symmetry_1
_geom_bond_site_symmetry_2
Pd1 N1 1_555 1_555
Pd2 N2 1_555 1_555
Pd3 N7 1_555 1_555
Pd4 N3 1_555 1_555
C1 H1 1_555 1_555
C2 C1 1_555 1_555
H2 C2 1_555 1_555
C3 C2 1_555 1_555
C4 C3 1_555 1_555
H3 C4 1_555 1_555
C5 C4 1_555 1_555
H4 C5 1_555 1_555
C6 H5 1_555 1_555
C7 C6 1_555 1_555
H6 C7 1_555 1_555
C8 C7 1_555 1_555
C9 C8 1_555 1_555
H7 C9 1_555 1_555
C10 C9 1_555 1_555
H8 C10 1_555 1_555
C11 H9 1_555 1_555
C12 C11 1_555 1_555
H10 C12 1_555 1_555
C13 C12 1_555 1_555
C14 C13 1_555 1_555
H11 C14 1_555 1_555
C15 C14 1_555 1_555
H12 C15 1_555 1_555
C16 C3 1_555 1_555
C17 C8 1_555 1_555
C18 C13 1_555 1_555
N1 C1 1_555 1_555
N2 C6 1_555 1_555
N3 C11 1_555 1_555
N4 C16 1_555 1_555
N5 C17 1_555 1_555
N6 C16 1_555 1_555
C19 H13 1_555 1_555
C20 C19 1_555 1_555
H14 C20 1_555 1_555
C21 C20 1_555 1_555
C22 C21 1_555 1_555
H15 C22 1_555 1_555
C23 C22 1_555 1_555
H16 C23 1_555 1_555
C24 H17 1_555 1_555
C25 C24 1_555 1_555
H18 C25 1_555 1_555
C26 C25 1_555 1_555
C27 C26 1_555 1_555
H19 C27 1_555 1_555
C28 C27 1_555 1_555
H20 C28 1_555 1_555
C29 H21 1_555 1_555
C30 C29 1_555 1_555
H22 C30 1_555 1_555
C31 C30 1_555 1_555
C32 C31 1_555 1_555
H23 C32 1_555 1_555
C33 C32 1_555 1_555
H24 C33 1_555 1_555
C34 C21 1_555 1_555
C35 C26 1_555 1_555
C36 C31 1_555 1_555
N7 C19 1_555 1_555
N8 Pd2 1_555 1_555
N9 C29 1_555 1_555
N10 C34 1_555 1_555
N11 C35 1_555 1_555
N12 C34 1_555 1_555
C37 H25 1_555 1_555
C38 C37 1_555 1_555
H26 C38 1_555 1_555
C39 C38 1_555 1_555
H27 C39 1_555 1_555
C40 C39 1_555 1_555
H28 C40 1_555 1_555
C41 C40 1_555 1_555
C42 C41 1_555 1_555
C43 C42 1_555 1_555
H29 C43 1_555 1_555
C44 C43 1_555 1_555
H30 C44 1_555 1_555
C45 C44 1_555 1_555
H31 C45 1_555 1_555
C46 C45 1_555 1_555
H32 C46 1_555 1_555
N13 Pd4 1_555 1_555
N14 Pd4 1_555 1_555
C47 H33 1_555 1_555
C48 C47 1_555 1_555
H34 C48 1_555 1_555
C49 C48 1_555 1_555
H35 C49 1_555 1_555
C50 C49 1_555 1_555
H36 C50 1_555 1_555
C51 C50 1_555 1_555
C52 C51 1_555 1_555
C53 C52 1_555 1_555
H37 C53 1_555 1_555
C54 C53 1_555 1_555
H38 C54 1_555 1_555
C55 C54 1_555 1_555
H39 C55 1_555 1_555
C56 C55 1_555 1_555
H40 C56 1_555 1_555
N15 Pd2 1_555 1_555
N16 Pd2 1_555 1_555
C57 H41 1_555 1_555
C58 C57 1_555 1_555
H42 C58 1_555 1_555
C59 C58 1_555 1_555
H43 C59 1_555 1_555
C60 C59 1_555 1_555
H44 C60 1_555 1_555
C61 C60 1_555 1_555
C62 C63 1_555 1_555
C63 H45 1_555 1_555
C64 C63 1_555 1_555
H46 C64 1_555 1_555
C65 C64 1_555 1_555
H47 C65 1_555 1_555
C66 C65 1_555 1_555
H48 C66 1_555 1_555
N17 Pd1 1_555 1_555
N18 Pd3 1_555 1_555
O1 C67 1_555 1_555
O2 C80 1_555 1_555
C67 C68 1_555 1_555
C68 C69 1_555 1_555
C69 H49 1_555 1_555
H49 C69F 1_555 1_555
C70 O1 1_555 1_555
H50 C70 1_555 1_555
C71 C70 1_555 1_555
H51 C71 1_555 1_555
C72 C71 1_555 1_555
C73 C72 1_555 1_555
H52 C73 1_555 1_555
C74 C73 1_555 1_555
H53 C74 1_555 1_555
C75 C74 1_555 1_555
C76 C75 1_555 1_555
H54 C76 1_555 1_555
C77 C76 1_555 1_555
H55 C77 1_555 1_555
C78 C77 1_555 1_555
H56 C78 1_555 1_555
C79 C78 1_555 1_555
C80 C67 1_555 1_555
C81 C68 1_555 1_555
C82 C75 1_555 1_555
C83 H57 1_555 1_555
H58 C83 1_555 1_555
H59 C83 1_555 1_555
C84 C71 1_555 1_555
C85 C73 1_555 1_555
H60 C85 1_555 1_555
C86 C73 1_555 1_555
H61 C86 1_555 1_555
C87 C72 1_555 1_555
C88 C72 1_555 1_555
H62 C68 1_555 1_555
C89 C70 1_555 1_555
H63 C89 1_555 1_555
C90 C74 1_555 1_555
C91 C90 1_555 1_555
H64 C91 1_555 1_555
H65 C91 1_555 1_555
C92 C91 1_555 1_555
H66 C92 1_555 1_555
C93 C92 1_555 1_555
H67 C93 1_555 1_555
H68 C93 1_555 1_555
C94 C93 1_555 1_555
H69 C94 1_555 1_555
C95 C75 1_555 1_555
H70 C79 1_555 1_555
H71 C95 1_555 1_555
C96 C74 1_555 1_555
H72 C75 1_555 1_555
H73 C96 1_555 1_555
C97 C76 1_555 1_555
H74 C97 1_555 1_555
C98 C92 1_555 1_555
H75 C98 1_555 1_555
H76 C98 1_555 1_555
C99 C76 1_555 1_555
H77 C77 1_555 1_555
H78 C99 1_555 1_555
O3 C93 1_555 1_555
O6 C71 1_555 1_555
O7 C78 1_555 1_555
N19 O8 1_555 1_555
O9 N19 1_555 1_555
O10 N19 1_555 1_555
N20 O11 1_555 1_555
O12 N20 1_555 1_555
O13 N20 1_555 1_555
N21 O14 1_555 1_555
O15 N21 1_555 1_555
O16 N21 1_555 1_555
N22 O17 1_555 1_555
O18 N22 1_555 1_555
O19 N22 1_555 1_555
N23 O20 1_555 1_555
O21 N23 1_555 1_555
O22 N23 1_555 1_555
Pd2F N2F 1_555 1_555
Pd4F N9 1_555 1_555
C1F H1F 1_555 1_555
C2F C1F 1_555 1_555
H2F C2F 1_555 1_555
C3F C2F 1_555 1_555
C4F C3F 1_555 1_555
H3F C4F 1_555 1_555
C5F C4F 1_555 1_555
H4F C5F 1_555 1_555
C6F H5F 1_555 1_555
C7F C6F 1_555 1_555
H6F C7F 1_555 1_555
C8F C7F 1_555 1_555
C9F C8F 1_555 1_555
H7F C9F 1_555 1_555
C10F C9F 1_555 1_555
H8F C10F 1_555 1_555
C11F H9F 1_555 1_555
C12F C11F 1_555 1_555
H10F C12F 1_555 1_555
C13F C12F 1_555 1_555
C14F C13F 1_555 1_555
H11F C14F 1_555 1_555
C15F C14F 1_555 1_555
H12F C15F 1_555 1_555
C16F C3F 1_555 1_555
C17F C8F 1_555 1_555
C18F C13F 1_555 1_555
N1F Pd1 1_555 1_555
N2F C6F 1_555 1_555
N3F Pd4F 1_555 1_555
N4F C16F 1_555 1_555
N5F C17F 1_555 1_555
N6F C16F 1_555 1_555
C19F H13F 1_555 1_555
C20F C19F 1_555 1_555
H14F C20F 1_555 1_555
C21F C20F 1_555 1_555
C22F C21F 1_555 1_555
H15F C22F 1_555 1_555
C23F C22F 1_555 1_555
H16F C23F 1_555 1_555
C24F H17F 1_555 1_555
C25F C24F 1_555 1_555
H18F C25F 1_555 1_555
C26F C25F 1_555 1_555
C27F C26F 1_555 1_555
H19F C27F 1_555 1_555
C28F C27F 1_555 1_555
H20F C28F 1_555 1_555
C29F H21F 1_555 1_555
C30F C29F 1_555 1_555
H22F C30F 1_555 1_555
C31F C30F 1_555 1_555
C32F C31F 1_555 1_555
H23F C32F 1_555 1_555
C33F C32F 1_555 1_555
H24F C33F 1_555 1_555
C34F C21F 1_555 1_555
C35F C26F 1_555 1_555
C36F C31F 1_555 1_555
N7F Pd3 1_555 1_555
N8F Pd2F 1_555 1_555
N9F Pd4 1_555 1_555
N10F C34F 1_555 1_555
N11F C35F 1_555 1_555
N12F C34F 1_555 1_555
C37F H25F 1_555 1_555
C38F C37F 1_555 1_555
H26F C38F 1_555 1_555
C39F C38F 1_555 1_555
H27F C39F 1_555 1_555
C40F C39F 1_555 1_555
H28F C40F 1_555 1_555
C41F C40F 1_555 1_555
C42F C41F 1_555 1_555
C43F C42F 1_555 1_555
H29F C43F 1_555 1_555
C44F C43F 1_555 1_555
H30F C44F 1_555 1_555
C45F C44F 1_555 1_555
H31F C45F 1_555 1_555
C46F C45F 1_555 1_555
H32F C46F 1_555 1_555
N13F Pd4F 1_555 1_555
N14F Pd4F 1_555 1_555
C47F H33F 1_555 1_555
C48F C47F 1_555 1_555
H34F C48F 1_555 1_555
C49F C48F 1_555 1_555
H35F C49F 1_555 1_555
C50F C49F 1_555 1_555
H36F C50F 1_555 1_555
C51F C50F 1_555 1_555
C52F C51F 1_555 1_555
C53F C52F 1_555 1_555
H37F C53F 1_555 1_555
C54F C53F 1_555 1_555
H38F C54F 1_555 1_555
C55F C54F 1_555 1_555
H39F C55F 1_555 1_555
C56F C55F 1_555 1_555
H40F C56F 1_555 1_555
N15F Pd2F 1_555 1_555
N16F Pd2F 1_555 1_555
C57F H41F 1_555 1_555
C58F C57F 1_555 1_555
H42F C58F 1_555 1_555
C59F C58F 1_555 1_555
H43F C59F 1_555 1_555
C60F C59F 1_555 1_555
H44F C60F 1_555 1_555
C61F C61 1_555 1_555
C62F C62 1_555 1_555
C63F C62F 1_555 1_555
H45F C63F 1_555 1_555
C64F C63F 1_555 1_555
H46F C64F 1_555 1_555
C65F C64F 1_555 1_555
H47F C65F 1_555 1_555
C66F C65F 1_555 1_555
H48F C66F 1_555 1_555
N17F Pd1 1_555 1_555
N18F Pd3 1_555 1_555
O1F C67F 1_555 1_555
O2F C80F 1_555 1_555
C67F C68F 1_555 1_555
C68F C69F 1_555 1_555
C69F C69 1_555 1_555
C70F C69 1_555 1_555
H50F C70F 1_555 1_555
C71F C70F 1_555 1_555
H51F C71F 1_555 1_555
C72F C81 1_555 1_555
C73F C72F 1_555 1_555
H52F C73F 1_555 1_555
C74F C73F 1_555 1_555
H53F C74F 1_555 1_555
C75F C74F 1_555 1_555
C76F C75F 1_555 1_555
H54F C76F 1_555 1_555
C77F C76F 1_555 1_555
H55F C77F 1_555 1_555
C78F C77F 1_555 1_555
H56F C78F 1_555 1_555
C79F C80 1_555 1_555
C80F C79 1_555 1_555
C81F C72 1_555 1_555
C82F C81 1_555 1_555
C83F H57F 1_555 1_555
H58F C83F 1_555 1_555
H59F C83F 1_555 1_555
C84F C71F 1_555 1_555
C85F C73F 1_555 1_555
H60F C85F 1_555 1_555
C86F C73F 1_555 1_555
H61F C86F 1_555 1_555
C87F C72F 1_555 1_555
C88F C81 1_555 1_555
H62F C88 1_555 1_555
C89F C70F 1_555 1_555
H63F C89F 1_555 1_555
C90F C74F 1_555 1_555
C91F C90F 1_555 1_555
H64F C91F 1_555 1_555
H65F C91F 1_555 1_555
C92F C91F 1_555 1_555
H66F C92F 1_555 1_555
C93F C92F 1_555 1_555
H67F C93F 1_555 1_555
H68F C93F 1_555 1_555
C94F C93F 1_555 1_555
H69F C94F 1_555 1_555
C95F C75F 1_555 1_555
H70F C79F 1_555 1_555
H71F C95F 1_555 1_555
C96F C74F 1_555 1_555
H72F C75F 1_555 1_555
H73F C96F 1_555 1_555
C97F C76F 1_555 1_555
H74F C97F 1_555 1_555
C98F C92F 1_555 1_555
H75F C98F 1_555 1_555
H76F C98F 1_555 1_555
C99F C76F 1_555 1_555
H78F C99F 1_555 1_555
O3F C93F 1_555 1_555
O6F C71F 1_555 1_555
O7F C78F 1_555 1_555
C5 N1 1_555 1_555
C10 N2 1_555 1_555
C15 N3 1_555 1_555
C17 N4 1_555 1_555
C18 N5 1_555 1_555
C18 N6 1_555 1_555
C23 N7 1_555 1_555
C24 N8 1_555 1_555
C28 N8 1_555 1_555
C33 N9 1_555 1_555
C35 N10 1_555 1_555
C36 N11 1_555 1_555
C36 N12 1_555 1_555
C37 N13 1_555 1_555
C41 N13 1_555 1_555
C42 N14 1_555 1_555
C46 N14 1_555 1_555
C47 N15 1_555 1_555
C51 N15 1_555 1_555
C52 N16 1_555 1_555
C56 N16 1_555 1_555
C57 N17 1_555 1_555
C61 N17 1_555 1_555
C62 N18 1_555 1_555
C66 N18 1_555 1_555
C70 C69F 1_555 1_555
C71 C89 1_555 1_555
H51 C84 1_555 1_555
C72 C89 1_555 1_555
C72 O6 1_555 1_555
C73 C87 1_555 1_555
H52 C85 1_555 1_555
H52 C86 1_555 1_555
C74 C86 1_555 1_555
C74 C87 1_555 1_555
C75 C90 1_555 1_555
C75 C96 1_555 1_555
C76 C96 1_555 1_555
C76 H72 1_555 1_555
H54 C96 1_555 1_555
H54 C97 1_555 1_555
C77 C99 1_555 1_555
C79 C82 1_555 1_555
C79 C95 1_555 1_555
C81 H62 1_555 1_555
C82 C95 1_555 1_555
C82 H70 1_555 1_555
C82 C81F 1_555 1_555
C83 C84 1_555 1_555
C84 C85 1_555 1_555
C84 C89 1_555 1_555
C85 C86 1_555 1_555
C86 C87 1_555 1_555
C87 C88 1_555 1_555
C87 C90 1_555 1_555
C88 C89 1_555 1_555
C88 C81F 1_555 1_555
H62 C88F 1_555 1_555
C90 C95 1_555 1_555
C90 C96 1_555 1_555
C94 C95 1_555 1_555
C94 C99 1_555 1_555
C94 O3 1_555 1_555
C94 O7 1_555 1_555
C95 H70 1_555 1_555
C95 O7 1_555 1_555
C96 H72 1_555 1_555
C96 C97 1_555 1_555
C97 C98 1_555 1_555
C97 C99 1_555 1_555
C99 H77 1_555 1_555
C1F N1F 1_555 1_555
C5F N1F 1_555 1_555
C10F N2F 1_555 1_555
C11F N3F 1_555 1_555
C15F N3F 1_555 1_555
C17F N4F 1_555 1_555
C18F N5F 1_555 1_555
C18F N6F 1_555 1_555
C19F N7F 1_555 1_555
C23F N7F 1_555 1_555
C24F N8F 1_555 1_555
C28F N8F 1_555 1_555
C29F N9F 1_555 1_555
C33F N9F 1_555 1_555
C35F N10F 1_555 1_555
C36F N11F 1_555 1_555
C36F N12F 1_555 1_555
C37F N13F 1_555 1_555
C41F N13F 1_555 1_555
C42F N14F 1_555 1_555
C46F N14F 1_555 1_555
C47F N15F 1_555 1_555
C51F N15F 1_555 1_555
C52F N16F 1_555 1_555
C56F N16F 1_555 1_555
C57F N17F 1_555 1_555
C60F C61F 1_555 1_555
C61F N17F 1_555 1_555
C62F N18F 1_555 1_555
C66F N18F 1_555 1_555
O1F C70F 1_555 1_555
C67F C80F 1_555 1_555
C68F C81F 1_555 1_555
C68F H62F 1_555 1_555
C71F C72F 1_555 1_555
C71F C89F 1_555 1_555
H51F C84F 1_555 1_555
C72F C88F 1_555 1_555
C72F C89F 1_555 1_555
C72F O6F 1_555 1_555
C73F C87F 1_555 1_555
H52F C85F 1_555 1_555
H52F C86F 1_555 1_555
C74F C86F 1_555 1_555
C74F C87F 1_555 1_555
C75F C82F 1_555 1_555
C75F C90F 1_555 1_555
C75F C96F 1_555 1_555
C76F C96F 1_555 1_555
C76F H72F 1_555 1_555
H54F C96F 1_555 1_555
H54F C97F 1_555 1_555
C77F C99F 1_555 1_555
C78F C79F 1_555 1_555
C79F C82F 1_555 1_555
C79F C95F 1_555 1_555
C81F H62F 1_555 1_555
C82F C95F 1_555 1_555
C82F H70F 1_555 1_555
C83F C84F 1_555 1_555
C84F C85F 1_555 1_555
C84F C89F 1_555 1_555
C85F C86F 1_555 1_555
C86F C87F 1_555 1_555
C87F C88F 1_555 1_555
C87F C90F 1_555 1_555
C88F C89F 1_555 1_555
C90F C95F 1_555 1_555
C90F C96F 1_555 1_555
C94F C95F 1_555 1_555
C94F C99F 1_555 1_555
C94F O3F 1_555 1_555
C94F O7F 1_555 1_555
C95F H70F 1_555 1_555
C95F O7F 1_555 1_555
C96F H72F 1_555 1_555
C96F C97F 1_555 1_555
C97F C98F 1_555 1_555
C97F C99F 1_555 1_555

#END
