
#######################################################################
#
#                 Cambridge Crystallographic Data Centre
#                                CCDC 
#
#######################################################################
#
# If this CIF has been generated from an entry in the Cambridge 
# Structural Database, then it will include bibliographic, chemical, 
# crystal, experimental, refinement or atomic coordinate data resulting 
# from the CCDC's data processing and validation procedures.
#
#######################################################################

data_GOHSOM
_chemical_formula_moiety         
'C208 H180 Cu4 N20 O28 4+,4(F6 P1 1-),4(C1 H2 Cl2),4(C4 H8 O1)'
_chemical_name_systematic        
"(4)-bis(\m~2~-3,8-bis(5-(4-Methoxyphenyl)-2-pyridyl)-4,7-phenanthroline-N,N',N'',N''') bis(\m~2~-16,19,22,25,28,31,51,54,57,60,63,66-dodecaoxa-6,10,37,41,71,74-hexa-azatridecacyclo-[44.24.4.2^8,11^2^12,15^2^47,50^2^67,70^1^32,36^1^35,39^0^4,72^0^5,42^-0^7,40^0^9,38^0^43,73^]-tetraoctaconta-1(71),2,4(72),5(42),6,8,10,12,14,32(80),-33,35(79),36,38,40,43(73),44,46(74),47,49,67,69,75,77,81,83-hexacosaene)-tetra-copper(i)-pseudorotaxane tetrakis(hexafluorophosphate) dichlo romethane tetrahydrofuran dichloromethane unspecified solvate"
_symmetry_cell_setting           triclinic
_symmetry_space_group_name_H-M   'P -1'
_symmetry_Int_Tables_number      2
_space_group_name_Hall           '-P 1'
loop_
_symmetry_equiv_pos_site_id
_symmetry_equiv_pos_as_xyz
1 x,y,z
2 -x,-y,-z
_cell_length_a                   18.4923(2)
_cell_length_b                   19.6458(4)
_cell_length_c                   20.4339(4)
_cell_angle_alpha                86.311(1)
_cell_angle_beta                 66.573(1)
_cell_angle_gamma                64.109(1)
_cell_volume                     6073.98
_exptl_crystal_colour            red
_exptl_crystal_description       prism
_cell_formula_units_Z            1
_exptl_crystal_recrystallization_method thf/dichloromethane
loop_
_atom_site_label
_atom_site_type_symbol
_atom_site_fract_x
_atom_site_fract_y
_atom_site_fract_z
Cu1 Cu 0.5549(5) 0.1419(5) 0.4542(5)
Cu2 Cu 0.6214(6) 0.2727(6) 0.7700(5)
C1 C 0.712(8) 0.348(8) 1.195(7)
H1 H 0.7249 0.3648 1.2316
H2 H 0.7636 0.3333 1.1485
H3 H 0.6999 0.3045 1.2087
O1 O 0.638(5) 0.409(4) 1.189(4)
C2 C 0.612(7) 0.396(6) 1.139(5)
C3 C 0.656(6) 0.332(6) 1.089(5)
H4 H 0.7094 0.2914 1.0874
C4 C 0.622(6) 0.327(6) 1.040(5)
H5 H 0.6531 0.2828 1.0058
C5 C 0.544(6) 0.384(6) 1.041(5)
C6 C 0.499(7) 0.448(7) 1.094(5)
H6 H 0.4448 0.4881 1.0963
C7 C 0.534(8) 0.453(7) 1.142(6)
H7 H 0.5022 0.496 1.1773
C8 C 0.512(6) 0.382(6) 0.987(5)
C9 C 0.570(5) 0.348(5) 0.917(4)
H8 H 0.6314 0.3278 0.9043
N1 N 0.544(4) 0.343(4) 0.866(4)
C10 C 0.457(6) 0.370(7) 0.883(5)
C11 C 0.395(7) 0.406(10) 0.952(6)
H9 H 0.3338 0.4269 0.9626
C12 C 0.422(7) 0.411(9) 1.004(6)
H10 H 0.3796 0.4337 1.0511
C13 C 0.437(6) 0.358(7) 0.823(5)
N2 N 0.504(4) 0.304(5) 0.768(4)
C14 C 0.488(5) 0.288(5) 0.713(4)
C15 C 0.403(5) 0.324(6) 0.712(5)
C16 C 0.335(6) 0.381(9) 0.769(6)
H11 H 0.278 0.4081 0.7697
C17 C 0.351(6) 0.398(9) 0.824(7)
H12 H 0.3044 0.437 0.8626
C18 C 0.560(5) 0.232(4) 0.655(4)
H13 H 0.6163 0.2072 0.6561
C19 C 0.550(4) 0.215(4) 0.598(4)
H14 H 0.5994 0.1786 0.5587
C20 C 0.465(4) 0.249(4) 0.594(4)
N3 N 0.460(4) 0.228(3) 0.535(3)
C21 C 0.381(5) 0.257(4) 0.532(4)
C22 C 0.304(5) 0.311(5) 0.588(5)
H15 H 0.249 0.3305 0.5846
C23 C 0.310(5) 0.334(6) 0.646(5)
H16 H 0.2589 0.3715 0.6838
C24 C 0.392(5) 0.303(5) 0.651(5)
C25 C 0.379(5) 0.228(4) 0.468(4)
N4 N 0.454(4) 0.167(4) 0.426(3)
C26 C 0.458(5) 0.140(5) 0.366(4)
H17 H 0.5106 0.0966 0.3378
C27 C 0.391(5) 0.169(5) 0.342(4)
C28 C 0.313(5) 0.232(5) 0.387(4)
H18 H 0.2648 0.2546 0.3744
C29 C 0.307(5) 0.261(5) 0.451(4)
H19 H 0.2536 0.3034 0.4813
C30 C 0.402(5) 0.135(5) 0.275(4)
C31 C 0.483(6) 0.101(5) 0.217(5)
H20 H 0.5328 0.1023 0.2201
C32 C 0.496(6) 0.067(6) 0.155(5)
H21 H 0.5524 0.0443 0.1163
C33 C 0.425(6) 0.066(5) 0.149(5)
C34 C 0.341(6) 0.100(5) 0.205(5)
H22 H 0.2923 0.1 0.2004
C35 C 0.330(5) 0.135(5) 0.268(5)
H23 H 0.2736 0.1582 0.3069
O2 O 0.442(5) 0.031(5) 0.084(4)
C36 C 0.370(8) 0.031(8) 0.075(7)
H24 H 0.3913 0.0044 0.0271
H25 H 0.326 0.0838 0.0789
H26 H 0.3428 0.0049 0.1119
O3 O 0.344(5) 0.194(7) 1.007(6)
C37 C 0.426(7) 0.180(9) 0.964(8)
C38 C 0.468(7) 0.168(9) 0.894(8)
H27 H 0.4384 0.1675 0.8653
C39 C 0.554(6) 0.158(7) 0.859(6)
H28 H 0.5813 0.1491 0.8074
C40 C 0.601(5) 0.159(6) 0.896(5)
C41 C 0.561(6) 0.169(6) 0.970(5)
H29 H 0.5922 0.1685 0.9978
C42 C 0.473(7) 0.181(7) 1.005(6)
H30 H 0.4452 0.1896 1.0564
C43 C 0.693(5) 0.147(5) 0.857(4)
N5 N 0.709(4) 0.182(4) 0.797(3)
C44 C 0.794(5) 0.167(4) 0.756(4)
C45 C 0.865(5) 0.116(4) 0.770(4)
C46 C 0.846(5) 0.083(5) 0.833(4)
H31 H 0.8928 0.0498 0.846
C47 C 0.760(5) 0.100(5) 0.877(4)
H32 H 0.7462 0.0788 0.9213
C48 C 0.808(5) 0.206(4) 0.692(4)
N6 N 0.734(4) 0.259(3) 0.685(3)
C49 C 0.743(5) 0.293(4) 0.625(4)
C50 C 0.828(5) 0.275(5) 0.571(5)
H33 H 0.8339 0.2993 0.5286
C51 C 0.902(5) 0.223(5) 0.579(4)
H34 H 0.9587 0.2128 0.5436
C52 C 0.893(5) 0.187(4) 0.639(4)
C53 C 0.662(5) 0.349(5) 0.619(4)
C54 C 0.651(5) 0.341(5) 0.556(4)
H35 H 0.6982 0.3031 0.5174
C55 C 0.572(6) 0.387(5) 0.550(5)
H36 H 0.5647 0.3802 0.5083
C56 C 0.506(6) 0.444(5) 0.606(5)
C57 C 0.518(6) 0.455(5) 0.668(5)
H37 H 0.4725 0.495 0.7054
C58 C 0.595(5) 0.407(5) 0.673(5)
H38 H 0.6027 0.4141 0.7151
O4 O 0.426(4) 0.494(4) 0.606(4)
C59 C 0.401(4) 0.470(5) 0.556(4)
H39 H 0.4059 0.4183 0.5621
H40 H 0.4395 0.4703 0.5059
C60 C 0.306(4) 0.527(6) 0.573(5)
H41 H 0.296 0.5788 0.5873
H42 H 0.2947 0.5291 0.5291
O5 O 0.244(7) 0.507(8) 0.630(6)
C61 C 0.209(8) 0.551(13) 0.699(6)
H43 H 0.2129 0.6002 0.691
H44 H 0.2455 0.523 0.7255
C63 C 0.114(6) 0.568(5) 0.744(7)
H47 H 0.0888 0.5997 0.7908
H48 H 0.0757 0.5922 0.7182
O7 O 0.129(5) 0.490(5) 0.753(5)
C64 C 0.050(5) 0.487(6) 0.805(6)
H49 H 0.0018 0.5104 0.7886
H50 H 0.0303 0.5159 0.8521
C65 C 0.073(7) 0.404(6) 0.813(7)
H51 H 0.0223 0.3984 0.851
H52 H 0.0885 0.3753 0.767
O8 O 0.147(8) 0.376(7) 0.832(8)
C66 C 0.175(13) 0.296(7) 0.837(10)
H53 H 0.1992 0.2671 0.7891
H54 H 0.1237 0.2874 0.8693
C67 C 0.245(10) 0.267(8) 0.867(7)
H55 H 0.2694 0.2107 0.8656
H56 H 0.2935 0.2795 0.8375
O10 O 0.205(9) 0.303(6) 0.941(7)
C70 C 0.206(6) 0.248(10) 0.992(8)
H61 H 0.1644 0.2282 0.9958
H62 H 0.1882 0.2736 1.04
C72 C 0.299(7) 0.182(7) 0.968(8)
H65 H 0.2952 0.1337 0.9767
H66 H 0.3324 0.1799 0.9157
O11 O 0.276(4) 0.130(5) 0.755(4)
C73 C 0.359(6) 0.101(6) 0.701(5)
C74 C 0.374(5) 0.094(5) 0.629(5)
H67 H 0.3268 0.1085 0.6152
C75 C 0.462(5) 0.066(5) 0.577(4)
H68 H 0.4731 0.0615 0.5279
C76 C 0.531(5) 0.045(4) 0.596(4)
C77 C 0.514(6) 0.051(5) 0.670(4)
H69 H 0.5612 0.0363 0.6841
C78 C 0.428(6) 0.080(6) 0.721(5)
H70 H 0.4156 0.0856 0.7708
C79 C 0.623(5) 0.015(4) 0.542(4)
N7 N 0.639(4) 0.048(3) 0.481(3)
C80 C 0.724(4) 0.023(4) 0.432(4)
C81 C 0.795(4) -0.037(4) 0.440(4)
C82 C 0.778(5) -0.071(4) 0.503(4)
H71 H 0.8242 -0.1114 0.5114
C83 C 0.692(5) -0.044(4) 0.553(4)
H72 H 0.6789 -0.0672 0.5958
C84 C 0.738(4) 0.061(4) 0.367(4)
N8 N 0.668(4) 0.123(3) 0.365(3)
C85 C 0.677(5) 0.156(5) 0.306(4)
C86 C 0.758(5) 0.127(5) 0.245(4)
H73 H 0.7614 0.148 0.2012
C87 C 0.830(5) 0.068(5) 0.248(4)
H74 H 0.885 0.0502 0.2074
C88 C 0.822(4) 0.034(4) 0.311(4)
C89 C 0.897(4) -0.025(4) 0.321(4)
N9 N 0.978(4) -0.045(4) 0.269(3)
C90 C 0.954(5) 0.097(4) 0.717(4)
C91 C 0.967(4) 0.131(4) 0.653(4)
N10 N 1.048(4) 0.112(4) 0.602(3)
C92 C 0.884(4) -0.059(4) 0.385(4)
C93 C 0.600(5) 0.227(5) 0.308(4)
C94 C 0.573(5) 0.240(5) 0.251(5)
H75 H 0.6063 0.2034 0.2089
C95 C 0.499(6) 0.305(5) 0.256(6)
H76 H 0.4803 0.3138 0.218
C96 C 0.453(6) 0.358(5) 0.316(6)
C97 C 0.480(6) 0.348(5) 0.371(6)
H77 H 0.4485 0.3859 0.4117
C98 C 0.553(5) 0.282(5) 0.368(5)
H78 H 0.5711 0.2747 0.406
O12 O 0.379(4) 0.426(4) 0.323(4)
C99 C 0.337(5) 0.413(9) 0.281(7)
H79 H 0.324 0.3694 0.2961
H80 H 0.3786 0.3998 0.2293
C100 C 0.253(7) 0.483(10) 0.290(6)
H81 H 0.2654 0.5276 0.2759
H82 H 0.2273 0.4747 0.2589
O13 O 0.190(5) 0.500(5) 0.365(6)
C103 C 0.199(15) 0.437(12) 0.407(14)
H87 H 0.2484 0.4232 0.4209
H88 H 0.2102 0.3912 0.3787
C105 C 0.112(9) 0.463(11) 0.473(6)
H91 H 0.0723 0.5171 0.4764
H92 H 0.082 0.4313 0.4751
O14 O 0.145(8) 0.450(7) 0.530(7)
C106 C 0.077(10) 0.462(10) 0.601(8)
H93 H 0.0289 0.5148 0.6116
H94 H 0.1018 0.4547 0.6373
C107 C 0.039(10) 0.406(8) 0.606(13)
H95 H -0.0149 0.4187 0.6508
H96 H 0.0262 0.4032 0.5641
O15 O 0.111(7) 0.334(6) 0.607(7)
C108 C 0.092(11) 0.270(8) 0.609(9)
H97 H 0.1439 0.2259 0.5746
H98 H 0.0415 0.2831 0.597
C109 C 0.071(8) 0.249(9) 0.685(9)
H99 H 0.0448 0.2947 0.72
H100 H 0.027 0.2285 0.6979
O16 O 0.150(7) 0.192(7) 0.691(6)
C110 C 0.132(8) 0.161(8) 0.759(7)
H101 H 0.0892 0.1405 0.7666
H102 H 0.1067 0.2013 0.799
C111 C 0.219(6) 0.097(7) 0.755(7)
H103 H 0.2077 0.0694 0.7973
H104 H 0.2478 0.0609 0.7111
Cu1A Cu 1.4451(5) -0.1419(5) 0.5458(5)
Cu2A Cu 1.3786(6) -0.2727(6) 0.2300(5)
C1A C 1.288(8) -0.348(8) -0.195(7)
H1A H 1.2751 -0.3648 -0.2316
H2A H 1.2364 -0.3333 -0.1485
H3A H 1.3001 -0.3045 -0.2087
O1A O 1.362(5) -0.409(4) -0.189(4)
C2A C 1.388(7) -0.396(6) -0.139(5)
C3A C 1.344(6) -0.332(6) -0.089(5)
H4A H 1.2906 -0.2914 -0.0874
C4A C 1.378(6) -0.327(6) -0.040(5)
H5A H 1.3469 -0.2828 -0.0058
C5A C 1.456(6) -0.384(6) -0.041(5)
C6A C 1.501(7) -0.448(7) -0.094(5)
H6A H 1.5552 -0.4881 -0.0963
C7A C 1.466(8) -0.453(7) -0.142(6)
H7A H 1.4978 -0.496 -0.1773
C8A C 1.488(6) -0.382(6) 0.013(5)
C9A C 1.430(5) -0.348(5) 0.083(4)
H8A H 1.3686 -0.3278 0.0957
N1A N 1.456(4) -0.343(4) 0.134(4)
C10A C 1.543(6) -0.370(7) 0.117(5)
C11A C 1.605(7) -0.406(10) 0.048(6)
H9A H 1.6662 -0.4269 0.0374
C12A C 1.578(7) -0.411(9) -0.004(6)
H10A H 1.6204 -0.4337 -0.0511
C13A C 1.563(6) -0.358(7) 0.177(5)
N2A N 1.496(4) -0.304(5) 0.232(4)
C14A C 1.512(5) -0.288(5) 0.287(4)
C15A C 1.597(5) -0.324(6) 0.288(5)
C16A C 1.665(6) -0.381(9) 0.231(6)
H11A H 1.722 -0.4081 0.2303
C17A C 1.649(6) -0.398(9) 0.176(7)
H12A H 1.6956 -0.437 0.1374
C18A C 1.440(5) -0.232(4) 0.345(4)
H13A H 1.3837 -0.2072 0.3439
C19A C 1.450(4) -0.215(4) 0.402(4)
H14A H 1.4006 -0.1786 0.4413
C20A C 1.535(4) -0.249(4) 0.406(4)
N3A N 1.540(4) -0.228(3) 0.465(3)
C21A C 1.619(5) -0.257(4) 0.468(4)
C22A C 1.696(5) -0.311(5) 0.412(5)
H15A H 1.751 -0.3305 0.4154
C23A C 1.690(5) -0.334(6) 0.354(5)
H16A H 1.7411 -0.3715 0.3162
C24A C 1.608(5) -0.303(5) 0.349(5)
C25A C 1.621(5) -0.228(4) 0.532(4)
N4A N 1.546(4) -0.167(4) 0.574(3)
C26A C 1.542(5) -0.140(5) 0.634(4)
H17A H 1.4894 -0.0966 0.6622
C27A C 1.609(5) -0.169(5) 0.658(4)
C28A C 1.687(5) -0.232(5) 0.613(4)
H18A H 1.7352 -0.2546 0.6256
C29A C 1.693(5) -0.261(5) 0.549(4)
H19A H 1.7464 -0.3034 0.5187
C30A C 1.598(5) -0.135(5) 0.725(4)
C31A C 1.517(6) -0.101(5) 0.783(5)
H20A H 1.4672 -0.1023 0.7799
C32A C 1.504(6) -0.067(6) 0.845(5)
H21A H 1.4476 -0.0443 0.8837
C33A C 1.575(6) -0.066(5) 0.851(5)
C34A C 1.659(6) -0.100(5) 0.795(5)
H22A H 1.7077 -0.1 0.7996
C35A C 1.670(5) -0.135(5) 0.732(5)
H23A H 1.7264 -0.1582 0.6931
O2A O 1.558(5) -0.031(5) 0.916(4)
C36A C 1.630(8) -0.031(8) 0.925(7)
H24A H 1.6087 -0.0044 0.9729
H25A H 1.674 -0.0838 0.9211
H26A H 1.6572 -0.0049 0.8881
O3A O 1.656(5) -0.194(7) -0.007(6)
C37A C 1.574(7) -0.180(9) 0.036(8)
C38A C 1.532(7) -0.168(9) 0.106(8)
H27A H 1.5616 -0.1675 0.1347
C39A C 1.446(6) -0.158(7) 0.141(6)
H28A H 1.4187 -0.1491 0.1926
C40A C 1.399(5) -0.159(6) 0.104(5)
C41A C 1.439(6) -0.169(6) 0.030(5)
H29A H 1.4078 -0.1685 0.0022
C42A C 1.527(7) -0.181(7) -0.005(6)
H30A H 1.5548 -0.1896 -0.0564
C43A C 1.307(5) -0.147(5) 0.143(4)
N5A N 1.291(4) -0.182(4) 0.203(3)
C44A C 1.206(5) -0.167(4) 0.244(4)
C45A C 1.135(5) -0.116(4) 0.230(4)
C46A C 1.154(5) -0.083(5) 0.167(4)
H31A H 1.1072 -0.0498 0.154
C47A C 1.240(5) -0.100(5) 0.123(4)
H32A H 1.2538 -0.0788 0.0787
C48A C 1.192(5) -0.206(4) 0.308(4)
N6A N 1.266(4) -0.259(3) 0.315(3)
C49A C 1.257(5) -0.293(4) 0.375(4)
C50A C 1.172(5) -0.275(5) 0.429(5)
H33A H 1.1661 -0.2993 0.4714
C51A C 1.098(5) -0.223(5) 0.421(4)
H34A H 1.0413 -0.2128 0.4564
C52A C 1.107(5) -0.187(4) 0.361(4)
C53A C 1.338(5) -0.349(5) 0.381(4)
C54A C 1.349(5) -0.341(5) 0.444(4)
H35A H 1.3018 -0.3031 0.4826
C55A C 1.428(6) -0.387(5) 0.450(5)
H36A H 1.4353 -0.3802 0.4917
C56A C 1.494(6) -0.444(5) 0.394(5)
C57A C 1.482(6) -0.455(5) 0.332(5)
H37A H 1.5275 -0.495 0.2946
C58A C 1.405(5) -0.407(5) 0.327(5)
H38A H 1.3973 -0.4141 0.2849
O4A O 1.574(4) -0.494(4) 0.394(4)
C59A C 1.599(4) -0.470(5) 0.444(4)
H39A H 1.5941 -0.4183 0.4379
H40A H 1.5605 -0.4703 0.4941
C60A C 1.694(4) -0.527(6) 0.427(5)
H41A H 1.704 -0.5788 0.4127
H42A H 1.7053 -0.5291 0.4709
O5A O 1.756(7) -0.507(8) 0.370(6)
C61A C 1.791(8) -0.551(13) 0.301(6)
H43A H 1.7871 -0.6002 0.309
H44A H 1.7545 -0.523 0.2745
C63A C 1.886(6) -0.568(5) 0.256(7)
H47A H 1.9112 -0.5997 0.2092
H48A H 1.9243 -0.5922 0.2818
O7A O 1.871(5) -0.490(5) 0.247(5)
C64A C 1.950(5) -0.487(6) 0.195(6)
H49A H 1.9982 -0.5104 0.2114
H50A H 1.9697 -0.5159 0.1479
C65A C 1.927(7) -0.404(6) 0.187(7)
H51A H 1.9777 -0.3984 0.149
H52A H 1.9115 -0.3753 0.233
O8A O 1.853(8) -0.376(7) 0.168(8)
C66A C 1.825(13) -0.296(7) 0.163(10)
H53A H 1.8008 -0.2671 0.2109
H54A H 1.8763 -0.2874 0.1307
C67A C 1.755(10) -0.267(8) 0.133(7)
H55A H 1.7306 -0.2107 0.1344
H56A H 1.7065 -0.2795 0.1625
O10A O 1.795(9) -0.303(6) 0.059(7)
C70A C 1.794(6) -0.248(10) 0.008(8)
H61A H 1.8356 -0.2282 0.0042
H62A H 1.8118 -0.2736 -0.04
C72A C 1.701(7) -0.182(7) 0.032(8)
H65A H 1.7048 -0.1337 0.0233
H66A H 1.6676 -0.1799 0.0843
O11A O 1.724(4) -0.130(5) 0.245(4)
C73A C 1.641(6) -0.101(6) 0.299(5)
C74A C 1.626(5) -0.094(5) 0.371(5)
H67A H 1.6732 -0.1085 0.3848
C75A C 1.538(5) -0.066(5) 0.423(4)
H68A H 1.5269 -0.0615 0.4721
C76A C 1.469(5) -0.045(4) 0.404(4)
C77A C 1.486(6) -0.051(5) 0.330(4)
H69A H 1.4388 -0.0363 0.3159
C78A C 1.572(6) -0.080(6) 0.279(5)
H70A H 1.5844 -0.0856 0.2292
C79A C 1.377(5) -0.015(4) 0.458(4)
N7A N 1.361(4) -0.048(3) 0.519(3)
C80A C 1.276(4) -0.023(4) 0.568(4)
C81A C 1.205(4) 0.037(4) 0.560(4)
C82A C 1.222(5) 0.071(4) 0.497(4)
H71A H 1.1758 0.1114 0.4886
C83A C 1.308(5) 0.044(4) 0.447(4)
H72A H 1.3211 0.0672 0.4042
C84A C 1.262(4) -0.061(4) 0.633(4)
N8A N 1.332(4) -0.123(3) 0.635(3)
C85A C 1.323(5) -0.156(5) 0.694(4)
C86A C 1.242(5) -0.127(5) 0.755(4)
H73A H 1.2386 -0.148 0.7988
C87A C 1.170(5) -0.068(5) 0.752(4)
H74A H 1.115 -0.0502 0.7926
C88A C 1.178(4) -0.034(4) 0.689(4)
C89A C 1.103(4) 0.025(4) 0.679(4)
N9A N 1.022(4) 0.045(4) 0.731(3)
C90A C 1.046(5) -0.097(4) 0.283(4)
C91A C 1.033(4) -0.131(4) 0.347(4)
N10A N 0.952(4) -0.112(4) 0.398(3)
C92A C 1.116(4) 0.059(4) 0.615(4)
C93A C 1.400(5) -0.227(5) 0.692(4)
C94A C 1.427(5) -0.240(5) 0.749(5)
H75A H 1.3937 -0.2034 0.7911
C95A C 1.501(6) -0.305(5) 0.744(6)
H76A H 1.5197 -0.3138 0.782
C96A C 1.547(6) -0.358(5) 0.684(6)
C97A C 1.520(6) -0.348(5) 0.629(6)
H77A H 1.5515 -0.3859 0.5883
C98A C 1.447(5) -0.282(5) 0.632(5)
H78A H 1.4289 -0.2747 0.594
O12A O 1.621(4) -0.426(4) 0.677(4)
C99A C 1.663(5) -0.413(9) 0.719(7)
H79A H 1.676 -0.3694 0.7039
H80A H 1.6214 -0.3998 0.7707
C100A C 1.747(7) -0.483(10) 0.710(6)
H81A H 1.7346 -0.5276 0.7241
H82A H 1.7727 -0.4747 0.7411
O13A O 1.810(5) -0.500(5) 0.635(6)
C103A C 1.801(15) -0.437(12) 0.593(14)
H87A H 1.7516 -0.4232 0.5791
H88A H 1.7898 -0.3912 0.6213
C105A C 1.888(9) -0.463(11) 0.527(6)
H91A H 1.9277 -0.5171 0.5236
H92A H 1.918 -0.4313 0.5249
O14A O 1.855(8) -0.450(7) 0.470(7)
C106A C 1.923(10) -0.462(10) 0.399(8)
H93A H 1.9711 -0.5148 0.3884
H94A H 1.8982 -0.4547 0.3627
C107A C 1.961(10) -0.406(8) 0.394(13)
H95A H 2.0149 -0.4187 0.3492
H96A H 1.9738 -0.4032 0.4359
O15A O 1.889(7) -0.334(6) 0.393(7)
C108A C 1.908(11) -0.270(8) 0.391(9)
H97A H 1.8561 -0.2259 0.4254
H98A H 1.9585 -0.2831 0.403
C109A C 1.929(8) -0.249(9) 0.315(9)
H99A H 1.9552 -0.2947 0.28
H100A H 1.973 -0.2285 0.3021
O16A O 1.850(7) -0.192(7) 0.309(6)
C110A C 1.868(8) -0.161(8) 0.241(7)
H101A H 1.9108 -0.1405 0.2334
H102A H 1.8933 -0.2013 0.201
C111A C 1.781(6) -0.097(7) 0.245(7)
H103A H 1.7923 -0.0694 0.2027
H104A H 1.7522 -0.0609 0.2889
P1 P 0.769(3) 0.017(4) 0.064(2)
F1 F 0.844(5) 0.006(6) -0.014(4)
F2 F 0.812(8) -0.074(9) 0.063(6)
F3 F 0.832(6) 0.017(7) 0.098(5)
F4 F 0.698(6) 0.031(11) 0.142(5)
F5 F 0.725(8) 0.106(9) 0.064(7)
F6 F 0.711(6) 0.013(9) 0.028(5)
P2 P 0.9512(16) 0.7256(16) 0.6079(16)
F7 F 0.890(6) 0.686(6) 0.621(5)
F8 F 1.001(6) 0.666(6) 0.648(6)
F9 F 1.017(5) 0.674(5) 0.532(4)
F10 F 1.011(6) 0.767(6) 0.593(5)
F11 F 0.898(6) 0.785(5) 0.570(5)
F12 F 0.887(5) 0.778(5) 0.683(4)
Cl1 Cl 0.771(3) 0.250(2) 0.359(2)
Cl2 Cl 0.841(4) 0.136(2) 0.440(2)
C112 C 0.868(2) 0.182(7) 0.365(5)
H105 H 0.9052 0.1448 0.3205
H106 H 0.9023 0.2078 0.369
Cl3 Cl 0.137(9) 0.570(6) 0.927(6)
Cl4 Cl 0.156(8) 0.469(8) 1.032(6)
C113 C 0.097(12) 0.510(11) 0.979(13)
H107 H 0.0705 0.491 1.0242
H108 H 0.1178 0.4716 0.9382
O17 O 0.749(5) 0.049(8) 0.667(6)
C114 C 0.813(9) -0.012(9) 0.683(9)
H109 H 0.8094 -0.0599 0.6776
H110 H 0.8034 -0.0022 0.734
C115 C 0.900(6) -0.020(8) 0.635(7)
H111 H 0.9209 0.0069 0.6572
H112 H 0.9444 -0.0746 0.6205
C116 C 0.886(7) 0.014(8) 0.575(5)
H113 H 0.9018 -0.0252 0.5368
H114 H 0.9224 0.0415 0.5539
C117 C 0.792(8) 0.068(7) 0.600(7)
H115 H 0.7839 0.121 0.6057
H116 H 0.7686 0.0637 0.5659
O20 O 0.288(10) 0.575(10) 1.132(10)
C126 C 0.165(19) 0.692(12) 1.152(16)
H133 H 0.1957 0.7245 1.1376
H134 H 0.1069 0.7179 1.1496
C127 C 0.219(16) 0.615(14) 1.111(14)
H135 H 0.1824 0.5884 1.1193
H136 H 0.2436 0.6193 1.0585
C128 C 0.251(14) 0.609(18) 1.204(10)
H137 H 0.2847 0.6332 1.2098
H138 H 0.251 0.5695 1.237
C129 C 0.160(16) 0.665(19) 1.219(12)
H139 H 0.1194 0.6418 1.2368
H140 H 0.1405 0.7075 1.256
loop_
_geom_bond_atom_site_label_1
_geom_bond_atom_site_label_2
_geom_bond_site_symmetry_1
_geom_bond_site_symmetry_2
Cu1 N3 1_555 1_555
Cu2 N1 1_555 1_555
C1 H1 1_555 1_555
H2 C1 1_555 1_555
H3 C1 1_555 1_555
O1 C1 1_555 1_555
C2 O1 1_555 1_555
C3 C2 1_555 1_555
H4 C3 1_555 1_555
C4 C3 1_555 1_555
H5 C4 1_555 1_555
C5 C4 1_555 1_555
C6 C5 1_555 1_555
H6 C6 1_555 1_555
C7 C2 1_555 1_555
H7 C7 1_555 1_555
C8 C5 1_555 1_555
C9 C8 1_555 1_555
H8 C9 1_555 1_555
N1 C9 1_555 1_555
C10 N1 1_555 1_555
C11 C10 1_555 1_555
H9 C11 1_555 1_555
C12 C8 1_555 1_555
H10 C12 1_555 1_555
C13 C10 1_555 1_555
N2 Cu2 1_555 1_555
C14 N2 1_555 1_555
C15 C14 1_555 1_555
C16 C15 1_555 1_555
H11 C16 1_555 1_555
C17 C13 1_555 1_555
H12 C17 1_555 1_555
C18 C14 1_555 1_555
H13 C18 1_555 1_555
C19 C18 1_555 1_555
H14 C19 1_555 1_555
C20 C19 1_555 1_555
N3 C20 1_555 1_555
C21 N3 1_555 1_555
C22 C21 1_555 1_555
H15 C22 1_555 1_555
C23 C22 1_555 1_555
H16 C23 1_555 1_555
C24 C15 1_555 1_555
C25 C21 1_555 1_555
N4 Cu1 1_555 1_555
C26 N4 1_555 1_555
H17 C26 1_555 1_555
C27 C26 1_555 1_555
C28 C27 1_555 1_555
H18 C28 1_555 1_555
C29 C25 1_555 1_555
H19 C29 1_555 1_555
C30 C27 1_555 1_555
C31 C30 1_555 1_555
H20 C31 1_555 1_555
C32 C31 1_555 1_555
H21 C32 1_555 1_555
C33 C32 1_555 1_555
C34 C33 1_555 1_555
H22 C34 1_555 1_555
C35 C30 1_555 1_555
H23 C35 1_555 1_555
O2 C33 1_555 1_555
C36 O2 1_555 1_555
H24 C36 1_555 1_555
H25 C36 1_555 1_555
H26 C36 1_555 1_555
O3 C37 1_555 1_555
C37 C38 1_555 1_555
C38 H27 1_555 1_555
C39 C38 1_555 1_555
H28 C39 1_555 1_555
C40 C39 1_555 1_555
C41 C40 1_555 1_555
H29 C41 1_555 1_555
C42 C37 1_555 1_555
H30 C42 1_555 1_555
C43 C40 1_555 1_555
N5 Cu2 1_555 1_555
C44 N5 1_555 1_555
C45 C44 1_555 1_555
C46 C45 1_555 1_555
H31 C46 1_555 1_555
C47 C43 1_555 1_555
H32 C47 1_555 1_555
C48 C44 1_555 1_555
N6 Cu2 1_555 1_555
C49 N6 1_555 1_555
C50 C49 1_555 1_555
H33 C50 1_555 1_555
C51 C50 1_555 1_555
H34 C51 1_555 1_555
C52 C48 1_555 1_555
C53 C49 1_555 1_555
C54 C53 1_555 1_555
H35 C54 1_555 1_555
C55 C54 1_555 1_555
H36 C55 1_555 1_555
C56 C55 1_555 1_555
C57 C56 1_555 1_555
H37 C57 1_555 1_555
C58 C53 1_555 1_555
H38 C58 1_555 1_555
O4 C56 1_555 1_555
C59 O4 1_555 1_555
H39 C59 1_555 1_555
H40 C59 1_555 1_555
C60 C59 1_555 1_555
H41 C60 1_555 1_555
H42 C60 1_555 1_555
O5 C60 1_555 1_555
C61 O5 1_555 1_555
H43 C61 1_555 1_555
H44 C61 1_555 1_555
C63 C61 1_555 1_555
H47 C63 1_555 1_555
H48 C63 1_555 1_555
O7 C63 1_555 1_555
C64 O7 1_555 1_555
H49 C64 1_555 1_555
H50 C64 1_555 1_555
C65 C64 1_555 1_555
H51 C65 1_555 1_555
H52 C65 1_555 1_555
O8 C65 1_555 1_555
C66 O8 1_555 1_555
H53 C66 1_555 1_555
H54 C66 1_555 1_555
C67 C66 1_555 1_555
H55 C67 1_555 1_555
H56 C67 1_555 1_555
O10 C67 1_555 1_555
C70 O10 1_555 1_555
H61 C70 1_555 1_555
H62 C70 1_555 1_555
C72 O3 1_555 1_555
H65 C72 1_555 1_555
H66 C72 1_555 1_555
O11 C73 1_555 1_555
C73 C74 1_555 1_555
C74 H67 1_555 1_555
C75 C74 1_555 1_555
H68 C75 1_555 1_555
C76 C75 1_555 1_555
C77 C76 1_555 1_555
H69 C77 1_555 1_555
C78 C73 1_555 1_555
H70 C78 1_555 1_555
C79 C76 1_555 1_555
N7 Cu1 1_555 1_555
C80 N7 1_555 1_555
C81 C80 1_555 1_555
C82 C81 1_555 1_555
H71 C82 1_555 1_555
C83 C79 1_555 1_555
H72 C83 1_555 1_555
C84 C80 1_555 1_555
N8 Cu1 1_555 1_555
C85 N8 1_555 1_555
C86 C85 1_555 1_555
H73 C86 1_555 1_555
C87 C86 1_555 1_555
H74 C87 1_555 1_555
C88 C84 1_555 1_555
C89 C88 1_555 1_555
N9 C89 1_555 1_555
C90 C45 1_555 1_555
C91 C52 1_555 1_555
N10 C91 1_555 1_555
C92 C81 1_555 1_555
C93 C85 1_555 1_555
C94 C93 1_555 1_555
H75 C94 1_555 1_555
C95 C94 1_555 1_555
H76 C95 1_555 1_555
C96 C95 1_555 1_555
C97 C96 1_555 1_555
H77 C97 1_555 1_555
C98 C93 1_555 1_555
H78 C98 1_555 1_555
O12 C96 1_555 1_555
C99 O12 1_555 1_555
H79 C99 1_555 1_555
H80 C99 1_555 1_555
C100 C99 1_555 1_555
H81 C100 1_555 1_555
H82 C100 1_555 1_555
O13 C100 1_555 1_555
C103 O13 1_555 1_555
H87 C103 1_555 1_555
H88 C103 1_555 1_555
C105 C103 1_555 1_555
H91 C105 1_555 1_555
H92 C105 1_555 1_555
O14 C105 1_555 1_555
C106 O14 1_555 1_555
H93 C106 1_555 1_555
H94 C106 1_555 1_555
C107 C106 1_555 1_555
H95 C107 1_555 1_555
H96 C107 1_555 1_555
O15 C107 1_555 1_555
C108 O15 1_555 1_555
H97 C108 1_555 1_555
H98 C108 1_555 1_555
C109 C108 1_555 1_555
H99 C109 1_555 1_555
H100 C109 1_555 1_555
O16 C109 1_555 1_555
C110 O16 1_555 1_555
H101 C110 1_555 1_555
H102 C110 1_555 1_555
C111 O11 1_555 1_555
H103 C111 1_555 1_555
H104 C111 1_555 1_555
P1 F1 1_555 1_555
F2 P1 1_555 1_555
F3 P1 1_555 1_555
F4 P1 1_555 1_555
F5 P1 1_555 1_555
F6 P1 1_555 1_555
P2 F7 1_555 1_555
F8 P2 1_555 1_555
F9 P2 1_555 1_555
F10 P2 1_555 1_555
F11 P2 1_555 1_555
F12 P2 1_555 1_555
Cl1 C112 1_555 1_555
Cl2 C112 1_555 1_555
C112 H105 1_555 1_555
H106 C112 1_555 1_555
Cl3 C113 1_555 1_555
Cl4 C113 1_555 1_555
C113 H107 1_555 1_555
H108 C113 1_555 1_555
O17 C114 1_555 1_555
C114 H109 1_555 1_555
H110 C114 1_555 1_555
C115 C114 1_555 1_555
H111 C115 1_555 1_555
H112 C115 1_555 1_555
C116 C115 1_555 1_555
H113 C116 1_555 1_555
H114 C116 1_555 1_555
C117 O17 1_555 1_555
H115 C117 1_555 1_555
H116 C117 1_555 1_555
O20 C127 1_555 1_555
C126 H133 1_555 1_555
H134 C126 1_555 1_555
C127 C126 1_555 1_555
H135 C127 1_555 1_555
H136 C127 1_555 1_555
C128 O20 1_555 1_555
H137 C128 1_555 1_555
H138 C128 1_555 1_555
C129 C126 1_555 1_555
H139 C129 1_555 1_555
H140 C129 1_555 1_555
Cu1A N3A 1_555 1_555
Cu2A N1A 1_555 1_555
C1A H1A 1_555 1_555
H2A C1A 1_555 1_555
H3A C1A 1_555 1_555
O1A C1A 1_555 1_555
C2A O1A 1_555 1_555
C3A C2A 1_555 1_555
H4A C3A 1_555 1_555
C4A C3A 1_555 1_555
H5A C4A 1_555 1_555
C5A C4A 1_555 1_555
C6A C5A 1_555 1_555
H6A C6A 1_555 1_555
C7A C2A 1_555 1_555
H7A C7A 1_555 1_555
C8A C5A 1_555 1_555
C9A C8A 1_555 1_555
H8A C9A 1_555 1_555
N1A C9A 1_555 1_555
C10A N1A 1_555 1_555
C11A C10A 1_555 1_555
H9A C11A 1_555 1_555
C12A C8A 1_555 1_555
H10A C12A 1_555 1_555
C13A C10A 1_555 1_555
N2A Cu2A 1_555 1_555
C14A N2A 1_555 1_555
C15A C14A 1_555 1_555
C16A C15A 1_555 1_555
H11A C16A 1_555 1_555
C17A C13A 1_555 1_555
H12A C17A 1_555 1_555
C18A C14A 1_555 1_555
H13A C18A 1_555 1_555
C19A C18A 1_555 1_555
H14A C19A 1_555 1_555
C20A C19A 1_555 1_555
N3A C20A 1_555 1_555
C21A N3A 1_555 1_555
C22A C21A 1_555 1_555
H15A C22A 1_555 1_555
C23A C22A 1_555 1_555
H16A C23A 1_555 1_555
C24A C15A 1_555 1_555
C25A C21A 1_555 1_555
N4A Cu1A 1_555 1_555
C26A N4A 1_555 1_555
H17A C26A 1_555 1_555
C27A C26A 1_555 1_555
C28A C27A 1_555 1_555
H18A C28A 1_555 1_555
C29A C25A 1_555 1_555
H19A C29A 1_555 1_555
C30A C27A 1_555 1_555
C31A C30A 1_555 1_555
H20A C31A 1_555 1_555
C32A C31A 1_555 1_555
H21A C32A 1_555 1_555
C33A C32A 1_555 1_555
C34A C33A 1_555 1_555
H22A C34A 1_555 1_555
C35A C30A 1_555 1_555
H23A C35A 1_555 1_555
O2A C33A 1_555 1_555
C36A O2A 1_555 1_555
H24A C36A 1_555 1_555
H25A C36A 1_555 1_555
H26A C36A 1_555 1_555
O3A C37A 1_555 1_555
C37A C38A 1_555 1_555
C38A H27A 1_555 1_555
C39A C38A 1_555 1_555
H28A C39A 1_555 1_555
C40A C39A 1_555 1_555
C41A C40A 1_555 1_555
H29A C41A 1_555 1_555
C42A C37A 1_555 1_555
H30A C42A 1_555 1_555
C43A C40A 1_555 1_555
N5A Cu2A 1_555 1_555
C44A N5A 1_555 1_555
C45A C44A 1_555 1_555
C46A C45A 1_555 1_555
H31A C46A 1_555 1_555
C47A C43A 1_555 1_555
H32A C47A 1_555 1_555
C48A C44A 1_555 1_555
N6A Cu2A 1_555 1_555
C49A N6A 1_555 1_555
C50A C49A 1_555 1_555
H33A C50A 1_555 1_555
C51A C50A 1_555 1_555
H34A C51A 1_555 1_555
C52A C48A 1_555 1_555
C53A C49A 1_555 1_555
C54A C53A 1_555 1_555
H35A C54A 1_555 1_555
C55A C54A 1_555 1_555
H36A C55A 1_555 1_555
C56A C55A 1_555 1_555
C57A C56A 1_555 1_555
H37A C57A 1_555 1_555
C58A C53A 1_555 1_555
H38A C58A 1_555 1_555
O4A C56A 1_555 1_555
C59A O4A 1_555 1_555
H39A C59A 1_555 1_555
H40A C59A 1_555 1_555
C60A C59A 1_555 1_555
H41A C60A 1_555 1_555
H42A C60A 1_555 1_555
O5A C60A 1_555 1_555
C61A O5A 1_555 1_555
H43A C61A 1_555 1_555
H44A C61A 1_555 1_555
C63A C61A 1_555 1_555
H47A C63A 1_555 1_555
H48A C63A 1_555 1_555
O7A C63A 1_555 1_555
C64A O7A 1_555 1_555
H49A C64A 1_555 1_555
H50A C64A 1_555 1_555
C65A C64A 1_555 1_555
H51A C65A 1_555 1_555
H52A C65A 1_555 1_555
O8A C65A 1_555 1_555
C66A O8A 1_555 1_555
H53A C66A 1_555 1_555
H54A C66A 1_555 1_555
C67A C66A 1_555 1_555
H55A C67A 1_555 1_555
H56A C67A 1_555 1_555
O10A C67A 1_555 1_555
C70A O10A 1_555 1_555
H61A C70A 1_555 1_555
H62A C70A 1_555 1_555
C72A O3A 1_555 1_555
H65A C72A 1_555 1_555
H66A C72A 1_555 1_555
O11A C73A 1_555 1_555
C73A C74A 1_555 1_555
C74A H67A 1_555 1_555
C75A C74A 1_555 1_555
H68A C75A 1_555 1_555
C76A C75A 1_555 1_555
C77A C76A 1_555 1_555
H69A C77A 1_555 1_555
C78A C73A 1_555 1_555
H70A C78A 1_555 1_555
C79A C76A 1_555 1_555
N7A Cu1A 1_555 1_555
C80A N7A 1_555 1_555
C81A C80A 1_555 1_555
C82A C81A 1_555 1_555
H71A C82A 1_555 1_555
C83A C79A 1_555 1_555
H72A C83A 1_555 1_555
C84A C80A 1_555 1_555
N8A Cu1A 1_555 1_555
C85A N8A 1_555 1_555
C86A C85A 1_555 1_555
H73A C86A 1_555 1_555
C87A C86A 1_555 1_555
H74A C87A 1_555 1_555
C88A C84A 1_555 1_555
C89A C88A 1_555 1_555
N9A C90 1_555 1_555
C90A N9 1_555 1_555
C91A C52A 1_555 1_555
N10A C92 1_555 1_555
C92A N10 1_555 1_555
C93A C85A 1_555 1_555
C94A C93A 1_555 1_555
H75A C94A 1_555 1_555
C95A C94A 1_555 1_555
H76A C95A 1_555 1_555
C96A C95A 1_555 1_555
C97A C96A 1_555 1_555
H77A C97A 1_555 1_555
C98A C93A 1_555 1_555
H78A C98A 1_555 1_555
O12A C96A 1_555 1_555
C99A O12A 1_555 1_555
H79A C99A 1_555 1_555
H80A C99A 1_555 1_555
C100A C99A 1_555 1_555
H81A C100A 1_555 1_555
H82A C100A 1_555 1_555
O13A C100A 1_555 1_555
C103A O13A 1_555 1_555
H87A C103A 1_555 1_555
H88A C103A 1_555 1_555
C105A C103A 1_555 1_555
H91A C105A 1_555 1_555
H92A C105A 1_555 1_555
O14A C105A 1_555 1_555
C106A O14A 1_555 1_555
H93A C106A 1_555 1_555
H94A C106A 1_555 1_555
C107A C106A 1_555 1_555
H95A C107A 1_555 1_555
H96A C107A 1_555 1_555
O15A C107A 1_555 1_555
C108A O15A 1_555 1_555
H97A C108A 1_555 1_555
H98A C108A 1_555 1_555
C109A C108A 1_555 1_555
H99A C109A 1_555 1_555
H100A C109A 1_555 1_555
O16A C109A 1_555 1_555
C110A O16A 1_555 1_555
H101A C110A 1_555 1_555
H102A C110A 1_555 1_555
C111A O11A 1_555 1_555
H103A C111A 1_555 1_555
H104A C111A 1_555 1_555
C6 C7 1_555 1_555
C11 C12 1_555 1_555
C13 N2 1_555 1_555
C16 C17 1_555 1_555
C20 C24 1_555 1_555
C23 C24 1_555 1_555
C25 N4 1_555 1_555
C28 C29 1_555 1_555
C34 C35 1_555 1_555
C41 C42 1_555 1_555
C43 N5 1_555 1_555
C46 C47 1_555 1_555
C48 N6 1_555 1_555
C51 C52 1_555 1_555
C57 C58 1_555 1_555
C70 C72 1_555 1_555
C77 C78 1_555 1_555
C79 N7 1_555 1_555
C82 C83 1_555 1_555
C84 N8 1_555 1_555
C87 C88 1_555 1_555
C89 C92 1_555 1_555
C90 C91 1_555 1_555
C97 C98 1_555 1_555
C110 C111 1_555 1_555
C116 C117 1_555 1_555
C128 C129 1_555 1_555
C6A C7A 1_555 1_555
C11A C12A 1_555 1_555
C13A N2A 1_555 1_555
C16A C17A 1_555 1_555
C20A C24A 1_555 1_555
C23A C24A 1_555 1_555
C25A N4A 1_555 1_555
C28A C29A 1_555 1_555
C34A C35A 1_555 1_555
C41A C42A 1_555 1_555
C43A N5A 1_555 1_555
C45A C90A 1_555 1_555
C46A C47A 1_555 1_555
C48A N6A 1_555 1_555
C51A C52A 1_555 1_555
C57A C58A 1_555 1_555
C70A C72A 1_555 1_555
C77A C78A 1_555 1_555
C79A N7A 1_555 1_555
C81A C92A 1_555 1_555
C82A C83A 1_555 1_555
C84A N8A 1_555 1_555
C87A C88A 1_555 1_555
C89A N9A 1_555 1_555
C89A C92A 1_555 1_555
C90A C91A 1_555 1_555
C91A N10A 1_555 1_555
C97A C98A 1_555 1_555
C110A C111A 1_555 1_555

#END
