
#######################################################################
#
#                 Cambridge Crystallographic Data Centre
#                                CCDC 
#
#######################################################################
#
# If this CIF has been generated from an entry in the Cambridge 
# Structural Database, then it will include bibliographic, chemical, 
# crystal, experimental, refinement or atomic coordinate data resulting 
# from the CCDC's data processing and validation procedures.
#
#######################################################################

data_GOJREC
_chemical_formula_moiety         
'C96 H76 B4 N36 Zn4 4+,3(F6 P1 1-),H1 O1 1-,12(C2 H6 O1)'
_chemical_name_systematic        
'tetrakis(\m~3~-(Hydrogen tris(3-(2-pyridyl)pyrazol-1-yl)borato))-tetra-zinc(ii) tris(hexafluorophosphate) hydroxide ethanol solvate'
_symmetry_cell_setting           rhombohedral
_symmetry_space_group_name_H-M   'R -3'
_symmetry_Int_Tables_number      148
_space_group_name_Hall           '-R 3'
loop_
_symmetry_equiv_pos_site_id
_symmetry_equiv_pos_as_xyz
1 x,y,z
2 -y,x-y,z
3 -x+y,-x,z
4 2/3+x,1/3+y,1/3+z
5 2/3-y,1/3+x-y,1/3+z
6 2/3-x+y,1/3-x,1/3+z
7 1/3+x,2/3+y,2/3+z
8 1/3-y,2/3+x-y,2/3+z
9 1/3-x+y,2/3-x,2/3+z
10 -x,-y,-z
11 y,-x+y,-z
12 x-y,x,-z
13 1/3-x,2/3-y,2/3-z
14 1/3+y,2/3-x+y,2/3-z
15 1/3+x-y,2/3+x,2/3-z
16 2/3-x,1/3-y,1/3-z
17 2/3+y,1/3-x+y,1/3-z
18 2/3+x-y,1/3+x,1/3-z
_cell_length_a                   26.528(6)
_cell_length_b                   26.528(6)
_cell_length_c                   36.863(13)
_cell_angle_alpha                90
_cell_angle_beta                 90
_cell_angle_gamma                120
_cell_volume                     22466.2
_exptl_crystal_colour            colorless
_exptl_crystal_description       block
_cell_formula_units_Z            6
_exptl_crystal_recrystallization_method acetonitrile/ethanol
loop_
_atom_site_label
_atom_site_type_symbol
_atom_site_fract_x
_atom_site_fract_y
_atom_site_fract_z
C1 C 0.7227(22) 0.6971(19) 0.1155(11)
C2 C 0.6594(21) 0.6717(18) 0.1058(11)
C3 C 0.6398(23) 0.6944(23) 0.0806(14)
C4 C 0.6985(15) 0.8807(15) 0.3620(9)
C5 C 0.7048(14) 0.8398(15) 0.3975(9)
C6 C 0.7378(15) 0.9003(16) 0.4157(9)
C7 C 0.6802(26) 1.0706(28) 0.3721(16)
C8 C 0.6985(18) 1.0222(21) 0.3560(12)
C9 C 0.6921(18) 0.9725(19) 0.3297(12)
C10 C 0.8491(49) 0.5215(44) 0.2422(26)
C11 C 0.8797(30) 0.4988(29) 0.2737(19)
C12 C 0.7902(53) 0.4777(48) 0.2602(29)
Zn1 Zn 0.90196(4) 0.84489(4) 0.24504(3)
Zn2 Zn 1.0000 1.0000 0.38209(4)
B1 B 0.8958(4) 0.9624(4) 0.3020(2)
H1 H 0.9353(4) 0.9764(4) 0.2929(2)
N1 N 0.8753(3) 0.7609(3) 0.2755(2)
C13 C 0.8789(5) 0.7139(4) 0.2661(3)
H2 H 0.8978(5) 0.7155(4) 0.2445(3)
C14 C 0.8573(6) 0.6647(5) 0.2856(4)
H3 H 0.8620(6) 0.6340(5) 0.2779(4)
C15 C 0.8283(6) 0.6605(5) 0.3169(4)
H4 H 0.8118(6) 0.6266(5) 0.3307(4)
C16 C 0.8244(5) 0.7085(4) 0.3276(3)
H5 H 0.8055(5) 0.7074(4) 0.3491(3)
C17 C 0.8481(4) 0.7578(4) 0.3066(3)
C18 C 0.8457(4) 0.8093(3) 0.3170(2)
C19 C 0.8167(4) 0.8181(4) 0.3455(2)
H6 H 0.7922(4) 0.7913(4) 0.3626(2)
C20 C 0.8325(4) 0.8752(4) 0.3424(2)
H7 H 0.8200(4) 0.8945(4) 0.3578(2)
N2 N 0.8679(3) 0.8994(3) 0.3147(2)
N3 N 0.8764(3) 0.8579(3) 0.2980(2)
N4 N 0.8088(3) 0.8031(3) 0.2269(2)
C21 C 0.7634(4) 0.7518(4) 0.2376(3)
H8 H 0.7685(4) 0.7320(4) 0.2568(3)
C22 C 0.7108(5) 0.7284(5) 0.2216(4)
H9 H 0.6804(5) 0.6926(5) 0.2293(4)
C23 C 0.7031(5) 0.7584(6) 0.1936(4)
H10 H 0.6674(5) 0.7423(6) 0.1818(4)
C24 C 0.7475(4) 0.8116(5) 0.1831(3)
H11 H 0.7422(4) 0.8331(5) 0.1651(3)
C25 C 0.8011(4) 0.8325(4) 0.2002(3)
C26 C 0.8515(4) 0.8876(4) 0.1899(2)
C27 C 0.8583(4) 0.9254(4) 0.1624(3)
H12 H 0.8309(4) 0.9208(4) 0.1451(3)
C28 C 0.9130(4) 0.9706(5) 0.1659(2)
H13 H 0.9307(4) 1.0031(5) 0.1510(2)
N5 N 0.9379(3) 0.9604(3) 0.1951(2)
N6 N 0.8996(3) 0.9083(3) 0.2101(2)
N7 N 0.9140(3) 0.7995(3) 0.1963(2)
C29 C 0.8770(5) 0.7704(5) 0.1694(3)
H14 H 0.8414(5) 0.7694(5) 0.1685(3)
C30 C 0.8900(6) 0.7415(6) 0.1426(3)
H15 H 0.8641(6) 0.7222(6) 0.1237(3)
C31 C 0.9411(6) 0.7424(6) 0.1448(3)
H16 H 0.9500(6) 0.7220(6) 0.1278(3)
C32 C 0.9790(5) 0.7719(5) 0.1709(3)
H17 H 1.0148(5) 0.7736(5) 0.1717(3)
C33 C 0.9646(4) 0.8004(4) 0.1970(2)
C34 C 1.0033(4) 0.8322(3) 0.2264(2)
C35 C 1.0557(4) 0.8379(4) 0.2366(3)
H18 H 1.0747(4) 0.8202(4) 0.2261(3)
C36 C 1.0739(4) 0.8749(4) 0.2654(2)
H19 H 1.1082(4) 0.8868(4) 0.2783(2)
N8 N 0.8567(3) 0.9652(3) 0.2722(2)
N9 N 0.9904(3) 0.8657(3) 0.2480(2)
B2 B 1.0000 1.0000 0.2108(4)
C37 C 0.9233(3) 1.0509(3) 0.3835(2)
C38 C 0.8720(4) 1.0479(4) 0.3726(2)
H20 H 0.8524(4) 1.0646(4) 0.3838(2)
C39 C 0.8565(3) 1.0153(4) 0.3419(2)
H21 H 0.8233(3) 1.0054(4) 0.3283(2)
N10 N 0.8960(3) 0.9991(3) 0.3340(2)
N11 N 0.9381(2) 1.0209(2) 0.36033(15)
N12 N 0.9300(3) 0.9344(3) 0.4195(2)
C40 C 0.9616(3) 1.0811(3) 0.4132(2)
C41 C 0.9554(4) 1.1217(4) 0.4336(2)
H22 H 0.9254(4) 1.1291(4) 0.4286(2)
C42 C 0.9941(5) 1.1509(5) 0.4613(3)
H23 H 0.9905(5) 1.1782(5) 0.4752(3)
C43 C 1.0371(5) 1.1391(5) 0.4678(3)
H24 H 1.0636(5) 1.1582(5) 0.4864(3)
C44 C 0.9014(4) 0.9431(4) 0.4467(2)
H25 H 0.9092(4) 0.9807(4) 0.4515(2)
H26 H 1.0000 1.0000 0.2434(30)
C36B C 0.8010(6) 0.9261(4) 0.2654(2)
C35B C 0.7822(6) 0.9443(4) 0.2366(3)
C34B C 0.8289(5) 0.9967(4) 0.2264(2)
C33B C 0.8358(6) 1.0354(4) 0.1970(2)
N7B N 0.8855(4) 1.0860(3) 0.1963(2)
Zn1B Zn 0.94293(6) 1.09804(4) 0.24504(3)
N1B N 0.8856(4) 1.1247(3) 0.2755(2)
C13B C 0.8350(6) 1.1211(5) 0.2661(3)
H2B H 0.8177(6) 1.1022(5) 0.2445(3)
C14B C 0.8074(8) 1.1427(6) 0.2856(4)
H3B H 0.7720(8) 1.1380(6) 0.2779(4)
C15B C 0.8322(8) 1.1717(6) 0.3169(4)
H4B H 0.8148(8) 1.1882(6) 0.3307(4)
C16B C 0.8841(6) 1.1756(5) 0.3276(3)
H5B H 0.9019(6) 1.1945(5) 0.3491(3)
C17B C 0.9097(6) 1.1519(4) 0.3066(3)
C18B C 0.9636(5) 1.1543(4) 0.3170(2)
C19B C 1.0014(6) 1.1833(4) 0.3455(2)
H6B H 0.9991(6) 1.2078(4) 0.3626(2)
C20B C 1.0427(6) 1.1675(4) 0.3424(2)
H7B H 1.0745(6) 1.1800(4) 0.3578(2)
N2B N 1.0315(4) 1.1321(3) 0.3147(2)
B1B B 1.0666(6) 1.1042(4) 0.3020(2)
H1B H 1.0411(6) 1.0647(4) 0.2929(2)
N8B N 1.1085(4) 1.1433(3) 0.2722(2)
C36A C 1.1251(4) 1.1990(6) 0.2654(2)
C35A C 1.1621(4) 1.2178(6) 0.2366(3)
C34A C 1.1678(3) 1.1711(5) 0.2264(2)
C33A C 1.1996(4) 1.1642(6) 0.1970(2)
N7A N 1.2005(3) 1.1145(4) 0.1963(2)
Zn1A Zn 1.15511(4) 1.05707(6) 0.24504(3)
N1A N 1.2391(3) 1.1144(4) 0.2755(2)
C13A C 1.2861(4) 1.1650(6) 0.2661(3)
H2A H 1.2845(4) 1.1823(6) 0.2445(3)
C14A C 1.3353(5) 1.1926(8) 0.2856(4)
H3A H 1.3660(5) 1.2280(8) 0.2779(4)
C15A C 1.3395(5) 1.1678(8) 0.3169(4)
H4A H 1.3734(5) 1.1852(8) 0.3307(4)
C16A C 1.2915(4) 1.1159(6) 0.3276(3)
H5A H 1.2926(4) 1.0981(6) 0.3491(3)
C17A C 1.2422(4) 1.0903(6) 0.3066(3)
C18A C 1.1907(3) 1.0364(5) 0.3170(2)
C19A C 1.1819(4) 0.9986(6) 0.3455(2)
H6A H 1.2087(4) 1.0009(6) 0.3626(2)
C20A C 1.1248(4) 0.9573(6) 0.3424(2)
H7A H 1.1055(4) 0.9255(6) 0.3578(2)
N2A N 1.1006(3) 0.9685(4) 0.3147(2)
B1A B 1.0376(4) 0.9334(6) 0.3020(2)
H1A H 1.0236(4) 0.9589(6) 0.2929(2)
N8A N 1.0348(3) 0.8915(4) 0.2722(2)
N5B N 1.0225(4) 1.0621(3) 0.1951(2)
C28B C 1.0576(6) 1.0870(4) 0.1659(2)
C27B C 1.0671(6) 1.1417(4) 0.1624(3)
C26B C 1.0361(6) 1.1485(4) 0.1899(2)
C25B C 1.0314(6) 1.1989(4) 0.2002(3)
N4B N 0.9943(4) 1.1912(3) 0.2269(2)
N3B N 0.9815(4) 1.1236(3) 0.2980(2)
N6B N 1.0087(4) 1.1004(3) 0.2101(2)
N9B N 0.8753(4) 1.0096(3) 0.2480(2)
C21B C 0.9884(6) 1.2366(4) 0.2376(3)
H8B H 0.9635(6) 1.2315(4) 0.2568(3)
C22B C 1.0176(7) 1.2892(5) 0.2216(4)
H9B H 1.0122(7) 1.3196(5) 0.2293(4)
C23B C 1.0553(8) 1.2969(5) 0.1936(4)
H10B H 1.0749(8) 1.3326(5) 0.1818(4)
C24B C 1.0641(6) 1.2525(4) 0.1831(3)
H11B H 1.0909(6) 1.2578(4) 0.1651(3)
H12B H 1.0899(6) 1.1691(4) 0.1451(3)
H13B H 1.0724(6) 1.0693(4) 0.1510(2)
N5A N 1.0396(3) 0.9775(4) 0.1951(2)
C28A C 1.0294(5) 0.9424(6) 0.1659(2)
C27A C 1.0746(4) 0.9329(6) 0.1624(3)
C26A C 1.1124(4) 0.9639(6) 0.1899(2)
C25A C 1.1675(4) 0.9686(6) 0.2002(3)
N4A N 1.1969(3) 1.0057(4) 0.2269(2)
N3A N 1.1421(3) 1.0185(4) 0.2980(2)
N6A N 1.0917(3) 0.9913(4) 0.2101(2)
N9A N 1.1343(3) 1.1247(4) 0.2480(2)
C21A C 1.2482(4) 1.0116(6) 0.2376(3)
H8A H 1.2680(4) 1.0365(6) 0.2568(3)
C22A C 1.2716(5) 0.9824(7) 0.2216(4)
H9A H 1.3074(5) 0.9878(7) 0.2293(4)
C23A C 1.2416(6) 0.9447(8) 0.1936(4)
H10A H 1.2577(6) 0.9251(8) 0.1818(4)
C24A C 1.1884(5) 0.9359(6) 0.1831(3)
H11A H 1.1669(5) 0.9091(6) 0.1651(3)
H12A H 1.0792(4) 0.9101(6) 0.1451(3)
H13A H 0.9969(5) 0.9276(6) 0.1510(2)
N10A N 1.0009(3) 0.8969(4) 0.3340(2)
C39A C 0.9847(4) 0.8412(5) 0.3419(2)
C38A C 0.9521(4) 0.8241(6) 0.3726(2)
C37A C 0.9491(3) 0.8724(4) 0.3835(2)
N11A N 0.9791(2) 0.9172(3) 0.36033(15)
N12B N 1.0044(4) 1.0700(3) 0.4195(2)
N11B N 1.0828(3) 1.0619(2) 0.36033(15)
C37B C 1.1276(4) 1.0767(3) 0.3835(2)
C38B C 1.1759(6) 1.1280(4) 0.3726(2)
H20B H 1.2122(6) 1.1476(4) 0.3838(2)
C39B C 1.1588(5) 1.1435(3) 0.3419(2)
H21B H 1.1821(5) 1.1767(3) 0.3283(2)
N10B N 1.1031(4) 1.1040(3) 0.3340(2)
C40B C 1.1195(4) 1.0384(3) 0.4132(2)
N12A N 1.0656(3) 0.9956(4) 0.4195(2)
C40A C 0.9189(3) 0.8805(4) 0.4132(2)
C41A C 0.8783(4) 0.8337(6) 0.4336(2)
H22A H 0.8709(4) 0.7963(6) 0.4286(2)
C42A C 0.8491(5) 0.8432(7) 0.4613(3)
H23A H 0.8218(5) 0.8123(7) 0.4752(3)
C43A C 0.8609(5) 0.8980(7) 0.4678(3)
H24A H 0.8418(5) 0.9054(7) 0.4864(3)
C44A C 1.0569(4) 0.9583(6) 0.4467(2)
C43B C 1.1020(7) 0.9629(5) 0.4678(3)
C42B C 1.1568(7) 1.0059(5) 0.4613(3)
C41B C 1.1663(6) 1.0446(4) 0.4336(2)
H22B H 1.2037(6) 1.0746(4) 0.4286(2)
H23B H 1.1877(7) 1.0095(5) 0.4752(3)
H24B H 1.0946(7) 0.9364(5) 0.4864(3)
H25A H 1.0193(4) 0.9285(6) 0.4515(2)
C44B C 1.0417(6) 1.0986(4) 0.4467(2)
H25B H 1.0715(6) 1.0908(4) 0.4515(2)
H20A H 0.9354(4) 0.7878(6) 0.3838(2)
H21A H 0.9946(4) 0.8179(5) 0.3283(2)
C29A C 1.2296(5) 1.1066(7) 0.1694(3)
H14A H 1.2306(5) 1.0720(7) 0.1685(3)
C30A C 1.2585(6) 1.1485(8) 0.1426(3)
H15A H 1.2778(6) 1.1419(8) 0.1237(3)
C31A C 1.2576(6) 1.1987(8) 0.1448(3)
H16A H 1.2780(6) 1.2280(8) 0.1278(3)
C32A C 1.2281(5) 1.2071(7) 0.1709(3)
H17A H 1.2264(5) 1.2412(7) 0.1717(3)
H18A H 1.1798(4) 1.2545(6) 0.2261(3)
H19A H 1.1132(4) 1.2214(6) 0.2783(2)
C29B C 0.8934(7) 1.1230(5) 0.1694(3)
H14B H 0.9280(7) 1.1586(5) 0.1685(3)
C30B C 0.8515(8) 1.1100(6) 0.1426(3)
H15B H 0.8581(8) 1.1359(6) 0.1237(3)
C31B C 0.8013(8) 1.0589(6) 0.1448(3)
H16B H 0.7720(8) 1.0500(6) 0.1278(3)
C32B C 0.7929(7) 1.0210(5) 0.1709(3)
H17B H 0.7588(7) 0.9852(5) 0.1717(3)
H18B H 0.7455(6) 0.9253(4) 0.2261(3)
H19B H 0.7786(6) 0.8918(4) 0.2783(2)
P1 P 0.1295(2) 0.7700(2) 0.13292(10)
F1 F 0.1928(5) 0.8142(7) 0.1431(4)
F2 F 0.1155(5) 0.8200(5) 0.1305(4)
F3 F 0.0667(4) 0.7334(5) 0.1230(4)
F4 F 0.1522(7) 0.7280(6) 0.1345(4)
F5 F 0.1490(6) 0.7791(7) 0.0933(3)
F6 F 0.1123(7) 0.7648(11) 0.1708(3)
loop_
_geom_bond_atom_site_label_1
_geom_bond_atom_site_label_2
_geom_bond_site_symmetry_1
_geom_bond_site_symmetry_2
P1 F1 1_555 1_555
F2 P1 1_555 1_555
F3 P1 1_555 1_555
F4 P1 1_555 1_555
F5 P1 1_555 1_555
F6 P1 1_555 1_555
C1 C2 1_555 1_555
C2 C3 1_555 1_555
C4 C5 1_555 1_555
C5 C6 1_555 1_555
C7 C8 1_555 1_555
C8 C9 1_555 1_555
C10 C11 1_555 1_555
C12 C10 1_555 1_555
Zn1 N1 1_555 1_555
Zn2 N11 1_555 1_555
B1 H1 1_555 1_555
N1 C13 1_555 1_555
C13 H2 1_555 1_555
C14 C13 1_555 1_555
H3 C14 1_555 1_555
C15 C14 1_555 1_555
H4 C15 1_555 1_555
C16 C15 1_555 1_555
H5 C16 1_555 1_555
C17 N1 1_555 1_555
C18 C17 1_555 1_555
C19 C18 1_555 1_555
H6 C19 1_555 1_555
C20 C19 1_555 1_555
H7 C20 1_555 1_555
N2 B1 1_555 1_555
N3 Zn1 1_555 1_555
N4 Zn1 1_555 1_555
C21 N4 1_555 1_555
H8 C21 1_555 1_555
C22 C21 1_555 1_555
H9 C22 1_555 1_555
C23 C22 1_555 1_555
H10 C23 1_555 1_555
C24 C23 1_555 1_555
H11 C24 1_555 1_555
C25 N4 1_555 1_555
C26 C25 1_555 1_555
C27 C26 1_555 1_555
H12 C27 1_555 1_555
C28 C27 1_555 1_555
H13 C28 1_555 1_555
N5 C28 1_555 1_555
N6 Zn1 1_555 1_555
N7 Zn1 1_555 1_555
C29 N7 1_555 1_555
H14 C29 1_555 1_555
C30 C29 1_555 1_555
H15 C30 1_555 1_555
C31 C30 1_555 1_555
H16 C31 1_555 1_555
C32 C31 1_555 1_555
H17 C32 1_555 1_555
C33 N7 1_555 1_555
C34 C33 1_555 1_555
C35 C34 1_555 1_555
H18 C35 1_555 1_555
C36 C35 1_555 1_555
H19 C36 1_555 1_555
N8 B1 1_555 1_555
N9 Zn1 1_555 1_555
B2 N5 1_555 1_555
C37 C38 1_555 1_555
C38 H20 1_555 1_555
C39 C38 1_555 1_555
H21 C39 1_555 1_555
N10 B1 1_555 1_555
N11 C37 1_555 1_555
N12 Zn2 1_555 1_555
C40 C37 1_555 1_555
C41 C40 1_555 1_555
H22 C41 1_555 1_555
C42 C41 1_555 1_555
H23 C42 1_555 1_555
C43 C42 1_555 1_555
H24 C43 1_555 1_555
C44 N12 1_555 1_555
H25 C44 1_555 1_555
H26 B2 1_555 1_555
C36B N8 1_555 1_555
C35B C36B 1_555 1_555
C34B C35B 1_555 1_555
C33B C34B 1_555 1_555
N7B C33B 1_555 1_555
Zn1B N7B 1_555 1_555
N1B Zn1B 1_555 1_555
C13B N1B 1_555 1_555
H2B C13B 1_555 1_555
C14B C13B 1_555 1_555
H3B C14B 1_555 1_555
C15B C14B 1_555 1_555
H4B C15B 1_555 1_555
C16B C15B 1_555 1_555
H5B C16B 1_555 1_555
C17B N1B 1_555 1_555
C18B C17B 1_555 1_555
C19B C18B 1_555 1_555
H6B C19B 1_555 1_555
C20B C19B 1_555 1_555
H7B C20B 1_555 1_555
N2B C20B 1_555 1_555
B1B N2B 1_555 1_555
H1B B1B 1_555 1_555
N8B B1B 1_555 1_555
C36A N8B 1_555 1_555
C35A C36A 1_555 1_555
C34A C35A 1_555 1_555
C33A C34A 1_555 1_555
N7A C33A 1_555 1_555
Zn1A N7A 1_555 1_555
N1A Zn1A 1_555 1_555
C13A N1A 1_555 1_555
H2A C13A 1_555 1_555
C14A C13A 1_555 1_555
H3A C14A 1_555 1_555
C15A C14A 1_555 1_555
H4A C15A 1_555 1_555
C16A C15A 1_555 1_555
H5A C16A 1_555 1_555
C17A N1A 1_555 1_555
C18A C17A 1_555 1_555
C19A C18A 1_555 1_555
H6A C19A 1_555 1_555
C20A C19A 1_555 1_555
H7A C20A 1_555 1_555
N2A C20A 1_555 1_555
B1A N2A 1_555 1_555
H1A B1A 1_555 1_555
N8A C36 1_555 1_555
N5B B2 1_555 1_555
C28B N5B 1_555 1_555
C27B C28B 1_555 1_555
C26B C27B 1_555 1_555
C25B C26B 1_555 1_555
N4B Zn1B 1_555 1_555
N3B Zn1B 1_555 1_555
N6B Zn1B 1_555 1_555
N9B N8 1_555 1_555
C21B N4B 1_555 1_555
H8B C21B 1_555 1_555
C22B C21B 1_555 1_555
H9B C22B 1_555 1_555
C23B C22B 1_555 1_555
H10B C23B 1_555 1_555
C24B C25B 1_555 1_555
H11B C24B 1_555 1_555
H12B C27B 1_555 1_555
H13B C28B 1_555 1_555
N5A B2 1_555 1_555
C28A N5A 1_555 1_555
C27A C28A 1_555 1_555
C26A C27A 1_555 1_555
C25A C26A 1_555 1_555
N4A Zn1A 1_555 1_555
N3A Zn1A 1_555 1_555
N6A Zn1A 1_555 1_555
N9A N8B 1_555 1_555
C21A N4A 1_555 1_555
H8A C21A 1_555 1_555
C22A C21A 1_555 1_555
H9A C22A 1_555 1_555
C23A C22A 1_555 1_555
H10A C23A 1_555 1_555
C24A C25A 1_555 1_555
H11A C24A 1_555 1_555
H12A C27A 1_555 1_555
H13A C28A 1_555 1_555
N10A B1A 1_555 1_555
C39A N10A 1_555 1_555
C38A C39A 1_555 1_555
C37A C38A 1_555 1_555
N11A Zn2 1_555 1_555
N12B Zn2 1_555 1_555
N11B Zn2 1_555 1_555
C37B N11B 1_555 1_555
C38B C37B 1_555 1_555
H20B C38B 1_555 1_555
C39B C38B 1_555 1_555
H21B C39B 1_555 1_555
N10B B1B 1_555 1_555
C40B C37B 1_555 1_555
N12A Zn2 1_555 1_555
C40A N12 1_555 1_555
C41A C40A 1_555 1_555
H22A C41A 1_555 1_555
C42A C41A 1_555 1_555
H23A C42A 1_555 1_555
C43A C44 1_555 1_555
H24A C43A 1_555 1_555
C44A N12A 1_555 1_555
C43B C44A 1_555 1_555
C42B C43B 1_555 1_555
C41B C40B 1_555 1_555
H22B C41B 1_555 1_555
H23B C42B 1_555 1_555
H24B C43B 1_555 1_555
H25A C44A 1_555 1_555
C44B C43 1_555 1_555
H25B C44B 1_555 1_555
H20A C38A 1_555 1_555
H21A C39A 1_555 1_555
C29A N7A 1_555 1_555
H14A C29A 1_555 1_555
C30A C29A 1_555 1_555
H15A C30A 1_555 1_555
C31A C30A 1_555 1_555
H16A C31A 1_555 1_555
C32A C33A 1_555 1_555
H17A C32A 1_555 1_555
H18A C35A 1_555 1_555
H19A C36A 1_555 1_555
C29B N7B 1_555 1_555
H14B C29B 1_555 1_555
C30B C29B 1_555 1_555
H15B C30B 1_555 1_555
C31B C30B 1_555 1_555
H16B C31B 1_555 1_555
C32B C33B 1_555 1_555
H17B C32B 1_555 1_555
H18B C35B 1_555 1_555
H19B C36B 1_555 1_555
C16 C17 1_555 1_555
C18 N3 1_555 1_555
C20 N2 1_555 1_555
N2 N3 1_555 1_555
C24 C25 1_555 1_555
C26 N6 1_555 1_555
N5 N6 1_555 1_555
C32 C33 1_555 1_555
C34 N9 1_555 1_555
N9 N8A 1_555 1_555
C39 N10 1_555 1_555
N10 N11 1_555 1_555
C40 N12B 1_555 1_555
C34B N9B 1_555 1_555
Zn1B N9B 1_555 1_555
C16B C17B 1_555 1_555
C18B N3B 1_555 1_555
N2B N3B 1_555 1_555
C34A N9A 1_555 1_555
Zn1A N9A 1_555 1_555
C16A C17A 1_555 1_555
C18A N3A 1_555 1_555
N2A N3A 1_555 1_555
B1A N8A 1_555 1_555
N5B N6B 1_555 1_555
C26B N6B 1_555 1_555
C25B N4B 1_555 1_555
C23B C24B 1_555 1_555
N5A N6A 1_555 1_555
C26A N6A 1_555 1_555
C25A N4A 1_555 1_555
C23A C24A 1_555 1_555
N10A N11A 1_555 1_555
C37A N11A 1_555 1_555
C37A C40A 1_555 1_555
N12B C44B 1_555 1_555
N11B N10B 1_555 1_555
C39B N10B 1_555 1_555
C40B N12A 1_555 1_555
C42A C43A 1_555 1_555
C42B C41B 1_555 1_555
C31A C32A 1_555 1_555
C31B C32B 1_555 1_555

#END
