
#######################################################################
#
#                 Cambridge Crystallographic Data Centre
#                                CCDC 
#
#######################################################################
#
# If this CIF has been generated from an entry in the Cambridge 
# Structural Database, then it will include bibliographic, chemical, 
# crystal, experimental, refinement or atomic coordinate data resulting 
# from the CCDC's data processing and validation procedures.
#
#######################################################################

data_GOMVUZ
_chemical_formula_moiety         'C118 H136 Ag2 N6 P8 Pt4 6+,6(C1 F3 O3 S1 1-)'
_chemical_name_systematic        
'cis(tetrakis(\m~3~-\h^2^-4-Ethynylpyridyl)-(\m~2~-phenazine)-bis(1,3-bis(diphenylphosphino)propane)-tetrakis(triethyphosphine)-tetra-platinum(ii)-di-silver) tetrakis(trifluoromethanesulfonate)'
_symmetry_cell_setting           triclinic
_symmetry_space_group_name_H-M   'P -1'
_symmetry_Int_Tables_number      2
_space_group_name_Hall           '-P 1'
loop_
_symmetry_equiv_pos_site_id
_symmetry_equiv_pos_as_xyz
1 x,y,z
2 -x,-y,-z
_cell_length_a                   12.3719(8)
_cell_length_b                   17.160(1)
_cell_length_c                   18.932(1)
_cell_angle_alpha                90.892(1)
_cell_angle_beta                 97.127(1)
_cell_angle_gamma                89.969(1)
_cell_volume                     3987.76
_exptl_crystal_colour            yellow
_chemical_melting_point          230-234deg.C(dec)
_cell_formula_units_Z            1
loop_
_atom_site_label
_atom_site_type_symbol
_atom_site_fract_x
_atom_site_fract_y
_atom_site_fract_z
C1 C 0.093(1) -0.0896(9) 0.1351(9)
C2 C 0.291(1) 0.0845(8) 0.0322(8)
C3 C 0.399(1) 0.106(1) 0.0563(9)
C4 C 0.477(1) 0.119(1) 0.006(1)
C5 C 0.453(2) 0.115(1) -0.063(1)
C6 C 0.349(2) 0.098(1) -0.0849(9)
C7 C 0.263(2) 0.083(1) -0.0388(9)
C8 C 0.058(1) 0.0840(9) 0.0616(8)
C9 C 0.049(1) 0.1703(9) 0.0605(8)
C10 C 0.037(1) 0.2056(9) 0.1328(8)
C11 C 0.250(1) 0.2910(8) 0.1430(8)
C12 C 0.210(2) 0.351(1) 0.103(1)
C13 C 0.272(2) 0.403(2) 0.071(1)
C14 C 0.372(2) 0.401(1) 0.070(1)
C15 C 0.430(2) 0.342(1) 0.109(1)
C16 C 0.359(2) 0.288(1) 0.146(1)
C17 C 0.123(1) 0.2695(8) 0.2686(8)
C18 C 0.179(2) 0.341(1) 0.293(1)
C19 C 0.145(2) 0.376(1) 0.354(1)
C20 C 0.070(2) 0.341(1) 0.390(1)
C21 C 0.015(2) 0.271(1) 0.366(1)
C22 C 0.043(2) 0.236(1) 0.309(1)
C23 C 0.897(2) -0.338(1) 0.386(1)
C24 C 0.936(2) -0.288(2) 0.323(2)
C25 C 0.720(2) -0.443(2) 0.439(1)
C26 C 0.611(2) -0.494(2) 0.430(2)
C27 C 0.800(2) -0.476(1) 0.306(1)
C28 C 0.879(2) -0.529(1) 0.341(1)
C29 C 0.550(2) -0.468(1) 0.209(1)
C30 C 0.452(2) -0.482(1) 0.249(2)
C31 C 0.723(1) -0.369(1) 0.1542(9)
C32 C 0.774(2) -0.287(1) 0.139(1)
C33 C 0.515(1) -0.315(1) 0.1574(9)
C34 C 0.485(2) -0.346(1) 0.085(1)
C35 C 0.772(1) 0.081(1) 0.455(1)
C36 C 0.671(1) 0.067(1) 0.4217(9)
C37 C 0.584(1) 0.0344(8) 0.4606(8)
C38 C 0.398(1) -0.0126(8) 0.4656(8)
C39 C 0.289(1) -0.027(1) 0.4347(9)
C40 C 0.791(1) 0.060(1) 0.526(1)
H1 H 0.5743 -0.0501 0.2448
H2 H 0.6718 -0.1542 0.2758
H3 H 0.4049 -0.2867 0.3203
H4 H 0.2952 -0.1873 0.2949
H5 H 0.4643 0.2712 0.4317
H6 H 0.5300 -0.3266 0.4551
H7 H 0.7893 -0.1878 0.4063
Pt1 Pt 0.23945(5) 0.10684(3) 0.20976(3)
Pt2 Pt 0.64457(5) -0.31604(3) 0.32055(3)
Ag1 Ag 0.4455(1) 0.08126(7) 0.32310(7)
P1 P 0.1887(3) 0.0565(2) 0.0981(2)
P2 P 0.1618(3) 0.2197(2) 0.1893(2)
P3 P 0.7658(4) -0.3972(3) 0.3601(3)
P4 P 0.6099(4) -0.3687(2) 0.2093(2)
N1 N 0.547(1) -0.2300(6) 0.2974(5)
N2 N 0.660(1) -0.2641(7) 0.4219(6)
N3 N 0.481(1) 0.0207(7) 0.4285(6)
C44 C 0.312(1) 0.0104(7) 0.2302(7)
C45 C 0.360(1) -0.0430(8) 0.2465(7)
C46 C 0.422(1) -0.1078(8) 0.2661(7)
C47 C 0.538(1) -0.0995(8) 0.2623(7)
C48 C 0.594(1) -0.1603(9) 0.2787(8)
C49 C 0.439(1) -0.2369(8) 0.3039(8)
C50 C 0.376(1) -0.1793(8) 0.2879(8)
C51 C 0.280(1) 0.1461(8) 0.3099(8)
C52 C 0.306(1) 0.1688(9) 0.3699(8)
C53 C 0.322(1) 0.2005(8) 0.4414(8)
C54 C 0.406(1) 0.256(1) 0.4637(8)
C55 C 0.588(1) -0.286(1) 0.4696(9)
C56 C 0.738(1) -0.2059(9) 0.4415(8)
C57 C 0.251(1) 0.174(1) 0.4914(9)
C58 C 0.170(1) -0.0507(8) 0.0938(7)
C59 C 0.232(1) -0.0931(9) 0.0552(9)
C60 C 0.215(2) -0.174(1) 0.054(1)
C61 C 0.142(2) -0.210(1) 0.093(1)
C62 C 0.079(2) -0.169(1) 0.136(1)
H8 H 0.1896 0.1293 0.4785
H9 H 0.2917 -0.0660 0.0292
H10 H 0.2603 -0.2044 0.0255
H11 H 0.1218 -0.2656 0.0952
H12 H 0.0363 -0.1961 0.1741
H13 H 0.0514 -0.0587 0.1618
H14 H 0.4196 0.1025 0.1087
H15 H 0.5482 0.1342 0.0237
H16 H 0.5080 0.1290 -0.0977
H17 H 0.3251 0.0924 -0.1361
H18 H 0.1869 0.0713 -0.0552
H19 H 0.0473 0.0617 0.0138
H20 H 0.0016 0.0559 0.0884
H21 H -0.0129 0.1801 0.0314
H22 H 0.1126 0.1981 0.0438
H23 H -0.0169 0.1694 0.1570
H24 H 0.0071 0.2538 0.1289
H25 H 0.1354 0.3526 0.0978
H26 H 0.2611 0.4440 0.0432
H27 H 0.4333 0.4370 0.0485
H28 H 0.5056 0.3322 0.1092
H29 H 0.3908 0.2488 0.1798
H30 H 0.2502 0.3673 0.2673
H31 H 0.1747 0.4280 0.3716
H32 H 0.0514 0.3645 0.4353
H33 H -0.0452 0.2478 0.3920
H34 H 0.0080 0.1818 0.2966
H35 H 0.9540 -0.3730 0.3997
H36 H 0.8946 -0.3049 0.4268
H37 H 1.0134 -0.2605 0.3487
H38 H 0.8959 -0.2538 0.3187
H39 H 0.9572 -0.3213 0.2925
H40 H 0.7149 -0.4016 0.4783
H41 H 0.7787 -0.4717 0.4632
H42 H 0.5875 -0.5226 0.4738
H43 H 0.5542 -0.4695 0.4128
H44 H 0.6180 -0.5395 0.3972
H45 H 0.8395 -0.4523 0.2664
H46 H 0.7425 -0.5093 0.2913
H47 H 0.9049 -0.5634 0.3154
H48 H 0.9512 -0.4896 0.3610
H49 H 0.8543 -0.5463 0.3863
H50 H 0.5953 -0.5024 0.2292
H51 H 0.5250 -0.4869 0.1616
H52 H 0.3932 -0.4545 0.2285
H53 H 0.4636 -0.4683 0.2965
H54 H 0.4195 -0.5384 0.2459
H55 H 0.7762 -0.3975 0.1762
H56 H 0.6963 -0.3977 0.1101
H57 H 0.7972 -0.2569 0.1806
H58 H 0.7169 -0.2569 0.1147
H59 H 0.8302 -0.2847 0.1074
H60 H 0.5429 -0.2620 0.1554
H61 H 0.4471 -0.3176 0.1834
H62 H 0.4307 -0.3184 0.0601
H63 H 0.5451 -0.3456 0.0568
H64 H 0.4498 -0.4015 0.0850
H65 H 0.8309 0.1041 0.4294
H66 H 0.6583 0.0827 0.3764
H67 H 0.2728 -0.0128 0.3853
H68 H 0.8626 0.0705 0.5459
C39A C 0.711(1) 0.027(1) 0.5653(9)
C38A C 0.602(1) 0.0126(8) 0.5344(8)
N3A N 0.519(1) -0.0207(7) 0.5715(6)
C37A C 0.416(1) -0.0344(8) 0.5394(8)
C36A C 0.329(1) -0.067(1) 0.5783(9)
C35A C 0.228(1) -0.081(1) 0.545(1)
C40A C 0.209(1) -0.060(1) 0.474(1)
H68A H 0.1374 -0.0705 0.4541
H65A H 0.1691 -0.1041 0.5706
H66A H 0.3417 -0.0827 0.6236
Ag1A Ag 0.5545(1) -0.08126(7) 0.67690(7)
C44A C 0.688(1) -0.0104(7) 0.7698(7)
Pt1A Pt 0.76055(5) -0.10684(3) 0.79024(3)
P1A P 0.8113(3) -0.0565(2) 0.9019(2)
C2A C 0.709(1) -0.0845(8) 0.9678(8)
C3A C 0.601(1) -0.106(1) 0.9437(9)
C4A C 0.523(1) -0.119(1) 0.994(1)
C5A C 0.547(2) -0.115(1) 1.063(1)
C6A C 0.651(2) -0.098(1) 1.0849(9)
C7A C 0.737(2) -0.083(1) 1.0388(9)
H18A H 0.8131 -0.0713 1.0552
H17A H 0.6749 -0.0924 1.1361
H16A H 0.4920 -0.1290 1.0977
H15A H 0.4518 -0.1342 0.9763
H14A H 0.5804 -0.1025 0.8913
C8A C 0.942(1) -0.0840(9) 0.9384(8)
C9A C 0.951(1) -0.1703(9) 0.9395(8)
C10A C 0.963(1) -0.2056(9) 0.8672(8)
P2A P 0.8382(3) -0.2197(2) 0.8107(2)
C11A C 0.750(1) -0.2910(8) 0.8570(8)
C12A C 0.790(2) -0.351(1) 0.897(1)
C13A C 0.728(2) -0.403(2) 0.929(1)
C14A C 0.628(2) -0.401(1) 0.930(1)
C15A C 0.570(2) -0.342(1) 0.891(1)
C16A C 0.641(2) -0.288(1) 0.854(1)
H29A H 0.6092 -0.2488 0.8202
H28A H 0.4944 -0.3322 0.8908
H27A H 0.5667 -0.4370 0.9515
H26A H 0.7389 -0.4440 0.9568
H25A H 0.8646 -0.3526 0.9022
C17A C 0.877(1) -0.2695(8) 0.7314(8)
C18A C 0.821(2) -0.341(1) 0.707(1)
C19A C 0.855(2) -0.376(1) 0.646(1)
C20A C 0.930(2) -0.341(1) 0.610(1)
C21A C 0.985(2) -0.271(1) 0.634(1)
C22A C 0.957(2) -0.236(1) 0.691(1)
H34A H 0.9920 -0.1818 0.7034
H33A H 1.0452 -0.2478 0.6080
H32A H 0.9486 -0.3645 0.5647
H31A H 0.8253 -0.4280 0.6284
H30A H 0.7498 -0.3673 0.7327
C51A C 0.720(1) -0.1461(8) 0.6901(8)
C45A C 0.640(1) 0.0430(8) 0.7535(7)
C46A C 0.578(1) 0.1078(8) 0.7339(7)
C47A C 0.462(1) 0.0995(8) 0.7377(7)
H1A H 0.4257 0.0501 0.7552
C48A C 0.406(1) 0.1603(9) 0.7213(8)
H2A H 0.3282 0.1542 0.7242
N1A N 0.453(1) 0.2300(6) 0.7026(5)
Pt2A Pt 0.35543(5) 0.31604(3) 0.67945(3)
P3A P 0.2342(4) 0.3972(3) 0.6399(3)
C23A C 0.103(2) 0.338(1) 0.614(1)
C24A C 0.064(2) 0.288(2) 0.677(2)
H37A H -0.0134 0.2605 0.6513
H38A H 0.1041 0.2538 0.6813
H39A H 0.0428 0.3213 0.7075
H35A H 0.0460 0.3730 0.6003
H36A H 0.1054 0.3049 0.5732
C25A C 0.280(2) 0.443(2) 0.561(1)
C26A C 0.389(2) 0.494(2) 0.570(2)
H42A H 0.4125 0.5226 0.5262
H43A H 0.4458 0.4695 0.5872
H44A H 0.3820 0.5395 0.6028
H40A H 0.2851 0.4016 0.5217
H41A H 0.2213 0.4717 0.5368
C27A C 0.200(2) 0.476(1) 0.694(1)
C28A C 0.121(2) 0.529(1) 0.659(1)
H47A H 0.0951 0.5634 0.6846
H48A H 0.0488 0.4896 0.6390
H49A H 0.1457 0.5463 0.6137
H45A H 0.1605 0.4523 0.7336
H46A H 0.2575 0.5093 0.7087
P4A P 0.3901(4) 0.3687(2) 0.7907(2)
C29A C 0.450(2) 0.468(1) 0.791(1)
C30A C 0.548(2) 0.482(1) 0.751(2)
H52A H 0.6068 0.4545 0.7715
H53A H 0.5364 0.4683 0.7035
H54A H 0.5805 0.5384 0.7541
H50A H 0.4047 0.5024 0.7708
H51A H 0.4750 0.4869 0.8384
C31A C 0.277(1) 0.369(1) 0.8458(9)
C32A C 0.226(2) 0.287(1) 0.861(1)
H57A H 0.2028 0.2569 0.8194
H58A H 0.2831 0.2569 0.8853
H59A H 0.1698 0.2847 0.8926
H55A H 0.2238 0.3975 0.8238
H56A H 0.3037 0.3977 0.8899
C33A C 0.485(1) 0.315(1) 0.8426(9)
C34A C 0.515(2) 0.346(1) 0.915(1)
H62A H 0.5693 0.3184 0.9399
H63A H 0.4549 0.3456 0.9432
H64A H 0.5502 0.4015 0.9150
H60A H 0.4571 0.2620 0.8446
H61A H 0.5529 0.3176 0.8166
N2A N 0.340(1) 0.2641(7) 0.5781(6)
C55A C 0.412(1) 0.286(1) 0.5304(9)
H6A H 0.4700 0.3266 0.5449
C54A C 0.594(1) -0.256(1) 0.5363(8)
H5A H 0.5357 -0.2712 0.5683
C53A C 0.678(1) -0.2005(8) 0.5586(8)
C52A C 0.694(1) -0.1688(9) 0.6301(8)
C57A C 0.749(1) -0.174(1) 0.5086(9)
H8A H 0.8104 -0.1293 0.5215
C56A C 0.262(1) 0.2059(9) 0.5585(8)
H7A H 0.2107 0.1878 0.5937
C49A C 0.561(1) 0.2369(8) 0.6961(8)
H3A H 0.5951 0.2867 0.6797
C50A C 0.624(1) 0.1793(8) 0.7121(8)
H4A H 0.7048 0.1873 0.7051
H23A H 1.0169 -0.1694 0.8430
H24A H 0.9929 -0.2538 0.8711
H21A H 1.0129 -0.1801 0.9686
H22A H 0.8874 -0.1981 0.9562
H19A H 0.9527 -0.0617 0.9862
H20A H 0.9984 -0.0559 0.9116
C58A C 0.830(1) 0.0507(8) 0.9062(7)
C1A C 0.907(1) 0.0896(9) 0.8649(9)
C62A C 0.921(2) 0.169(1) 0.864(1)
C61A C 0.858(2) 0.210(1) 0.907(1)
C60A C 0.785(2) 0.174(1) 0.946(1)
C59A C 0.768(1) 0.0931(9) 0.9448(9)
H9A H 0.7083 0.0660 0.9708
H10A H 0.7397 0.2044 0.9745
H11A H 0.8782 0.2656 0.9048
H12A H 0.9637 0.1961 0.8259
H13A H 0.9486 0.0587 0.8382
H67A H 0.7272 0.0128 0.6147
C41 C 0.751(2) 0.297(2) 0.524(1)
S1 S 0.7586(5) 0.3757(3) 0.5833(3)
F1 F 0.845(1) 0.2667(9) 0.5151(9)
F2 F 0.680(1) 0.2350(8) 0.5405(9)
F3 F 0.710(2) 0.316(1) 0.4605(8)
O1 O 0.650(1) 0.3907(8) 0.5847(8)
O2 O 0.837(1) 0.4341(9) 0.5570(9)
O3 O 0.795(1) 0.333(1) 0.6436(9)
C42 C 0.031(2) 0.022(1) 0.667(1)
S2 S 0.1249(1) 0.0143(4) 0.7392(3)
F4 F 0.069(1) 0.0647(9) 0.6155(7)
F5 F -0.056(1) 0.054(1) 0.6875(7)
F6 F -0.010(1) -0.0445(9) 0.6354(7)
O4 O 0.149(1) 0.097(1) 0.7634(9)
O5 O 0.064(1) -0.0311(9) 0.7887(7)
O6 O 0.209(1) -0.016(1) 0.7105(9)
C43 C 0.860(4) 0.424(2) 0.068(2)
S3 S 0.7374(6) 0.3976(4) 0.0870(3)
F7 F 0.900(1) 0.494(1) 0.065(1)
F8 F 0.933(2) 0.375(2) 0.076(2)
F9 F 0.838(2) 0.410(1) -0.014(2)
O7 O 0.676(1) 0.4580(9) 0.058(1)
O8 O 0.713(1) 0.3162(8) 0.0693(9)
O9 O 0.755(2) 0.412(1) 0.1573(9)
loop_
_geom_bond_atom_site_label_1
_geom_bond_atom_site_label_2
_geom_bond_site_symmetry_1
_geom_bond_site_symmetry_2
C1 C58 1_555 1_555
C2 C3 1_555 1_555
C3 C4 1_555 1_555
C4 C5 1_555 1_555
C5 C6 1_555 1_555
C6 C7 1_555 1_555
C7 C2 1_555 1_555
C8 C9 1_555 1_555
C9 C10 1_555 1_555
C10 P2 1_555 1_555
C11 C12 1_555 1_555
C12 C13 1_555 1_555
C13 C14 1_555 1_555
C14 C15 1_555 1_555
C15 C16 1_555 1_555
C16 C11 1_555 1_555
C17 C18 1_555 1_555
C18 C19 1_555 1_555
C19 C20 1_555 1_555
C20 C21 1_555 1_555
C21 C22 1_555 1_555
C22 C17 1_555 1_555
C23 C24 1_555 1_555
C24 H37 1_555 1_555
C25 C26 1_555 1_555
C26 H42 1_555 1_555
C27 C28 1_555 1_555
C28 H47 1_555 1_555
C29 C30 1_555 1_555
C30 H52 1_555 1_555
C31 C32 1_555 1_555
C32 H57 1_555 1_555
C33 C34 1_555 1_555
C34 H62 1_555 1_555
C35 C36 1_555 1_555
C36 C37 1_555 1_555
C37 N3 1_555 1_555
C38 C39 1_555 1_555
C39 H67 1_555 1_555
C40 C35 1_555 1_555
C41 S1 1_555 1_555
C42 S2 1_555 1_555
C43 S3 1_555 1_555
H1 C47 1_555 1_555
H2 C48 1_555 1_555
H3 C49 1_555 1_555
H4 C50 1_555 1_555
H5 C54 1_555 1_555
H6 C55 1_555 1_555
H7 C56 1_555 1_555
Pt1 P1 1_555 1_555
Pt2 P3 1_555 1_555
Ag1 N3 1_555 1_555
S1 O1 1_555 1_555
S2 O4 1_555 1_555
S3 O7 1_555 1_555
P1 C2 1_555 1_555
P2 C11 1_555 1_555
P3 C23 1_555 1_555
P4 C29 1_555 1_555
F1 C41 1_555 1_555
F2 C41 1_555 1_555
F3 C41 1_555 1_555
F4 C42 1_555 1_555
F5 C42 1_555 1_555
F6 C42 1_555 1_555
F7 C43 1_555 1_555
F8 C43 1_555 1_555
F9 C43 1_555 1_555
O2 S1 1_555 1_555
O3 S1 1_555 1_555
O5 S2 1_555 1_555
O6 S2 1_555 1_555
O8 S3 1_555 1_555
O9 S3 1_555 1_555
N1 Pt2 1_555 1_555
N2 Pt2 1_555 1_555
N3 C38 1_555 1_555
C44 Pt1 1_555 1_555
C45 Ag1 1_555 1_555
C46 C45 1_555 1_555
C47 C46 1_555 1_555
C48 N1 1_555 1_555
C49 N1 1_555 1_555
C50 C46 1_555 1_555
C51 Pt1 1_555 1_555
C52 Ag1 1_555 1_555
C53 C52 1_555 1_555
C54 C53 1_555 1_555
C55 N2 1_555 1_555
C56 N2 1_555 1_555
C57 C53 1_555 1_555
C58 P1 1_555 1_555
C59 C58 1_555 1_555
C60 C59 1_555 1_555
C61 C60 1_555 1_555
C62 C1 1_555 1_555
H8 C57 1_555 1_555
H9 C59 1_555 1_555
H10 C60 1_555 1_555
H11 C61 1_555 1_555
H12 C62 1_555 1_555
H13 C1 1_555 1_555
H14 C3 1_555 1_555
H15 C4 1_555 1_555
H16 C5 1_555 1_555
H17 C6 1_555 1_555
H18 C7 1_555 1_555
H19 C8 1_555 1_555
H20 C8 1_555 1_555
H21 C9 1_555 1_555
H22 C9 1_555 1_555
H23 C10 1_555 1_555
H24 C10 1_555 1_555
H25 C12 1_555 1_555
H26 C13 1_555 1_555
H27 C14 1_555 1_555
H28 C15 1_555 1_555
H29 C16 1_555 1_555
H30 C18 1_555 1_555
H31 C19 1_555 1_555
H32 C20 1_555 1_555
H33 C21 1_555 1_555
H34 C22 1_555 1_555
H35 C23 1_555 1_555
H36 C23 1_555 1_555
H38 C24 1_555 1_555
H39 C24 1_555 1_555
H40 C25 1_555 1_555
H41 C25 1_555 1_555
H43 C26 1_555 1_555
H44 C26 1_555 1_555
H45 C27 1_555 1_555
H46 C27 1_555 1_555
H48 C28 1_555 1_555
H49 C28 1_555 1_555
H50 C29 1_555 1_555
H51 C29 1_555 1_555
H53 C30 1_555 1_555
H54 C30 1_555 1_555
H55 C31 1_555 1_555
H56 C31 1_555 1_555
H58 C32 1_555 1_555
H59 C32 1_555 1_555
H60 C33 1_555 1_555
H61 C33 1_555 1_555
H63 C34 1_555 1_555
H64 C34 1_555 1_555
H65 C35 1_555 1_555
H66 C36 1_555 1_555
H68 C40 1_555 1_555
C39A C40 1_555 1_555
C38A C37 1_555 1_555
N3A C38A 1_555 1_555
C37A C38 1_555 1_555
C36A C37A 1_555 1_555
C35A C36A 1_555 1_555
C40A C39 1_555 1_555
H68A C40A 1_555 1_555
H65A C35A 1_555 1_555
H66A C36A 1_555 1_555
Ag1A N3A 1_555 1_555
C44A Ag1A 1_555 1_555
Pt1A C44A 1_555 1_555
P1A Pt1A 1_555 1_555
C2A P1A 1_555 1_555
C3A C2A 1_555 1_555
C4A C3A 1_555 1_555
C5A C4A 1_555 1_555
C6A C5A 1_555 1_555
C7A C2A 1_555 1_555
H18A C7A 1_555 1_555
H17A C6A 1_555 1_555
H16A C5A 1_555 1_555
H15A C4A 1_555 1_555
H14A C3A 1_555 1_555
C8A P1A 1_555 1_555
C9A C8A 1_555 1_555
C10A C9A 1_555 1_555
P2A Pt1A 1_555 1_555
C11A P2A 1_555 1_555
C12A C11A 1_555 1_555
C13A C12A 1_555 1_555
C14A C13A 1_555 1_555
C15A C14A 1_555 1_555
C16A C11A 1_555 1_555
H29A C16A 1_555 1_555
H28A C15A 1_555 1_555
H27A C14A 1_555 1_555
H26A C13A 1_555 1_555
H25A C12A 1_555 1_555
C17A P2A 1_555 1_555
C18A C17A 1_555 1_555
C19A C18A 1_555 1_555
C20A C19A 1_555 1_555
C21A C20A 1_555 1_555
C22A C17A 1_555 1_555
H34A C22A 1_555 1_555
H33A C21A 1_555 1_555
H32A C20A 1_555 1_555
H31A C19A 1_555 1_555
H30A C18A 1_555 1_555
C51A Ag1A 1_555 1_555
C45A Ag1A 1_555 1_555
C46A C45A 1_555 1_555
C47A C46A 1_555 1_555
H1A C47A 1_555 1_555
C48A C47A 1_555 1_555
H2A C48A 1_555 1_555
N1A C48A 1_555 1_555
Pt2A N1A 1_555 1_555
P3A Pt2A 1_555 1_555
C23A P3A 1_555 1_555
C24A C23A 1_555 1_555
H37A C24A 1_555 1_555
H38A C24A 1_555 1_555
H39A C24A 1_555 1_555
H35A C23A 1_555 1_555
H36A C23A 1_555 1_555
C25A P3A 1_555 1_555
C26A C25A 1_555 1_555
H42A C26A 1_555 1_555
H43A C26A 1_555 1_555
H44A C26A 1_555 1_555
H40A C25A 1_555 1_555
H41A C25A 1_555 1_555
C27A P3A 1_555 1_555
C28A C27A 1_555 1_555
H47A C28A 1_555 1_555
H48A C28A 1_555 1_555
H49A C28A 1_555 1_555
H45A C27A 1_555 1_555
H46A C27A 1_555 1_555
P4A Pt2A 1_555 1_555
C29A P4A 1_555 1_555
C30A C29A 1_555 1_555
H52A C30A 1_555 1_555
H53A C30A 1_555 1_555
H54A C30A 1_555 1_555
H50A C29A 1_555 1_555
H51A C29A 1_555 1_555
C31A P4A 1_555 1_555
C32A C31A 1_555 1_555
H57A C32A 1_555 1_555
H58A C32A 1_555 1_555
H59A C32A 1_555 1_555
H55A C31A 1_555 1_555
H56A C31A 1_555 1_555
C33A P4A 1_555 1_555
C34A C33A 1_555 1_555
H62A C34A 1_555 1_555
H63A C34A 1_555 1_555
H64A C34A 1_555 1_555
H60A C33A 1_555 1_555
H61A C33A 1_555 1_555
N2A Pt2A 1_555 1_555
C55A C54 1_555 1_555
H6A C55A 1_555 1_555
C54A C55 1_555 1_555
H5A C54A 1_555 1_555
C53A C54A 1_555 1_555
C52A Ag1A 1_555 1_555
C57A C56 1_555 1_555
H8A C57A 1_555 1_555
C56A C57 1_555 1_555
H7A C56A 1_555 1_555
C49A N1A 1_555 1_555
H3A C49A 1_555 1_555
C50A C46A 1_555 1_555
H4A C50A 1_555 1_555
H23A C10A 1_555 1_555
H24A C10A 1_555 1_555
H21A C9A 1_555 1_555
H22A C9A 1_555 1_555
H19A C8A 1_555 1_555
H20A C8A 1_555 1_555
C58A P1A 1_555 1_555
C1A C58A 1_555 1_555
C62A C1A 1_555 1_555
C61A C62A 1_555 1_555
C60A C61A 1_555 1_555
C59A C58A 1_555 1_555
H9A C59A 1_555 1_555
H10A C60A 1_555 1_555
H11A C61A 1_555 1_555
H12A C62A 1_555 1_555
H13A C1A 1_555 1_555
H67A C39A 1_555 1_555
C8 P1 1_555 1_555
C17 P2 1_555 1_555
C25 P3 1_555 1_555
C27 P3 1_555 1_555
C31 P4 1_555 1_555
C33 P4 1_555 1_555
Pt1 P2 1_555 1_555
Pt2 P4 1_555 1_555
Ag1 C44 1_555 1_555
Ag1 C51 1_555 1_555
C44 C45 1_555 1_555
C47 C48 1_555 1_555
C49 C50 1_555 1_555
C51 C52 1_555 1_555
C61 C62 1_555 1_555
C39A C38A 1_555 1_555
N3A C37A 1_555 1_555
C35A C40A 1_555 1_555
C44A C45A 1_555 1_555
Pt1A C51A 1_555 1_555
C6A C7A 1_555 1_555
C10A P2A 1_555 1_555
C15A C16A 1_555 1_555
C21A C22A 1_555 1_555
C51A C52A 1_555 1_555
N2A C55A 1_555 1_555
N2A C56A 1_555 1_555
C53A C52A 1_555 1_555
C53A C57A 1_555 1_555
C49A C50A 1_555 1_555
C60A C59A 1_555 1_555

#END
