
#######################################################################
#
#                 Cambridge Crystallographic Data Centre
#                                CCDC 
#
#######################################################################
#
# If this CIF has been generated from an entry in the Cambridge 
# Structural Database, then it will include bibliographic, chemical, 
# crystal, experimental, refinement or atomic coordinate data resulting 
# from the CCDC's data processing and validation procedures.
#
#######################################################################

data_GOYGIK
_chemical_formula_moiety         
'8(C4 H12 N1 1+),C168 H96 N12 O36 Ti4 8-,2(C3 H7 N1 O1),2(C4 H8 O2),4(H2 O1)'
_chemical_name_systematic        
'octakis(Tetramethylammonium) hexakis(\m~2~-2,6-bis(2,3-dioxybenzamido)anthracene)-tetra-titanium dimethylformamide ethyl acetate solvate tetrahydrate'
_symmetry_cell_setting           tetragonal
_symmetry_space_group_name_H-M   'P 4/n c c'
_symmetry_Int_Tables_number      130
_space_group_name_Hall           '-P 4a 2ac'
loop_
_symmetry_equiv_pos_site_id
_symmetry_equiv_pos_as_xyz
1 x,y,z
2 1/2-y,x,z
3 y,1/2-x,z
4 1/2+y,1/2+x,1/2-z
5 1/2+x,1/2+y,-z
6 x,1/2-y,1/2+z
7 1/2-x,y,1/2+z
8 y,x,1/2+z
9 -x,-y,-z
10 1/2+y,-x,-z
11 -y,1/2+x,-z
12 1/2-y,1/2-x,1/2+z
13 1/2-x,1/2-y,z
14 -x,1/2+y,1/2-z
15 1/2+x,-y,1/2-z
16 -y,-x,1/2-z
_cell_length_a                   26.5931(6)
_cell_length_b                   26.5931(6)
_cell_length_c                   33.5365(12)
_cell_angle_alpha                90
_cell_angle_beta                 90
_cell_angle_gamma                90
_cell_volume                     23716.8
_exptl_crystal_colour            red-orange
_exptl_crystal_description       'rectangular prismatic'
_cell_formula_units_Z            4
loop_
_atom_site_label
_atom_site_type_symbol
_atom_site_fract_x
_atom_site_fract_y
_atom_site_fract_z
O11 O 0.1747(15) 0.4442(15) 0.1655(13)
O12 O 0.2293(14) 0.9394(14) 0.5568(13)
O13 O 0.3141(12) 0.3233(12) -0.0302(10)
N4 N 0.3821(17) 0.4607(14) 0.5410(12)
C43 C 0.3907(16) 0.4675(16) 0.5873(15)
H25 H 0.3934 0.5034 0.5936
H26 H 0.4218 0.4504 0.5951
H27 H 0.3623 0.4530 0.6019
C44 C 0.4304(21) 0.4809(20) 0.5214(16)
H28 H 0.4334 0.5170 0.5266
H29 H 0.4290 0.4751 0.4925
H30 H 0.4596 0.4634 0.5325
C45 C 0.3408(23) 0.4907(22) 0.5240(18)
H31 H 0.3458 0.5262 0.5306
H32 H 0.3087 0.4792 0.5351
H33 H 0.3403 0.4866 0.4950
C46 C 0.3784(19) 0.4082(21) 0.5330(16)
H34 H 0.4070 0.3907 0.5451
H35 H 0.3786 0.4026 0.5041
H36 H 0.3470 0.3952 0.5443
N5 N 0.2500 0.7500 0.2500
C47 C 0.2500 0.7957 0.2756
C47C C 0.2957 0.7500 0.2244
C47L C 0.2500 0.7043 0.2756
C47O C 0.2043 0.7500 0.2244
Ti1 Ti 0.2590(2) 0.4460(2) 0.41797(13)
O1 O 0.2195(5) 0.3850(5) 0.4079(5)
O2 O 0.2516(5) 0.4484(5) 0.3585(4)
O3 O 0.2172(7) 0.4419(8) 0.2377(7)
O4 O 0.3205(6) 0.4080(5) 0.4264(4)
O5 O 0.3104(6) 0.4988(5) 0.4118(4)
O6 O 0.4351(7) 0.5937(6) 0.3866(5)
O7 O 0.2426(6) 0.4459(6) 0.4742(4)
O8 O 0.2082(5) 0.4994(5) 0.4187(5)
O9 O 0.0895(8) 0.6033(9) 0.4385(6)
N1 N 0.2571(7) 0.4835(8) 0.2854(6)
H1 H 0.2598 0.4856 0.3115
N2 N 0.3514(8) 0.5893(7) 0.3982(6)
H2 H 0.3265 0.5682 0.4029
N3 N 0.1484(7) 0.5754(7) 0.3947(7)
H3 H 0.1764 0.5578 0.3942
C1 C 0.2088(9) 0.3752(10) 0.3710(9)
C2 C 0.2244(9) 0.4104(10) 0.3422(8)
C3 C 0.2140(9) 0.4076(10) 0.3021(9)
C4 C 0.1871(12) 0.3628(13) 0.2894(10)
H4 H 0.1802 0.3578 0.2619
C5 C 0.1711(11) 0.3272(11) 0.3172(11)
H5 H 0.1527 0.2986 0.3086
C6 C 0.1821(11) 0.3332(12) 0.3575(10)
H6 H 0.1714 0.3085 0.3760
C7 C 0.2296(12) 0.4479(14) 0.2741(12)
C8 C 0.2841(9) 0.5201(10) 0.2652(9)
C9 C 0.2848(9) 0.5216(9) 0.2233(9)
H7 H 0.2663 0.4977 0.2081
C10 C 0.3129(10) 0.5586(10) 0.2046(8)
H8 H 0.3123 0.5616 0.1764
C11 C 0.3428(9) 0.5925(9) 0.2280(9)
C12 C 0.3414(9) 0.5920(9) 0.2709(9)
C13 C 0.3102(9) 0.5542(9) 0.2866(7)
H9 H 0.3072 0.5525 0.3148
C14 C 0.3763(10) 0.6290(10) 0.2077(7)
H10 H 0.3756 0.6317 0.1795
C15 C 0.3634(11) 0.4321(10) 0.4197(7)
C16 C 0.3599(12) 0.4834(10) 0.4119(7)
C17 C 0.3999(10) 0.5131(10) 0.4044(7)
C18 C 0.4478(10) 0.4918(10) 0.4051(8)
H11 H 0.4768 0.5115 0.3999
C19 C 0.4517(11) 0.4412(12) 0.4136(8)
H12 H 0.4842 0.4265 0.4141
C20 C 0.4116(11) 0.4116(9) 0.4211(7)
H13 H 0.4162 0.3771 0.4273
C21 C 0.3983(14) 0.5670(13) 0.3965(9)
C22 C 0.3357(10) 0.6412(10) 0.3938(7)
C23 C 0.2880(10) 0.6497(9) 0.3901(7)
H14 H 0.2659 0.6218 0.3883
C24 C 0.2661(11) 0.7008(10) 0.3887(7)
C25 C 0.2160(10) 0.7095(10) 0.3889(7)
H15 H 0.1925 0.6826 0.3895
C26 C 0.3005(11) 0.7395(12) 0.3880(7)
C27 C 0.3519(11) 0.7271(10) 0.3908(8)
H16 H 0.3755 0.7540 0.3913
C28 C 0.3705(10) 0.6788(11) 0.3929(7)
H17 H 0.4055 0.6721 0.3937
C29 C 0.2059(10) 0.4757(10) 0.4837(9)
C30 C 0.1865(10) 0.5079(10) 0.4525(9)
C31 C 0.1477(10) 0.5436(9) 0.4602(8)
C32 C 0.1290(9) 0.5471(10) 0.5006(9)
H18 H 0.1027 0.5702 0.5062
C33 C 0.1474(12) 0.5188(12) 0.5305(10)
H19 H 0.1341 0.5235 0.5565
C34 C 0.1879(11) 0.4800(11) 0.5246(9)
H20 H 0.2007 0.4600 0.5458
C35 C 0.1236(12) 0.5748(11) 0.4334(10)
C36 C 0.1372(10) 0.5976(10) 0.3588(10)
C37 C 0.1553(8) 0.5842(9) 0.3238(8)
H21 H 0.1798 0.5581 0.3237
C38 C 0.1427(9) 0.6034(9) 0.2885(8)
C39 C 0.1621(9) 0.5854(9) 0.2512(9)
H22 H 0.1878 0.5606 0.2508
C40 C 0.1044(10) 0.6433(9) 0.2839(9)
C41 C 0.0873(9) 0.6593(9) 0.3229(9)
H23 H 0.0662 0.6880 0.3234
C42 C 0.0977(9) 0.6383(10) 0.3592(8)
H24 H 0.0812 0.6486 0.3829
C40C C 0.1433(9) 0.6044(10) 0.2161(9)
C38C C 0.1034(9) 0.6427(9) 0.2115(8)
C37C C 0.0842(9) 0.6553(8) 0.1762(8)
C36C C 0.0976(10) 0.6372(10) 0.1412(10)
N3C N 0.0754(7) 0.6484(7) 0.1053(7)
H3C H 0.0578 0.6764 0.1058
C35C C 0.0748(11) 0.6236(12) 0.0666(10)
O9C O 0.1033(9) 0.5895(8) 0.0615(6)
C31C C 0.0436(9) 0.6477(10) 0.0398(8)
C30C C 0.0079(10) 0.6865(10) 0.0475(9)
O8C O -0.0006(5) 0.7082(5) 0.0813(5)
Ti1C Ti -0.0540(2) 0.7590(2) 0.08203(13)
O1C O -0.1150(5) 0.7195(5) 0.0921(5)
C1C C -0.1248(10) 0.7088(9) 0.1290(9)
C2C C -0.0896(10) 0.7244(9) 0.1578(8)
O2C O -0.0516(5) 0.7516(5) 0.1415(4)
O4C O -0.0920(5) 0.8205(6) 0.0736(4)
C15C C -0.0679(10) 0.8634(11) 0.0803(7)
C16C C -0.0166(10) 0.8599(12) 0.0881(7)
O5C O -0.0012(5) 0.8104(6) 0.0882(4)
O7C O -0.0541(6) 0.7426(6) 0.0258(4)
C29C C -0.0243(10) 0.7059(10) 0.0163(9)
C34C C -0.0200(11) 0.6879(11) -0.0246(9)
C33C C 0.0188(12) 0.6474(12) -0.0305(10)
C32C C 0.0471(10) 0.6290(9) -0.0006(9)
H18C H 0.0702 0.6027 -0.0062
H19C H 0.0235 0.6341 -0.0565
H20C H -0.0400 0.7007 -0.0458
C17C C 0.0131(10) 0.8999(10) 0.0956(7)
C18C C -0.0082(10) 0.9478(10) 0.0949(8)
H11C H 0.0115 0.9768 0.1001
C19C C -0.0588(12) 0.9517(11) 0.0864(8)
H12C H -0.0735 0.9842 0.0859
C20C C -0.0884(9) 0.9116(11) 0.0789(7)
H13C H -0.1229 0.9162 0.0727
C21C C 0.0670(13) 0.8983(14) 0.1035(9)
O6C O 0.0937(6) 0.9351(7) 0.1134(5)
N2C N 0.0893(7) 0.8514(8) 0.1018(6)
H2C H 0.0682 0.8265 0.0971
C22C C 0.1412(10) 0.8357(10) 0.1062(7)
C23C C 0.1497(9) 0.7880(10) 0.1099(7)
H14C H 0.1218 0.7659 0.1117
C24C C 0.2008(10) 0.7661(11) 0.1113(7)
C25C C 0.2095(10) 0.7160(10) 0.1111(7)
H15C H 0.1826 0.6925 0.1105
C26O C 0.2605(12) 0.6995(11) 0.1120(7)
C24O C 0.2992(10) 0.7339(11) 0.1113(7)
C23O C 0.3503(9) 0.7120(10) 0.1099(7)
C22O C 0.3588(10) 0.6643(10) 0.1062(7)
N2O N 0.4107(7) 0.6486(8) 0.1018(6)
H2O H 0.4318 0.6735 0.0971
C21O C 0.4330(13) 0.6017(14) 0.1035(9)
O6O O 0.4063(6) 0.5649(7) 0.1134(5)
C17O C 0.4869(10) 0.6001(10) 0.0956(7)
C16O C 0.5166(10) 0.6401(12) 0.0881(7)
O5O O 0.5012(5) 0.6896(6) 0.0882(4)
Ti1O Ti 0.5540(2) 0.7410(2) 0.08203(13)
O1O O 0.6150(5) 0.7805(5) 0.0921(5)
C1O C 0.6248(10) 0.7912(9) 0.1290(9)
C2O C 0.5896(10) 0.7756(9) 0.1578(8)
O2O O 0.5516(5) 0.7484(5) 0.1415(4)
O4O O 0.5920(5) 0.6795(6) 0.0736(4)
C15O C 0.5679(10) 0.6366(11) 0.0803(7)
C20O C 0.5884(9) 0.5884(11) 0.0789(7)
C19O C 0.5588(12) 0.5483(11) 0.0864(8)
C18O C 0.5082(10) 0.5522(10) 0.0949(8)
H11O H 0.4885 0.5232 0.1001
H12O H 0.5735 0.5158 0.0859
H13O H 0.6229 0.5838 0.0727
O7O O 0.5541(6) 0.7574(6) 0.0258(4)
C29O C 0.5243(10) 0.7941(10) 0.0163(9)
C30O C 0.4921(10) 0.8135(10) 0.0475(9)
O8O O 0.5006(5) 0.7918(5) 0.0813(5)
C31O C 0.4564(9) 0.8523(10) 0.0398(8)
C32O C 0.4529(10) 0.8710(9) -0.0006(9)
H18O H 0.4298 0.8973 -0.0062
C33O C 0.4812(12) 0.8526(12) -0.0305(10)
H19O H 0.4765 0.8659 -0.0565
C34O C 0.5200(11) 0.8121(11) -0.0246(9)
H20O H 0.5400 0.7993 -0.0458
C35O C 0.4252(11) 0.8764(12) 0.0666(10)
O9O O 0.3967(9) 0.9105(8) 0.0615(6)
N3O N 0.4246(7) 0.8516(7) 0.1053(7)
H3O H 0.4422 0.8236 0.1058
C36O C 0.4024(10) 0.8628(10) 0.1412(10)
C37O C 0.4158(9) 0.8447(8) 0.1762(8)
H21O H 0.4419 0.8202 0.1763
C38O C 0.3966(9) 0.8573(9) 0.2115(8)
C39O C 0.4146(9) 0.8379(9) 0.2488(9)
H22O H 0.4394 0.8122 0.2492
C40L C 0.3956(10) 0.8567(9) 0.2839(9)
C38L C 0.3573(9) 0.8966(9) 0.2885(8)
C37L C 0.3447(8) 0.9158(9) 0.3238(8)
C36L C 0.3628(10) 0.9024(10) 0.3588(10)
N3L N 0.3516(7) 0.9246(7) 0.3947(7)
H3L H 0.3236 0.9422 0.3942
C35L C 0.3764(12) 0.9252(11) 0.4334(10)
O9L O 0.4105(8) 0.8967(9) 0.4385(6)
C31L C 0.3523(10) 0.9564(9) 0.4602(8)
C30L C 0.3135(10) 0.9921(10) 0.4525(9)
O8L O 0.2918(5) 1.0006(5) 0.4187(5)
Ti1L Ti 0.2410(2) 1.0540(2) 0.41797(13)
O1L O 0.2805(5) 1.1150(5) 0.4079(5)
C1L C 0.2912(9) 1.1248(10) 0.3710(9)
C2L C 0.2756(9) 1.0896(10) 0.3422(8)
O2L O 0.2484(5) 1.0516(5) 0.3585(4)
O4L O 0.1795(6) 1.0920(5) 0.4264(4)
C15L C 0.1366(11) 1.0679(10) 0.4197(7)
C16L C 0.1401(12) 1.0166(10) 0.4119(7)
O5L O 0.1896(6) 1.0012(5) 0.4118(4)
O7L O 0.2574(6) 1.0541(6) 0.4742(4)
C29L C 0.2941(10) 1.0243(10) 0.4837(9)
C34L C 0.3121(11) 1.0200(11) 0.5246(9)
C33L C 0.3526(12) 0.9812(12) 0.5305(10)
C32L C 0.3710(9) 0.9529(10) 0.5006(9)
H18L H 0.3973 0.9298 0.5062
H19L H 0.3659 0.9765 0.5565
H20L H 0.2993 1.0400 0.5458
C17L C 0.1001(10) 0.9869(10) 0.4044(7)
C18L C 0.0522(10) 1.0082(10) 0.4051(8)
H11L H 0.0232 0.9885 0.3999
C19L C 0.0483(11) 1.0588(12) 0.4136(8)
H12L H 0.0158 1.0735 0.4141
C20L C 0.0884(11) 1.0884(9) 0.4211(7)
H13L H 0.0838 1.1229 0.4273
C21L C 0.1017(14) 0.9330(13) 0.3965(9)
O6L O 0.0649(7) 0.9063(6) 0.3866(5)
N2L N 0.1486(8) 0.9107(7) 0.3982(6)
H2L H 0.1735 0.9318 0.4029
C22L C 0.1643(10) 0.8588(10) 0.3938(7)
C23L C 0.2120(10) 0.8503(9) 0.3901(7)
H14L H 0.2341 0.8782 0.3883
C24L C 0.2339(11) 0.7992(10) 0.3887(7)
C25L C 0.2840(10) 0.7905(10) 0.3889(7)
H15L H 0.3075 0.8174 0.3895
C26L C 0.1995(11) 0.7605(12) 0.3880(7)
C27L C 0.1481(11) 0.7729(10) 0.3908(8)
H16L H 0.1245 0.7460 0.3913
C28L C 0.1295(10) 0.8212(11) 0.3929(7)
H17L H 0.0945 0.8279 0.3937
C3L C 0.2860(9) 1.0924(10) 0.3021(9)
C4L C 0.3129(12) 1.1372(13) 0.2894(10)
H4L H 0.3198 1.1422 0.2619
C5L C 0.3289(11) 1.1728(11) 0.3172(11)
H5L H 0.3473 1.2014 0.3086
C6L C 0.3179(11) 1.1668(12) 0.3575(10)
H6L H 0.3286 1.1915 0.3760
C7L C 0.2704(12) 1.0521(14) 0.2741(12)
O3L O 0.2828(7) 1.0581(8) 0.2377(7)
N1L N 0.2429(7) 1.0165(8) 0.2854(6)
H1L H 0.2402 1.0144 0.3115
C8L C 0.2159(9) 0.9799(10) 0.2652(9)
C9L C 0.2152(9) 0.9784(9) 0.2233(9)
H7L H 0.2337 1.0023 0.2081
C10L C 0.1871(10) 0.9414(10) 0.2046(8)
H8L H 0.1877 0.9384 0.1764
C11L C 0.1572(9) 0.9075(9) 0.2280(9)
C12L C 0.1586(9) 0.9080(9) 0.2709(9)
C13L C 0.1898(9) 0.9458(9) 0.2866(7)
H9L H 0.1928 0.9475 0.3148
C14C C 0.1290(10) 0.8763(10) 0.2923(7)
C11C C 0.0925(9) 0.8428(9) 0.2720(9)
C10C C 0.0586(10) 0.8129(10) 0.2954(8)
C9C C 0.0216(9) 0.7848(9) 0.2767(9)
C8C C 0.0201(10) 0.7841(9) 0.2348(9)
N1C N -0.0165(8) 0.7571(7) 0.2146(6)
H1C H -0.0144 0.7598 0.1885
C7C C -0.0521(14) 0.7296(12) 0.2259(12)
O3C O -0.0581(8) 0.7172(7) 0.2623(7)
C3C C -0.0924(10) 0.7140(9) 0.1979(9)
C4C C -0.1372(13) 0.6871(12) 0.2106(10)
H4C H -0.1422 0.6802 0.2381
C5C C -0.1728(11) 0.6711(11) 0.1828(11)
H5C H -0.2014 0.6527 0.1914
C6C C -0.1668(12) 0.6821(11) 0.1425(10)
H6C H -0.1915 0.6714 0.1240
C13C C 0.0542(9) 0.8102(9) 0.2134(7)
C12C C 0.0920(9) 0.8414(9) 0.2291(9)
C14L C 0.1237(10) 0.8710(10) 0.2077(7)
H10L H 0.1244 0.8683 0.1795
H9C H 0.0525 0.8072 0.1852
H7C H -0.0023 0.7663 0.2919
H8C H 0.0616 0.8123 0.3236
H10C H 0.1317 0.8756 0.3205
C42L C 0.4023(9) 0.8617(10) 0.3592(8)
C41L C 0.4127(9) 0.8407(9) 0.3229(9)
H23L H 0.4338 0.8120 0.3234
H24L H 0.4188 0.8514 0.3829
H21L H 0.3202 0.9419 0.3237
C39L C 0.3379(9) 0.9146(9) 0.2512(9)
H22L H 0.3122 0.9394 0.2508
C40O C 0.3567(9) 0.8956(10) 0.2161(9)
C41O C 0.3407(9) 0.9127(9) 0.1771(9)
H23O H 0.3120 0.9338 0.1766
C42O C 0.3617(10) 0.9023(9) 0.1408(8)
H24O H 0.3514 0.9188 0.1171
C3O C 0.5924(10) 0.7860(9) 0.1979(9)
C4O C 0.6372(13) 0.8129(12) 0.2106(10)
H4O H 0.6422 0.8198 0.2381
C5O C 0.6728(11) 0.8289(11) 0.1828(11)
H5O H 0.7014 0.8473 0.1914
C6O C 0.6668(12) 0.8179(11) 0.1425(10)
H6O H 0.6915 0.8286 0.1240
C7O C 0.5521(14) 0.7704(12) 0.2259(12)
O3O O 0.5581(8) 0.7828(7) 0.2623(7)
N1O N 0.5165(8) 0.7429(7) 0.2146(6)
H1O H 0.5144 0.7402 0.1885
C8O C 0.4799(10) 0.7159(9) 0.2348(9)
C9O C 0.4784(9) 0.7152(9) 0.2767(9)
H7O H 0.5023 0.7337 0.2919
C10O C 0.4414(10) 0.6871(10) 0.2954(8)
H8O H 0.4384 0.6877 0.3236
C11O C 0.4075(9) 0.6572(9) 0.2720(9)
C12O C 0.4080(9) 0.6586(9) 0.2291(9)
C13O C 0.4458(9) 0.6898(9) 0.2134(7)
H9O H 0.4475 0.6928 0.1852
C14O C 0.3710(10) 0.6237(10) 0.2923(7)
H10O H 0.3683 0.6244 0.3205
C28O C 0.3212(11) 0.6295(10) 0.1071(7)
C27O C 0.2729(10) 0.6481(11) 0.1092(8)
H16O H 0.2460 0.6245 0.1087
H17O H 0.3279 0.5945 0.1063
H14O H 0.3782 0.7341 0.1117
C25O C 0.2905(10) 0.7840(10) 0.1111(7)
H15O H 0.3174 0.8075 0.1105
C26C C 0.2395(12) 0.8005(11) 0.1120(7)
C27C C 0.2271(10) 0.8519(11) 0.1092(8)
H16C H 0.2540 0.8755 0.1087
C28C C 0.1788(11) 0.8705(10) 0.1071(7)
H17C H 0.1721 0.9055 0.1063
C42C C 0.1383(10) 0.5977(9) 0.1408(8)
C41C C 0.1593(9) 0.5873(9) 0.1771(9)
H23C H 0.1880 0.5662 0.1766
H24C H 0.1486 0.5812 0.1171
H21C H 0.0581 0.6798 0.1763
C39C C 0.0854(9) 0.6621(9) 0.2488(9)
H22C H 0.0606 0.6878 0.2492
O10? O 0.2482(15) 0.5033(17) 0.1210(12)
N6? N 0.2328(19) 0.8819(20) 0.5023(15)
C48? C 0.4075(18) 0.4713(16) 0.1378(13)
C49? C 0.3559(26) 0.4704(24) 0.1348(18)
C50? C 0.3180(27) 0.4313(27) 0.1328(21)
C51? C 0.2530(35) 0.4507(38) 0.1167(28)
C52? C 0.2399(69) 0.7834(30) 0.4985(31)
C53? C 0.2035(51) 0.8162(54) 0.4992(40)
C54? C 0.2660(24) 0.8377(28) 0.4944(19)
C55? C 0.2043(46) 0.8957(44) 0.5023(35)
C56? C 0.2442(22) 0.9111(24) 0.5263(20)
C57? C 0.5450(32) 0.5203(34) 0.3160(27)
C58? C 0.4490(26) 0.4950(26) 0.2961(21)
C59? C 0.4011(30) 0.4546(29) 0.3014(25)
C60? C 0.4729(27) 0.4209(28) 0.2968(23)
C61? C 0.5195(43) 0.4842(44) 0.3053(35)
C62? C 0.2862(25) 0.3500(25) 0.0749(22)
C63? C 0.2627(24) 0.3662(23) 0.0338(19)
loop_
_geom_bond_atom_site_label_1
_geom_bond_atom_site_label_2
_geom_bond_site_symmetry_1
_geom_bond_site_symmetry_2
Ti1 O1 1_555 1_555
O1 C1 1_555 1_555
O2 Ti1 1_555 1_555
O3 C7 1_555 1_555
O4 Ti1 1_555 1_555
O5 Ti1 1_555 1_555
O6 C21 1_555 1_555
O7 Ti1 1_555 1_555
O8 Ti1 1_555 1_555
O9 C35 1_555 1_555
N1 H1 1_555 1_555
N2 H2 1_555 1_555
N3 H3 1_555 1_555
N4 C43 1_555 1_555
N5 C47 1_555 1_555
C1 C2 1_555 1_555
C2 O2 1_555 1_555
C3 C2 1_555 1_555
C4 C3 1_555 1_555
H4 C4 1_555 1_555
C5 C4 1_555 1_555
H5 C5 1_555 1_555
C6 C1 1_555 1_555
H6 C6 1_555 1_555
C7 N1 1_555 1_555
C8 N1 1_555 1_555
C9 C8 1_555 1_555
H7 C9 1_555 1_555
C10 C9 1_555 1_555
H8 C10 1_555 1_555
C11 C10 1_555 1_555
C12 C11 1_555 1_555
C13 C8 1_555 1_555
H9 C13 1_555 1_555
C14 C11 1_555 1_555
H10 C14 1_555 1_555
C15 O4 1_555 1_555
C16 O5 1_555 1_555
C17 C16 1_555 1_555
C18 C17 1_555 1_555
H11 C18 1_555 1_555
C19 C18 1_555 1_555
H12 C19 1_555 1_555
C20 C15 1_555 1_555
H13 C20 1_555 1_555
C21 N2 1_555 1_555
C22 N2 1_555 1_555
C23 C22 1_555 1_555
H14 C23 1_555 1_555
C24 C23 1_555 1_555
C25 C24 1_555 1_555
H15 C25 1_555 1_555
C26 C24 1_555 1_555
C27 C26 1_555 1_555
H16 C27 1_555 1_555
C28 C22 1_555 1_555
H17 C28 1_555 1_555
C29 O7 1_555 1_555
C30 O8 1_555 1_555
C31 C30 1_555 1_555
C32 C31 1_555 1_555
H18 C32 1_555 1_555
C33 C32 1_555 1_555
H19 C33 1_555 1_555
C34 C29 1_555 1_555
H20 C34 1_555 1_555
C35 N3 1_555 1_555
C36 N3 1_555 1_555
C37 C36 1_555 1_555
H21 C37 1_555 1_555
C38 C37 1_555 1_555
C39 C38 1_555 1_555
H22 C39 1_555 1_555
C40 C38 1_555 1_555
C41 C40 1_555 1_555
H23 C41 1_555 1_555
C42 C36 1_555 1_555
H24 C42 1_555 1_555
C43 H25 1_555 1_555
H26 C43 1_555 1_555
H27 C43 1_555 1_555
C44 N4 1_555 1_555
H28 C44 1_555 1_555
H29 C44 1_555 1_555
H30 C44 1_555 1_555
C45 N4 1_555 1_555
H31 C45 1_555 1_555
H32 C45 1_555 1_555
H33 C45 1_555 1_555
C46 N4 1_555 1_555
H34 C46 1_555 1_555
H35 C46 1_555 1_555
H36 C46 1_555 1_555
C40C C39 1_555 1_555
C38C C40C 1_555 1_555
C37C C38C 1_555 1_555
C36C C37C 1_555 1_555
N3C C36C 1_555 1_555
H3C N3C 1_555 1_555
C35C N3C 1_555 1_555
O9C C35C 1_555 1_555
C31C C35C 1_555 1_555
C30C C31C 1_555 1_555
O8C C30C 1_555 1_555
Ti1C O8C 1_555 1_555
O1C Ti1C 1_555 1_555
C1C O1C 1_555 1_555
C2C C1C 1_555 1_555
O2C Ti1C 1_555 1_555
O4C Ti1C 1_555 1_555
C15C O4C 1_555 1_555
C16C C15C 1_555 1_555
O5C Ti1C 1_555 1_555
O7C Ti1C 1_555 1_555
C29C C30C 1_555 1_555
C34C C29C 1_555 1_555
C33C C34C 1_555 1_555
C32C C31C 1_555 1_555
H18C C32C 1_555 1_555
H19C C33C 1_555 1_555
H20C C34C 1_555 1_555
C17C C16C 1_555 1_555
C18C C17C 1_555 1_555
H11C C18C 1_555 1_555
C19C C18C 1_555 1_555
H12C C19C 1_555 1_555
C20C C15C 1_555 1_555
H13C C20C 1_555 1_555
C21C C17C 1_555 1_555
O6C C21C 1_555 1_555
N2C C21C 1_555 1_555
H2C N2C 1_555 1_555
C22C N2C 1_555 1_555
C23C C22C 1_555 1_555
H14C C23C 1_555 1_555
C24C C23C 1_555 1_555
C25C C24C 1_555 1_555
H15C C25C 1_555 1_555
C26O C25C 1_555 1_555
C24O C26O 1_555 1_555
C23O C24O 1_555 1_555
C22O C23O 1_555 1_555
N2O C22O 1_555 1_555
H2O N2O 1_555 1_555
C21O N2O 1_555 1_555
O6O C21O 1_555 1_555
C17O C21O 1_555 1_555
C16O C17O 1_555 1_555
O5O C16O 1_555 1_555
Ti1O O5O 1_555 1_555
O1O Ti1O 1_555 1_555
C1O O1O 1_555 1_555
C2O C1O 1_555 1_555
O2O Ti1O 1_555 1_555
O4O Ti1O 1_555 1_555
C15O C16O 1_555 1_555
C20O C15O 1_555 1_555
C19O C20O 1_555 1_555
C18O C17O 1_555 1_555
H11O C18O 1_555 1_555
H12O C19O 1_555 1_555
H13O C20O 1_555 1_555
O7O Ti1O 1_555 1_555
C29O O7O 1_555 1_555
C30O C29O 1_555 1_555
O8O Ti1O 1_555 1_555
C31O C30O 1_555 1_555
C32O C31O 1_555 1_555
H18O C32O 1_555 1_555
C33O C32O 1_555 1_555
H19O C33O 1_555 1_555
C34O C29O 1_555 1_555
H20O C34O 1_555 1_555
C35O C31O 1_555 1_555
O9O C35O 1_555 1_555
N3O C35O 1_555 1_555
H3O N3O 1_555 1_555
C36O N3O 1_555 1_555
C37O C36O 1_555 1_555
H21O C37O 1_555 1_555
C38O C37O 1_555 1_555
C39O C38O 1_555 1_555
H22O C39O 1_555 1_555
C40L C39O 1_555 1_555
C38L C40L 1_555 1_555
C37L C38L 1_555 1_555
C36L C37L 1_555 1_555
N3L C36L 1_555 1_555
H3L N3L 1_555 1_555
C35L N3L 1_555 1_555
O9L C35L 1_555 1_555
C31L C35L 1_555 1_555
C30L C31L 1_555 1_555
O8L C30L 1_555 1_555
Ti1L O8L 1_555 1_555
O1L Ti1L 1_555 1_555
C1L O1L 1_555 1_555
C2L C1L 1_555 1_555
O2L Ti1L 1_555 1_555
O4L Ti1L 1_555 1_555
C15L O4L 1_555 1_555
C16L C15L 1_555 1_555
O5L Ti1L 1_555 1_555
O7L Ti1L 1_555 1_555
C29L C30L 1_555 1_555
C34L C29L 1_555 1_555
C33L C34L 1_555 1_555
C32L C31L 1_555 1_555
H18L C32L 1_555 1_555
H19L C33L 1_555 1_555
H20L C34L 1_555 1_555
C17L C16L 1_555 1_555
C18L C17L 1_555 1_555
H11L C18L 1_555 1_555
C19L C18L 1_555 1_555
H12L C19L 1_555 1_555
C20L C15L 1_555 1_555
H13L C20L 1_555 1_555
C21L C17L 1_555 1_555
O6L C21L 1_555 1_555
N2L C21L 1_555 1_555
H2L N2L 1_555 1_555
C22L N2L 1_555 1_555
C23L C22L 1_555 1_555
H14L C23L 1_555 1_555
C24L C23L 1_555 1_555
C25L C26 1_555 1_555
H15L C25L 1_555 1_555
C26L C25 1_555 1_555
C27L C26L 1_555 1_555
H16L C27L 1_555 1_555
C28L C22L 1_555 1_555
H17L C28L 1_555 1_555
C3L C2L 1_555 1_555
C4L C3L 1_555 1_555
H4L C4L 1_555 1_555
C5L C4L 1_555 1_555
H5L C5L 1_555 1_555
C6L C1L 1_555 1_555
H6L C6L 1_555 1_555
C7L C3L 1_555 1_555
O3L C7L 1_555 1_555
N1L C7L 1_555 1_555
H1L N1L 1_555 1_555
C8L N1L 1_555 1_555
C9L C8L 1_555 1_555
H7L C9L 1_555 1_555
C10L C9L 1_555 1_555
H8L C10L 1_555 1_555
C11L C10L 1_555 1_555
C12L C11L 1_555 1_555
C13L C8L 1_555 1_555
H9L C13L 1_555 1_555
C14C C12L 1_555 1_555
C11C C14C 1_555 1_555
C10C C11C 1_555 1_555
C9C C10C 1_555 1_555
C8C C9C 1_555 1_555
N1C C8C 1_555 1_555
H1C N1C 1_555 1_555
C7C N1C 1_555 1_555
O3C C7C 1_555 1_555
C3C C2C 1_555 1_555
C4C C3C 1_555 1_555
H4C C4C 1_555 1_555
C5C C4C 1_555 1_555
H5C C5C 1_555 1_555
C6C C1C 1_555 1_555
H6C C6C 1_555 1_555
C13C C8C 1_555 1_555
C12C C11C 1_555 1_555
C14L C11L 1_555 1_555
H10L C14L 1_555 1_555
H9C C13C 1_555 1_555
H7C C9C 1_555 1_555
H8C C10C 1_555 1_555
H10C C14C 1_555 1_555
C42L C36L 1_555 1_555
C41L C40L 1_555 1_555
H23L C41L 1_555 1_555
H24L C42L 1_555 1_555
H21L C37L 1_555 1_555
C39L C38L 1_555 1_555
H22L C39L 1_555 1_555
C40O C38O 1_555 1_555
C41O C40O 1_555 1_555
H23O C41O 1_555 1_555
C42O C36O 1_555 1_555
H24O C42O 1_555 1_555
C3O C2O 1_555 1_555
C4O C3O 1_555 1_555
H4O C4O 1_555 1_555
C5O C4O 1_555 1_555
H5O C5O 1_555 1_555
C6O C1O 1_555 1_555
H6O C6O 1_555 1_555
C7O C3O 1_555 1_555
O3O C7O 1_555 1_555
N1O C7O 1_555 1_555
H1O N1O 1_555 1_555
C8O N1O 1_555 1_555
C9O C8O 1_555 1_555
H7O C9O 1_555 1_555
C10O C9O 1_555 1_555
H8O C10O 1_555 1_555
C11O C10O 1_555 1_555
C12O C14 1_555 1_555
C13O C8O 1_555 1_555
H9O C13O 1_555 1_555
C14O C12 1_555 1_555
H10O C14O 1_555 1_555
C28O C22O 1_555 1_555
C27O C26O 1_555 1_555
H16O C27O 1_555 1_555
H17O C28O 1_555 1_555
H14O C23O 1_555 1_555
C25O C24O 1_555 1_555
H15O C25O 1_555 1_555
C26C C24C 1_555 1_555
C27C C26C 1_555 1_555
H16C C27C 1_555 1_555
C28C C22C 1_555 1_555
H17C C28C 1_555 1_555
C42C C36C 1_555 1_555
C41C C40C 1_555 1_555
H23C C41C 1_555 1_555
H24C C42C 1_555 1_555
H21C C37C 1_555 1_555
C39C C40 1_555 1_555
H22C C39C 1_555 1_555
C47C N5 1_555 1_555
C47L N5 1_555 1_555
C47O N5 1_555 1_555
C3 C7 1_555 1_555
C5 C6 1_555 1_555
C12 C13 1_555 1_555
C15 C16 1_555 1_555
C17 C21 1_555 1_555
C19 C20 1_555 1_555
C27 C28 1_555 1_555
C29 C30 1_555 1_555
C31 C35 1_555 1_555
C33 C34 1_555 1_555
C41 C42 1_555 1_555
C38C C39C 1_555 1_555
C2C O2C 1_555 1_555
C16C O5C 1_555 1_555
O7C C29C 1_555 1_555
C33C C32C 1_555 1_555
C19C C20C 1_555 1_555
C2O O2O 1_555 1_555
O4O C15O 1_555 1_555
C19O C18O 1_555 1_555
C30O O8O 1_555 1_555
C33O C34O 1_555 1_555
C2L O2L 1_555 1_555
C16L O5L 1_555 1_555
O7L C29L 1_555 1_555
C33L C32L 1_555 1_555
C19L C20L 1_555 1_555
C24L C25L 1_555 1_555
C24L C26L 1_555 1_555
C27L C28L 1_555 1_555
C5L C6L 1_555 1_555
C12L C13L 1_555 1_555
C7C C3C 1_555 1_555
C5C C6C 1_555 1_555
C13C C12C 1_555 1_555
C12C C14L 1_555 1_555
C42L C41L 1_555 1_555
C39L C40O 1_555 1_555
C41O C42O 1_555 1_555
C5O C6O 1_555 1_555
C11O C12O 1_555 1_555
C11O C14O 1_555 1_555
C12O C13O 1_555 1_555
C28O C27O 1_555 1_555
C25O C26C 1_555 1_555
C27C C28C 1_555 1_555
C42C C41C 1_555 1_555

#END
