# generated using pymatgen
data_Ti4H144C252N21O52
_symmetry_space_group_name_H-M   'P 1'
_cell_length_a   26.59310000
_cell_length_b   26.59310000
_cell_length_c   33.53650000
_cell_angle_alpha   90.00000000
_cell_angle_beta   90.00000000
_cell_angle_gamma   90.00000000
_symmetry_Int_Tables_number   1
_chemical_formula_structural   Ti4H144C252N21O52
_chemical_formula_sum   'Ti16 H576 C1008 N84 O208'
_cell_volume   23716.77695825
_cell_formula_units_Z   4
loop_
 _symmetry_equiv_pos_site_id
 _symmetry_equiv_pos_as_xyz
  1  'x, y, z'
loop_
 _atom_site_type_symbol
 _atom_site_label
 _atom_site_symmetry_multiplicity
 _atom_site_fract_x
 _atom_site_fract_y
 _atom_site_fract_z
 _atom_site_occupancy
  Ti  Ti1  1  0.259000  0.446000  0.417970  1.0
  Ti  Ti2  1  0.054000  0.259000  0.417970  1.0
  Ti  Ti3  1  0.446000  0.241000  0.417970  1.0
  Ti  Ti4  1  0.946000  0.759000  0.082030  1.0
  Ti  Ti5  1  0.759000  0.946000  0.582030  1.0
  Ti  Ti6  1  0.259000  0.054000  0.917970  1.0
  Ti  Ti7  1  0.241000  0.446000  0.917970  1.0
  Ti  Ti8  1  0.446000  0.259000  0.917970  1.0
  Ti  Ti9  1  0.741000  0.554000  0.582030  1.0
  Ti  Ti10  1  0.946000  0.741000  0.582030  1.0
  Ti  Ti11  1  0.554000  0.759000  0.582030  1.0
  Ti  Ti12  1  0.054000  0.241000  0.917970  1.0
  Ti  Ti13  1  0.241000  0.054000  0.417970  1.0
  Ti  Ti14  1  0.741000  0.946000  0.082030  1.0
  Ti  Ti15  1  0.759000  0.554000  0.082030  1.0
  Ti  Ti16  1  0.554000  0.741000  0.082030  1.0
  H  H17  1  0.393400  0.503400  0.593600  1
  H  H18  1  0.996600  0.393400  0.593600  1
  H  H19  1  0.503400  0.106600  0.593600  1
  H  H20  1  0.003400  0.893400  0.906400  1
  H  H21  1  0.893400  0.003400  0.406400  1
  H  H22  1  0.393400  0.996600  0.093600  1
  H  H23  1  0.106600  0.503400  0.093600  1
  H  H24  1  0.503400  0.393400  0.093600  1
  H  H25  1  0.606600  0.496600  0.406400  1
  H  H26  1  0.003400  0.606600  0.406400  1
  H  H27  1  0.496600  0.893400  0.406400  1
  H  H28  1  0.996600  0.106600  0.093600  1
  H  H29  1  0.106600  0.996600  0.593600  1
  H  H30  1  0.606600  0.003400  0.906400  1
  H  H31  1  0.893400  0.496600  0.906400  1
  H  H32  1  0.496600  0.606600  0.906400  1
  H  H33  1  0.421800  0.450400  0.595100  1
  H  H34  1  0.049600  0.421800  0.595100  1
  H  H35  1  0.450400  0.078200  0.595100  1
  H  H36  1  0.950400  0.921800  0.904900  1
  H  H37  1  0.921800  0.950400  0.404900  1
  H  H38  1  0.421800  0.049600  0.095100  1
  H  H39  1  0.078200  0.450400  0.095100  1
  H  H40  1  0.450400  0.421800  0.095100  1
  H  H41  1  0.578200  0.549600  0.404900  1
  H  H42  1  0.950400  0.578200  0.404900  1
  H  H43  1  0.549600  0.921800  0.404900  1
  H  H44  1  0.049600  0.078200  0.095100  1
  H  H45  1  0.078200  0.049600  0.595100  1
  H  H46  1  0.578200  0.950400  0.904900  1
  H  H47  1  0.921800  0.549600  0.904900  1
  H  H48  1  0.549600  0.578200  0.904900  1
  H  H49  1  0.362300  0.453000  0.601900  1
  H  H50  1  0.047000  0.362300  0.601900  1
  H  H51  1  0.453000  0.137700  0.601900  1
  H  H52  1  0.953000  0.862300  0.898100  1
  H  H53  1  0.862300  0.953000  0.398100  1
  H  H54  1  0.362300  0.047000  0.101900  1
  H  H55  1  0.137700  0.453000  0.101900  1
  H  H56  1  0.453000  0.362300  0.101900  1
  H  H57  1  0.637700  0.547000  0.398100  1
  H  H58  1  0.953000  0.637700  0.398100  1
  H  H59  1  0.547000  0.862300  0.398100  1
  H  H60  1  0.047000  0.137700  0.101900  1
  H  H61  1  0.137700  0.047000  0.601900  1
  H  H62  1  0.637700  0.953000  0.898100  1
  H  H63  1  0.862300  0.547000  0.898100  1
  H  H64  1  0.547000  0.637700  0.898100  1
  H  H65  1  0.433400  0.517000  0.526600  1
  H  H66  1  0.983000  0.433400  0.526600  1
  H  H67  1  0.517000  0.066600  0.526600  1
  H  H68  1  0.017000  0.933400  0.973400  1
  H  H69  1  0.933400  0.017000  0.473400  1
  H  H70  1  0.433400  0.983000  0.026600  1
  H  H71  1  0.066600  0.517000  0.026600  1
  H  H72  1  0.517000  0.433400  0.026600  1
  H  H73  1  0.566600  0.483000  0.473400  1
  H  H74  1  0.017000  0.566600  0.473400  1
  H  H75  1  0.483000  0.933400  0.473400  1
  H  H76  1  0.983000  0.066600  0.026600  1
  H  H77  1  0.066600  0.983000  0.526600  1
  H  H78  1  0.566600  0.017000  0.973400  1
  H  H79  1  0.933400  0.483000  0.973400  1
  H  H80  1  0.483000  0.566600  0.973400  1
  H  H81  1  0.429000  0.475100  0.492500  1
  H  H82  1  0.024900  0.429000  0.492500  1
  H  H83  1  0.475100  0.071000  0.492500  1
  H  H84  1  0.975100  0.929000  0.007500  1
  H  H85  1  0.929000  0.975100  0.507500  1
  H  H86  1  0.429000  0.024900  0.992500  1
  H  H87  1  0.071000  0.475100  0.992500  1
  H  H88  1  0.475100  0.429000  0.992500  1
  H  H89  1  0.571000  0.524900  0.507500  1
  H  H90  1  0.975100  0.571000  0.507500  1
  H  H91  1  0.524900  0.929000  0.507500  1
  H  H92  1  0.024900  0.071000  0.992500  1
  H  H93  1  0.071000  0.024900  0.492500  1
  H  H94  1  0.571000  0.975100  0.007500  1
  H  H95  1  0.929000  0.524900  0.007500  1
  H  H96  1  0.524900  0.571000  0.007500  1
  H  H97  1  0.459600  0.463400  0.532500  1
  H  H98  1  0.036600  0.459600  0.532500  1
  H  H99  1  0.463400  0.040400  0.532500  1
  H  H100  1  0.963400  0.959600  0.967500  1
  H  H101  1  0.959600  0.963400  0.467500  1
  H  H102  1  0.459600  0.036600  0.032500  1
  H  H103  1  0.040400  0.463400  0.032500  1
  H  H104  1  0.463400  0.459600  0.032500  1
  H  H105  1  0.540400  0.536600  0.467500  1
  H  H106  1  0.963400  0.540400  0.467500  1
  H  H107  1  0.536600  0.959600  0.467500  1
  H  H108  1  0.036600  0.040400  0.032500  1
  H  H109  1  0.040400  0.036600  0.532500  1
  H  H110  1  0.540400  0.963400  0.967500  1
  H  H111  1  0.959600  0.536600  0.967500  1
  H  H112  1  0.536600  0.540400  0.967500  1
  H  H113  1  0.345800  0.526200  0.530600  1
  H  H114  1  0.973800  0.345800  0.530600  1
  H  H115  1  0.526200  0.154200  0.530600  1
  H  H116  1  0.026200  0.845800  0.969400  1
  H  H117  1  0.845800  0.026200  0.469400  1
  H  H118  1  0.345800  0.973800  0.030600  1
  H  H119  1  0.154200  0.526200  0.030600  1
  H  H120  1  0.526200  0.345800  0.030600  1
  H  H121  1  0.654200  0.473800  0.469400  1
  H  H122  1  0.026200  0.654200  0.469400  1
  H  H123  1  0.473800  0.845800  0.469400  1
  H  H124  1  0.973800  0.154200  0.030600  1
  H  H125  1  0.154200  0.973800  0.530600  1
  H  H126  1  0.654200  0.026200  0.969400  1
  H  H127  1  0.845800  0.473800  0.969400  1
  H  H128  1  0.473800  0.654200  0.969400  1
  H  H129  1  0.308700  0.479200  0.535100  1
  H  H130  1  0.020800  0.308700  0.535100  1
  H  H131  1  0.479200  0.191300  0.535100  1
  H  H132  1  0.979200  0.808700  0.964900  1
  H  H133  1  0.808700  0.979200  0.464900  1
  H  H134  1  0.308700  0.020800  0.035100  1
  H  H135  1  0.191300  0.479200  0.035100  1
  H  H136  1  0.479200  0.308700  0.035100  1
  H  H137  1  0.691300  0.520800  0.464900  1
  H  H138  1  0.979200  0.691300  0.464900  1
  H  H139  1  0.520800  0.808700  0.464900  1
  H  H140  1  0.020800  0.191300  0.035100  1
  H  H141  1  0.191300  0.020800  0.535100  1
  H  H142  1  0.691300  0.979200  0.964900  1
  H  H143  1  0.808700  0.520800  0.964900  1
  H  H144  1  0.520800  0.691300  0.964900  1
  H  H145  1  0.340300  0.486600  0.495000  1
  H  H146  1  0.013400  0.340300  0.495000  1
  H  H147  1  0.486600  0.159700  0.495000  1
  H  H148  1  0.986600  0.840300  0.005000  1
  H  H149  1  0.840300  0.986600  0.505000  1
  H  H150  1  0.340300  0.013400  0.995000  1
  H  H151  1  0.159700  0.486600  0.995000  1
  H  H152  1  0.486600  0.340300  0.995000  1
  H  H153  1  0.659700  0.513400  0.505000  1
  H  H154  1  0.986600  0.659700  0.505000  1
  H  H155  1  0.513400  0.840300  0.505000  1
  H  H156  1  0.013400  0.159700  0.995000  1
  H  H157  1  0.159700  0.013400  0.495000  1
  H  H158  1  0.659700  0.986600  0.005000  1
  H  H159  1  0.840300  0.513400  0.005000  1
  H  H160  1  0.513400  0.659700  0.005000  1
  H  H161  1  0.407000  0.390700  0.545100  1
  H  H162  1  0.109300  0.407000  0.545100  1
  H  H163  1  0.390700  0.093000  0.545100  1
  H  H164  1  0.890700  0.907000  0.954900  1
  H  H165  1  0.907000  0.890700  0.454900  1
  H  H166  1  0.407000  0.109300  0.045100  1
  H  H167  1  0.093000  0.390700  0.045100  1
  H  H168  1  0.390700  0.407000  0.045100  1
  H  H169  1  0.593000  0.609300  0.454900  1
  H  H170  1  0.890700  0.593000  0.454900  1
  H  H171  1  0.609300  0.907000  0.454900  1
  H  H172  1  0.109300  0.093000  0.045100  1
  H  H173  1  0.093000  0.109300  0.545100  1
  H  H174  1  0.593000  0.890700  0.954900  1
  H  H175  1  0.907000  0.609300  0.954900  1
  H  H176  1  0.609300  0.593000  0.954900  1
  H  H177  1  0.378600  0.402600  0.504100  1
  H  H178  1  0.097400  0.378600  0.504100  1
  H  H179  1  0.402600  0.121400  0.504100  1
  H  H180  1  0.902600  0.878600  0.995900  1
  H  H181  1  0.878600  0.902600  0.495900  1
  H  H182  1  0.378600  0.097400  0.004100  1
  H  H183  1  0.121400  0.402600  0.004100  1
  H  H184  1  0.402600  0.378600  0.004100  1
  H  H185  1  0.621400  0.597400  0.495900  1
  H  H186  1  0.902600  0.621400  0.495900  1
  H  H187  1  0.597400  0.878600  0.495900  1
  H  H188  1  0.097400  0.121400  0.004100  1
  H  H189  1  0.121400  0.097400  0.504100  1
  H  H190  1  0.621400  0.902600  0.995900  1
  H  H191  1  0.878600  0.597400  0.995900  1
  H  H192  1  0.597400  0.621400  0.995900  1
  H  H193  1  0.347000  0.395200  0.544300  1
  H  H194  1  0.104800  0.347000  0.544300  1
  H  H195  1  0.395200  0.153000  0.544300  1
  H  H196  1  0.895200  0.847000  0.955700  1
  H  H197  1  0.847000  0.895200  0.455700  1
  H  H198  1  0.347000  0.104800  0.044300  1
  H  H199  1  0.153000  0.395200  0.044300  1
  H  H200  1  0.395200  0.347000  0.044300  1
  H  H201  1  0.653000  0.604800  0.455700  1
  H  H202  1  0.895200  0.653000  0.455700  1
  H  H203  1  0.604800  0.847000  0.455700  1
  H  H204  1  0.104800  0.153000  0.044300  1
  H  H205  1  0.153000  0.104800  0.544300  1
  H  H206  1  0.653000  0.895200  0.955700  1
  H  H207  1  0.847000  0.604800  0.955700  1
  H  H208  1  0.604800  0.653000  0.955700  1
  H  H209  1  0.259800  0.485600  0.311500  1.0
  H  H210  1  0.014400  0.259800  0.311500  1.0
  H  H211  1  0.485600  0.240200  0.311500  1.0
  H  H212  1  0.985600  0.759800  0.188500  1.0
  H  H213  1  0.759800  0.985600  0.688500  1.0
  H  H214  1  0.259800  0.014400  0.811500  1.0
  H  H215  1  0.240200  0.485600  0.811500  1.0
  H  H216  1  0.485600  0.259800  0.811500  1.0
  H  H217  1  0.740200  0.514400  0.688500  1.0
  H  H218  1  0.985600  0.740200  0.688500  1.0
  H  H219  1  0.514400  0.759800  0.688500  1.0
  H  H220  1  0.014400  0.240200  0.811500  1.0
  H  H221  1  0.240200  0.014400  0.311500  1.0
  H  H222  1  0.740200  0.985600  0.188500  1.0
  H  H223  1  0.759800  0.514400  0.188500  1.0
  H  H224  1  0.514400  0.740200  0.188500  1.0
  H  H225  1  0.326500  0.568200  0.402900  1.0
  H  H226  1  0.931800  0.326500  0.402900  1.0
  H  H227  1  0.568200  0.173500  0.402900  1.0
  H  H228  1  0.068200  0.826500  0.097100  1.0
  H  H229  1  0.826500  0.068200  0.597100  1.0
  H  H230  1  0.326500  0.931800  0.902900  1.0
  H  H231  1  0.173500  0.568200  0.902900  1.0
  H  H232  1  0.568200  0.326500  0.902900  1.0
  H  H233  1  0.673500  0.431800  0.597100  1.0
  H  H234  1  0.068200  0.673500  0.597100  1.0
  H  H235  1  0.431800  0.826500  0.597100  1.0
  H  H236  1  0.931800  0.173500  0.902900  1.0
  H  H237  1  0.173500  0.931800  0.402900  1.0
  H  H238  1  0.673500  0.068200  0.097100  1.0
  H  H239  1  0.826500  0.431800  0.097100  1.0
  H  H240  1  0.431800  0.673500  0.097100  1.0
  H  H241  1  0.176400  0.557800  0.394200  1.0
  H  H242  1  0.942200  0.176400  0.394200  1.0
  H  H243  1  0.557800  0.323600  0.394200  1.0
  H  H244  1  0.057800  0.676400  0.105800  1.0
  H  H245  1  0.676400  0.057800  0.605800  1.0
  H  H246  1  0.176400  0.942200  0.894200  1.0
  H  H247  1  0.323600  0.557800  0.894200  1.0
  H  H248  1  0.557800  0.176400  0.894200  1.0
  H  H249  1  0.823600  0.442200  0.605800  1.0
  H  H250  1  0.057800  0.823600  0.605800  1.0
  H  H251  1  0.442200  0.676400  0.605800  1.0
  H  H252  1  0.942200  0.323600  0.894200  1.0
  H  H253  1  0.323600  0.942200  0.394200  1.0
  H  H254  1  0.823600  0.057800  0.105800  1.0
  H  H255  1  0.676400  0.442200  0.105800  1.0
  H  H256  1  0.442200  0.823600  0.105800  1.0
  H  H257  1  0.180200  0.357800  0.261900  1.0
  H  H258  1  0.142200  0.180200  0.261900  1.0
  H  H259  1  0.357800  0.319800  0.261900  1.0
  H  H260  1  0.857800  0.680200  0.238100  1.0
  H  H261  1  0.680200  0.857800  0.738100  1.0
  H  H262  1  0.180200  0.142200  0.761900  1.0
  H  H263  1  0.319800  0.357800  0.761900  1.0
  H  H264  1  0.357800  0.180200  0.761900  1.0
  H  H265  1  0.819800  0.642200  0.738100  1.0
  H  H266  1  0.857800  0.819800  0.738100  1.0
  H  H267  1  0.642200  0.680200  0.738100  1.0
  H  H268  1  0.142200  0.319800  0.761900  1.0
  H  H269  1  0.319800  0.142200  0.261900  1.0
  H  H270  1  0.819800  0.857800  0.238100  1.0
  H  H271  1  0.680200  0.642200  0.238100  1.0
  H  H272  1  0.642200  0.819800  0.238100  1.0
  H  H273  1  0.152700  0.298600  0.308600  1.0
  H  H274  1  0.201400  0.152700  0.308600  1.0
  H  H275  1  0.298600  0.347300  0.308600  1.0
  H  H276  1  0.798600  0.652700  0.191400  1.0
  H  H277  1  0.652700  0.798600  0.691400  1.0
  H  H278  1  0.152700  0.201400  0.808600  1.0
  H  H279  1  0.347300  0.298600  0.808600  1.0
  H  H280  1  0.298600  0.152700  0.808600  1.0
  H  H281  1  0.847300  0.701400  0.691400  1.0
  H  H282  1  0.798600  0.847300  0.691400  1.0
  H  H283  1  0.701400  0.652700  0.691400  1.0
  H  H284  1  0.201400  0.347300  0.808600  1.0
  H  H285  1  0.347300  0.201400  0.308600  1.0
  H  H286  1  0.847300  0.798600  0.191400  1.0
  H  H287  1  0.652700  0.701400  0.191400  1.0
  H  H288  1  0.701400  0.847300  0.191400  1.0
  H  H289  1  0.171400  0.308500  0.376000  1.0
  H  H290  1  0.191500  0.171400  0.376000  1.0
  H  H291  1  0.308500  0.328600  0.376000  1.0
  H  H292  1  0.808500  0.671400  0.124000  1.0
  H  H293  1  0.671400  0.808500  0.624000  1.0
  H  H294  1  0.171400  0.191500  0.876000  1.0
  H  H295  1  0.328600  0.308500  0.876000  1.0
  H  H296  1  0.308500  0.171400  0.876000  1.0
  H  H297  1  0.828600  0.691500  0.624000  1.0
  H  H298  1  0.808500  0.828600  0.624000  1.0
  H  H299  1  0.691500  0.671400  0.624000  1.0
  H  H300  1  0.191500  0.328600  0.876000  1.0
  H  H301  1  0.328600  0.191500  0.376000  1.0
  H  H302  1  0.828600  0.808500  0.124000  1.0
  H  H303  1  0.671400  0.691500  0.124000  1.0
  H  H304  1  0.691500  0.828600  0.124000  1.0
  H  H305  1  0.266300  0.497700  0.208100  1.0
  H  H306  1  0.002300  0.266300  0.208100  1.0
  H  H307  1  0.497700  0.233700  0.208100  1.0
  H  H308  1  0.997700  0.766300  0.291900  1.0
  H  H309  1  0.766300  0.997700  0.791900  1.0
  H  H310  1  0.266300  0.002300  0.708100  1.0
  H  H311  1  0.233700  0.497700  0.708100  1.0
  H  H312  1  0.497700  0.266300  0.708100  1.0
  H  H313  1  0.733700  0.502300  0.791900  1.0
  H  H314  1  0.997700  0.733700  0.791900  1.0
  H  H315  1  0.502300  0.766300  0.791900  1.0
  H  H316  1  0.002300  0.233700  0.708100  1.0
  H  H317  1  0.233700  0.002300  0.208100  1.0
  H  H318  1  0.733700  0.997700  0.291900  1.0
  H  H319  1  0.766300  0.502300  0.291900  1.0
  H  H320  1  0.502300  0.733700  0.291900  1.0
  H  H321  1  0.312300  0.561600  0.176400  1.0
  H  H322  1  0.938400  0.312300  0.176400  1.0
  H  H323  1  0.561600  0.187700  0.176400  1.0
  H  H324  1  0.061600  0.812300  0.323600  1.0
  H  H325  1  0.812300  0.061600  0.823600  1.0
  H  H326  1  0.312300  0.938400  0.676400  1.0
  H  H327  1  0.187700  0.561600  0.676400  1.0
  H  H328  1  0.561600  0.312300  0.676400  1.0
  H  H329  1  0.687700  0.438400  0.823600  1.0
  H  H330  1  0.061600  0.687700  0.823600  1.0
  H  H331  1  0.438400  0.812300  0.823600  1.0
  H  H332  1  0.938400  0.187700  0.676400  1.0
  H  H333  1  0.187700  0.938400  0.176400  1.0
  H  H334  1  0.687700  0.061600  0.323600  1.0
  H  H335  1  0.812300  0.438400  0.323600  1.0
  H  H336  1  0.438400  0.687700  0.323600  1.0
  H  H337  1  0.307200  0.552500  0.314800  1.0
  H  H338  1  0.947500  0.307200  0.314800  1.0
  H  H339  1  0.552500  0.192800  0.314800  1.0
  H  H340  1  0.052500  0.807200  0.185200  1.0
  H  H341  1  0.807200  0.052500  0.685200  1.0
  H  H342  1  0.307200  0.947500  0.814800  1.0
  H  H343  1  0.192800  0.552500  0.814800  1.0
  H  H344  1  0.552500  0.307200  0.814800  1.0
  H  H345  1  0.692800  0.447500  0.685200  1.0
  H  H346  1  0.052500  0.692800  0.685200  1.0
  H  H347  1  0.447500  0.807200  0.685200  1.0
  H  H348  1  0.947500  0.192800  0.814800  1.0
  H  H349  1  0.192800  0.947500  0.314800  1.0
  H  H350  1  0.692800  0.052500  0.185200  1.0
  H  H351  1  0.807200  0.447500  0.185200  1.0
  H  H352  1  0.447500  0.692800  0.185200  1.0
  H  H353  1  0.375600  0.631700  0.179500  1.0
  H  H354  1  0.868300  0.375600  0.179500  1.0
  H  H355  1  0.631700  0.124400  0.179500  1.0
  H  H356  1  0.131700  0.875600  0.320500  1.0
  H  H357  1  0.875600  0.131700  0.820500  1.0
  H  H358  1  0.375600  0.868300  0.679500  1.0
  H  H359  1  0.124400  0.631700  0.679500  1.0
  H  H360  1  0.631700  0.375600  0.679500  1.0
  H  H361  1  0.624400  0.368300  0.820500  1.0
  H  H362  1  0.131700  0.624400  0.820500  1.0
  H  H363  1  0.368300  0.875600  0.820500  1.0
  H  H364  1  0.868300  0.124400  0.679500  1.0
  H  H365  1  0.124400  0.868300  0.179500  1.0
  H  H366  1  0.624400  0.131700  0.320500  1.0
  H  H367  1  0.875600  0.368300  0.320500  1.0
  H  H368  1  0.368300  0.624400  0.320500  1.0
  H  H369  1  0.476800  0.511500  0.399900  1.0
  H  H370  1  0.988500  0.476800  0.399900  1.0
  H  H371  1  0.511500  0.023200  0.399900  1.0
  H  H372  1  0.011500  0.976800  0.100100  1.0
  H  H373  1  0.976800  0.011500  0.600100  1.0
  H  H374  1  0.476800  0.988500  0.899900  1.0
  H  H375  1  0.023200  0.511500  0.899900  1.0
  H  H376  1  0.511500  0.476800  0.899900  1.0
  H  H377  1  0.523200  0.488500  0.600100  1.0
  H  H378  1  0.011500  0.523200  0.600100  1.0
  H  H379  1  0.488500  0.976800  0.600100  1.0
  H  H380  1  0.988500  0.023200  0.899900  1.0
  H  H381  1  0.023200  0.988500  0.399900  1.0
  H  H382  1  0.523200  0.011500  0.100100  1.0
  H  H383  1  0.976800  0.488500  0.100100  1.0
  H  H384  1  0.488500  0.523200  0.100100  1.0
  H  H385  1  0.484200  0.426500  0.414100  1.0
  H  H386  1  0.073500  0.484200  0.414100  1.0
  H  H387  1  0.426500  0.015800  0.414100  1.0
  H  H388  1  0.926500  0.984200  0.085900  1.0
  H  H389  1  0.984200  0.926500  0.585900  1.0
  H  H390  1  0.484200  0.073500  0.914100  1.0
  H  H391  1  0.015800  0.426500  0.914100  1.0
  H  H392  1  0.426500  0.484200  0.914100  1.0
  H  H393  1  0.515800  0.573500  0.585900  1.0
  H  H394  1  0.926500  0.515800  0.585900  1.0
  H  H395  1  0.573500  0.984200  0.585900  1.0
  H  H396  1  0.073500  0.015800  0.914100  1.0
  H  H397  1  0.015800  0.073500  0.414100  1.0
  H  H398  1  0.515800  0.926500  0.085900  1.0
  H  H399  1  0.984200  0.573500  0.085900  1.0
  H  H400  1  0.573500  0.515800  0.085900  1.0
  H  H401  1  0.416200  0.377100  0.427300  1.0
  H  H402  1  0.122900  0.416200  0.427300  1.0
  H  H403  1  0.377100  0.083800  0.427300  1.0
  H  H404  1  0.877100  0.916200  0.072700  1.0
  H  H405  1  0.916200  0.877100  0.572700  1.0
  H  H406  1  0.416200  0.122900  0.927300  1.0
  H  H407  1  0.083800  0.377100  0.927300  1.0
  H  H408  1  0.377100  0.416200  0.927300  1.0
  H  H409  1  0.583800  0.622900  0.572700  1.0
  H  H410  1  0.877100  0.583800  0.572700  1.0
  H  H411  1  0.622900  0.916200  0.572700  1.0
  H  H412  1  0.122900  0.083800  0.927300  1.0
  H  H413  1  0.083800  0.122900  0.427300  1.0
  H  H414  1  0.583800  0.877100  0.072700  1.0
  H  H415  1  0.916200  0.622900  0.072700  1.0
  H  H416  1  0.622900  0.583800  0.072700  1.0
  H  H417  1  0.265900  0.621800  0.388300  1.0
  H  H418  1  0.878200  0.265900  0.388300  1.0
  H  H419  1  0.621800  0.234100  0.388300  1.0
  H  H420  1  0.121800  0.765900  0.111700  1.0
  H  H421  1  0.765900  0.121800  0.611700  1.0
  H  H422  1  0.265900  0.878200  0.888300  1.0
  H  H423  1  0.234100  0.621800  0.888300  1.0
  H  H424  1  0.621800  0.265900  0.888300  1.0
  H  H425  1  0.734100  0.378200  0.611700  1.0
  H  H426  1  0.121800  0.734100  0.611700  1.0
  H  H427  1  0.378200  0.765900  0.611700  1.0
  H  H428  1  0.878200  0.234100  0.888300  1.0
  H  H429  1  0.234100  0.878200  0.388300  1.0
  H  H430  1  0.734100  0.121800  0.111700  1.0
  H  H431  1  0.765900  0.378200  0.111700  1.0
  H  H432  1  0.378200  0.734100  0.111700  1.0
  H  H433  1  0.192500  0.682600  0.389500  1.0
  H  H434  1  0.817400  0.192500  0.389500  1.0
  H  H435  1  0.682600  0.307500  0.389500  1.0
  H  H436  1  0.182600  0.692500  0.110500  1.0
  H  H437  1  0.692500  0.182600  0.610500  1.0
  H  H438  1  0.192500  0.817400  0.889500  1.0
  H  H439  1  0.307500  0.682600  0.889500  1.0
  H  H440  1  0.682600  0.192500  0.889500  1.0
  H  H441  1  0.807500  0.317400  0.610500  1.0
  H  H442  1  0.182600  0.807500  0.610500  1.0
  H  H443  1  0.317400  0.692500  0.610500  1.0
  H  H444  1  0.817400  0.307500  0.889500  1.0
  H  H445  1  0.307500  0.817400  0.389500  1.0
  H  H446  1  0.807500  0.182600  0.110500  1.0
  H  H447  1  0.692500  0.317400  0.110500  1.0
  H  H448  1  0.317400  0.807500  0.110500  1.0
  H  H449  1  0.375500  0.754000  0.391300  1.0
  H  H450  1  0.746000  0.375500  0.391300  1.0
  H  H451  1  0.754000  0.124500  0.391300  1.0
  H  H452  1  0.254000  0.875500  0.108700  1.0
  H  H453  1  0.875500  0.254000  0.608700  1.0
  H  H454  1  0.375500  0.746000  0.891300  1.0
  H  H455  1  0.124500  0.754000  0.891300  1.0
  H  H456  1  0.754000  0.375500  0.891300  1.0
  H  H457  1  0.624500  0.246000  0.608700  1.0
  H  H458  1  0.254000  0.624500  0.608700  1.0
  H  H459  1  0.246000  0.875500  0.608700  1.0
  H  H460  1  0.746000  0.124500  0.891300  1.0
  H  H461  1  0.124500  0.746000  0.391300  1.0
  H  H462  1  0.624500  0.254000  0.108700  1.0
  H  H463  1  0.875500  0.246000  0.108700  1.0
  H  H464  1  0.246000  0.624500  0.108700  1.0
  H  H465  1  0.405500  0.672100  0.393700  1.0
  H  H466  1  0.827900  0.405500  0.393700  1.0
  H  H467  1  0.672100  0.094500  0.393700  1.0
  H  H468  1  0.172100  0.905500  0.106300  1.0
  H  H469  1  0.905500  0.172100  0.606300  1.0
  H  H470  1  0.405500  0.827900  0.893700  1.0
  H  H471  1  0.094500  0.672100  0.893700  1.0
  H  H472  1  0.672100  0.405500  0.893700  1.0
  H  H473  1  0.594500  0.327900  0.606300  1.0
  H  H474  1  0.172100  0.594500  0.606300  1.0
  H  H475  1  0.327900  0.905500  0.606300  1.0
  H  H476  1  0.827900  0.094500  0.893700  1.0
  H  H477  1  0.094500  0.827900  0.393700  1.0
  H  H478  1  0.594500  0.172100  0.106300  1.0
  H  H479  1  0.905500  0.327900  0.106300  1.0
  H  H480  1  0.327900  0.594500  0.106300  1.0
  H  H481  1  0.102700  0.570200  0.506200  1.0
  H  H482  1  0.929800  0.102700  0.506200  1.0
  H  H483  1  0.570200  0.397300  0.506200  1.0
  H  H484  1  0.070200  0.602700  0.993800  1.0
  H  H485  1  0.602700  0.070200  0.493800  1.0
  H  H486  1  0.102700  0.929800  0.006200  1.0
  H  H487  1  0.397300  0.570200  0.006200  1.0
  H  H488  1  0.570200  0.102700  0.006200  1.0
  H  H489  1  0.897300  0.429800  0.493800  1.0
  H  H490  1  0.070200  0.897300  0.493800  1.0
  H  H491  1  0.429800  0.602700  0.493800  1.0
  H  H492  1  0.929800  0.397300  0.006200  1.0
  H  H493  1  0.397300  0.929800  0.506200  1.0
  H  H494  1  0.897300  0.070200  0.993800  1.0
  H  H495  1  0.602700  0.429800  0.993800  1.0
  H  H496  1  0.429800  0.897300  0.993800  1.0
  H  H497  1  0.134100  0.523500  0.556500  1.0
  H  H498  1  0.976500  0.134100  0.556500  1.0
  H  H499  1  0.523500  0.365900  0.556500  1.0
  H  H500  1  0.023500  0.634100  0.943500  1.0
  H  H501  1  0.634100  0.023500  0.443500  1.0
  H  H502  1  0.134100  0.976500  0.056500  1.0
  H  H503  1  0.365900  0.523500  0.056500  1.0
  H  H504  1  0.523500  0.134100  0.056500  1.0
  H  H505  1  0.865900  0.476500  0.443500  1.0
  H  H506  1  0.023500  0.865900  0.443500  1.0
  H  H507  1  0.476500  0.634100  0.443500  1.0
  H  H508  1  0.976500  0.365900  0.056500  1.0
  H  H509  1  0.365900  0.976500  0.556500  1.0
  H  H510  1  0.865900  0.023500  0.943500  1.0
  H  H511  1  0.634100  0.476500  0.943500  1.0
  H  H512  1  0.476500  0.865900  0.943500  1.0
  H  H513  1  0.200700  0.460000  0.545800  1.0
  H  H514  1  0.040000  0.200700  0.545800  1.0
  H  H515  1  0.460000  0.299300  0.545800  1.0
  H  H516  1  0.960000  0.700700  0.954200  1.0
  H  H517  1  0.700700  0.960000  0.454200  1.0
  H  H518  1  0.200700  0.040000  0.045800  1.0
  H  H519  1  0.299300  0.460000  0.045800  1.0
  H  H520  1  0.460000  0.200700  0.045800  1.0
  H  H521  1  0.799300  0.540000  0.454200  1.0
  H  H522  1  0.960000  0.799300  0.454200  1.0
  H  H523  1  0.540000  0.700700  0.454200  1.0
  H  H524  1  0.040000  0.299300  0.045800  1.0
  H  H525  1  0.299300  0.040000  0.545800  1.0
  H  H526  1  0.799300  0.960000  0.954200  1.0
  H  H527  1  0.700700  0.540000  0.954200  1.0
  H  H528  1  0.540000  0.799300  0.954200  1.0
  H  H529  1  0.179800  0.558100  0.323700  1.0
  H  H530  1  0.941900  0.179800  0.323700  1.0
  H  H531  1  0.558100  0.320200  0.323700  1.0
  H  H532  1  0.058100  0.679800  0.176300  1.0
  H  H533  1  0.679800  0.058100  0.676300  1.0
  H  H534  1  0.179800  0.941900  0.823700  1.0
  H  H535  1  0.320200  0.558100  0.823700  1.0
  H  H536  1  0.558100  0.179800  0.823700  1.0
  H  H537  1  0.820200  0.441900  0.676300  1.0
  H  H538  1  0.058100  0.820200  0.676300  1.0
  H  H539  1  0.441900  0.679800  0.676300  1.0
  H  H540  1  0.941900  0.320200  0.823700  1.0
  H  H541  1  0.320200  0.941900  0.323700  1.0
  H  H542  1  0.820200  0.058100  0.176300  1.0
  H  H543  1  0.679800  0.441900  0.176300  1.0
  H  H544  1  0.441900  0.820200  0.176300  1.0
  H  H545  1  0.187800  0.560600  0.250800  1.0
  H  H546  1  0.939400  0.187800  0.250800  1.0
  H  H547  1  0.560600  0.312200  0.250800  1.0
  H  H548  1  0.060600  0.687800  0.249200  1.0
  H  H549  1  0.687800  0.060600  0.749200  1.0
  H  H550  1  0.187800  0.939400  0.750800  1.0
  H  H551  1  0.312200  0.560600  0.750800  1.0
  H  H552  1  0.560600  0.187800  0.750800  1.0
  H  H553  1  0.812200  0.439400  0.749200  1.0
  H  H554  1  0.060600  0.812200  0.749200  1.0
  H  H555  1  0.439400  0.687800  0.749200  1.0
  H  H556  1  0.939400  0.312200  0.750800  1.0
  H  H557  1  0.312200  0.939400  0.250800  1.0
  H  H558  1  0.812200  0.060600  0.249200  1.0
  H  H559  1  0.687800  0.439400  0.249200  1.0
  H  H560  1  0.439400  0.812200  0.249200  1.0
  H  H561  1  0.066200  0.688000  0.323400  1.0
  H  H562  1  0.812000  0.066200  0.323400  1.0
  H  H563  1  0.688000  0.433800  0.323400  1.0
  H  H564  1  0.188000  0.566200  0.176600  1.0
  H  H565  1  0.566200  0.188000  0.676600  1.0
  H  H566  1  0.066200  0.812000  0.823400  1.0
  H  H567  1  0.433800  0.688000  0.823400  1.0
  H  H568  1  0.688000  0.066200  0.823400  1.0
  H  H569  1  0.933800  0.312000  0.676600  1.0
  H  H570  1  0.188000  0.933800  0.676600  1.0
  H  H571  1  0.312000  0.566200  0.676600  1.0
  H  H572  1  0.812000  0.433800  0.823400  1.0
  H  H573  1  0.433800  0.812000  0.323400  1.0
  H  H574  1  0.933800  0.188000  0.176600  1.0
  H  H575  1  0.566200  0.312000  0.176600  1.0
  H  H576  1  0.312000  0.933800  0.176600  1.0
  H  H577  1  0.081200  0.648600  0.382900  1.0
  H  H578  1  0.851400  0.081200  0.382900  1.0
  H  H579  1  0.648600  0.418800  0.382900  1.0
  H  H580  1  0.148600  0.581200  0.117100  1.0
  H  H581  1  0.581200  0.148600  0.617100  1.0
  H  H582  1  0.081200  0.851400  0.882900  1.0
  H  H583  1  0.418800  0.648600  0.882900  1.0
  H  H584  1  0.648600  0.081200  0.882900  1.0
  H  H585  1  0.918800  0.351400  0.617100  1.0
  H  H586  1  0.148600  0.918800  0.617100  1.0
  H  H587  1  0.351400  0.581200  0.617100  1.0
  H  H588  1  0.851400  0.418800  0.882900  1.0
  H  H589  1  0.418800  0.851400  0.382900  1.0
  H  H590  1  0.918800  0.148600  0.117100  1.0
  H  H591  1  0.581200  0.351400  0.117100  1.0
  H  H592  1  0.351400  0.918800  0.117100  1.0
  C  C593  1  0.390700  0.467500  0.587300  1
  C  C594  1  0.032500  0.390700  0.587300  1
  C  C595  1  0.467500  0.109300  0.587300  1
  C  C596  1  0.967500  0.890700  0.912700  1
  C  C597  1  0.890700  0.967500  0.412700  1
  C  C598  1  0.390700  0.032500  0.087300  1
  C  C599  1  0.109300  0.467500  0.087300  1
  C  C600  1  0.467500  0.390700  0.087300  1
  C  C601  1  0.609300  0.532500  0.412700  1
  C  C602  1  0.967500  0.609300  0.412700  1
  C  C603  1  0.532500  0.890700  0.412700  1
  C  C604  1  0.032500  0.109300  0.087300  1
  C  C605  1  0.109300  0.032500  0.587300  1
  C  C606  1  0.609300  0.967500  0.912700  1
  C  C607  1  0.890700  0.532500  0.912700  1
  C  C608  1  0.532500  0.609300  0.912700  1
  C  C609  1  0.430400  0.480900  0.521400  1
  C  C610  1  0.019100  0.430400  0.521400  1
  C  C611  1  0.480900  0.069600  0.521400  1
  C  C612  1  0.980900  0.930400  0.978600  1
  C  C613  1  0.930400  0.980900  0.478600  1
  C  C614  1  0.430400  0.019100  0.021400  1
  C  C615  1  0.069600  0.480900  0.021400  1
  C  C616  1  0.480900  0.430400  0.021400  1
  C  C617  1  0.569600  0.519100  0.478600  1
  C  C618  1  0.980900  0.569600  0.478600  1
  C  C619  1  0.519100  0.930400  0.478600  1
  C  C620  1  0.019100  0.069600  0.021400  1
  C  C621  1  0.069600  0.019100  0.521400  1
  C  C622  1  0.569600  0.980900  0.978600  1
  C  C623  1  0.930400  0.519100  0.978600  1
  C  C624  1  0.519100  0.569600  0.978600  1
  C  C625  1  0.340800  0.490700  0.524000  1
  C  C626  1  0.009300  0.340800  0.524000  1
  C  C627  1  0.490700  0.159200  0.524000  1
  C  C628  1  0.990700  0.840800  0.976000  1
  C  C629  1  0.840800  0.990700  0.476000  1
  C  C630  1  0.340800  0.009300  0.024000  1
  C  C631  1  0.159200  0.490700  0.024000  1
  C  C632  1  0.490700  0.340800  0.024000  1
  C  C633  1  0.659200  0.509300  0.476000  1
  C  C634  1  0.990700  0.659200  0.476000  1
  C  C635  1  0.509300  0.840800  0.476000  1
  C  C636  1  0.009300  0.159200  0.024000  1
  C  C637  1  0.159200  0.009300  0.524000  1
  C  C638  1  0.659200  0.990700  0.976000  1
  C  C639  1  0.840800  0.509300  0.976000  1
  C  C640  1  0.509300  0.659200  0.976000  1
  C  C641  1  0.378400  0.408200  0.533000  1
  C  C642  1  0.091800  0.378400  0.533000  1
  C  C643  1  0.408200  0.121600  0.533000  1
  C  C644  1  0.908200  0.878400  0.967000  1
  C  C645  1  0.878400  0.908200  0.467000  1
  C  C646  1  0.378400  0.091800  0.033000  1
  C  C647  1  0.121600  0.408200  0.033000  1
  C  C648  1  0.408200  0.378400  0.033000  1
  C  C649  1  0.621600  0.591800  0.467000  1
  C  C650  1  0.908200  0.621600  0.467000  1
  C  C651  1  0.591800  0.878400  0.467000  1
  C  C652  1  0.091800  0.121600  0.033000  1
  C  C653  1  0.121600  0.091800  0.533000  1
  C  C654  1  0.621600  0.908200  0.967000  1
  C  C655  1  0.878400  0.591800  0.967000  1
  C  C656  1  0.591800  0.621600  0.967000  1
  C  C657  1  0.407500  0.471300  0.137800  1
  C  C658  1  0.028700  0.407500  0.137800  1
  C  C659  1  0.471300  0.092500  0.137800  1
  C  C660  1  0.971300  0.907500  0.362200  1
  C  C661  1  0.907500  0.971300  0.862200  1
  C  C662  1  0.407500  0.028700  0.637800  1
  C  C663  1  0.092500  0.471300  0.637800  1
  C  C664  1  0.471300  0.407500  0.637800  1
  C  C665  1  0.592500  0.528700  0.862200  1
  C  C666  1  0.971300  0.592500  0.862200  1
  C  C667  1  0.528700  0.907500  0.862200  1
  C  C668  1  0.028700  0.092500  0.637800  1
  C  C669  1  0.092500  0.028700  0.137800  1
  C  C670  1  0.592500  0.971300  0.362200  1
  C  C671  1  0.907500  0.528700  0.362200  1
  C  C672  1  0.528700  0.592500  0.362200  1
  C  C673  1  0.355900  0.470400  0.134800  1
  C  C674  1  0.029600  0.355900  0.134800  1
  C  C675  1  0.470400  0.144100  0.134800  1
  C  C676  1  0.970400  0.855900  0.365200  1
  C  C677  1  0.855900  0.970400  0.865200  1
  C  C678  1  0.355900  0.029600  0.634800  1
  C  C679  1  0.144100  0.470400  0.634800  1
  C  C680  1  0.470400  0.355900  0.634800  1
  C  C681  1  0.644100  0.529600  0.865200  1
  C  C682  1  0.970400  0.644100  0.865200  1
  C  C683  1  0.529600  0.855900  0.865200  1
  C  C684  1  0.029600  0.144100  0.634800  1
  C  C685  1  0.144100  0.029600  0.134800  1
  C  C686  1  0.644100  0.970400  0.365200  1
  C  C687  1  0.855900  0.529600  0.365200  1
  C  C688  1  0.529600  0.644100  0.365200  1
  C  C689  1  0.318000  0.431300  0.132800  1
  C  C690  1  0.068700  0.318000  0.132800  1
  C  C691  1  0.431300  0.182000  0.132800  1
  C  C692  1  0.931300  0.818000  0.367200  1
  C  C693  1  0.818000  0.931300  0.867200  1
  C  C694  1  0.318000  0.068700  0.632800  1
  C  C695  1  0.182000  0.431300  0.632800  1
  C  C696  1  0.431300  0.318000  0.632800  1
  C  C697  1  0.682000  0.568700  0.867200  1
  C  C698  1  0.931300  0.682000  0.867200  1
  C  C699  1  0.568700  0.818000  0.867200  1
  C  C700  1  0.068700  0.182000  0.632800  1
  C  C701  1  0.182000  0.068700  0.132800  1
  C  C702  1  0.682000  0.931300  0.367200  1
  C  C703  1  0.818000  0.568700  0.367200  1
  C  C704  1  0.568700  0.682000  0.367200  1
  C  C705  1  0.253000  0.450700  0.116700  1
  C  C706  1  0.049300  0.253000  0.116700  1
  C  C707  1  0.450700  0.247000  0.116700  1
  C  C708  1  0.950700  0.753000  0.383300  1
  C  C709  1  0.753000  0.950700  0.883300  1
  C  C710  1  0.253000  0.049300  0.616700  1
  C  C711  1  0.247000  0.450700  0.616700  1
  C  C712  1  0.450700  0.253000  0.616700  1
  C  C713  1  0.747000  0.549300  0.883300  1
  C  C714  1  0.950700  0.747000  0.883300  1
  C  C715  1  0.549300  0.753000  0.883300  1
  C  C716  1  0.049300  0.247000  0.616700  1
  C  C717  1  0.247000  0.049300  0.116700  1
  C  C718  1  0.747000  0.950700  0.383300  1
  C  C719  1  0.753000  0.549300  0.383300  1
  C  C720  1  0.549300  0.747000  0.383300  1
  C  C721  1  0.239900  0.783400  0.498500  1
  C  C722  1  0.716600  0.239900  0.498500  1
  C  C723  1  0.783400  0.260100  0.498500  1
  C  C724  1  0.283400  0.739900  0.001500  1
  C  C725  1  0.739900  0.283400  0.501500  1
  C  C726  1  0.239900  0.716600  0.998500  1
  C  C727  1  0.260100  0.783400  0.998500  1
  C  C728  1  0.783400  0.239900  0.998500  1
  C  C729  1  0.760100  0.216600  0.501500  1
  C  C730  1  0.283400  0.760100  0.501500  1
  C  C731  1  0.216600  0.739900  0.501500  1
  C  C732  1  0.716600  0.260100  0.998500  1
  C  C733  1  0.260100  0.716600  0.498500  1
  C  C734  1  0.760100  0.283400  0.001500  1
  C  C735  1  0.739900  0.216600  0.001500  1
  C  C736  1  0.216600  0.760100  0.001500  1
  C  C737  1  0.203500  0.816200  0.499200  1
  C  C738  1  0.683800  0.203500  0.499200  1
  C  C739  1  0.816200  0.296500  0.499200  1
  C  C740  1  0.316200  0.703500  0.000800  1
  C  C741  1  0.703500  0.316200  0.500800  1
  C  C742  1  0.203500  0.683800  0.999200  1
  C  C743  1  0.296500  0.816200  0.999200  1
  C  C744  1  0.816200  0.203500  0.999200  1
  C  C745  1  0.796500  0.183800  0.500800  1
  C  C746  1  0.316200  0.796500  0.500800  1
  C  C747  1  0.183800  0.703500  0.500800  1
  C  C748  1  0.683800  0.296500  0.999200  1
  C  C749  1  0.296500  0.683800  0.499200  1
  C  C750  1  0.796500  0.316200  0.000800  1
  C  C751  1  0.703500  0.183800  0.000800  1
  C  C752  1  0.183800  0.796500  0.000800  1
  C  C753  1  0.266000  0.837700  0.494400  1
  C  C754  1  0.662300  0.266000  0.494400  1
  C  C755  1  0.837700  0.234000  0.494400  1
  C  C756  1  0.337700  0.766000  0.005600  1
  C  C757  1  0.766000  0.337700  0.505600  1
  C  C758  1  0.266000  0.662300  0.994400  1
  C  C759  1  0.234000  0.837700  0.994400  1
  C  C760  1  0.837700  0.266000  0.994400  1
  C  C761  1  0.734000  0.162300  0.505600  1
  C  C762  1  0.337700  0.734000  0.505600  1
  C  C763  1  0.162300  0.766000  0.505600  1
  C  C764  1  0.662300  0.234000  0.994400  1
  C  C765  1  0.234000  0.662300  0.494400  1
  C  C766  1  0.734000  0.337700  0.005600  1
  C  C767  1  0.766000  0.162300  0.005600  1
  C  C768  1  0.162300  0.734000  0.005600  1
  C  C769  1  0.204300  0.895700  0.502300  1
  C  C770  1  0.604300  0.204300  0.502300  1
  C  C771  1  0.895700  0.295700  0.502300  1
  C  C772  1  0.395700  0.704300  0.997700  1
  C  C773  1  0.704300  0.395700  0.497700  1
  C  C774  1  0.204300  0.604300  0.002300  1
  C  C775  1  0.295700  0.895700  0.002300  1
  C  C776  1  0.895700  0.204300  0.002300  1
  C  C777  1  0.795700  0.104300  0.497700  1
  C  C778  1  0.395700  0.795700  0.497700  1
  C  C779  1  0.104300  0.704300  0.497700  1
  C  C780  1  0.604300  0.295700  0.002300  1
  C  C781  1  0.295700  0.604300  0.502300  1
  C  C782  1  0.795700  0.395700  0.997700  1
  C  C783  1  0.704300  0.104300  0.997700  1
  C  C784  1  0.104300  0.795700  0.997700  1
  C  C785  1  0.244200  0.911100  0.526300  1
  C  C786  1  0.588900  0.244200  0.526300  1
  C  C787  1  0.911100  0.255800  0.526300  1
  C  C788  1  0.411100  0.744200  0.973700  1
  C  C789  1  0.744200  0.411100  0.473700  1
  C  C790  1  0.244200  0.588900  0.026300  1
  C  C791  1  0.255800  0.911100  0.026300  1
  C  C792  1  0.911100  0.244200  0.026300  1
  C  C793  1  0.755800  0.088900  0.473700  1
  C  C794  1  0.411100  0.755800  0.473700  1
  C  C795  1  0.088900  0.744200  0.473700  1
  C  C796  1  0.588900  0.255800  0.026300  1
  C  C797  1  0.255800  0.588900  0.526300  1
  C  C798  1  0.755800  0.411100  0.973700  1
  C  C799  1  0.744200  0.088900  0.973700  1
  C  C800  1  0.088900  0.755800  0.973700  1
  C  C801  1  0.545000  0.520300  0.316000  1
  C  C802  1  0.979700  0.545000  0.316000  1
  C  C803  1  0.520300  0.955000  0.316000  1
  C  C804  1  0.020300  0.045000  0.184000  1
  C  C805  1  0.045000  0.020300  0.684000  1
  C  C806  1  0.545000  0.979700  0.816000  1
  C  C807  1  0.955000  0.520300  0.816000  1
  C  C808  1  0.520300  0.545000  0.816000  1
  C  C809  1  0.455000  0.479700  0.684000  1
  C  C810  1  0.020300  0.455000  0.684000  1
  C  C811  1  0.479700  0.045000  0.684000  1
  C  C812  1  0.979700  0.955000  0.816000  1
  C  C813  1  0.955000  0.979700  0.316000  1
  C  C814  1  0.455000  0.020300  0.184000  1
  C  C815  1  0.045000  0.479700  0.184000  1
  C  C816  1  0.479700  0.455000  0.184000  1
  C  C817  1  0.449000  0.495000  0.296100  1
  C  C818  1  0.005000  0.449000  0.296100  1
  C  C819  1  0.495000  0.051000  0.296100  1
  C  C820  1  0.995000  0.949000  0.203900  1
  C  C821  1  0.949000  0.995000  0.703900  1
  C  C822  1  0.449000  0.005000  0.796100  1
  C  C823  1  0.051000  0.495000  0.796100  1
  C  C824  1  0.495000  0.449000  0.796100  1
  C  C825  1  0.551000  0.505000  0.703900  1
  C  C826  1  0.995000  0.551000  0.703900  1
  C  C827  1  0.505000  0.949000  0.703900  1
  C  C828  1  0.005000  0.051000  0.796100  1
  C  C829  1  0.051000  0.005000  0.296100  1
  C  C830  1  0.551000  0.995000  0.203900  1
  C  C831  1  0.949000  0.505000  0.203900  1
  C  C832  1  0.505000  0.551000  0.203900  1
  C  C833  1  0.401100  0.454600  0.301400  1
  C  C834  1  0.045400  0.401100  0.301400  1
  C  C835  1  0.454600  0.098900  0.301400  1
  C  C836  1  0.954600  0.901100  0.198600  1
  C  C837  1  0.901100  0.954600  0.698600  1
  C  C838  1  0.401100  0.045400  0.801400  1
  C  C839  1  0.098900  0.454600  0.801400  1
  C  C840  1  0.454600  0.401100  0.801400  1
  C  C841  1  0.598900  0.545400  0.698600  1
  C  C842  1  0.954600  0.598900  0.698600  1
  C  C843  1  0.545400  0.901100  0.698600  1
  C  C844  1  0.045400  0.098900  0.801400  1
  C  C845  1  0.098900  0.045400  0.301400  1
  C  C846  1  0.598900  0.954600  0.198600  1
  C  C847  1  0.901100  0.545400  0.198600  1
  C  C848  1  0.545400  0.598900  0.198600  1
  C  C849  1  0.472900  0.420900  0.296800  1
  C  C850  1  0.079100  0.472900  0.296800  1
  C  C851  1  0.420900  0.027100  0.296800  1
  C  C852  1  0.920900  0.972900  0.203200  1
  C  C853  1  0.972900  0.920900  0.703200  1
  C  C854  1  0.472900  0.079100  0.796800  1
  C  C855  1  0.027100  0.420900  0.796800  1
  C  C856  1  0.420900  0.472900  0.796800  1
  C  C857  1  0.527100  0.579100  0.703200  1
  C  C858  1  0.920900  0.527100  0.703200  1
  C  C859  1  0.579100  0.972900  0.703200  1
  C  C860  1  0.079100  0.027100  0.796800  1
  C  C861  1  0.027100  0.079100  0.296800  1
  C  C862  1  0.527100  0.920900  0.203200  1
  C  C863  1  0.972900  0.579100  0.203200  1
  C  C864  1  0.579100  0.527100  0.203200  1
  C  C865  1  0.519500  0.484200  0.305300  1
  C  C866  1  0.015800  0.519500  0.305300  1
  C  C867  1  0.484200  0.980500  0.305300  1
  C  C868  1  0.984200  0.019500  0.194700  1
  C  C869  1  0.019500  0.984200  0.694700  1
  C  C870  1  0.519500  0.015800  0.805300  1
  C  C871  1  0.980500  0.484200  0.805300  1
  C  C872  1  0.484200  0.519500  0.805300  1
  C  C873  1  0.480500  0.515800  0.694700  1
  C  C874  1  0.984200  0.480500  0.694700  1
  C  C875  1  0.515800  0.019500  0.694700  1
  C  C876  1  0.015800  0.980500  0.805300  1
  C  C877  1  0.980500  0.015800  0.305300  1
  C  C878  1  0.480500  0.984200  0.194700  1
  C  C879  1  0.019500  0.515800  0.194700  1
  C  C880  1  0.515800  0.480500  0.194700  1
  C  C881  1  0.286200  0.350000  0.074900  1
  C  C882  1  0.150000  0.286200  0.074900  1
  C  C883  1  0.350000  0.213800  0.074900  1
  C  C884  1  0.850000  0.786200  0.425100  1
  C  C885  1  0.786200  0.850000  0.925100  1
  C  C886  1  0.286200  0.150000  0.574900  1
  C  C887  1  0.213800  0.350000  0.574900  1
  C  C888  1  0.350000  0.286200  0.574900  1
  C  C889  1  0.713800  0.650000  0.925100  1
  C  C890  1  0.850000  0.713800  0.925100  1
  C  C891  1  0.650000  0.786200  0.925100  1
  C  C892  1  0.150000  0.213800  0.574900  1
  C  C893  1  0.213800  0.150000  0.074900  1
  C  C894  1  0.713800  0.850000  0.425100  1
  C  C895  1  0.786200  0.650000  0.425100  1
  C  C896  1  0.650000  0.713800  0.425100  1
  C  C897  1  0.262700  0.366200  0.033800  1
  C  C898  1  0.133800  0.262700  0.033800  1
  C  C899  1  0.366200  0.237300  0.033800  1
  C  C900  1  0.866200  0.762700  0.466200  1
  C  C901  1  0.762700  0.866200  0.966200  1
  C  C902  1  0.262700  0.133800  0.533800  1
  C  C903  1  0.237300  0.366200  0.533800  1
  C  C904  1  0.366200  0.262700  0.533800  1
  C  C905  1  0.737300  0.633800  0.966200  1
  C  C906  1  0.866200  0.737300  0.966200  1
  C  C907  1  0.633800  0.762700  0.966200  1
  C  C908  1  0.133800  0.237300  0.533800  1
  C  C909  1  0.237300  0.133800  0.033800  1
  C  C910  1  0.737300  0.866200  0.466200  1
  C  C911  1  0.762700  0.633800  0.466200  1
  C  C912  1  0.633800  0.737300  0.466200  1
  C  C913  1  0.250000  0.795700  0.275600  1.0
  C  C914  1  0.704300  0.250000  0.275600  1.0
  C  C915  1  0.795700  0.250000  0.275600  1.0
  C  C916  1  0.295700  0.750000  0.224400  1.0
  C  C917  1  0.750000  0.295700  0.724400  1.0
  C  C918  1  0.250000  0.704300  0.775600  1.0
  C  C919  1  0.250000  0.795700  0.775600  1.0
  C  C920  1  0.795700  0.250000  0.775600  1.0
  C  C921  1  0.750000  0.204300  0.724400  1.0
  C  C922  1  0.295700  0.750000  0.724400  1.0
  C  C923  1  0.204300  0.750000  0.724400  1.0
  C  C924  1  0.704300  0.250000  0.775600  1.0
  C  C925  1  0.250000  0.704300  0.275600  1.0
  C  C926  1  0.750000  0.295700  0.224400  1.0
  C  C927  1  0.750000  0.204300  0.224400  1.0
  C  C928  1  0.204300  0.750000  0.224400  1.0
  C  C929  1  0.208800  0.375200  0.371000  1.0
  C  C930  1  0.124800  0.208800  0.371000  1.0
  C  C931  1  0.375200  0.291200  0.371000  1.0
  C  C932  1  0.875200  0.708800  0.129000  1.0
  C  C933  1  0.708800  0.875200  0.629000  1.0
  C  C934  1  0.208800  0.124800  0.871000  1.0
  C  C935  1  0.291200  0.375200  0.871000  1.0
  C  C936  1  0.375200  0.208800  0.871000  1.0
  C  C937  1  0.791200  0.624800  0.629000  1.0
  C  C938  1  0.875200  0.791200  0.629000  1.0
  C  C939  1  0.624800  0.708800  0.629000  1.0
  C  C940  1  0.124800  0.291200  0.871000  1.0
  C  C941  1  0.291200  0.124800  0.371000  1.0
  C  C942  1  0.791200  0.875200  0.129000  1.0
  C  C943  1  0.708800  0.624800  0.129000  1.0
  C  C944  1  0.624800  0.791200  0.129000  1.0
  C  C945  1  0.224400  0.410400  0.342200  1.0
  C  C946  1  0.089600  0.224400  0.342200  1.0
  C  C947  1  0.410400  0.275600  0.342200  1.0
  C  C948  1  0.910400  0.724400  0.157800  1.0
  C  C949  1  0.724400  0.910400  0.657800  1.0
  C  C950  1  0.224400  0.089600  0.842200  1.0
  C  C951  1  0.275600  0.410400  0.842200  1.0
  C  C952  1  0.410400  0.224400  0.842200  1.0
  C  C953  1  0.775600  0.589600  0.657800  1.0
  C  C954  1  0.910400  0.775600  0.657800  1.0
  C  C955  1  0.589600  0.724400  0.657800  1.0
  C  C956  1  0.089600  0.275600  0.842200  1.0
  C  C957  1  0.275600  0.089600  0.342200  1.0
  C  C958  1  0.775600  0.910400  0.157800  1.0
  C  C959  1  0.724400  0.589600  0.157800  1.0
  C  C960  1  0.589600  0.775600  0.157800  1.0
  C  C961  1  0.214000  0.407600  0.302100  1.0
  C  C962  1  0.092400  0.214000  0.302100  1.0
  C  C963  1  0.407600  0.286000  0.302100  1.0
  C  C964  1  0.907600  0.714000  0.197900  1.0
  C  C965  1  0.714000  0.907600  0.697900  1.0
  C  C966  1  0.214000  0.092400  0.802100  1.0
  C  C967  1  0.286000  0.407600  0.802100  1.0
  C  C968  1  0.407600  0.214000  0.802100  1.0
  C  C969  1  0.786000  0.592400  0.697900  1.0
  C  C970  1  0.907600  0.786000  0.697900  1.0
  C  C971  1  0.592400  0.714000  0.697900  1.0
  C  C972  1  0.092400  0.286000  0.802100  1.0
  C  C973  1  0.286000  0.092400  0.302100  1.0
  C  C974  1  0.786000  0.907600  0.197900  1.0
  C  C975  1  0.714000  0.592400  0.197900  1.0
  C  C976  1  0.592400  0.786000  0.197900  1.0
  C  C977  1  0.187100  0.362800  0.289400  1.0
  C  C978  1  0.137200  0.187100  0.289400  1.0
  C  C979  1  0.362800  0.312900  0.289400  1.0
  C  C980  1  0.862800  0.687100  0.210600  1.0
  C  C981  1  0.687100  0.862800  0.710600  1.0
  C  C982  1  0.187100  0.137200  0.789400  1.0
  C  C983  1  0.312900  0.362800  0.789400  1.0
  C  C984  1  0.362800  0.187100  0.789400  1.0
  C  C985  1  0.812900  0.637200  0.710600  1.0
  C  C986  1  0.862800  0.812900  0.710600  1.0
  C  C987  1  0.637200  0.687100  0.710600  1.0
  C  C988  1  0.137200  0.312900  0.789400  1.0
  C  C989  1  0.312900  0.137200  0.289400  1.0
  C  C990  1  0.812900  0.862800  0.210600  1.0
  C  C991  1  0.687100  0.637200  0.210600  1.0
  C  C992  1  0.637200  0.812900  0.210600  1.0
  C  C993  1  0.171100  0.327200  0.317200  1.0
  C  C994  1  0.172800  0.171100  0.317200  1.0
  C  C995  1  0.327200  0.328900  0.317200  1.0
  C  C996  1  0.827200  0.671100  0.182800  1.0
  C  C997  1  0.671100  0.827200  0.682800  1.0
  C  C998  1  0.171100  0.172800  0.817200  1.0
  C  C999  1  0.328900  0.327200  0.817200  1.0
  C  C1000  1  0.327200  0.171100  0.817200  1.0
  C  C1001  1  0.828900  0.672800  0.682800  1.0
  C  C1002  1  0.827200  0.828900  0.682800  1.0
  C  C1003  1  0.672800  0.671100  0.682800  1.0
  C  C1004  1  0.172800  0.328900  0.817200  1.0
  C  C1005  1  0.328900  0.172800  0.317200  1.0
  C  C1006  1  0.828900  0.827200  0.182800  1.0
  C  C1007  1  0.671100  0.672800  0.182800  1.0
  C  C1008  1  0.672800  0.828900  0.182800  1.0
  C  C1009  1  0.182100  0.333200  0.357500  1.0
  C  C1010  1  0.166800  0.182100  0.357500  1.0
  C  C1011  1  0.333200  0.317900  0.357500  1.0
  C  C1012  1  0.833200  0.682100  0.142500  1.0
  C  C1013  1  0.682100  0.833200  0.642500  1.0
  C  C1014  1  0.182100  0.166800  0.857500  1.0
  C  C1015  1  0.317900  0.333200  0.857500  1.0
  C  C1016  1  0.333200  0.182100  0.857500  1.0
  C  C1017  1  0.817900  0.666800  0.642500  1.0
  C  C1018  1  0.833200  0.817900  0.642500  1.0
  C  C1019  1  0.666800  0.682100  0.642500  1.0
  C  C1020  1  0.166800  0.317900  0.857500  1.0
  C  C1021  1  0.317900  0.166800  0.357500  1.0
  C  C1022  1  0.817900  0.833200  0.142500  1.0
  C  C1023  1  0.682100  0.666800  0.142500  1.0
  C  C1024  1  0.666800  0.817900  0.142500  1.0
  C  C1025  1  0.229600  0.447900  0.274100  1.0
  C  C1026  1  0.052100  0.229600  0.274100  1.0
  C  C1027  1  0.447900  0.270400  0.274100  1.0
  C  C1028  1  0.947900  0.729600  0.225900  1.0
  C  C1029  1  0.729600  0.947900  0.725900  1.0
  C  C1030  1  0.229600  0.052100  0.774100  1.0
  C  C1031  1  0.270400  0.447900  0.774100  1.0
  C  C1032  1  0.447900  0.229600  0.774100  1.0
  C  C1033  1  0.770400  0.552100  0.725900  1.0
  C  C1034  1  0.947900  0.770400  0.725900  1.0
  C  C1035  1  0.552100  0.729600  0.725900  1.0
  C  C1036  1  0.052100  0.270400  0.774100  1.0
  C  C1037  1  0.270400  0.052100  0.274100  1.0
  C  C1038  1  0.770400  0.947900  0.225900  1.0
  C  C1039  1  0.729600  0.552100  0.225900  1.0
  C  C1040  1  0.552100  0.770400  0.225900  1.0
  C  C1041  1  0.284100  0.520100  0.265200  1.0
  C  C1042  1  0.979900  0.284100  0.265200  1.0
  C  C1043  1  0.520100  0.215900  0.265200  1.0
  C  C1044  1  0.020100  0.784100  0.234800  1.0
  C  C1045  1  0.784100  0.020100  0.734800  1.0
  C  C1046  1  0.284100  0.979900  0.765200  1.0
  C  C1047  1  0.215900  0.520100  0.765200  1.0
  C  C1048  1  0.520100  0.284100  0.765200  1.0
  C  C1049  1  0.715900  0.479900  0.734800  1.0
  C  C1050  1  0.020100  0.715900  0.734800  1.0
  C  C1051  1  0.479900  0.784100  0.734800  1.0
  C  C1052  1  0.979900  0.215900  0.765200  1.0
  C  C1053  1  0.215900  0.979900  0.265200  1.0
  C  C1054  1  0.715900  0.020100  0.234800  1.0
  C  C1055  1  0.784100  0.479900  0.234800  1.0
  C  C1056  1  0.479900  0.715900  0.234800  1.0
  C  C1057  1  0.284800  0.521600  0.223300  1.0
  C  C1058  1  0.978400  0.284800  0.223300  1.0
  C  C1059  1  0.521600  0.215200  0.223300  1.0
  C  C1060  1  0.021600  0.784800  0.276700  1.0
  C  C1061  1  0.784800  0.021600  0.776700  1.0
  C  C1062  1  0.284800  0.978400  0.723300  1.0
  C  C1063  1  0.215200  0.521600  0.723300  1.0
  C  C1064  1  0.521600  0.284800  0.723300  1.0
  C  C1065  1  0.715200  0.478400  0.776700  1.0
  C  C1066  1  0.021600  0.715200  0.776700  1.0
  C  C1067  1  0.478400  0.784800  0.776700  1.0
  C  C1068  1  0.978400  0.215200  0.723300  1.0
  C  C1069  1  0.215200  0.978400  0.223300  1.0
  C  C1070  1  0.715200  0.021600  0.276700  1.0
  C  C1071  1  0.784800  0.478400  0.276700  1.0
  C  C1072  1  0.478400  0.715200  0.276700  1.0
  C  C1073  1  0.312900  0.558600  0.204600  1.0
  C  C1074  1  0.941400  0.312900  0.204600  1.0
  C  C1075  1  0.558600  0.187100  0.204600  1.0
  C  C1076  1  0.058600  0.812900  0.295400  1.0
  C  C1077  1  0.812900  0.058600  0.795400  1.0
  C  C1078  1  0.312900  0.941400  0.704600  1.0
  C  C1079  1  0.187100  0.558600  0.704600  1.0
  C  C1080  1  0.558600  0.312900  0.704600  1.0
  C  C1081  1  0.687100  0.441400  0.795400  1.0
  C  C1082  1  0.058600  0.687100  0.795400  1.0
  C  C1083  1  0.441400  0.812900  0.795400  1.0
  C  C1084  1  0.941400  0.187100  0.704600  1.0
  C  C1085  1  0.187100  0.941400  0.204600  1.0
  C  C1086  1  0.687100  0.058600  0.295400  1.0
  C  C1087  1  0.812900  0.441400  0.295400  1.0
  C  C1088  1  0.441400  0.687100  0.295400  1.0
  C  C1089  1  0.342800  0.592500  0.228000  1.0
  C  C1090  1  0.907500  0.342800  0.228000  1.0
  C  C1091  1  0.592500  0.157200  0.228000  1.0
  C  C1092  1  0.092500  0.842800  0.272000  1.0
  C  C1093  1  0.842800  0.092500  0.772000  1.0
  C  C1094  1  0.342800  0.907500  0.728000  1.0
  C  C1095  1  0.157200  0.592500  0.728000  1.0
  C  C1096  1  0.592500  0.342800  0.728000  1.0
  C  C1097  1  0.657200  0.407500  0.772000  1.0
  C  C1098  1  0.092500  0.657200  0.772000  1.0
  C  C1099  1  0.407500  0.842800  0.772000  1.0
  C  C1100  1  0.907500  0.157200  0.728000  1.0
  C  C1101  1  0.157200  0.907500  0.228000  1.0
  C  C1102  1  0.657200  0.092500  0.272000  1.0
  C  C1103  1  0.842800  0.407500  0.272000  1.0
  C  C1104  1  0.407500  0.657200  0.272000  1.0
  C  C1105  1  0.341400  0.592000  0.270900  1.0
  C  C1106  1  0.908000  0.341400  0.270900  1.0
  C  C1107  1  0.592000  0.158600  0.270900  1.0
  C  C1108  1  0.092000  0.841400  0.229100  1.0
  C  C1109  1  0.841400  0.092000  0.729100  1.0
  C  C1110  1  0.341400  0.908000  0.770900  1.0
  C  C1111  1  0.158600  0.592000  0.770900  1.0
  C  C1112  1  0.592000  0.341400  0.770900  1.0
  C  C1113  1  0.658600  0.408000  0.729100  1.0
  C  C1114  1  0.092000  0.658600  0.729100  1.0
  C  C1115  1  0.408000  0.841400  0.729100  1.0
  C  C1116  1  0.908000  0.158600  0.770900  1.0
  C  C1117  1  0.158600  0.908000  0.270900  1.0
  C  C1118  1  0.658600  0.092000  0.229100  1.0
  C  C1119  1  0.841400  0.408000  0.229100  1.0
  C  C1120  1  0.408000  0.658600  0.229100  1.0
  C  C1121  1  0.310200  0.554200  0.286600  1.0
  C  C1122  1  0.945800  0.310200  0.286600  1.0
  C  C1123  1  0.554200  0.189800  0.286600  1.0
  C  C1124  1  0.054200  0.810200  0.213400  1.0
  C  C1125  1  0.810200  0.054200  0.713400  1.0
  C  C1126  1  0.310200  0.945800  0.786600  1.0
  C  C1127  1  0.189800  0.554200  0.786600  1.0
  C  C1128  1  0.554200  0.310200  0.786600  1.0
  C  C1129  1  0.689800  0.445800  0.713400  1.0
  C  C1130  1  0.054200  0.689800  0.713400  1.0
  C  C1131  1  0.445800  0.810200  0.713400  1.0
  C  C1132  1  0.945800  0.189800  0.786600  1.0
  C  C1133  1  0.189800  0.945800  0.286600  1.0
  C  C1134  1  0.689800  0.054200  0.213400  1.0
  C  C1135  1  0.810200  0.445800  0.213400  1.0
  C  C1136  1  0.445800  0.689800  0.213400  1.0
  C  C1137  1  0.376300  0.629000  0.207700  1.0
  C  C1138  1  0.871000  0.376300  0.207700  1.0
  C  C1139  1  0.629000  0.123700  0.207700  1.0
  C  C1140  1  0.129000  0.876300  0.292300  1.0
  C  C1141  1  0.876300  0.129000  0.792300  1.0
  C  C1142  1  0.376300  0.871000  0.707700  1.0
  C  C1143  1  0.123700  0.629000  0.707700  1.0
  C  C1144  1  0.629000  0.376300  0.707700  1.0
  C  C1145  1  0.623700  0.371000  0.792300  1.0
  C  C1146  1  0.129000  0.623700  0.792300  1.0
  C  C1147  1  0.371000  0.876300  0.792300  1.0
  C  C1148  1  0.871000  0.123700  0.707700  1.0
  C  C1149  1  0.123700  0.871000  0.207700  1.0
  C  C1150  1  0.623700  0.129000  0.292300  1.0
  C  C1151  1  0.876300  0.371000  0.292300  1.0
  C  C1152  1  0.371000  0.623700  0.292300  1.0
  C  C1153  1  0.363400  0.432100  0.419700  1.0
  C  C1154  1  0.067900  0.363400  0.419700  1.0
  C  C1155  1  0.432100  0.136600  0.419700  1.0
  C  C1156  1  0.932100  0.863400  0.080300  1.0
  C  C1157  1  0.863400  0.932100  0.580300  1.0
  C  C1158  1  0.363400  0.067900  0.919700  1.0
  C  C1159  1  0.136600  0.432100  0.919700  1.0
  C  C1160  1  0.432100  0.363400  0.919700  1.0
  C  C1161  1  0.636600  0.567900  0.580300  1.0
  C  C1162  1  0.932100  0.636600  0.580300  1.0
  C  C1163  1  0.567900  0.863400  0.580300  1.0
  C  C1164  1  0.067900  0.136600  0.919700  1.0
  C  C1165  1  0.136600  0.067900  0.419700  1.0
  C  C1166  1  0.636600  0.932100  0.080300  1.0
  C  C1167  1  0.863400  0.567900  0.080300  1.0
  C  C1168  1  0.567900  0.636600  0.080300  1.0
  C  C1169  1  0.359900  0.483400  0.411900  1.0
  C  C1170  1  0.016600  0.359900  0.411900  1.0
  C  C1171  1  0.483400  0.140100  0.411900  1.0
  C  C1172  1  0.983400  0.859900  0.088100  1.0
  C  C1173  1  0.859900  0.983400  0.588100  1.0
  C  C1174  1  0.359900  0.016600  0.911900  1.0
  C  C1175  1  0.140100  0.483400  0.911900  1.0
  C  C1176  1  0.483400  0.359900  0.911900  1.0
  C  C1177  1  0.640100  0.516600  0.588100  1.0
  C  C1178  1  0.983400  0.640100  0.588100  1.0
  C  C1179  1  0.516600  0.859900  0.588100  1.0
  C  C1180  1  0.016600  0.140100  0.911900  1.0
  C  C1181  1  0.140100  0.016600  0.411900  1.0
  C  C1182  1  0.640100  0.983400  0.088100  1.0
  C  C1183  1  0.859900  0.516600  0.088100  1.0
  C  C1184  1  0.516600  0.640100  0.088100  1.0
  C  C1185  1  0.399900  0.513100  0.404400  1.0
  C  C1186  1  0.986900  0.399900  0.404400  1.0
  C  C1187  1  0.513100  0.100100  0.404400  1.0
  C  C1188  1  0.013100  0.899900  0.095600  1.0
  C  C1189  1  0.899900  0.013100  0.595600  1.0
  C  C1190  1  0.399900  0.986900  0.904400  1.0
  C  C1191  1  0.100100  0.513100  0.904400  1.0
  C  C1192  1  0.513100  0.399900  0.904400  1.0
  C  C1193  1  0.600100  0.486900  0.595600  1.0
  C  C1194  1  0.013100  0.600100  0.595600  1.0
  C  C1195  1  0.486900  0.899900  0.595600  1.0
  C  C1196  1  0.986900  0.100100  0.904400  1.0
  C  C1197  1  0.100100  0.986900  0.404400  1.0
  C  C1198  1  0.600100  0.013100  0.095600  1.0
  C  C1199  1  0.899900  0.486900  0.095600  1.0
  C  C1200  1  0.486900  0.600100  0.095600  1.0
  C  C1201  1  0.447800  0.491800  0.405100  1.0
  C  C1202  1  0.008200  0.447800  0.405100  1.0
  C  C1203  1  0.491800  0.052200  0.405100  1.0
  C  C1204  1  0.991800  0.947800  0.094900  1.0
  C  C1205  1  0.947800  0.991800  0.594900  1.0
  C  C1206  1  0.447800  0.008200  0.905100  1.0
  C  C1207  1  0.052200  0.491800  0.905100  1.0
  C  C1208  1  0.491800  0.447800  0.905100  1.0
  C  C1209  1  0.552200  0.508200  0.594900  1.0
  C  C1210  1  0.991800  0.552200  0.594900  1.0
  C  C1211  1  0.508200  0.947800  0.594900  1.0
  C  C1212  1  0.008200  0.052200  0.905100  1.0
  C  C1213  1  0.052200  0.008200  0.405100  1.0
  C  C1214  1  0.552200  0.991800  0.094900  1.0
  C  C1215  1  0.947800  0.508200  0.094900  1.0
  C  C1216  1  0.508200  0.552200  0.094900  1.0
  C  C1217  1  0.451700  0.441200  0.413600  1.0
  C  C1218  1  0.058800  0.451700  0.413600  1.0
  C  C1219  1  0.441200  0.048300  0.413600  1.0
  C  C1220  1  0.941200  0.951700  0.086400  1.0
  C  C1221  1  0.951700  0.941200  0.586400  1.0
  C  C1222  1  0.451700  0.058800  0.913600  1.0
  C  C1223  1  0.048300  0.441200  0.913600  1.0
  C  C1224  1  0.441200  0.451700  0.913600  1.0
  C  C1225  1  0.548300  0.558800  0.586400  1.0
  C  C1226  1  0.941200  0.548300  0.586400  1.0
  C  C1227  1  0.558800  0.951700  0.586400  1.0
  C  C1228  1  0.058800  0.048300  0.913600  1.0
  C  C1229  1  0.048300  0.058800  0.413600  1.0
  C  C1230  1  0.548300  0.941200  0.086400  1.0
  C  C1231  1  0.951700  0.558800  0.086400  1.0
  C  C1232  1  0.558800  0.548300  0.086400  1.0
  C  C1233  1  0.411600  0.411600  0.421100  1.0
  C  C1234  1  0.088400  0.411600  0.421100  1.0
  C  C1235  1  0.411600  0.088400  0.421100  1.0
  C  C1236  1  0.911600  0.911600  0.078900  1.0
  C  C1237  1  0.911600  0.911600  0.578900  1.0
  C  C1238  1  0.411600  0.088400  0.921100  1.0
  C  C1239  1  0.088400  0.411600  0.921100  1.0
  C  C1240  1  0.411600  0.411600  0.921100  1.0
  C  C1241  1  0.588400  0.588400  0.578900  1.0
  C  C1242  1  0.911600  0.588400  0.578900  1.0
  C  C1243  1  0.588400  0.911600  0.578900  1.0
  C  C1244  1  0.088400  0.088400  0.921100  1.0
  C  C1245  1  0.088400  0.088400  0.421100  1.0
  C  C1246  1  0.588400  0.911600  0.078900  1.0
  C  C1247  1  0.911600  0.588400  0.078900  1.0
  C  C1248  1  0.588400  0.588400  0.078900  1.0
  C  C1249  1  0.398300  0.567000  0.396500  1.0
  C  C1250  1  0.933000  0.398300  0.396500  1.0
  C  C1251  1  0.567000  0.101700  0.396500  1.0
  C  C1252  1  0.067000  0.898300  0.103500  1.0
  C  C1253  1  0.898300  0.067000  0.603500  1.0
  C  C1254  1  0.398300  0.933000  0.896500  1.0
  C  C1255  1  0.101700  0.567000  0.896500  1.0
  C  C1256  1  0.567000  0.398300  0.896500  1.0
  C  C1257  1  0.601700  0.433000  0.603500  1.0
  C  C1258  1  0.067000  0.601700  0.603500  1.0
  C  C1259  1  0.433000  0.898300  0.603500  1.0
  C  C1260  1  0.933000  0.101700  0.896500  1.0
  C  C1261  1  0.101700  0.933000  0.396500  1.0
  C  C1262  1  0.601700  0.067000  0.103500  1.0
  C  C1263  1  0.898300  0.433000  0.103500  1.0
  C  C1264  1  0.433000  0.601700  0.103500  1.0
  C  C1265  1  0.335700  0.641200  0.393800  1.0
  C  C1266  1  0.858800  0.335700  0.393800  1.0
  C  C1267  1  0.641200  0.164300  0.393800  1.0
  C  C1268  1  0.141200  0.835700  0.106200  1.0
  C  C1269  1  0.835700  0.141200  0.606200  1.0
  C  C1270  1  0.335700  0.858800  0.893800  1.0
  C  C1271  1  0.164300  0.641200  0.893800  1.0
  C  C1272  1  0.641200  0.335700  0.893800  1.0
  C  C1273  1  0.664300  0.358800  0.606200  1.0
  C  C1274  1  0.141200  0.664300  0.606200  1.0
  C  C1275  1  0.358800  0.835700  0.606200  1.0
  C  C1276  1  0.858800  0.164300  0.893800  1.0
  C  C1277  1  0.164300  0.858800  0.393800  1.0
  C  C1278  1  0.664300  0.141200  0.106200  1.0
  C  C1279  1  0.835700  0.358800  0.106200  1.0
  C  C1280  1  0.358800  0.664300  0.106200  1.0
  C  C1281  1  0.288000  0.649700  0.390100  1.0
  C  C1282  1  0.850300  0.288000  0.390100  1.0
  C  C1283  1  0.649700  0.212000  0.390100  1.0
  C  C1284  1  0.149700  0.788000  0.109900  1.0
  C  C1285  1  0.788000  0.149700  0.609900  1.0
  C  C1286  1  0.288000  0.850300  0.890100  1.0
  C  C1287  1  0.212000  0.649700  0.890100  1.0
  C  C1288  1  0.649700  0.288000  0.890100  1.0
  C  C1289  1  0.712000  0.350300  0.609900  1.0
  C  C1290  1  0.149700  0.712000  0.609900  1.0
  C  C1291  1  0.350300  0.788000  0.609900  1.0
  C  C1292  1  0.850300  0.212000  0.890100  1.0
  C  C1293  1  0.212000  0.850300  0.390100  1.0
  C  C1294  1  0.712000  0.149700  0.109900  1.0
  C  C1295  1  0.788000  0.350300  0.109900  1.0
  C  C1296  1  0.350300  0.712000  0.109900  1.0
  C  C1297  1  0.266100  0.700800  0.388700  1.0
  C  C1298  1  0.799200  0.266100  0.388700  1.0
  C  C1299  1  0.700800  0.233900  0.388700  1.0
  C  C1300  1  0.200800  0.766100  0.111300  1.0
  C  C1301  1  0.766100  0.200800  0.611300  1.0
  C  C1302  1  0.266100  0.799200  0.888700  1.0
  C  C1303  1  0.233900  0.700800  0.888700  1.0
  C  C1304  1  0.700800  0.266100  0.888700  1.0
  C  C1305  1  0.733900  0.299200  0.611300  1.0
  C  C1306  1  0.200800  0.733900  0.611300  1.0
  C  C1307  1  0.299200  0.766100  0.611300  1.0
  C  C1308  1  0.799200  0.233900  0.888700  1.0
  C  C1309  1  0.233900  0.799200  0.388700  1.0
  C  C1310  1  0.733900  0.200800  0.111300  1.0
  C  C1311  1  0.766100  0.299200  0.111300  1.0
  C  C1312  1  0.299200  0.733900  0.111300  1.0
  C  C1313  1  0.216000  0.709500  0.388900  1.0
  C  C1314  1  0.790500  0.216000  0.388900  1.0
  C  C1315  1  0.709500  0.284000  0.388900  1.0
  C  C1316  1  0.209500  0.716000  0.111100  1.0
  C  C1317  1  0.716000  0.209500  0.611100  1.0
  C  C1318  1  0.216000  0.790500  0.888900  1.0
  C  C1319  1  0.284000  0.709500  0.888900  1.0
  C  C1320  1  0.709500  0.216000  0.888900  1.0
  C  C1321  1  0.784000  0.290500  0.611100  1.0
  C  C1322  1  0.209500  0.784000  0.611100  1.0
  C  C1323  1  0.290500  0.716000  0.611100  1.0
  C  C1324  1  0.790500  0.284000  0.888900  1.0
  C  C1325  1  0.284000  0.790500  0.388900  1.0
  C  C1326  1  0.784000  0.209500  0.111100  1.0
  C  C1327  1  0.716000  0.290500  0.111100  1.0
  C  C1328  1  0.290500  0.784000  0.111100  1.0
  C  C1329  1  0.300500  0.739500  0.388000  1.0
  C  C1330  1  0.760500  0.300500  0.388000  1.0
  C  C1331  1  0.739500  0.199500  0.388000  1.0
  C  C1332  1  0.239500  0.800500  0.112000  1.0
  C  C1333  1  0.800500  0.239500  0.612000  1.0
  C  C1334  1  0.300500  0.760500  0.888000  1.0
  C  C1335  1  0.199500  0.739500  0.888000  1.0
  C  C1336  1  0.739500  0.300500  0.888000  1.0
  C  C1337  1  0.699500  0.260500  0.612000  1.0
  C  C1338  1  0.239500  0.699500  0.612000  1.0
  C  C1339  1  0.260500  0.800500  0.612000  1.0
  C  C1340  1  0.760500  0.199500  0.888000  1.0
  C  C1341  1  0.199500  0.760500  0.388000  1.0
  C  C1342  1  0.699500  0.239500  0.112000  1.0
  C  C1343  1  0.800500  0.260500  0.112000  1.0
  C  C1344  1  0.260500  0.699500  0.112000  1.0
  C  C1345  1  0.351900  0.727100  0.390800  1.0
  C  C1346  1  0.772900  0.351900  0.390800  1.0
  C  C1347  1  0.727100  0.148100  0.390800  1.0
  C  C1348  1  0.227100  0.851900  0.109200  1.0
  C  C1349  1  0.851900  0.227100  0.609200  1.0
  C  C1350  1  0.351900  0.772900  0.890800  1.0
  C  C1351  1  0.148100  0.727100  0.890800  1.0
  C  C1352  1  0.727100  0.351900  0.890800  1.0
  C  C1353  1  0.648100  0.272900  0.609200  1.0
  C  C1354  1  0.227100  0.648100  0.609200  1.0
  C  C1355  1  0.272900  0.851900  0.609200  1.0
  C  C1356  1  0.772900  0.148100  0.890800  1.0
  C  C1357  1  0.148100  0.772900  0.390800  1.0
  C  C1358  1  0.648100  0.227100  0.109200  1.0
  C  C1359  1  0.851900  0.272900  0.109200  1.0
  C  C1360  1  0.272900  0.648100  0.109200  1.0
  C  C1361  1  0.370500  0.678800  0.392900  1.0
  C  C1362  1  0.821200  0.370500  0.392900  1.0
  C  C1363  1  0.678800  0.129500  0.392900  1.0
  C  C1364  1  0.178800  0.870500  0.107100  1.0
  C  C1365  1  0.870500  0.178800  0.607100  1.0
  C  C1366  1  0.370500  0.821200  0.892900  1.0
  C  C1367  1  0.129500  0.678800  0.892900  1.0
  C  C1368  1  0.678800  0.370500  0.892900  1.0
  C  C1369  1  0.629500  0.321200  0.607100  1.0
  C  C1370  1  0.178800  0.629500  0.607100  1.0
  C  C1371  1  0.321200  0.870500  0.607100  1.0
  C  C1372  1  0.821200  0.129500  0.892900  1.0
  C  C1373  1  0.129500  0.821200  0.392900  1.0
  C  C1374  1  0.629500  0.178800  0.107100  1.0
  C  C1375  1  0.870500  0.321200  0.107100  1.0
  C  C1376  1  0.321200  0.629500  0.107100  1.0
  C  C1377  1  0.205900  0.475700  0.483700  1.0
  C  C1378  1  0.024300  0.205900  0.483700  1.0
  C  C1379  1  0.475700  0.294100  0.483700  1.0
  C  C1380  1  0.975700  0.705900  0.016300  1.0
  C  C1381  1  0.705900  0.975700  0.516300  1.0
  C  C1382  1  0.205900  0.024300  0.983700  1.0
  C  C1383  1  0.294100  0.475700  0.983700  1.0
  C  C1384  1  0.475700  0.205900  0.983700  1.0
  C  C1385  1  0.794100  0.524300  0.516300  1.0
  C  C1386  1  0.975700  0.794100  0.516300  1.0
  C  C1387  1  0.524300  0.705900  0.516300  1.0
  C  C1388  1  0.024300  0.294100  0.983700  1.0
  C  C1389  1  0.294100  0.024300  0.483700  1.0
  C  C1390  1  0.794100  0.975700  0.016300  1.0
  C  C1391  1  0.705900  0.524300  0.016300  1.0
  C  C1392  1  0.524300  0.794100  0.016300  1.0
  C  C1393  1  0.186500  0.507900  0.452500  1.0
  C  C1394  1  0.992100  0.186500  0.452500  1.0
  C  C1395  1  0.507900  0.313500  0.452500  1.0
  C  C1396  1  0.007900  0.686500  0.047500  1.0
  C  C1397  1  0.686500  0.007900  0.547500  1.0
  C  C1398  1  0.186500  0.992100  0.952500  1.0
  C  C1399  1  0.313500  0.507900  0.952500  1.0
  C  C1400  1  0.507900  0.186500  0.952500  1.0
  C  C1401  1  0.813500  0.492100  0.547500  1.0
  C  C1402  1  0.007900  0.813500  0.547500  1.0
  C  C1403  1  0.492100  0.686500  0.547500  1.0
  C  C1404  1  0.992100  0.313500  0.952500  1.0
  C  C1405  1  0.313500  0.992100  0.452500  1.0
  C  C1406  1  0.813500  0.007900  0.047500  1.0
  C  C1407  1  0.686500  0.492100  0.047500  1.0
  C  C1408  1  0.492100  0.813500  0.047500  1.0
  C  C1409  1  0.147700  0.543600  0.460200  1.0
  C  C1410  1  0.956400  0.147700  0.460200  1.0
  C  C1411  1  0.543600  0.352300  0.460200  1.0
  C  C1412  1  0.043600  0.647700  0.039800  1.0
  C  C1413  1  0.647700  0.043600  0.539800  1.0
  C  C1414  1  0.147700  0.956400  0.960200  1.0
  C  C1415  1  0.352300  0.543600  0.960200  1.0
  C  C1416  1  0.543600  0.147700  0.960200  1.0
  C  C1417  1  0.852300  0.456400  0.539800  1.0
  C  C1418  1  0.043600  0.852300  0.539800  1.0
  C  C1419  1  0.456400  0.647700  0.539800  1.0
  C  C1420  1  0.956400  0.352300  0.960200  1.0
  C  C1421  1  0.352300  0.956400  0.460200  1.0
  C  C1422  1  0.852300  0.043600  0.039800  1.0
  C  C1423  1  0.647700  0.456400  0.039800  1.0
  C  C1424  1  0.456400  0.852300  0.039800  1.0
  C  C1425  1  0.129000  0.547100  0.500600  1.0
  C  C1426  1  0.952900  0.129000  0.500600  1.0
  C  C1427  1  0.547100  0.371000  0.500600  1.0
  C  C1428  1  0.047100  0.629000  0.999400  1.0
  C  C1429  1  0.629000  0.047100  0.499400  1.0
  C  C1430  1  0.129000  0.952900  0.000600  1.0
  C  C1431  1  0.371000  0.547100  0.000600  1.0
  C  C1432  1  0.547100  0.129000  0.000600  1.0
  C  C1433  1  0.871000  0.452900  0.499400  1.0
  C  C1434  1  0.047100  0.871000  0.499400  1.0
  C  C1435  1  0.452900  0.629000  0.499400  1.0
  C  C1436  1  0.952900  0.371000  0.000600  1.0
  C  C1437  1  0.371000  0.952900  0.500600  1.0
  C  C1438  1  0.871000  0.047100  0.999400  1.0
  C  C1439  1  0.629000  0.452900  0.999400  1.0
  C  C1440  1  0.452900  0.871000  0.999400  1.0
  C  C1441  1  0.147400  0.518800  0.530500  1.0
  C  C1442  1  0.981200  0.147400  0.530500  1.0
  C  C1443  1  0.518800  0.352600  0.530500  1.0
  C  C1444  1  0.018800  0.647400  0.969500  1.0
  C  C1445  1  0.647400  0.018800  0.469500  1.0
  C  C1446  1  0.147400  0.981200  0.030500  1.0
  C  C1447  1  0.352600  0.518800  0.030500  1.0
  C  C1448  1  0.518800  0.147400  0.030500  1.0
  C  C1449  1  0.852600  0.481200  0.469500  1.0
  C  C1450  1  0.018800  0.852600  0.469500  1.0
  C  C1451  1  0.481200  0.647400  0.469500  1.0
  C  C1452  1  0.981200  0.352600  0.030500  1.0
  C  C1453  1  0.352600  0.981200  0.530500  1.0
  C  C1454  1  0.852600  0.018800  0.969500  1.0
  C  C1455  1  0.647400  0.481200  0.969500  1.0
  C  C1456  1  0.481200  0.852600  0.969500  1.0
  C  C1457  1  0.187900  0.480000  0.524600  1.0
  C  C1458  1  0.020000  0.187900  0.524600  1.0
  C  C1459  1  0.480000  0.312100  0.524600  1.0
  C  C1460  1  0.980000  0.687900  0.975400  1.0
  C  C1461  1  0.687900  0.980000  0.475400  1.0
  C  C1462  1  0.187900  0.020000  0.024600  1.0
  C  C1463  1  0.312100  0.480000  0.024600  1.0
  C  C1464  1  0.480000  0.187900  0.024600  1.0
  C  C1465  1  0.812100  0.520000  0.475400  1.0
  C  C1466  1  0.980000  0.812100  0.475400  1.0
  C  C1467  1  0.520000  0.687900  0.475400  1.0
  C  C1468  1  0.020000  0.312100  0.024600  1.0
  C  C1469  1  0.312100  0.020000  0.524600  1.0
  C  C1470  1  0.812100  0.980000  0.975400  1.0
  C  C1471  1  0.687900  0.520000  0.975400  1.0
  C  C1472  1  0.520000  0.812100  0.975400  1.0
  C  C1473  1  0.123600  0.574800  0.433400  1.0
  C  C1474  1  0.925200  0.123600  0.433400  1.0
  C  C1475  1  0.574800  0.376400  0.433400  1.0
  C  C1476  1  0.074800  0.623600  0.066600  1.0
  C  C1477  1  0.623600  0.074800  0.566600  1.0
  C  C1478  1  0.123600  0.925200  0.933400  1.0
  C  C1479  1  0.376400  0.574800  0.933400  1.0
  C  C1480  1  0.574800  0.123600  0.933400  1.0
  C  C1481  1  0.876400  0.425200  0.566600  1.0
  C  C1482  1  0.074800  0.876400  0.566600  1.0
  C  C1483  1  0.425200  0.623600  0.566600  1.0
  C  C1484  1  0.925200  0.376400  0.933400  1.0
  C  C1485  1  0.376400  0.925200  0.433400  1.0
  C  C1486  1  0.876400  0.074800  0.066600  1.0
  C  C1487  1  0.623600  0.425200  0.066600  1.0
  C  C1488  1  0.425200  0.876400  0.066600  1.0
  C  C1489  1  0.137200  0.597600  0.358800  1.0
  C  C1490  1  0.902400  0.137200  0.358800  1.0
  C  C1491  1  0.597600  0.362800  0.358800  1.0
  C  C1492  1  0.097600  0.637200  0.141200  1.0
  C  C1493  1  0.637200  0.097600  0.641200  1.0
  C  C1494  1  0.137200  0.902400  0.858800  1.0
  C  C1495  1  0.362800  0.597600  0.858800  1.0
  C  C1496  1  0.597600  0.137200  0.858800  1.0
  C  C1497  1  0.862800  0.402400  0.641200  1.0
  C  C1498  1  0.097600  0.862800  0.641200  1.0
  C  C1499  1  0.402400  0.637200  0.641200  1.0
  C  C1500  1  0.902400  0.362800  0.858800  1.0
  C  C1501  1  0.362800  0.902400  0.358800  1.0
  C  C1502  1  0.862800  0.097600  0.141200  1.0
  C  C1503  1  0.637200  0.402400  0.141200  1.0
  C  C1504  1  0.402400  0.862800  0.141200  1.0
  C  C1505  1  0.155300  0.584200  0.323800  1.0
  C  C1506  1  0.915800  0.155300  0.323800  1.0
  C  C1507  1  0.584200  0.344700  0.323800  1.0
  C  C1508  1  0.084200  0.655300  0.176200  1.0
  C  C1509  1  0.655300  0.084200  0.676200  1.0
  C  C1510  1  0.155300  0.915800  0.823800  1.0
  C  C1511  1  0.344700  0.584200  0.823800  1.0
  C  C1512  1  0.584200  0.155300  0.823800  1.0
  C  C1513  1  0.844700  0.415800  0.676200  1.0
  C  C1514  1  0.084200  0.844700  0.676200  1.0
  C  C1515  1  0.415800  0.655300  0.676200  1.0
  C  C1516  1  0.915800  0.344700  0.823800  1.0
  C  C1517  1  0.344700  0.915800  0.323800  1.0
  C  C1518  1  0.844700  0.084200  0.176200  1.0
  C  C1519  1  0.655300  0.415800  0.176200  1.0
  C  C1520  1  0.415800  0.844700  0.176200  1.0
  C  C1521  1  0.142700  0.603400  0.288500  1.0
  C  C1522  1  0.896600  0.142700  0.288500  1.0
  C  C1523  1  0.603400  0.357300  0.288500  1.0
  C  C1524  1  0.103400  0.642700  0.211500  1.0
  C  C1525  1  0.642700  0.103400  0.711500  1.0
  C  C1526  1  0.142700  0.896600  0.788500  1.0
  C  C1527  1  0.357300  0.603400  0.788500  1.0
  C  C1528  1  0.603400  0.142700  0.788500  1.0
  C  C1529  1  0.857300  0.396600  0.711500  1.0
  C  C1530  1  0.103400  0.857300  0.711500  1.0
  C  C1531  1  0.396600  0.642700  0.711500  1.0
  C  C1532  1  0.896600  0.357300  0.788500  1.0
  C  C1533  1  0.357300  0.896600  0.288500  1.0
  C  C1534  1  0.857300  0.103400  0.211500  1.0
  C  C1535  1  0.642700  0.396600  0.211500  1.0
  C  C1536  1  0.396600  0.857300  0.211500  1.0
  C  C1537  1  0.162100  0.585400  0.251200  1.0
  C  C1538  1  0.914600  0.162100  0.251200  1.0
  C  C1539  1  0.585400  0.337900  0.251200  1.0
  C  C1540  1  0.085400  0.662100  0.248800  1.0
  C  C1541  1  0.662100  0.085400  0.748800  1.0
  C  C1542  1  0.162100  0.914600  0.751200  1.0
  C  C1543  1  0.337900  0.585400  0.751200  1.0
  C  C1544  1  0.585400  0.162100  0.751200  1.0
  C  C1545  1  0.837900  0.414600  0.748800  1.0
  C  C1546  1  0.085400  0.837900  0.748800  1.0
  C  C1547  1  0.414600  0.662100  0.748800  1.0
  C  C1548  1  0.914600  0.337900  0.751200  1.0
  C  C1549  1  0.337900  0.914600  0.251200  1.0
  C  C1550  1  0.837900  0.085400  0.248800  1.0
  C  C1551  1  0.662100  0.414600  0.248800  1.0
  C  C1552  1  0.414600  0.837900  0.248800  1.0
  C  C1553  1  0.104400  0.643300  0.283900  1.0
  C  C1554  1  0.856700  0.104400  0.283900  1.0
  C  C1555  1  0.643300  0.395600  0.283900  1.0
  C  C1556  1  0.143300  0.604400  0.216100  1.0
  C  C1557  1  0.604400  0.143300  0.716100  1.0
  C  C1558  1  0.104400  0.856700  0.783900  1.0
  C  C1559  1  0.395600  0.643300  0.783900  1.0
  C  C1560  1  0.643300  0.104400  0.783900  1.0
  C  C1561  1  0.895600  0.356700  0.716100  1.0
  C  C1562  1  0.143300  0.895600  0.716100  1.0
  C  C1563  1  0.356700  0.604400  0.716100  1.0
  C  C1564  1  0.856700  0.395600  0.783900  1.0
  C  C1565  1  0.395600  0.856700  0.283900  1.0
  C  C1566  1  0.895600  0.143300  0.216100  1.0
  C  C1567  1  0.604400  0.356700  0.216100  1.0
  C  C1568  1  0.356700  0.895600  0.216100  1.0
  C  C1569  1  0.087300  0.659300  0.322900  1.0
  C  C1570  1  0.840700  0.087300  0.322900  1.0
  C  C1571  1  0.659300  0.412700  0.322900  1.0
  C  C1572  1  0.159300  0.587300  0.177100  1.0
  C  C1573  1  0.587300  0.159300  0.677100  1.0
  C  C1574  1  0.087300  0.840700  0.822900  1.0
  C  C1575  1  0.412700  0.659300  0.822900  1.0
  C  C1576  1  0.659300  0.087300  0.822900  1.0
  C  C1577  1  0.912700  0.340700  0.677100  1.0
  C  C1578  1  0.159300  0.912700  0.677100  1.0
  C  C1579  1  0.340700  0.587300  0.677100  1.0
  C  C1580  1  0.840700  0.412700  0.822900  1.0
  C  C1581  1  0.412700  0.840700  0.322900  1.0
  C  C1582  1  0.912700  0.159300  0.177100  1.0
  C  C1583  1  0.587300  0.340700  0.177100  1.0
  C  C1584  1  0.340700  0.912700  0.177100  1.0
  C  C1585  1  0.097700  0.638300  0.359200  1.0
  C  C1586  1  0.861700  0.097700  0.359200  1.0
  C  C1587  1  0.638300  0.402300  0.359200  1.0
  C  C1588  1  0.138300  0.597700  0.140800  1.0
  C  C1589  1  0.597700  0.138300  0.640800  1.0
  C  C1590  1  0.097700  0.861700  0.859200  1.0
  C  C1591  1  0.402300  0.638300  0.859200  1.0
  C  C1592  1  0.638300  0.097700  0.859200  1.0
  C  C1593  1  0.902300  0.361700  0.640800  1.0
  C  C1594  1  0.138300  0.902300  0.640800  1.0
  C  C1595  1  0.361700  0.597700  0.640800  1.0
  C  C1596  1  0.861700  0.402300  0.859200  1.0
  C  C1597  1  0.402300  0.861700  0.359200  1.0
  C  C1598  1  0.902300  0.138300  0.140800  1.0
  C  C1599  1  0.597700  0.361700  0.140800  1.0
  C  C1600  1  0.361700  0.902300  0.140800  1.0
  N  N1601  1  0.382100  0.460700  0.541000  1
  N  N1602  1  0.039300  0.382100  0.541000  1
  N  N1603  1  0.460700  0.117900  0.541000  1
  N  N1604  1  0.960700  0.882100  0.959000  1
  N  N1605  1  0.882100  0.960700  0.459000  1
  N  N1606  1  0.382100  0.039300  0.041000  1
  N  N1607  1  0.117900  0.460700  0.041000  1
  N  N1608  1  0.460700  0.382100  0.041000  1
  N  N1609  1  0.617900  0.539300  0.459000  1
  N  N1610  1  0.960700  0.617900  0.459000  1
  N  N1611  1  0.539300  0.882100  0.459000  1
  N  N1612  1  0.039300  0.117900  0.041000  1
  N  N1613  1  0.117900  0.039300  0.541000  1
  N  N1614  1  0.617900  0.960700  0.959000  1
  N  N1615  1  0.882100  0.539300  0.959000  1
  N  N1616  1  0.539300  0.617900  0.959000  1
  N  N1617  1  0.250000  0.750000  0.250000  1
  N  N1618  1  0.750000  0.250000  0.250000  1
  N  N1619  1  0.750000  0.250000  0.750000  1
  N  N1620  1  0.250000  0.750000  0.750000  1
  N  N1621  1  0.232800  0.881900  0.502300  1
  N  N1622  1  0.618100  0.232800  0.502300  1
  N  N1623  1  0.881900  0.267200  0.502300  1
  N  N1624  1  0.381900  0.732800  0.997700  1
  N  N1625  1  0.732800  0.381900  0.497700  1
  N  N1626  1  0.232800  0.618100  0.002300  1
  N  N1627  1  0.267200  0.881900  0.002300  1
  N  N1628  1  0.881900  0.232800  0.002300  1
  N  N1629  1  0.767200  0.118100  0.497700  1
  N  N1630  1  0.381900  0.767200  0.497700  1
  N  N1631  1  0.118100  0.732800  0.497700  1
  N  N1632  1  0.618100  0.267200  0.002300  1
  N  N1633  1  0.267200  0.618100  0.502300  1
  N  N1634  1  0.767200  0.381900  0.997700  1
  N  N1635  1  0.732800  0.118100  0.997700  1
  N  N1636  1  0.118100  0.767200  0.997700  1
  N  N1637  1  0.257100  0.483500  0.285400  1.0
  N  N1638  1  0.016500  0.257100  0.285400  1.0
  N  N1639  1  0.483500  0.242900  0.285400  1.0
  N  N1640  1  0.983500  0.757100  0.214600  1.0
  N  N1641  1  0.757100  0.983500  0.714600  1.0
  N  N1642  1  0.257100  0.016500  0.785400  1.0
  N  N1643  1  0.242900  0.483500  0.785400  1.0
  N  N1644  1  0.483500  0.257100  0.785400  1.0
  N  N1645  1  0.742900  0.516500  0.714600  1.0
  N  N1646  1  0.983500  0.742900  0.714600  1.0
  N  N1647  1  0.516500  0.757100  0.714600  1.0
  N  N1648  1  0.016500  0.242900  0.785400  1.0
  N  N1649  1  0.242900  0.016500  0.285400  1.0
  N  N1650  1  0.742900  0.983500  0.214600  1.0
  N  N1651  1  0.757100  0.516500  0.214600  1.0
  N  N1652  1  0.516500  0.742900  0.214600  1.0
  N  N1653  1  0.351400  0.589300  0.398200  1.0
  N  N1654  1  0.910700  0.351400  0.398200  1.0
  N  N1655  1  0.589300  0.148600  0.398200  1.0
  N  N1656  1  0.089300  0.851400  0.101800  1.0
  N  N1657  1  0.851400  0.089300  0.601800  1.0
  N  N1658  1  0.351400  0.910700  0.898200  1.0
  N  N1659  1  0.148600  0.589300  0.898200  1.0
  N  N1660  1  0.589300  0.351400  0.898200  1.0
  N  N1661  1  0.648600  0.410700  0.601800  1.0
  N  N1662  1  0.089300  0.648600  0.601800  1.0
  N  N1663  1  0.410700  0.851400  0.601800  1.0
  N  N1664  1  0.910700  0.148600  0.898200  1.0
  N  N1665  1  0.148600  0.910700  0.398200  1.0
  N  N1666  1  0.648600  0.089300  0.101800  1.0
  N  N1667  1  0.851400  0.410700  0.101800  1.0
  N  N1668  1  0.410700  0.648600  0.101800  1.0
  N  N1669  1  0.148400  0.575400  0.394700  1.0
  N  N1670  1  0.924600  0.148400  0.394700  1.0
  N  N1671  1  0.575400  0.351600  0.394700  1.0
  N  N1672  1  0.075400  0.648400  0.105300  1.0
  N  N1673  1  0.648400  0.075400  0.605300  1.0
  N  N1674  1  0.148400  0.924600  0.894700  1.0
  N  N1675  1  0.351600  0.575400  0.894700  1.0
  N  N1676  1  0.575400  0.148400  0.894700  1.0
  N  N1677  1  0.851600  0.424600  0.605300  1.0
  N  N1678  1  0.075400  0.851600  0.605300  1.0
  N  N1679  1  0.424600  0.648400  0.605300  1.0
  N  N1680  1  0.924600  0.351600  0.894700  1.0
  N  N1681  1  0.351600  0.924600  0.394700  1.0
  N  N1682  1  0.851600  0.075400  0.105300  1.0
  N  N1683  1  0.648400  0.424600  0.105300  1.0
  N  N1684  1  0.424600  0.851600  0.105300  1.0
  O  O1685  1  0.174700  0.444200  0.165500  1
  O  O1686  1  0.055800  0.174700  0.165500  1
  O  O1687  1  0.444200  0.325300  0.165500  1
  O  O1688  1  0.944200  0.674700  0.334500  1
  O  O1689  1  0.674700  0.944200  0.834500  1
  O  O1690  1  0.174700  0.055800  0.665500  1
  O  O1691  1  0.325300  0.444200  0.665500  1
  O  O1692  1  0.444200  0.174700  0.665500  1
  O  O1693  1  0.825300  0.555800  0.834500  1
  O  O1694  1  0.944200  0.825300  0.834500  1
  O  O1695  1  0.555800  0.674700  0.834500  1
  O  O1696  1  0.055800  0.325300  0.665500  1
  O  O1697  1  0.325300  0.055800  0.165500  1
  O  O1698  1  0.825300  0.944200  0.334500  1
  O  O1699  1  0.674700  0.555800  0.334500  1
  O  O1700  1  0.555800  0.825300  0.334500  1
  O  O1701  1  0.229300  0.939400  0.556800  1
  O  O1702  1  0.560600  0.229300  0.556800  1
  O  O1703  1  0.939400  0.270700  0.556800  1
  O  O1704  1  0.439400  0.729300  0.943200  1
  O  O1705  1  0.729300  0.439400  0.443200  1
  O  O1706  1  0.229300  0.560600  0.056800  1
  O  O1707  1  0.270700  0.939400  0.056800  1
  O  O1708  1  0.939400  0.229300  0.056800  1
  O  O1709  1  0.770700  0.060600  0.443200  1
  O  O1710  1  0.439400  0.770700  0.443200  1
  O  O1711  1  0.060600  0.729300  0.443200  1
  O  O1712  1  0.560600  0.270700  0.056800  1
  O  O1713  1  0.270700  0.560600  0.556800  1
  O  O1714  1  0.770700  0.439400  0.943200  1
  O  O1715  1  0.729300  0.060600  0.943200  1
  O  O1716  1  0.060600  0.770700  0.943200  1
  O  O1717  1  0.314100  0.323300  0.969800  1
  O  O1718  1  0.176700  0.314100  0.969800  1
  O  O1719  1  0.323300  0.185900  0.969800  1
  O  O1720  1  0.823300  0.814100  0.530200  1
  O  O1721  1  0.814100  0.823300  0.030200  1
  O  O1722  1  0.314100  0.176700  0.469800  1
  O  O1723  1  0.185900  0.323300  0.469800  1
  O  O1724  1  0.323300  0.314100  0.469800  1
  O  O1725  1  0.685900  0.676700  0.030200  1
  O  O1726  1  0.823300  0.685900  0.030200  1
  O  O1727  1  0.676700  0.814100  0.030200  1
  O  O1728  1  0.176700  0.185900  0.469800  1
  O  O1729  1  0.185900  0.176700  0.969800  1
  O  O1730  1  0.685900  0.823300  0.530200  1
  O  O1731  1  0.814100  0.676700  0.530200  1
  O  O1732  1  0.676700  0.685900  0.530200  1
  O  O1733  1  0.248200  0.503300  0.121000  1
  O  O1734  1  0.996700  0.248200  0.121000  1
  O  O1735  1  0.503300  0.251800  0.121000  1
  O  O1736  1  0.003300  0.748200  0.379000  1
  O  O1737  1  0.748200  0.003300  0.879000  1
  O  O1738  1  0.248200  0.996700  0.621000  1
  O  O1739  1  0.251800  0.503300  0.621000  1
  O  O1740  1  0.503300  0.248200  0.621000  1
  O  O1741  1  0.751800  0.496700  0.879000  1
  O  O1742  1  0.003300  0.751800  0.879000  1
  O  O1743  1  0.496700  0.748200  0.879000  1
  O  O1744  1  0.996700  0.251800  0.621000  1
  O  O1745  1  0.251800  0.996700  0.121000  1
  O  O1746  1  0.751800  0.003300  0.379000  1
  O  O1747  1  0.748200  0.496700  0.379000  1
  O  O1748  1  0.496700  0.751800  0.379000  1
  O  O1749  1  0.219500  0.385000  0.407900  1.0
  O  O1750  1  0.115000  0.219500  0.407900  1.0
  O  O1751  1  0.385000  0.280500  0.407900  1.0
  O  O1752  1  0.885000  0.719500  0.092100  1.0
  O  O1753  1  0.719500  0.885000  0.592100  1.0
  O  O1754  1  0.219500  0.115000  0.907900  1.0
  O  O1755  1  0.280500  0.385000  0.907900  1.0
  O  O1756  1  0.385000  0.219500  0.907900  1.0
  O  O1757  1  0.780500  0.615000  0.592100  1.0
  O  O1758  1  0.885000  0.780500  0.592100  1.0
  O  O1759  1  0.615000  0.719500  0.592100  1.0
  O  O1760  1  0.115000  0.280500  0.907900  1.0
  O  O1761  1  0.280500  0.115000  0.407900  1.0
  O  O1762  1  0.780500  0.885000  0.092100  1.0
  O  O1763  1  0.719500  0.615000  0.092100  1.0
  O  O1764  1  0.615000  0.780500  0.092100  1.0
  O  O1765  1  0.251600  0.448400  0.358500  1.0
  O  O1766  1  0.051600  0.251600  0.358500  1.0
  O  O1767  1  0.448400  0.248400  0.358500  1.0
  O  O1768  1  0.948400  0.751600  0.141500  1.0
  O  O1769  1  0.751600  0.948400  0.641500  1.0
  O  O1770  1  0.251600  0.051600  0.858500  1.0
  O  O1771  1  0.248400  0.448400  0.858500  1.0
  O  O1772  1  0.448400  0.251600  0.858500  1.0
  O  O1773  1  0.748400  0.551600  0.641500  1.0
  O  O1774  1  0.948400  0.748400  0.641500  1.0
  O  O1775  1  0.551600  0.751600  0.641500  1.0
  O  O1776  1  0.051600  0.248400  0.858500  1.0
  O  O1777  1  0.248400  0.051600  0.358500  1.0
  O  O1778  1  0.748400  0.948400  0.141500  1.0
  O  O1779  1  0.751600  0.551600  0.141500  1.0
  O  O1780  1  0.551600  0.748400  0.141500  1.0
  O  O1781  1  0.217200  0.441900  0.237700  1.0
  O  O1782  1  0.058100  0.217200  0.237700  1.0
  O  O1783  1  0.441900  0.282800  0.237700  1.0
  O  O1784  1  0.941900  0.717200  0.262300  1.0
  O  O1785  1  0.717200  0.941900  0.762300  1.0
  O  O1786  1  0.217200  0.058100  0.737700  1.0
  O  O1787  1  0.282800  0.441900  0.737700  1.0
  O  O1788  1  0.441900  0.217200  0.737700  1.0
  O  O1789  1  0.782800  0.558100  0.762300  1.0
  O  O1790  1  0.941900  0.782800  0.762300  1.0
  O  O1791  1  0.558100  0.717200  0.762300  1.0
  O  O1792  1  0.058100  0.282800  0.737700  1.0
  O  O1793  1  0.282800  0.058100  0.237700  1.0
  O  O1794  1  0.782800  0.941900  0.262300  1.0
  O  O1795  1  0.717200  0.558100  0.262300  1.0
  O  O1796  1  0.558100  0.782800  0.262300  1.0
  O  O1797  1  0.320500  0.408000  0.426400  1.0
  O  O1798  1  0.092000  0.320500  0.426400  1.0
  O  O1799  1  0.408000  0.179500  0.426400  1.0
  O  O1800  1  0.908000  0.820500  0.073600  1.0
  O  O1801  1  0.820500  0.908000  0.573600  1.0
  O  O1802  1  0.320500  0.092000  0.926400  1.0
  O  O1803  1  0.179500  0.408000  0.926400  1.0
  O  O1804  1  0.408000  0.320500  0.926400  1.0
  O  O1805  1  0.679500  0.592000  0.573600  1.0
  O  O1806  1  0.908000  0.679500  0.573600  1.0
  O  O1807  1  0.592000  0.820500  0.573600  1.0
  O  O1808  1  0.092000  0.179500  0.926400  1.0
  O  O1809  1  0.179500  0.092000  0.426400  1.0
  O  O1810  1  0.679500  0.908000  0.073600  1.0
  O  O1811  1  0.820500  0.592000  0.073600  1.0
  O  O1812  1  0.592000  0.679500  0.073600  1.0
  O  O1813  1  0.310400  0.498800  0.411800  1.0
  O  O1814  1  0.001200  0.310400  0.411800  1.0
  O  O1815  1  0.498800  0.189600  0.411800  1.0
  O  O1816  1  0.998800  0.810400  0.088200  1.0
  O  O1817  1  0.810400  0.998800  0.588200  1.0
  O  O1818  1  0.310400  0.001200  0.911800  1.0
  O  O1819  1  0.189600  0.498800  0.911800  1.0
  O  O1820  1  0.498800  0.310400  0.911800  1.0
  O  O1821  1  0.689600  0.501200  0.588200  1.0
  O  O1822  1  0.998800  0.689600  0.588200  1.0
  O  O1823  1  0.501200  0.810400  0.588200  1.0
  O  O1824  1  0.001200  0.189600  0.911800  1.0
  O  O1825  1  0.189600  0.001200  0.411800  1.0
  O  O1826  1  0.689600  0.998800  0.088200  1.0
  O  O1827  1  0.810400  0.501200  0.088200  1.0
  O  O1828  1  0.501200  0.689600  0.088200  1.0
  O  O1829  1  0.435100  0.593700  0.386600  1.0
  O  O1830  1  0.906300  0.435100  0.386600  1.0
  O  O1831  1  0.593700  0.064900  0.386600  1.0
  O  O1832  1  0.093700  0.935100  0.113400  1.0
  O  O1833  1  0.935100  0.093700  0.613400  1.0
  O  O1834  1  0.435100  0.906300  0.886600  1.0
  O  O1835  1  0.064900  0.593700  0.886600  1.0
  O  O1836  1  0.593700  0.435100  0.886600  1.0
  O  O1837  1  0.564900  0.406300  0.613400  1.0
  O  O1838  1  0.093700  0.564900  0.613400  1.0
  O  O1839  1  0.406300  0.935100  0.613400  1.0
  O  O1840  1  0.906300  0.064900  0.886600  1.0
  O  O1841  1  0.064900  0.906300  0.386600  1.0
  O  O1842  1  0.564900  0.093700  0.113400  1.0
  O  O1843  1  0.935100  0.406300  0.113400  1.0
  O  O1844  1  0.406300  0.564900  0.113400  1.0
  O  O1845  1  0.242600  0.445900  0.474200  1.0
  O  O1846  1  0.054100  0.242600  0.474200  1.0
  O  O1847  1  0.445900  0.257400  0.474200  1.0
  O  O1848  1  0.945900  0.742600  0.025800  1.0
  O  O1849  1  0.742600  0.945900  0.525800  1.0
  O  O1850  1  0.242600  0.054100  0.974200  1.0
  O  O1851  1  0.257400  0.445900  0.974200  1.0
  O  O1852  1  0.445900  0.242600  0.974200  1.0
  O  O1853  1  0.757400  0.554100  0.525800  1.0
  O  O1854  1  0.945900  0.757400  0.525800  1.0
  O  O1855  1  0.554100  0.742600  0.525800  1.0
  O  O1856  1  0.054100  0.257400  0.974200  1.0
  O  O1857  1  0.257400  0.054100  0.474200  1.0
  O  O1858  1  0.757400  0.945900  0.025800  1.0
  O  O1859  1  0.742600  0.554100  0.025800  1.0
  O  O1860  1  0.554100  0.757400  0.025800  1.0
  O  O1861  1  0.208200  0.499400  0.418700  1.0
  O  O1862  1  0.000600  0.208200  0.418700  1.0
  O  O1863  1  0.499400  0.291800  0.418700  1.0
  O  O1864  1  0.999400  0.708200  0.081300  1.0
  O  O1865  1  0.708200  0.999400  0.581300  1.0
  O  O1866  1  0.208200  0.000600  0.918700  1.0
  O  O1867  1  0.291800  0.499400  0.918700  1.0
  O  O1868  1  0.499400  0.208200  0.918700  1.0
  O  O1869  1  0.791800  0.500600  0.581300  1.0
  O  O1870  1  0.999400  0.791800  0.581300  1.0
  O  O1871  1  0.500600  0.708200  0.581300  1.0
  O  O1872  1  0.000600  0.291800  0.918700  1.0
  O  O1873  1  0.291800  0.000600  0.418700  1.0
  O  O1874  1  0.791800  0.999400  0.081300  1.0
  O  O1875  1  0.708200  0.500600  0.081300  1.0
  O  O1876  1  0.500600  0.791800  0.081300  1.0
  O  O1877  1  0.089500  0.603300  0.438500  1.0
  O  O1878  1  0.896700  0.089500  0.438500  1.0
  O  O1879  1  0.603300  0.410500  0.438500  1.0
  O  O1880  1  0.103300  0.589500  0.061500  1.0
  O  O1881  1  0.589500  0.103300  0.561500  1.0
  O  O1882  1  0.089500  0.896700  0.938500  1.0
  O  O1883  1  0.410500  0.603300  0.938500  1.0
  O  O1884  1  0.603300  0.089500  0.938500  1.0
  O  O1885  1  0.910500  0.396700  0.561500  1.0
  O  O1886  1  0.103300  0.910500  0.561500  1.0
  O  O1887  1  0.396700  0.589500  0.561500  1.0
  O  O1888  1  0.896700  0.410500  0.938500  1.0
  O  O1889  1  0.410500  0.896700  0.438500  1.0
  O  O1890  1  0.910500  0.103300  0.061500  1.0
  O  O1891  1  0.589500  0.396700  0.061500  1.0
  O  O1892  1  0.396700  0.910500  0.061500  1.0
