
#######################################################################
#
#                 Cambridge Crystallographic Data Centre
#                                CCDC 
#
#######################################################################
#
# If this CIF has been generated from an entry in the Cambridge 
# Structural Database, then it will include bibliographic, chemical, 
# crystal, experimental, refinement or atomic coordinate data resulting 
# from the CCDC's data processing and validation procedures.
#
#######################################################################

data_GOYGEG
_chemical_formula_moiety         'C84 H48 N6 O18 Ti2 4-,4(K1 1+),8(C3 H7 N1 O1)'
_chemical_name_systematic        
'Tetra-potassium tris(\m~2~-2,6-bis(2,3-dihydroxy-benzamido)anthracene)-di-titanium dimethylformamide solvate'
_symmetry_cell_setting           monoclinic
_symmetry_space_group_name_H-M   'C c'
_symmetry_Int_Tables_number      9
_space_group_name_Hall           'C -2yc'
loop_
_symmetry_equiv_pos_site_id
_symmetry_equiv_pos_as_xyz
1 x,y,z
2 x,-y,1/2+z
3 1/2+x,1/2+y,z
4 1/2+x,1/2-y,1/2+z
_cell_length_a                   49.6848(13)
_cell_length_b                   11.9175(3)
_cell_length_c                   22.0824(6)
_cell_angle_alpha                90
_cell_angle_beta                 113.5710(10)
_cell_angle_gamma                90
_cell_volume                     11984.5
_exptl_crystal_colour            orange
_exptl_crystal_description       block
_cell_formula_units_Z            4
loop_
_atom_site_label
_atom_site_type_symbol
_atom_site_fract_x
_atom_site_fract_y
_atom_site_fract_z
Ti1 Ti 0.18292(8) 1.2217(4) 0.9064(2)
Ti2 Ti -0.18332(8) 1.2576(4) 0.5967(2)
O1 O 0.2126(3) 1.1728(13) 0.9910(7)
O2 O 0.1618(3) 1.2517(12) 0.9643(7)
O3 O 0.1270(4) 1.2591(14) 1.1087(8)
O4 O -0.1009(4) 1.5551(16) 0.8213(10)
O5 O -0.1531(3) 1.3401(13) 0.6697(7)
O6 O -0.2027(3) 1.4045(13) 0.5891(7)
O7 O 0.2081(3) 1.3484(14) 0.9086(8)
O8 O 0.1540(3) 1.3215(13) 0.8370(7)
O9 O 0.1069(3) 1.5287(13) 0.6775(8)
O10 O -0.1258(4) 1.2763(16) 0.3930(9)
O11 O -0.1616(3) 1.2671(12) 0.5395(7)
O12 O -0.2141(3) 1.2210(12) 0.5114(7)
O13 O 0.2036(3) 1.1362(13) 0.8648(7)
O14 O 0.1562(3) 1.0904(13) 0.8711(8)
O15 O 0.1094(4) 0.7917(15) 0.7907(9)
O16 O -0.1107(4) 0.8688(18) 0.7737(11)
O17 O -0.1598(3) 1.1234(13) 0.6381(7)
O18 O -0.2075(3) 1.1897(13) 0.6370(7)
N1 N 0.1182(4) 1.2843(14) 1.0028(10)
H1 H 0.1259(4) 1.2844(14) 0.9741(10)
N2 N -0.1030(5) 1.3941(17) 0.7661(10)
H2 H -0.1154(5) 1.3474(17) 0.7397(10)
N3 N 0.1051(4) 1.3845(15) 0.7404(10)
H3 H 0.1164(4) 1.3412(15) 0.7712(10)
N4 N -0.1162(4) 1.2957(16) 0.5044(10)
H4 H -0.1225(4) 1.2807(16) 0.5346(10)
N5 N 0.1095(4) 0.9547(15) 0.8398(9)
H5 H 0.1199(4) 1.0119(15) 0.8592(9)
N6 N -0.1126(5) 0.9930(18) 0.6918(11)
H6 H -0.1244(5) 1.0366(18) 0.6620(11)
C1 C 0.1768(5) 1.2185(18) 1.0262(12)
C2 C 0.2048(5) 1.1768(20) 1.0410(13)
C3 C 0.2215(7) 1.1327(22) 1.0980(15)
H7 H 0.2396(7) 1.1017(22) 1.1049(15)
C4 C 0.2101(6) 1.1338(23) 1.1527(15)
H8 H 0.2220(6) 1.1079(23) 1.1947(15)
C5 C 0.1824(6) 1.1732(23) 1.1399(15)
H9 H 0.1748(6) 1.1690(23) 1.1722(15)
C6 C 0.1646(6) 1.2219(19) 1.0751(12)
C7 C 0.1345(6) 1.2523(19) 1.0635(14)
C8 C 0.0874(5) 1.3200(19) 0.9819(12)
C9 C 0.0818(5) 1.4066(18) 1.0161(12)
H10 H 0.0969(5) 1.4387(18) 1.0522(12)
C10 C 0.0538(5) 1.4444(18) 0.9966(11)
H11 H 0.0496(5) 1.5037(18) 1.0188(11)
C11 C 0.0307(5) 1.3929(18) 0.9413(12)
C12 C 0.0369(5) 1.3038(20) 0.9105(12)
C13 C 0.0655(6) 1.2626(20) 0.9317(13)
H12 H 0.0698(6) 1.1990(20) 0.9127(13)
C14 C 0.0133(6) 1.2449(21) 0.8584(14)
H13 H 0.0172(6) 1.1817(21) 0.8384(14)
C15 C -0.0143(5) 1.2844(20) 0.8397(12)
C16 C -0.0224(5) 1.3765(19) 0.8664(12)
C17 C 0.0007(5) 1.4329(19) 0.9204(11)
H14 H -0.0036(5) 1.4938(19) 0.9413(11)
C18 C -0.0526(6) 1.4171(21) 0.8455(13)
H15 H -0.0572(6) 1.4779(21) 0.8660(13)
C19 C -0.0741(6) 1.3606(20) 0.7935(13)
C20 C -0.0655(6) 1.2674(22) 0.7683(14)
H16 H -0.0803(6) 1.2278(22) 0.7353(14)
C21 C -0.0384(6) 1.2286(22) 0.7861(13)
H17 H -0.0348(6) 1.1667(22) 0.7649(13)
C22 C -0.1131(6) 1.4844(24) 0.7755(15)
C23 C -0.1462(6) 1.5060(23) 0.7289(14)
C24 C -0.1577(7) 1.6124(25) 0.7381(16)
H18 H -0.1463(7) 1.6596(25) 0.7723(16)
C25 C -0.1886(7) 1.6476(27) 0.6911(15)
H19 H -0.1974(7) 1.7139(27) 0.6958(15)
C26 C -0.2020(6) 1.5711(21) 0.6411(14)
H20 H -0.2207(6) 1.5897(21) 0.6106(14)
C27 C -0.1918(5) 1.4790(20) 0.6326(12)
C28 C -0.1610(5) 1.4363(21) 0.6832(13)
C29 C 0.1649(5) 1.3965(20) 0.8158(12)
C30 C 0.1970(5) 1.4142(20) 0.8555(12)
C31 C 0.2136(6) 1.4878(21) 0.8344(13)
H21 H 0.2338(6) 1.4970(21) 0.8572(13)
C32 C 0.1969(6) 1.5477(21) 0.7745(13)
H22 H 0.2072(6) 1.5941(21) 0.7572(13)
C33 C 0.1667(5) 1.5414(18) 0.7405(11)
H23 H 0.1569(5) 1.5909(18) 0.7062(11)
C34 C 0.1513(5) 1.4614(18) 0.7581(12)
C35 C 0.1190(6) 1.4641(20) 0.7238(13)
C36 C 0.0735(5) 1.3550(19) 0.7161(12)
C37 C 0.0678(6) 1.2645(21) 0.7476(14)
H24 H 0.0827(6) 1.2273(21) 0.7818(14)
C38 C 0.0386(6) 1.2314(22) 0.7257(14)
H25 H 0.0336(6) 1.1701(22) 0.7451(14)
C39 C 0.0166(6) 1.2892(21) 0.6749(13)
C40 C 0.0239(5) 1.3759(19) 0.6425(12)
C41 C 0.0528(5) 1.4083(19) 0.6634(12)
H26 H 0.0582(5) 1.4657(19) 0.6419(12)
C42 C 0.0017(5) 1.4386(19) 0.5903(11)
H27 H 0.0061(5) 1.5041(19) 0.5735(11)
C43 C -0.0272(5) 1.3955(19) 0.5662(12)
C44 C -0.0349(5) 1.3046(20) 0.5966(12)
C45 C -0.0145(6) 1.2536(21) 0.6479(14)
H28 H -0.0200(6) 1.1936(21) 0.6675(14)
C46 C -0.0504(5) 1.4512(19) 0.5113(12)
H29 H -0.0461(5) 1.5130(19) 0.4910(12)
C47 C -0.0784(6) 1.4123(20) 0.4898(13)
H30 H -0.0927(6) 1.4426(20) 0.4517(13)
C48 C -0.0862(5) 1.3284(20) 0.5234(12)
C49 C -0.0661(6) 1.2755(21) 0.5749(14)
H31 H -0.0719(6) 1.2204(21) 0.5971(14)
C50 C -0.1357(6) 1.2873(22) 0.4376(15)
C51 C -0.1666(6) 1.2621(20) 0.4243(13)
C52 C -0.2077(5) 1.2361(17) 0.4614(12)
C53 C -0.1768(5) 1.2507(18) 0.4754(12)
C54 C -0.2283(5) 1.2340(18) 0.3904(12)
H32 H -0.2483(5) 1.2226(18) 0.3777(12)
C55 C -0.2162(6) 1.2500(19) 0.3442(13)
H33 H -0.2293(6) 1.2527(19) 0.3001(13)
C56 C -0.1870(6) 1.2623(20) 0.3570(13)
H34 H -0.1806(6) 1.2704(20) 0.3229(13)
C57 C 0.1660(5) 1.0051(20) 0.8444(12)
C58 C 0.1935(6) 1.0325(20) 0.8418(13)
C59 C 0.2065(6) 0.9503(20) 0.8195(12)
H35 H 0.2246(6) 0.9645(20) 0.8176(12)
C60 C 0.1938(5) 0.8497(21) 0.8004(12)
H36 H 0.2029(5) 0.7965(21) 0.7840(12)
C61 C 0.1675(5) 0.8236(22) 0.8047(12)
H37 H 0.1596(5) 0.7518(22) 0.7944(12)
C62 C 0.1527(5) 0.9061(20) 0.8246(12)
C63 C 0.1210(6) 0.8763(23) 0.8162(13)
C64 C 0.0794(6) 0.9466(20) 0.8337(13)
C65 C 0.0748(7) 0.9536(24) 0.8919(15)
H38 H 0.0908(7) 0.9593(24) 0.9324(15)
C66 C 0.0451(7) 0.9520(25) 0.8897(17)
H39 H 0.0412(7) 0.9576(25) 0.9275(17)
C67 C 0.0218(6) 0.9407(22) 0.8238(14)
C68 C 0.0262(6) 0.9432(22) 0.7701(14)
C69 C 0.0582(6) 0.9424(20) 0.7768(14)
H40 H 0.0622(6) 0.9389(20) 0.7391(14)
C70 C 0.0035(6) 0.9367(21) 0.7079(14)
H41 H 0.0072(6) 0.9240(21) 0.6704(14)
C71 C -0.0269(6) 0.9510(21) 0.7036(14)
C72 C -0.0305(6) 0.9444(21) 0.7581(14)
C73 C -0.0081(6) 0.9379(24) 0.8189(15)
H42 H -0.0120(6) 0.9318(24) 0.8567(15)
C74 C -0.0595(6) 0.9551(21) 0.7561(15)
H43 H -0.0631(6) 0.9470(21) 0.7941(15)
C75 C -0.0823(6) 0.9780(22) 0.6949(14)
C76 C -0.0796(6) 0.9810(21) 0.6360(14)
H44 H -0.0958(6) 0.9901(21) 0.5964(14)
C77 C -0.0506(6) 0.9697(21) 0.6377(14)
H45 H -0.0469(6) 0.9738(21) 0.5996(14)
C78 C -0.1225(7) 0.9410(26) 0.7340(16)
C79 C -0.1549(6) 0.9850(23) 0.7218(14)
C80 C -0.1661(6) 0.9357(24) 0.7660(14)
H46 H -0.1563(6) 0.8791(24) 0.7956(14)
C81 C -0.1924(6) 0.9787(23) 0.7613(14)
H47 H -0.2002(6) 0.9504(23) 0.7900(14)
C82 C -0.2073(6) 1.0558(20) 0.7200(12)
H48 H -0.2255(6) 1.0774(20) 0.7187(12)
C83 C -0.1966(5) 1.1068(20) 0.6775(12)
C84 C -0.1669(5) 1.0688(19) 0.6826(12)
K1 K -0.25675(11) 1.1140(5) 0.5363(3)
K2 K 0.08826(12) 1.7387(5) 0.6626(3)
K3 K -0.07868(13) 1.2539(6) 0.3669(4)
K4 K -0.24492(10) 1.4383(4) 0.4684(2)
O19 O -0.2165(6) 1.5529(22) 0.4121(15)
N9 N -0.2115(5) 1.6483(27) 0.3300(15)
C91 C -0.2049(9) 1.5579(37) 0.3717(24)
C92 C -0.2027(8) 1.6344(39) 0.2779(19)
H61 H -0.2078(8) 1.7000(39) 0.2504(19)
H62 H -0.2123(8) 1.5701(39) 0.2522(19)
H63 H -0.1818(8) 1.6236(39) 0.2952(19)
C93 C -0.2235(9) 1.7489(29) 0.3404(21)
H64 H -0.2262(9) 1.7996(29) 0.3047(21)
H65 H -0.2105(9) 1.7819(29) 0.3812(21)
H66 H -0.2422(9) 1.7342(29) 0.3424(21)
O20 O -0.2643(5) 1.6181(18) 0.5010(10)
N8 N -0.3035(5) 1.7414(17) 0.4703(11)
C88 C -0.2761(7) 1.7042(28) 0.4760(15)
C89 C -0.3182(6) 1.6721(21) 0.4980(13)
H55 H -0.3368(6) 1.7051(21) 0.4915(13)
H56 H -0.3066(6) 1.6638(21) 0.5445(13)
H57 H -0.3213(6) 1.5998(21) 0.4771(13)
C90 C -0.3147(6) 1.8427(21) 0.4372(14)
H58 H -0.3337(6) 1.8568(21) 0.4375(14)
H59 H -0.3164(6) 1.8375(21) 0.3924(14)
H60 H -0.3016(6) 1.9031(21) 0.4592(14)
O21 O 0.0865(6) 1.9539(22) 0.6542(13)
N11 N 0.1218(6) 2.0829(21) 0.6499(14)
C97 C 0.1050(9) 2.0335(33) 0.6827(20)
C98 C 0.1423(7) 2.1623(28) 0.6871(18)
H67 H 0.1403(7) 2.1745(28) 0.7281(18)
H68 H 0.1389(7) 2.2315(28) 0.6629(18)
H69 H 0.1617(7) 2.1356(28) 0.6958(18)
C99 C 0.1177(9) 2.0426(33) 0.5873(17)
H70 H 0.1021(9) 1.9884(33) 0.5731(17)
H71 H 0.1355(9) 2.0079(33) 0.5894(17)
H72 H 0.1127(9) 2.1038(33) 0.5566(17)
O23 O -0.2869(5) 1.0099(18) 0.5906(11)
N7 N -0.2829(5) 0.8602(21) 0.6522(12)
C85 C -0.2960(7) 0.9588(28) 0.6238(17)
C86 C -0.2585(6) 0.8166(27) 0.6419(17)
H49 H -0.2523(6) 0.7473(27) 0.6656(17)
H50 H -0.2426(6) 0.8695(27) 0.6574(17)
H51 H -0.2640(6) 0.8033(27) 0.5955(17)
C87 C -0.2939(8) 0.7916(26) 0.6901(16)
H52 H -0.2816(8) 0.7266(26) 0.7055(16)
H53 H -0.3136(8) 0.7685(26) 0.6630(16)
H54 H -0.2939(8) 0.8336(26) 0.7272(16)
O25 O 0.1380(5) 1.6195(21) 1.0512(14)
N15 N 0.1161(5) 1.5830(19) 0.9454(13)
C106 C 0.1370(7) 1.5626(25) 1.0065(18)
C107 C 0.1149(8) 1.5138(29) 0.8924(17)
H73 H 0.0991(8) 1.5381(29) 0.8525(17)
H74 H 0.1116(8) 1.4375(29) 0.9015(17)
H75 H 0.1331(8) 1.5190(29) 0.8871(17)
C108 C 0.0946(7) 1.6684(25) 0.9258(17)
H76 H 0.0828(7) 1.6618(25) 0.8793(17)
H77 H 0.1041(7) 1.7404(25) 0.9348(17)
H78 H 0.0824(7) 1.6611(25) 0.9498(17)
O31 O -0.0677(7) 1.0396(29) 0.4047(17)
N14 N -0.1068(9) 0.9316(31) 0.3924(18)
C103 C -0.1145(10) 0.9793(36) 0.4414(21)
C104 C -0.1206(12) 0.8344(40) 0.3570(28)
C105 C -0.0853(12) 0.9575(42) 0.3768(25)
O22? O -0.0170(7) 1.2613(24) 0.4371(15)
O24? O -0.1176(11) 1.6252(42) 0.5691(26)
O26? O -0.2319(5) 0.9273(20) 0.5107(12)
O27? O -0.0489(10) 1.3390(34) 0.2837(20)
O28? O 0.0279(11) 1.7361(39) 0.5949(27)
O29? O 0.0329(11) 1.7021(40) 0.6488(27)
O30? O -0.1930(9) 0.8862(32) 0.5147(20)
N10? N -0.0139(10) 1.4204(42) 0.2601(23)
N12? N 0.0174(8) 1.1623(33) 0.5149(19)
N13? N -0.0395(14) 1.7842(50) 0.4927(32)
C94? C -0.0162(16) 1.7450(54) 0.5479(36)
C95? C 0.0148(22) 1.2280(81) 0.4746(53)
C96? C -0.0136(22) 1.1320(75) 0.4938(48)
C100? C 0.0174(11) 1.4230(51) 0.2821(31)
C101? C -0.0351(11) 1.4857(42) 0.2092(24)
C102? C -0.0286(17) 1.3499(48) 0.2909(31)
C109? C -0.1113(18) 1.6762(66) 0.5219(36)
loop_
_geom_bond_atom_site_label_1
_geom_bond_atom_site_label_2
_geom_bond_site_symmetry_1
_geom_bond_site_symmetry_2
Ti1 O1 1_555 1_555
Ti2 O5 1_555 1_555
O1 C2 1_555 1_555
O2 Ti1 1_555 1_555
O3 C7 1_555 1_555
O4 C22 1_555 1_555
O5 C28 1_555 1_555
O6 Ti2 1_555 1_555
O7 Ti1 1_555 1_555
O8 Ti1 1_555 1_555
O9 C35 1_555 1_555
O10 C50 1_555 1_555
O11 Ti2 1_555 1_555
O12 Ti2 1_555 1_555
O13 Ti1 1_555 1_555
O14 Ti1 1_555 1_555
O15 C63 1_555 1_555
O16 C78 1_555 1_555
O17 Ti2 1_555 1_555
O18 Ti2 1_555 1_555
O19 C91 1_555 1_555
O20 C88 1_555 1_555
O21 C97 1_555 1_555
O23 C85 1_555 1_555
O25 C106 1_555 1_555
O31 C105 1_555 1_555
N1 H1 1_555 1_555
N2 H2 1_555 1_555
N3 H3 1_555 1_555
N4 H4 1_555 1_555
N5 H5 1_555 1_555
N6 H6 1_555 1_555
N7 C85 1_555 1_555
N8 C88 1_555 1_555
N9 C91 1_555 1_555
N11 C97 1_555 1_555
N14 C103 1_555 1_555
N15 C106 1_555 1_555
C1 O2 1_555 1_555
C2 C1 1_555 1_555
C3 C2 1_555 1_555
H7 C3 1_555 1_555
C4 C3 1_555 1_555
H8 C4 1_555 1_555
C5 C4 1_555 1_555
H9 C5 1_555 1_555
C6 C1 1_555 1_555
C7 N1 1_555 1_555
C8 N1 1_555 1_555
C9 C8 1_555 1_555
H10 C9 1_555 1_555
C10 C9 1_555 1_555
H11 C10 1_555 1_555
C11 C10 1_555 1_555
C12 C11 1_555 1_555
C13 C8 1_555 1_555
H12 C13 1_555 1_555
C14 C12 1_555 1_555
H13 C14 1_555 1_555
C15 C14 1_555 1_555
C16 C15 1_555 1_555
C17 C11 1_555 1_555
H14 C17 1_555 1_555
C18 C16 1_555 1_555
H15 C18 1_555 1_555
C19 N2 1_555 1_555
C20 C19 1_555 1_555
H16 C20 1_555 1_555
C21 C15 1_555 1_555
H17 C21 1_555 1_555
C22 N2 1_555 1_555
C23 C22 1_555 1_555
C24 C23 1_555 1_555
H18 C24 1_555 1_555
C25 C24 1_555 1_555
H19 C25 1_555 1_555
C26 C25 1_555 1_555
H20 C26 1_555 1_555
C27 O6 1_555 1_555
C28 C23 1_555 1_555
C29 O8 1_555 1_555
C30 O7 1_555 1_555
C31 C30 1_555 1_555
H21 C31 1_555 1_555
C32 C31 1_555 1_555
H22 C32 1_555 1_555
C33 C32 1_555 1_555
H23 C33 1_555 1_555
C34 C29 1_555 1_555
C35 N3 1_555 1_555
C36 N3 1_555 1_555
C37 C36 1_555 1_555
H24 C37 1_555 1_555
C38 C37 1_555 1_555
H25 C38 1_555 1_555
C39 C38 1_555 1_555
C40 C39 1_555 1_555
C41 C36 1_555 1_555
H26 C41 1_555 1_555
C42 C40 1_555 1_555
H27 C42 1_555 1_555
C43 C42 1_555 1_555
C44 C43 1_555 1_555
C45 C39 1_555 1_555
H28 C45 1_555 1_555
C46 C43 1_555 1_555
H29 C46 1_555 1_555
C47 C46 1_555 1_555
H30 C47 1_555 1_555
C48 N4 1_555 1_555
C49 C44 1_555 1_555
H31 C49 1_555 1_555
C50 N4 1_555 1_555
C51 C50 1_555 1_555
C52 O12 1_555 1_555
C53 O11 1_555 1_555
C54 C52 1_555 1_555
H32 C54 1_555 1_555
C55 C54 1_555 1_555
H33 C55 1_555 1_555
C56 C51 1_555 1_555
H34 C56 1_555 1_555
C57 O14 1_555 1_555
C58 O13 1_555 1_555
C59 C58 1_555 1_555
H35 C59 1_555 1_555
C60 C59 1_555 1_555
H36 C60 1_555 1_555
C61 C60 1_555 1_555
H37 C61 1_555 1_555
C62 C57 1_555 1_555
C63 N5 1_555 1_555
C64 N5 1_555 1_555
C65 C64 1_555 1_555
H38 C65 1_555 1_555
C66 C65 1_555 1_555
H39 C66 1_555 1_555
C67 C66 1_555 1_555
C68 C67 1_555 1_555
C69 C64 1_555 1_555
H40 C69 1_555 1_555
C70 C68 1_555 1_555
H41 C70 1_555 1_555
C71 C70 1_555 1_555
C72 C71 1_555 1_555
C73 C67 1_555 1_555
H42 C73 1_555 1_555
C74 C72 1_555 1_555
H43 C74 1_555 1_555
C75 N6 1_555 1_555
C76 C75 1_555 1_555
H44 C76 1_555 1_555
C77 C71 1_555 1_555
H45 C77 1_555 1_555
C78 N6 1_555 1_555
C79 C78 1_555 1_555
C80 C79 1_555 1_555
H46 C80 1_555 1_555
C81 C80 1_555 1_555
H47 C81 1_555 1_555
C82 C81 1_555 1_555
H48 C82 1_555 1_555
C83 O18 1_555 1_555
C84 O17 1_555 1_555
C86 N7 1_555 1_555
H49 C86 1_555 1_555
H50 C86 1_555 1_555
H51 C86 1_555 1_555
C87 N7 1_555 1_555
H52 C87 1_555 1_555
H53 C87 1_555 1_555
H54 C87 1_555 1_555
C89 N8 1_555 1_555
H55 C89 1_555 1_555
H56 C89 1_555 1_555
H57 C89 1_555 1_555
C90 N8 1_555 1_555
H58 C90 1_555 1_555
H59 C90 1_555 1_555
H60 C90 1_555 1_555
C92 N9 1_555 1_555
H61 C92 1_555 1_555
H62 C92 1_555 1_555
H63 C92 1_555 1_555
C93 N9 1_555 1_555
H64 C93 1_555 1_555
H65 C93 1_555 1_555
H66 C93 1_555 1_555
C98 N11 1_555 1_555
H67 C98 1_555 1_555
H68 C98 1_555 1_555
H69 C98 1_555 1_555
C99 N11 1_555 1_555
H70 C99 1_555 1_555
H71 C99 1_555 1_555
H72 C99 1_555 1_555
C104 N14 1_555 1_555
C105 N14 1_555 1_555
C107 N15 1_555 1_555
H73 C107 1_555 1_555
H74 C107 1_555 1_555
H75 C107 1_555 1_555
C108 N15 1_555 1_555
H76 C108 1_555 1_555
H77 C108 1_555 1_555
H78 C108 1_555 1_555
C5 C6 1_555 1_555
C6 C7 1_555 1_555
C12 C13 1_555 1_555
C16 C17 1_555 1_555
C18 C19 1_555 1_555
C20 C21 1_555 1_555
C26 C27 1_555 1_555
C27 C28 1_555 1_555
C29 C30 1_555 1_555
C33 C34 1_555 1_555
C34 C35 1_555 1_555
C40 C41 1_555 1_555
C44 C45 1_555 1_555
C47 C48 1_555 1_555
C48 C49 1_555 1_555
C51 C53 1_555 1_555
C52 C53 1_555 1_555
C55 C56 1_555 1_555
C57 C58 1_555 1_555
C61 C62 1_555 1_555
C62 C63 1_555 1_555
C68 C69 1_555 1_555
C72 C73 1_555 1_555
C74 C75 1_555 1_555
C76 C77 1_555 1_555
C79 C84 1_555 1_555
C82 C83 1_555 1_555
C83 C84 1_555 1_555

#END
