
#######################################################################
#
#                 Cambridge Crystallographic Data Centre
#                                CCDC 
#
#######################################################################
#
# If this CIF has been generated from an entry in the Cambridge 
# Structural Database, then it will include bibliographic, chemical, 
# crystal, experimental, refinement or atomic coordinate data resulting 
# from the CCDC's data processing and validation procedures.
#
#######################################################################

data_GULRIO
_chemical_formula_moiety         
'C138 H108 N12 P4 Pd2 4+,4(C1 F3 O3 S1 1-),7(C2 H6 O1),2(H2 O1)'
_chemical_name_systematic        
'bis(\m~2~-5,10-bis(4-Pyridyl)-15,20-diphenylporphyrin)-bis(1,3-bis(diphenylphosphino)propane)-di-palladium(ii) tetrakis(trifluoromethanesulfonate) ethanol solvate dihydrate'
_symmetry_cell_setting           monoclinic
_symmetry_space_group_name_H-M   'P 21/n'
_symmetry_Int_Tables_number      14
_space_group_name_Hall           '-P 2yn'
loop_
_symmetry_equiv_pos_site_id
_symmetry_equiv_pos_as_xyz
1 x,y,z
2 1/2-x,1/2+y,1/2-z
3 -x,-y,-z
4 1/2+x,1/2-y,1/2+z
_cell_length_a                   20.6530(5)
_cell_length_b                   24.2278(3)
_cell_length_c                   31.4735(7)
_cell_angle_alpha                90
_cell_angle_beta                 101.8708(7)
_cell_angle_gamma                90
_cell_volume                     15411.8
_cell_formula_units_Z            4
_exptl_crystal_recrystallization_method chloroform
loop_
_atom_site_label
_atom_site_type_symbol
_atom_site_fract_x
_atom_site_fract_y
_atom_site_fract_z
Pd1 Pd 0.3647(1) -0.1668(1) 0.7407(1)
Pd2 Pd 0.5557(1) 0.3492 0.6016(1)
P1 P 0.2807(1) -0.1975(1) 0.7713(1)
P2 P 0.6559(1) 0.3901(1) 0.6047(1)
P3 P 0.4218(1) -0.2448(1) 0.7639(1)
P4 P 0.5063(1) 0.4335(1) 0.5986(1)
N1 N 0.1648(2) 0.2175(2) 0.5628(2)
N2 N 0.6819(3) -0.1101(2) 0.6173(2)
N3 N 0.2345(3) 0.1386(2) 0.6202(2)
N4 N 0.6418(3) 0.0058(2) 0.6205(2)
N5 N 0.1087(2) 0.0925(2) 0.6368(2)
N6 N 0.7300(2) 0.0367(2) 0.5643(2)
N7 N 0.0399(3) 0.1732(2) 0.5820(2)
N8 N 0.7717(3) -0.0786(2) 0.5624(2)
N9 N 0.4646(3) 0.3078(2) 0.5977(2)
N10 N 0.4414(3) -0.1354(2) 0.7125(2)
N11 N 0.3145(3) -0.0940(2) 0.7179(2)
N12 N 0.5959(3) 0.2689(2) 0.6012(2)
C1 C 0.1184(3) 0.2504(3) 0.5356(2)
C2 C 0.7103(4) -0.1611(3) 0.6134(2)
C3 C 0.1541(4) 0.2931(3) 0.5191(2)
C4 C 0.6831(4) -0.1980(3) 0.6402(3)
C5 C 0.2197(4) 0.2870(3) 0.5376(2)
C6 C 0.6375(4) -0.1708(3) 0.6575(2)
C7 C 0.2265(3) 0.2389(2) 0.5644(2)
C8 C 0.6360(3) -0.1150(3) 0.6428(2)
C9 C 0.2851(3) 0.2165(3) 0.5892(2)
C10 C 0.5939(3) -0.0734(3) 0.6523(2)
C11 C 0.2880(3) 0.1666(3) 0.6127(2)
C12 C 0.5966(3) -0.0170(3) 0.6417(2)
C13 C 0.3484(3) 0.1366(3) 0.6300(2)
C14 C 0.5513(4) 0.0242(3) 0.6517(3)
C15 C 0.3309(4) 0.0902(3) 0.6481(3)
C16 C 0.5695(4) 0.0726(3) 0.6367(3)
C17 C 0.2592(3) 0.0915(3) 0.6429(2)
C18 C 0.6265(3) 0.0609(3) 0.6166(2)
C19 C 0.2212(3) 0.0528(3) 0.6595(2)
C20 C 0.6574(3) 0.1003(3) 0.5952(2)
C21 C 0.1529(3) 0.0544(3) 0.6585(2)
C22 C 0.7053(3) 0.0884(2) 0.5707(2)
C23 C 0.1173(3) 0.0184(3) 0.6818(2)
C24 C 0.7376(3) 0.1266(3) 0.5477(2)
C25 C 0.0536(3) 0.0350(3) 0.6745(2)
C26 C 0.7809(3) 0.0991(2) 0.5286(2)
C27 C 0.0470(3) 0.0813(3) 0.6453(2)
C28 C 0.7776(3) 0.0416(2) 0.5394(2)
C29 C -0.0104(3) 0.1113(3) 0.6285(2)
C30 C 0.8144(3) -0.0011(3) 0.5263(2)
C31 C -0.0135(3) 0.1534(3) 0.5975(2)
C32 C 0.8099(3) -0.0576(2) 0.5359(2)
C33 C -0.0740(3) 0.1804(3) 0.5754(2)
C34 C 0.8463(4) -0.1009(3) 0.5192(2)
C35 C -0.0573(3) 0.2153(3) 0.5465(3)
C36 C 0.8283(4) -0.1488(3) 0.5351(2)
C37 C 0.0140(3) 0.2116(3) 0.5508(2)
C38 C 0.7828(3) -0.1349(3) 0.5632(2)
C39 C 0.0504(3) 0.2455(3) 0.5283(2)
C40 C 0.7551(4) -0.1734(3) 0.5870(2)
C41 C 0.4284(3) 0.2935(3) 0.5586(2)
C42 C 0.4434(4) -0.1479(3) 0.6713(2)
C43 C 0.3706(3) 0.2630(3) 0.5546(2)
C44 C 0.4913(4) -0.1281(3) 0.6511(2)
C45 C 0.3483(3) 0.2477(3) 0.5917(2)
C46 C 0.5401(3) -0.0924(3) 0.6737(2)
C47 C 0.3874(3) 0.2625(3) 0.6317(2)
C48 C 0.5369(4) -0.0783(3) 0.7160(2)
C49 C 0.4445(4) 0.2918(3) 0.6336(2)
C50 C 0.4870(3) -0.1006(3) 0.7342(2)
C51 C 0.3311(4) -0.0445(3) 0.7364(2)
C52 C 0.6220(4) 0.2403(3) 0.6372(2)
C53 C 0.3027(4) 0.0036(3) 0.7189(2)
C54 C 0.6430(4) 0.1867(3) 0.6364(2)
C55 C 0.2553(3) 0.0021(3) 0.6808(2)
C56 C 0.6372(3) 0.1589(3) 0.5970(2)
C57 C 0.2382(4) -0.0487(3) 0.6615(2)
C58 C 0.6102(3) 0.1892(3) 0.5600(2)
C59 C 0.2683(4) -0.0955(3) 0.6808(2)
C60 C 0.5907(3) 0.2423(3) 0.5631(2)
C61 C -0.0722(3) 0.0959(3) 0.6439(2)
C62 C 0.8653(3) 0.0166(2) 0.5011(2)
C63 C -0.0992(3) 0.0426(3) 0.6379(2)
C64 C 0.9173(3) 0.0508(3) 0.5215(2)
C65 C -0.1555(4) 0.0287(3) 0.6531(3)
C66 C 0.9648(4) 0.0696(3) 0.4999(2)
C67 C -0.1864(4) 0.0676(4) 0.6742(3)
C68 C 0.9621(4) 0.0535(3) 0.4577(2)
C69 C -0.1613(4) 0.1212(4) 0.6800(3)
C70 C 0.9117(4) 0.0195(3) 0.4369(2)
C71 C -0.1046(4) 0.1350(3) 0.6649(3)
C72 C 0.8635(3) 0.0016(3) 0.4584(2)
C73 C 0.0129(4) 0.2829(3) 0.4933(2)
C74 C 0.7708(4) -0.2340(3) 0.5846(2)
C75 C -0.0126(7) 0.3315(5) 0.5037(4)
C76 C 0.8333(4) -0.2547(3) 0.5978(3)
C77 C -0.0450(8) 0.3665(6) 0.4712(5)
C78 C 0.8450(6) -0.3109(4) 0.5954(3)
C79 C -0.0533(6) 0.3502(6) 0.4281(4)
C80 C 0.7926(7) -0.3458(4) 0.5784(4)
C81 C -0.0301(5) 0.3013(5) 0.4189(3)
C82 C 0.7300(6) -0.3252(4) 0.5642(3)
C83 C 0.0033(5) 0.2697(4) 0.4512(3)
C84 C 0.7192(5) -0.2702(3) 0.5677(3)
C85 C 0.3112(4) -0.2176(3) 0.8276(2)
C86 C 0.6561(4) 0.4523(3) 0.5723(3)
C87 C 0.3557(4) -0.2687(3) 0.8327(3)
C88 C 0.6093(3) 0.4977(3) 0.5807(2)
C89 C 0.4222(4) -0.2608(3) 0.8201(2)
C90 C 0.5369(3) 0.4830(3) 0.5641(2)
C91 C 0.2199(4) -0.1444(3) 0.7746(2)
C92 C 0.7088(4) 0.3443(3) 0.5813(3)
C93 C 0.1536(4) -0.1492(4) 0.7536(3)
C94 C 0.6964(4) 0.3354(3) 0.5380(3)
C95 C 0.1089(4) -0.1078(4) 0.7574(3)
C96 C 0.7350(5) 0.3005(4) 0.5189(3)
C97 C 0.1288(4) -0.0622(4) 0.7819(3)
C98 C 0.7830(5) 0.2705(3) 0.5437(4)
C99 C 0.1942(5) -0.0562(3) 0.8024(3)
C100 C 0.7931(6) 0.2748(5) 0.5885(4)
C101 C 0.2394(4) -0.0971(3) 0.7992(3)
C102 C 0.7551(5) 0.3112(5) 0.6072(4)
C103 C 0.2348(3) -0.2554(3) 0.7449(2)
C104 C 0.6997(3) 0.4058(3) 0.6593(3)
C105 C 0.2297(4) -0.2631(3) 0.7006(3)
C106 C 0.7491(5) 0.4457(4) 0.6675(3)
C107 C 0.1921(5) -0.3057(4) 0.6789(3)
C108 C 0.7821(6) 0.4570(5) 0.7091(4)
C109 C 0.1588(5) -0.3418(4) 0.7015(3)
C110 C 0.7661(5) 0.4282(4) 0.7430(3)
C111 C 0.1638(4) -0.3351(3) 0.7447(3)
C112 C 0.7201(5) 0.3881(4) 0.7360(3)
C113 C 0.2005(4) -0.2921(3) 0.7668(3)
C114 C 0.6866(4) 0.3769(3) 0.6942(3)
C115 C 0.3926(4) -0.3048(3) 0.7309(3)
C116 C 0.5165(3) 0.4687(3) 0.6511(2)
C117 C 0.3791(4) -0.2995(3) 0.6867(3)
C118 C 0.5014(4) 0.5243(3) 0.6518(3)
C119 C 0.3566(5) -0.3437(4) 0.6595(3)
C120 C 0.5129(5) 0.5522(3) 0.6902(3)
C121 C 0.3476(5) -0.3945(4) 0.6783(3)
C122 C 0.5403(4) 0.5241(4) 0.7284(3)
C123 C 0.3598(6) -0.3990(4) 0.7218(3)
C124 C 0.5545(4) 0.4695(4) 0.7286(3)
C125 C 0.3829(5) -0.3551(3) 0.7486(3)
C126 C 0.5415(4) 0.4408(3) 0.6888(2)
C127 C 0.5095(4) -0.2401(3) 0.7634(3)
C128 C 0.4176(3) 0.4307(3) 0.5764(2)
C129 C 0.5474(4) -0.2035(4) 0.7929(4)
C130 C 0.3747(4) 0.4192(3) 0.6040(3)
C131 C 0.6158(5) -0.1983(6) 0.7940(4)
C132 C 0.3074(4) 0.4163(4) 0.5872(3)
C133 C 0.6442(5) -0.2313(6) 0.7665(5)
C134 C 0.2831(4) 0.4249(3) 0.5436(3)
C135 C 0.6078(5) -0.2669(5) 0.7385(4)
C136 C 0.3248(4) 0.4360(3) 0.5167(3)
C137 C 0.5394(4) -0.2714(4) 0.7369(3)
C138 C 0.3914(4) 0.4382(3) 0.5328(2)
H1 H 0.1356 0.3208 0.4988
H2 H 0.6950 -0.2356 0.6451
H3 H 0.2546 0.3106 0.5334
H4 H 0.6112 -0.1861 0.6761
H5 H 0.3921 0.1477 0.6289
H6 H 0.5157 0.0182 0.6661
H7 H 0.3597 0.0619 0.6617
H8 H 0.5495 0.1076 0.6388
H9 H 0.1356 -0.0119 0.6994
H10 H 0.7300 0.1653 0.5460
H11 H 0.0193 0.0191 0.6865
H12 H 0.8085 0.1148 0.5112
H13 H -0.1172 0.1743 0.5805
H14 H 0.8768 -0.0964 0.5006
H15 H -0.0866 0.2382 0.5268
H16 H 0.8427 -0.1847 0.5292
H17 H 0.4428 0.3047 0.5332
H18 H 0.4103 -0.1715 0.6555
H19 H 0.3464 0.2527 0.5267
H20 H 0.4815 -0.1384 0.6220
H21 H 0.3742 0.2521 0.6578
H22 H 0.5684 -0.0538 0.7323
H23 H 0.4706 0.3011 0.6612
H24 H 0.4581 -0.0909 0.7632
H25 H 0.3637 -0.0429 0.7625
H26 H 0.6261 0.2581 0.6645
H27 H 0.3155 0.0378 0.7328
H28 H 0.6617 0.1684 0.6628
H29 H 0.2064 -0.0510 0.6351
H30 H 0.6054 0.1726 0.5322
H31 H 0.2559 -0.1302 0.6676
H32 H 0.5725 0.2616 0.5372
H33 H -0.0786 0.0126 0.6232
H34 H 0.9199 0.0613 0.5509
H35 H -0.1729 -0.0076 0.6491
H36 H 0.9991 0.0934 0.5141
H37 H -0.2248 0.0578 0.6847
H38 H 0.9950 0.0657 0.4428
H39 H -0.1828 0.1481 0.6941
H40 H 0.9102 0.0085 0.4078
H41 H -0.0876 0.1715 0.6690
H42 H 0.8278 -0.0213 0.4437
H43 H -0.0082 0.3417 0.5334
H44 H 0.8690 -0.2305 0.6088
H45 H -0.0614 0.4012 0.4783
H46 H 0.8882 -0.3254 0.6051
H47 H -0.0753 0.3736 0.4055
H48 H 0.8002 -0.3843 0.5766
H49 H -0.0371 0.2889 0.3897
H50 H 0.6946 -0.3491 0.5520
H51 H 0.0212 0.2359 0.4437
H52 H 0.6757 -0.2560 0.5585
H53 H 0.3364 -0.1865 0.8433
H54 H 0.2730 -0.2251 0.8413
H55 H 0.7017 0.4674 0.5780
H56 H 0.6444 0.4421 0.5413
H57 H 0.3635 -0.2810 0.8633
H58 H 0.3318 -0.2988 0.8146
H59 H 0.6169 0.5049 0.6123
H60 H 0.6195 0.5320 0.5663
H61 H 0.4483 -0.2950 0.8277
H62 H 0.4459 -0.2308 0.8383
H63 H 0.5314 0.4675 0.5345
H64 H 0.5100 0.5171 0.5622
H65 H 0.1391 -0.1811 0.7367
H66 H 0.6600 0.3537 0.5201
H67 H 0.0640 -0.1113 0.7427
H68 H 0.7275 0.2976 0.4882
H69 H 0.0976 -0.0344 0.7848
H70 H 0.8099 0.2467 0.5307
H71 H 0.2082 -0.0238 0.8188
H72 H 0.8259 0.2528 0.6046
H73 H 0.2841 -0.0931 0.8140
H74 H 0.7611 0.3133 0.6379
H75 H 0.2525 -0.2389 0.6850
H76 H 0.7601 0.4655 0.6439
H77 H 0.1890 -0.3104 0.6485
H78 H 0.8157 0.4844 0.7143
H79 H 0.1327 -0.3708 0.6866
H80 H 0.7878 0.4367 0.7719
H81 H 0.1419 -0.3603 0.7601
H82 H 0.7107 0.3675 0.7597
H83 H 0.2024 -0.2875 0.7970
H84 H 0.6540 0.3487 0.6894
H87 H 0.3853 -0.2647 0.6743
H88 H 0.4831 0.5430 0.6255
H89 H 0.3476 -0.3394 0.6288
H90 H 0.5023 0.5903 0.6909
H91 H 0.3330 -0.4256 0.6605
H92 H 0.5492 0.5439 0.7550
H93 H 0.3524 -0.4334 0.7345
H94 H 0.5727 0.4510 0.7549
H95 H 0.3920 -0.3596 0.7793
H96 H 0.5500 0.4023 0.6881
H97 H 0.5272 -0.1822 0.8120
H98 H 0.3915 0.4135 0.6341
H99 H 0.6419 -0.1728 0.8131
H100 H 0.2779 0.4083 0.6059
H101 H 0.6904 -0.2287 0.7676
H102 H 0.2368 0.4229 0.5323
H103 H 0.6282 -0.2889 0.7200
H104 H 0.3078 0.4423 0.4867
H105 H 0.5173 -0.2965 0.7171
H106 H 0.4204 0.4450 0.5136
S1 S 0.5885(1) 0.2772(1) 0.7562(1)
O1 O 0.6431(5) 0.2442(5) 0.7481(3)
O3 O 0.6028(5) 0.3057(4) 0.7964(2)
O5 O 0.5593(4) 0.3071(3) 0.7193(2)
F1 F 0.5061(7) 0.1992(4) 0.7276(4)
F3 F 0.4709(6) 0.2566(3) 0.7670(6)
F5 F 0.5431(7) 0.1962(4) 0.7947(4)
C139 C 0.5229(9) 0.2296(6) 0.7621(6)
S2 S 0.2634(1) -0.2160(1) 0.5848(1)
O2 O 0.2996(3) -0.1966(2) 0.6260(2)
O4 O 0.2872(3) -0.1955(2) 0.5475(2)
O6 O 0.2469(4) -0.2733(2) 0.5834(2)
F2 F 0.1432(3) -0.1956(3) 0.5435(2)
F4 F 0.1898(3) -0.1275(2) 0.5790(2)
F6 F 0.1560(3) -0.1938(3) 0.6129(2)
C140 C 0.1833(5) -0.1821(4) 0.58023
S3 S 0.4560(2) -0.0929(1) 0.8612(1)
O7 O 0.4115(4) -0.1035(3) 0.8228(2)
O9 O 0.5142(6) -0.0681 0.8583(5)
O11 O 0.4707(10) -0.1450(5) 0.8861(4)
F7 F 0.4519(6) -0.0450(6) 0.9337(3)
F9 F 0.3635(6) -0.0757(8) 0.9009(4)
F11 F 0.4005(11) -0.0053(7) 0.8765(7)
C141 C 0.4134(11) -0.0538(10) 0.8953(7)
S4 S 0.4888(2) -0.3598(1) 0.5421(1)
O8 O 0.4442(4) -0.4011(3) 0.5534(3)
O10 O 0.4738(4) -0.3449(3) 0.4988(2)
O12 O 0.5601(4) -0.3790(4) 0.5565(4)
F8 F 0.4212(6) -0.2836(5) 0.5613(4)
F10 F 0.5340(10) -0.2672(7) 0.5675(9)
F12 F 0.5005(7) -0.3124(7) 0.6157(4)
C142 C 0.4873(13) -0.2949(11) 0.5708(8)
O13 O 0.5446(4) 0.4060(3) 0.8191(3)
C143 C 0.5391(6) 0.3951(5) 0.8632(4)
C144 C 0.4847(8) 0.3521(6) 0.8638(5)
O14 O 0.3124(5) 0.9911(4) 0.0831(3)
C145 C 0.3431(10) 1.0208(8) 0.0517(6)
C146 C 0.3917(12) 0.9806(10) 0.0368(8)
O15 O 0.4065(6) 0.9883(4) 0.1631(4)
C147 C 0.4467(10) 0.9362(8) 0.1777(6)
C148 C 0.4943(11) 0.9440(9) 0.2190(7)
O16 O 0.3918(7) -0.1214(7) 0.5538(5)
C149 C 0.3735(19) -0.0672(17) 0.5556(12)
C150 C 0.3442(12) -0.0520(10) 0.5776(8)
O17 O 0.2036(16) 0.8898(13) 0.1782(10)
C151 C 0.2632(12) 0.8669(10) 0.1995(8)
C152 C 0.2464(11) 0.8146(9) 0.2229(8)
O20 O 0.8315(10) 0.9431(8) 0.0818(7)
C153 C 0.7802(12) 0.9233(9) 0.0522(7)
C154 C 0.7199(15) 0.9336(13) 0.0698(11)
O21 O 0.9380(19) 0.3673(15) 0.0535(13)
C155 C 0.8988(13) 0.3721(11) 0.0048(9)
C156 C 0.9437(18) 0.3321(14) -0.0155(12)
O23 O 0.6337(15) 0.3435(11) 0.1014(10)
O18? O 0.2673(12) 0.8355(9) 0.2535(8)
O19? O 0.7160(20) 0.9060(20) 0.0998(17)
O22? O 0.9945(18) 0.3669(15) -0.0318(12)
O24? O 0.2340(40) 0.5540(40) 0.1000(30)
O25? O 0.9314(19) 0.6933(17) 0.0592(13)
O26? O 0.0150(30) 0.5160(20) 0.0280(17)
H85? H 0.4085 -0.2742 0.7490
H86? H 0.5094 0.4494 0.6242
loop_
_geom_bond_atom_site_label_1
_geom_bond_atom_site_label_2
_geom_bond_site_symmetry_1
_geom_bond_site_symmetry_2
Pd1 P1 1_555 1_555
Pd2 P2 1_555 1_555
P1 C85 1_555 1_555
P2 C86 1_555 1_555
P3 Pd1 1_555 1_555
P4 Pd2 1_555 1_555
N1 C1 1_555 1_555
N2 C2 1_555 1_555
N3 C11 1_555 1_555
N4 C12 1_555 1_555
N5 C21 1_555 1_555
N6 C22 1_555 1_555
N7 C31 1_555 1_555
N8 C32 1_555 1_555
N9 Pd2 1_555 1_555
N10 Pd1 1_555 1_555
N11 Pd1 1_555 1_555
N12 Pd2 1_555 1_555
C1 C3 1_555 1_555
C2 C4 1_555 1_555
C3 C5 1_555 1_555
C4 C6 1_555 1_555
C5 C7 1_555 1_555
C6 C8 1_555 1_555
C7 N1 1_555 1_555
C8 N2 1_555 1_555
C9 C7 1_555 1_555
C10 C8 1_555 1_555
C11 C9 1_555 1_555
C12 C10 1_555 1_555
C13 C11 1_555 1_555
C14 C12 1_555 1_555
C15 C13 1_555 1_555
C16 C14 1_555 1_555
C17 N3 1_555 1_555
C18 N4 1_555 1_555
C19 C17 1_555 1_555
C20 C18 1_555 1_555
C21 C19 1_555 1_555
C22 C20 1_555 1_555
C23 C21 1_555 1_555
C24 C22 1_555 1_555
C25 C23 1_555 1_555
C26 C24 1_555 1_555
C27 N5 1_555 1_555
C28 N6 1_555 1_555
C29 C27 1_555 1_555
C30 C28 1_555 1_555
C31 C29 1_555 1_555
C32 C30 1_555 1_555
C33 C31 1_555 1_555
C34 C32 1_555 1_555
C35 C33 1_555 1_555
C36 C34 1_555 1_555
C37 N7 1_555 1_555
C38 N8 1_555 1_555
C39 C1 1_555 1_555
C40 C2 1_555 1_555
C41 N9 1_555 1_555
C42 N10 1_555 1_555
C43 C41 1_555 1_555
C44 C42 1_555 1_555
C45 C9 1_555 1_555
C46 C10 1_555 1_555
C47 C45 1_555 1_555
C48 C46 1_555 1_555
C49 N9 1_555 1_555
C50 N10 1_555 1_555
C51 N11 1_555 1_555
C52 N12 1_555 1_555
C53 C51 1_555 1_555
C54 C52 1_555 1_555
C55 C19 1_555 1_555
C56 C20 1_555 1_555
C57 C55 1_555 1_555
C58 C56 1_555 1_555
C59 N11 1_555 1_555
C60 N12 1_555 1_555
C61 C29 1_555 1_555
C62 C30 1_555 1_555
C63 C61 1_555 1_555
C64 C62 1_555 1_555
C65 C63 1_555 1_555
C66 C64 1_555 1_555
C67 C65 1_555 1_555
C68 C66 1_555 1_555
C69 C67 1_555 1_555
C70 C68 1_555 1_555
C71 C61 1_555 1_555
C72 C62 1_555 1_555
C73 C39 1_555 1_555
C74 C40 1_555 1_555
C75 C73 1_555 1_555
C76 C74 1_555 1_555
C77 C75 1_555 1_555
C78 C76 1_555 1_555
C79 C77 1_555 1_555
C80 C78 1_555 1_555
C81 C79 1_555 1_555
C82 C80 1_555 1_555
C83 C73 1_555 1_555
C84 C74 1_555 1_555
C85 C87 1_555 1_555
C86 C88 1_555 1_555
C87 C89 1_555 1_555
C88 C90 1_555 1_555
C89 P3 1_555 1_555
C90 P4 1_555 1_555
C91 P1 1_555 1_555
C92 P2 1_555 1_555
C93 C91 1_555 1_555
C94 C92 1_555 1_555
C95 C93 1_555 1_555
C96 C94 1_555 1_555
C97 C95 1_555 1_555
C98 C96 1_555 1_555
C99 C97 1_555 1_555
C100 C98 1_555 1_555
C101 C91 1_555 1_555
C102 C92 1_555 1_555
C103 P1 1_555 1_555
C104 P2 1_555 1_555
C105 C103 1_555 1_555
C106 C104 1_555 1_555
C107 C105 1_555 1_555
C108 C106 1_555 1_555
C109 C107 1_555 1_555
C110 C108 1_555 1_555
C111 C109 1_555 1_555
C112 C110 1_555 1_555
C113 C103 1_555 1_555
C114 C104 1_555 1_555
C115 P3 1_555 1_555
C116 P4 1_555 1_555
C117 C115 1_555 1_555
C118 C116 1_555 1_555
C119 C117 1_555 1_555
C120 C118 1_555 1_555
C121 C119 1_555 1_555
C122 C120 1_555 1_555
C123 C121 1_555 1_555
C124 C122 1_555 1_555
C125 C115 1_555 1_555
C126 C116 1_555 1_555
C127 P3 1_555 1_555
C128 P4 1_555 1_555
C129 C127 1_555 1_555
C130 C128 1_555 1_555
C131 C129 1_555 1_555
C132 C130 1_555 1_555
C133 C131 1_555 1_555
C134 C132 1_555 1_555
C135 C133 1_555 1_555
C136 C134 1_555 1_555
C137 C127 1_555 1_555
C138 C128 1_555 1_555
S1 O1 1_555 1_555
S2 O2 1_555 1_555
S3 O7 1_555 1_555
S4 O8 1_555 1_555
O3 S1 1_555 1_555
O4 S2 1_555 1_555
O5 S1 1_555 1_555
O6 S2 1_555 1_555
O9 S3 1_555 1_555
O10 S4 1_555 1_555
O11 S3 1_555 1_555
O12 S4 1_555 1_555
F1 C139 1_555 1_555
F2 C140 1_555 1_555
F3 C139 1_555 1_555
F4 C140 1_555 1_555
F5 C139 1_555 1_555
F6 C140 1_555 1_555
F7 C141 1_555 1_555
F8 C142 1_555 1_555
F9 C141 1_555 1_555
F10 C142 1_555 1_555
F11 C141 1_555 1_555
F12 C142 1_555 1_555
C139 S1 1_555 1_555
C140 S2 1_555 1_555
C141 S3 1_555 1_555
C142 S4 1_555 1_555
O13 C143 1_555 1_555
C143 C144 1_555 1_555
O14 C145 1_555 1_555
C145 C146 1_555 1_555
O15 C147 1_555 1_555
C147 C148 1_555 1_555
O16 C149 1_555 1_555
C149 C150 1_555 1_555
O17 C151 1_555 1_555
C151 C152 1_555 1_555
O20 C153 1_555 1_555
C153 C154 1_555 1_555
O21 C155 1_555 1_555
C155 C156 1_555 1_555
H1 C3 1_555 1_555
H2 C4 1_555 1_555
H3 C5 1_555 1_555
H4 C6 1_555 1_555
H5 C13 1_555 1_555
H6 C14 1_555 1_555
H7 C15 1_555 1_555
H8 C16 1_555 1_555
H9 C23 1_555 1_555
H10 C24 1_555 1_555
H11 C25 1_555 1_555
H12 C26 1_555 1_555
H13 C33 1_555 1_555
H14 C34 1_555 1_555
H15 C35 1_555 1_555
H16 C36 1_555 1_555
H17 C41 1_555 1_555
H18 C42 1_555 1_555
H19 C43 1_555 1_555
H20 C44 1_555 1_555
H21 C47 1_555 1_555
H22 C48 1_555 1_555
H23 C49 1_555 1_555
H24 C50 1_555 1_555
H25 C51 1_555 1_555
H26 C52 1_555 1_555
H27 C53 1_555 1_555
H28 C54 1_555 1_555
H29 C57 1_555 1_555
H30 C58 1_555 1_555
H31 C59 1_555 1_555
H32 C60 1_555 1_555
H33 C63 1_555 1_555
H34 C64 1_555 1_555
H35 C65 1_555 1_555
H36 C66 1_555 1_555
H37 C67 1_555 1_555
H38 C68 1_555 1_555
H39 C69 1_555 1_555
H40 C70 1_555 1_555
H41 C71 1_555 1_555
H42 C72 1_555 1_555
H43 C75 1_555 1_555
H44 C76 1_555 1_555
H45 C77 1_555 1_555
H46 C78 1_555 1_555
H47 C79 1_555 1_555
H48 C80 1_555 1_555
H49 C81 1_555 1_555
H50 C82 1_555 1_555
H51 C83 1_555 1_555
H52 C84 1_555 1_555
H53 C85 1_555 1_555
H54 C85 1_555 1_555
H55 C86 1_555 1_555
H56 C86 1_555 1_555
H57 C87 1_555 1_555
H58 C87 1_555 1_555
H59 C88 1_555 1_555
H60 C88 1_555 1_555
H61 C89 1_555 1_555
H62 C89 1_555 1_555
H63 C90 1_555 1_555
H64 C90 1_555 1_555
H65 C93 1_555 1_555
H66 C94 1_555 1_555
H67 C95 1_555 1_555
H68 C96 1_555 1_555
H69 C97 1_555 1_555
H70 C98 1_555 1_555
H71 C99 1_555 1_555
H72 C100 1_555 1_555
H73 C101 1_555 1_555
H74 C102 1_555 1_555
H75 C105 1_555 1_555
H76 C106 1_555 1_555
H77 C107 1_555 1_555
H78 C108 1_555 1_555
H79 C109 1_555 1_555
H80 C110 1_555 1_555
H81 C111 1_555 1_555
H82 C112 1_555 1_555
H83 C113 1_555 1_555
H84 C114 1_555 1_555
H87 C117 1_555 1_555
H88 C118 1_555 1_555
H89 C119 1_555 1_555
H90 C120 1_555 1_555
H91 C121 1_555 1_555
H92 C122 1_555 1_555
H93 C123 1_555 1_555
H94 C124 1_555 1_555
H95 C125 1_555 1_555
H96 C126 1_555 1_555
H97 C129 1_555 1_555
H98 C130 1_555 1_555
H99 C131 1_555 1_555
H100 C132 1_555 1_555
H101 C133 1_555 1_555
H102 C134 1_555 1_555
H103 C135 1_555 1_555
H104 C136 1_555 1_555
H105 C137 1_555 1_555
H106 C138 1_555 1_555
C15 C17 1_555 1_555
C16 C18 1_555 1_555
C25 C27 1_555 1_555
C26 C28 1_555 1_555
C35 C37 1_555 1_555
C36 C38 1_555 1_555
C37 C39 1_555 1_555
C38 C40 1_555 1_555
C43 C45 1_555 1_555
C44 C46 1_555 1_555
C47 C49 1_555 1_555
C48 C50 1_555 1_555
C53 C55 1_555 1_555
C54 C56 1_555 1_555
C57 C59 1_555 1_555
C58 C60 1_555 1_555
C69 C71 1_555 1_555
C70 C72 1_555 1_555
C81 C83 1_555 1_555
C82 C84 1_555 1_555
C99 C101 1_555 1_555
C100 C102 1_555 1_555
C111 C113 1_555 1_555
C112 C114 1_555 1_555
C123 C125 1_555 1_555
C124 C126 1_555 1_555
C135 C137 1_555 1_555
C136 C138 1_555 1_555

#END
