# generated using pymatgen
data_P2H53PdC78S2N6O13F6
_symmetry_space_group_name_H-M   'P 1'
_cell_length_a   20.65300000
_cell_length_b   24.22780000
_cell_length_c   31.47350000
_cell_angle_alpha   90.00000000
_cell_angle_beta   101.87080000
_cell_angle_gamma   90.00000000
_symmetry_Int_Tables_number   1
_chemical_formula_structural   P2H53PdC78S2N6O13F6
_chemical_formula_sum   'P16 H424 Pd8 C624 S16 N48 O104 F48'
_cell_volume   15411.80719019
_cell_formula_units_Z   8
loop_
 _symmetry_equiv_pos_site_id
 _symmetry_equiv_pos_as_xyz
  1  'x, y, z'
loop_
 _atom_site_type_symbol
 _atom_site_label
 _atom_site_symmetry_multiplicity
 _atom_site_fract_x
 _atom_site_fract_y
 _atom_site_fract_z
 _atom_site_occupancy
  P  P1  1  0.280700  0.802500  0.771300  1
  P  P2  1  0.219300  0.302500  0.728700  1
  P  P3  1  0.719300  0.197500  0.228700  1
  P  P4  1  0.780700  0.697500  0.271300  1
  P  P5  1  0.655900  0.390100  0.604700  1
  P  P6  1  0.844100  0.890100  0.895300  1
  P  P7  1  0.344100  0.609900  0.395300  1
  P  P8  1  0.155900  0.109900  0.104700  1
  P  P9  1  0.421800  0.755200  0.763900  1
  P  P10  1  0.078200  0.255200  0.736100  1
  P  P11  1  0.578200  0.244800  0.236100  1
  P  P12  1  0.921800  0.744800  0.263900  1
  P  P13  1  0.506300  0.433500  0.598600  1
  P  P14  1  0.993700  0.933500  0.901400  1
  P  P15  1  0.493700  0.566500  0.401400  1
  P  P16  1  0.006300  0.066500  0.098600  1
  H  H17  1  0.135600  0.320800  0.498800  1
  H  H18  1  0.364400  0.820800  0.001200  1
  H  H19  1  0.864400  0.679200  0.501200  1
  H  H20  1  0.635600  0.179200  0.998800  1
  H  H21  1  0.695000  0.764400  0.645100  1
  H  H22  1  0.805000  0.264400  0.854900  1
  H  H23  1  0.305000  0.235600  0.354900  1
  H  H24  1  0.195000  0.735600  0.145100  1
  H  H25  1  0.254600  0.310600  0.533400  1
  H  H26  1  0.245400  0.810600  0.966600  1
  H  H27  1  0.745400  0.689400  0.466600  1
  H  H28  1  0.754600  0.189400  0.033400  1
  H  H29  1  0.611200  0.813900  0.676100  1
  H  H30  1  0.888800  0.313900  0.823900  1
  H  H31  1  0.388800  0.186100  0.323900  1
  H  H32  1  0.111200  0.686100  0.176100  1
  H  H33  1  0.392100  0.147700  0.628900  1
  H  H34  1  0.107900  0.647700  0.871100  1
  H  H35  1  0.607900  0.852300  0.371100  1
  H  H36  1  0.892100  0.352300  0.128900  1
  H  H37  1  0.515700  0.018200  0.666100  1
  H  H38  1  0.984300  0.518200  0.833900  1
  H  H39  1  0.484300  0.981800  0.333900  1
  H  H40  1  0.015700  0.481800  0.166100  1
  H  H41  1  0.359700  0.061900  0.661700  1
  H  H42  1  0.140300  0.561900  0.838300  1
  H  H43  1  0.640300  0.938100  0.338300  1
  H  H44  1  0.859700  0.438100  0.161700  1
  H  H45  1  0.549500  0.107600  0.638800  1
  H  H46  1  0.950500  0.607600  0.861200  1
  H  H47  1  0.450500  0.892400  0.361200  1
  H  H48  1  0.049500  0.392400  0.138800  1
  H  H49  1  0.135600  0.988100  0.699400  1
  H  H50  1  0.364400  0.488100  0.800600  1
  H  H51  1  0.864400  0.011900  0.300600  1
  H  H52  1  0.635600  0.511900  0.199400  1
  H  H53  1  0.730000  0.165300  0.546000  1
  H  H54  1  0.770000  0.665300  0.954000  1
  H  H55  1  0.270000  0.834700  0.454000  1
  H  H56  1  0.230000  0.334700  0.046000  1
  H  H57  1  0.019300  0.019100  0.686500  1
  H  H58  1  0.480700  0.519100  0.813500  1
  H  H59  1  0.980700  0.980900  0.313500  1
  H  H60  1  0.519300  0.480900  0.186500  1
  H  H61  1  0.808500  0.114800  0.511200  1
  H  H62  1  0.691500  0.614800  0.988800  1
  H  H63  1  0.191500  0.885200  0.488800  1
  H  H64  1  0.308500  0.385200  0.011200  1
  H  H65  1  0.882800  0.174300  0.580500  1
  H  H66  1  0.617200  0.674300  0.919500  1
  H  H67  1  0.117200  0.825700  0.419500  1
  H  H68  1  0.382800  0.325700  0.080500  1
  H  H69  1  0.876800  0.903600  0.500600  1
  H  H70  1  0.623200  0.403600  0.999400  1
  H  H71  1  0.123200  0.096400  0.499400  1
  H  H72  1  0.376800  0.596400  0.000600  1
  H  H73  1  0.913400  0.238200  0.526800  1
  H  H74  1  0.586600  0.738200  0.973200  1
  H  H75  1  0.086600  0.761800  0.473200  1
  H  H76  1  0.413400  0.261800  0.026800  1
  H  H77  1  0.842700  0.815300  0.529200  1
  H  H78  1  0.657300  0.315300  0.970800  1
  H  H79  1  0.157300  0.184700  0.470800  1
  H  H80  1  0.342700  0.684700  0.029200  1
  H  H81  1  0.442800  0.304700  0.533200  1
  H  H82  1  0.057200  0.804700  0.966800  1
  H  H83  1  0.557200  0.695300  0.466800  1
  H  H84  1  0.942800  0.195300  0.033200  1
  H  H85  1  0.410300  0.828500  0.655500  1
  H  H86  1  0.089700  0.328500  0.844500  1
  H  H87  1  0.589700  0.171500  0.344500  1
  H  H88  1  0.910300  0.671500  0.155500  1
  H  H89  1  0.346400  0.252700  0.526700  1
  H  H90  1  0.153600  0.752700  0.973300  1
  H  H91  1  0.653600  0.747300  0.473300  1
  H  H92  1  0.846400  0.247300  0.026700  1
  H  H93  1  0.481500  0.861600  0.622000  1
  H  H94  1  0.018500  0.361600  0.878000  1
  H  H95  1  0.518500  0.138400  0.378000  1
  H  H96  1  0.981500  0.638400  0.122000  1
  H  H97  1  0.374200  0.252100  0.657800  1
  H  H98  1  0.125800  0.752100  0.842200  1
  H  H99  1  0.625800  0.747900  0.342200  1
  H  H100  1  0.874200  0.247900  0.157800  1
  H  H101  1  0.568400  0.946200  0.732300  1
  H  H102  1  0.931600  0.446200  0.767700  1
  H  H103  1  0.431600  0.053800  0.267700  1
  H  H104  1  0.068400  0.553800  0.232300  1
  H  H105  1  0.470600  0.301100  0.661200  1
  H  H106  1  0.029400  0.801100  0.838800  1
  H  H107  1  0.529400  0.698900  0.338800  1
  H  H108  1  0.970600  0.198900  0.161200  1
  H  H109  1  0.458100  0.909100  0.763200  1
  H  H110  1  0.041900  0.409100  0.736800  1
  H  H111  1  0.541900  0.090900  0.236800  1
  H  H112  1  0.958100  0.590900  0.263200  1
  H  H113  1  0.363700  0.957100  0.762500  1
  H  H114  1  0.136300  0.457100  0.737500  1
  H  H115  1  0.636300  0.042900  0.237500  1
  H  H116  1  0.863700  0.542900  0.262500  1
  H  H117  1  0.626100  0.258100  0.664500  1
  H  H118  1  0.873900  0.758100  0.835500  1
  H  H119  1  0.373900  0.741900  0.335500  1
  H  H120  1  0.126100  0.241900  0.164500  1
  H  H121  1  0.315500  0.037800  0.732800  1
  H  H122  1  0.184500  0.537800  0.767200  1
  H  H123  1  0.684500  0.962200  0.267200  1
  H  H124  1  0.815500  0.462200  0.232800  1
  H  H125  1  0.661700  0.168400  0.662800  1
  H  H126  1  0.838300  0.668400  0.837200  1
  H  H127  1  0.338300  0.831600  0.337200  1
  H  H128  1  0.161700  0.331600  0.162800  1
  H  H129  1  0.206400  0.949000  0.635100  1
  H  H130  1  0.293600  0.449000  0.864900  1
  H  H131  1  0.793600  0.051000  0.364900  1
  H  H132  1  0.706400  0.551000  0.135100  1
  H  H133  1  0.605400  0.172600  0.532200  1
  H  H134  1  0.894600  0.672600  0.967800  1
  H  H135  1  0.394600  0.827400  0.467800  1
  H  H136  1  0.105400  0.327400  0.032200  1
  H  H137  1  0.255900  0.869800  0.667600  1
  H  H138  1  0.244100  0.369800  0.832400  1
  H  H139  1  0.744100  0.130200  0.332400  1
  H  H140  1  0.755900  0.630200  0.167600  1
  H  H141  1  0.572500  0.261600  0.537200  1
  H  H142  1  0.927500  0.761600  0.962800  1
  H  H143  1  0.427500  0.738400  0.462800  1
  H  H144  1  0.072500  0.238400  0.037200  1
  H  H145  1  0.921400  0.012600  0.623200  1
  H  H146  1  0.578600  0.512600  0.876800  1
  H  H147  1  0.078600  0.987400  0.376800  1
  H  H148  1  0.421400  0.487400  0.123200  1
  H  H149  1  0.919900  0.061300  0.550900  1
  H  H150  1  0.580100  0.561300  0.949100  1
  H  H151  1  0.080100  0.938700  0.449100  1
  H  H152  1  0.419900  0.438700  0.050900  1
  H  H153  1  0.827100  0.992400  0.649100  1
  H  H154  1  0.672900  0.492400  0.850900  1
  H  H155  1  0.172900  0.007600  0.350900  1
  H  H156  1  0.327100  0.507600  0.149100  1
  H  H157  1  0.999100  0.093400  0.514100  1
  H  H158  1  0.500900  0.593400  0.985900  1
  H  H159  1  0.000900  0.906600  0.485900  1
  H  H160  1  0.499100  0.406600  0.014100  1
  H  H161  1  0.775200  0.057800  0.684700  1
  H  H162  1  0.724800  0.557800  0.815300  1
  H  H163  1  0.224800  0.942200  0.315300  1
  H  H164  1  0.275200  0.442200  0.184700  1
  H  H165  1  0.995000  0.065700  0.442800  1
  H  H166  1  0.505000  0.565700  0.057200  1
  H  H167  1  0.005000  0.934300  0.557200  1
  H  H168  1  0.495000  0.434300  0.942800  1
  H  H169  1  0.817200  0.148100  0.694100  1
  H  H170  1  0.682800  0.648100  0.805900  1
  H  H171  1  0.182800  0.851900  0.305900  1
  H  H172  1  0.317200  0.351900  0.194100  1
  H  H173  1  0.910200  0.008500  0.407800  1
  H  H174  1  0.589800  0.508500  0.092200  1
  H  H175  1  0.089800  0.991500  0.592200  1
  H  H176  1  0.410200  0.491500  0.907800  1
  H  H177  1  0.912400  0.171500  0.669000  1
  H  H178  1  0.587600  0.671500  0.831000  1
  H  H179  1  0.087600  0.828500  0.331000  1
  H  H180  1  0.412400  0.328500  0.169000  1
  H  H181  1  0.827800  0.978700  0.443700  1
  H  H182  1  0.672200  0.478700  0.056300  1
  H  H183  1  0.172200  0.021300  0.556300  1
  H  H184  1  0.327800  0.521300  0.943700  1
  H  H185  1  0.991800  0.341700  0.533400  1
  H  H186  1  0.508200  0.841700  0.966600  1
  H  H187  1  0.008200  0.658300  0.466600  1
  H  H188  1  0.491800  0.158300  0.033400  1
  H  H189  1  0.869000  0.769500  0.608800  1
  H  H190  1  0.631000  0.269500  0.891200  1
  H  H191  1  0.131000  0.230500  0.391200  1
  H  H192  1  0.369000  0.730500  0.108800  1
  H  H193  1  0.938600  0.401200  0.478300  1
  H  H194  1  0.561400  0.901200  0.021700  1
  H  H195  1  0.061400  0.598800  0.521700  1
  H  H196  1  0.438600  0.098800  0.978300  1
  H  H197  1  0.888200  0.674600  0.605100  1
  H  H198  1  0.611800  0.174600  0.894900  1
  H  H199  1  0.111800  0.325400  0.394900  1
  H  H200  1  0.388200  0.825400  0.105100  1
  H  H201  1  0.924700  0.373600  0.405500  1
  H  H202  1  0.575300  0.873600  0.094500  1
  H  H203  1  0.075300  0.626400  0.594500  1
  H  H204  1  0.424700  0.126400  0.905500  1
  H  H205  1  0.800200  0.615700  0.576600  1
  H  H206  1  0.699800  0.115700  0.923400  1
  H  H207  1  0.199800  0.384300  0.423400  1
  H  H208  1  0.300200  0.884300  0.076600  1
  H  H209  1  0.962900  0.288900  0.389700  1
  H  H210  1  0.537100  0.788900  0.110300  1
  H  H211  1  0.037100  0.711100  0.610300  1
  H  H212  1  0.462900  0.211100  0.889700  1
  H  H213  1  0.694600  0.650900  0.552000  1
  H  H214  1  0.805400  0.150900  0.948000  1
  H  H215  1  0.305400  0.349100  0.448000  1
  H  H216  1  0.194600  0.849100  0.052000  1
  H  H217  1  0.021200  0.235900  0.443700  1
  H  H218  1  0.478800  0.735900  0.056300  1
  H  H219  1  0.978800  0.764100  0.556300  1
  H  H220  1  0.521200  0.264100  0.943700  1
  H  H221  1  0.675700  0.744000  0.558500  1
  H  H222  1  0.824300  0.244000  0.941500  1
  H  H223  1  0.324300  0.256000  0.441500  1
  H  H224  1  0.175700  0.756000  0.058500  1
  H  H225  1  0.336400  0.813500  0.843300  1
  H  H226  1  0.163600  0.313500  0.656700  1
  H  H227  1  0.663600  0.186500  0.156700  1
  H  H228  1  0.836400  0.686500  0.343300  1
  H  H229  1  0.273000  0.774900  0.841300  1
  H  H230  1  0.227000  0.274900  0.658700  1
  H  H231  1  0.727000  0.225100  0.158700  1
  H  H232  1  0.773000  0.725100  0.341300  1
  H  H233  1  0.701700  0.467400  0.578000  1
  H  H234  1  0.798300  0.967400  0.922000  1
  H  H235  1  0.298300  0.532600  0.422000  1
  H  H236  1  0.201700  0.032600  0.078000  1
  H  H237  1  0.644400  0.442100  0.541300  1
  H  H238  1  0.855600  0.942100  0.958700  1
  H  H239  1  0.355600  0.557900  0.458700  1
  H  H240  1  0.144400  0.057900  0.041300  1
  H  H241  1  0.363500  0.719000  0.863300  1
  H  H242  1  0.136500  0.219000  0.636700  1
  H  H243  1  0.636500  0.281000  0.136700  1
  H  H244  1  0.863500  0.781000  0.363300  1
  H  H245  1  0.331800  0.701200  0.814600  1
  H  H246  1  0.168200  0.201200  0.685400  1
  H  H247  1  0.668200  0.298800  0.185400  1
  H  H248  1  0.831800  0.798800  0.314600  1
  H  H249  1  0.616900  0.504900  0.612300  1
  H  H250  1  0.883100  0.004900  0.887700  1
  H  H251  1  0.383100  0.495100  0.387700  1
  H  H252  1  0.116900  0.995100  0.112300  1
  H  H253  1  0.619500  0.532000  0.566300  1
  H  H254  1  0.880500  0.032000  0.933700  1
  H  H255  1  0.380500  0.468000  0.433700  1
  H  H256  1  0.119500  0.968000  0.066300  1
  H  H257  1  0.448300  0.705000  0.827700  1
  H  H258  1  0.051700  0.205000  0.672300  1
  H  H259  1  0.551700  0.295000  0.172300  1
  H  H260  1  0.948300  0.795000  0.327700  1
  H  H261  1  0.445900  0.769200  0.838300  1
  H  H262  1  0.054100  0.269200  0.661700  1
  H  H263  1  0.554100  0.230800  0.161700  1
  H  H264  1  0.945900  0.730800  0.338300  1
  H  H265  1  0.531400  0.467500  0.534500  1
  H  H266  1  0.968600  0.967500  0.965500  1
  H  H267  1  0.468600  0.532500  0.465500  1
  H  H268  1  0.031400  0.032500  0.034500  1
  H  H269  1  0.510000  0.517100  0.562200  1
  H  H270  1  0.990000  0.017100  0.937800  1
  H  H271  1  0.490000  0.482900  0.437800  1
  H  H272  1  0.010000  0.982900  0.062200  1
  H  H273  1  0.139100  0.818900  0.736700  1
  H  H274  1  0.360900  0.318900  0.763300  1
  H  H275  1  0.860900  0.181100  0.263300  1
  H  H276  1  0.639100  0.681100  0.236700  1
  H  H277  1  0.660000  0.353700  0.520100  1
  H  H278  1  0.840000  0.853700  0.979900  1
  H  H279  1  0.340000  0.646300  0.479900  1
  H  H280  1  0.160000  0.146300  0.020100  1
  H  H281  1  0.064000  0.888700  0.742700  1
  H  H282  1  0.436000  0.388700  0.757300  1
  H  H283  1  0.936000  0.111300  0.257300  1
  H  H284  1  0.564000  0.611300  0.242700  1
  H  H285  1  0.727500  0.297600  0.488200  1
  H  H286  1  0.772500  0.797600  0.011800  1
  H  H287  1  0.272500  0.702400  0.511800  1
  H  H288  1  0.227500  0.202400  0.988200  1
  H  H289  1  0.097600  0.965600  0.784800  1
  H  H290  1  0.402400  0.465600  0.715200  1
  H  H291  1  0.902400  0.034400  0.215200  1
  H  H292  1  0.597600  0.534400  0.284800  1
  H  H293  1  0.809900  0.246700  0.530700  1
  H  H294  1  0.690100  0.746700  0.969300  1
  H  H295  1  0.190100  0.753300  0.469300  1
  H  H296  1  0.309900  0.253300  0.030700  1
  H  H297  1  0.208200  0.976200  0.818800  1
  H  H298  1  0.291800  0.476200  0.681200  1
  H  H299  1  0.791800  0.023800  0.181200  1
  H  H300  1  0.708200  0.523800  0.318800  1
  H  H301  1  0.825900  0.252800  0.604600  1
  H  H302  1  0.674100  0.752800  0.895400  1
  H  H303  1  0.174100  0.747200  0.395400  1
  H  H304  1  0.325900  0.247200  0.104600  1
  H  H305  1  0.284100  0.906900  0.814000  1
  H  H306  1  0.215900  0.406900  0.686000  1
  H  H307  1  0.715900  0.093100  0.186000  1
  H  H308  1  0.784100  0.593100  0.314000  1
  H  H309  1  0.761100  0.313300  0.637900  1
  H  H310  1  0.738900  0.813300  0.862100  1
  H  H311  1  0.238900  0.686700  0.362100  1
  H  H312  1  0.261100  0.186700  0.137900  1
  H  H313  1  0.252500  0.761100  0.685000  1
  H  H314  1  0.247500  0.261100  0.815000  1
  H  H315  1  0.747500  0.238900  0.315000  1
  H  H316  1  0.752500  0.738900  0.185000  1
  H  H317  1  0.760100  0.465500  0.643900  1
  H  H318  1  0.739900  0.965500  0.856100  1
  H  H319  1  0.239900  0.534500  0.356100  1
  H  H320  1  0.260100  0.034500  0.143900  1
  H  H321  1  0.189000  0.689600  0.648500  1
  H  H322  1  0.311000  0.189600  0.851500  1
  H  H323  1  0.811000  0.310400  0.351500  1
  H  H324  1  0.689000  0.810400  0.148500  1
  H  H325  1  0.815700  0.484400  0.714300  1
  H  H326  1  0.684300  0.984400  0.785700  1
  H  H327  1  0.184300  0.515600  0.285700  1
  H  H328  1  0.315700  0.015600  0.214300  1
  H  H329  1  0.132700  0.629200  0.686600  1
  H  H330  1  0.367300  0.129200  0.813400  1
  H  H331  1  0.867300  0.370800  0.313400  1
  H  H332  1  0.632700  0.870800  0.186600  1
  H  H333  1  0.787800  0.436700  0.771900  1
  H  H334  1  0.712200  0.936700  0.728100  1
  H  H335  1  0.212200  0.563300  0.228100  1
  H  H336  1  0.287800  0.063300  0.271900  1
  H  H337  1  0.141900  0.639700  0.760100  1
  H  H338  1  0.358100  0.139700  0.739900  1
  H  H339  1  0.858100  0.360300  0.239900  1
  H  H340  1  0.641900  0.860300  0.260100  1
  H  H341  1  0.710700  0.367500  0.759700  1
  H  H342  1  0.789300  0.867500  0.740300  1
  H  H343  1  0.289300  0.632500  0.240300  1
  H  H344  1  0.210700  0.132500  0.259700  1
  H  H345  1  0.202400  0.712500  0.797000  1
  H  H346  1  0.297600  0.212500  0.703000  1
  H  H347  1  0.797600  0.287500  0.203000  1
  H  H348  1  0.702400  0.787500  0.297000  1
  H  H349  1  0.654000  0.348700  0.689400  1
  H  H350  1  0.846000  0.848700  0.810600  1
  H  H351  1  0.346000  0.651300  0.310600  1
  H  H352  1  0.154000  0.151300  0.189400  1
  H  H353  1  0.385300  0.735300  0.674300  1
  H  H354  1  0.114700  0.235300  0.825700  1
  H  H355  1  0.614700  0.264700  0.325700  1
  H  H356  1  0.885300  0.764700  0.174300  1
  H  H357  1  0.483100  0.543000  0.625500  1
  H  H358  1  0.016900  0.043000  0.874500  1
  H  H359  1  0.516900  0.457000  0.374500  1
  H  H360  1  0.983100  0.957000  0.125500  1
  H  H361  1  0.347600  0.660600  0.628800  1
  H  H362  1  0.152400  0.160600  0.871200  1
  H  H363  1  0.652400  0.339400  0.371200  1
  H  H364  1  0.847600  0.839400  0.128800  1
  H  H365  1  0.502300  0.590300  0.690900  1
  H  H366  1  0.997700  0.090300  0.809100  1
  H  H367  1  0.497700  0.409700  0.309100  1
  H  H368  1  0.002300  0.909700  0.190900  1
  H  H369  1  0.333000  0.574400  0.660500  1
  H  H370  1  0.167000  0.074400  0.839500  1
  H  H371  1  0.667000  0.425600  0.339500  1
  H  H372  1  0.833000  0.925600  0.160500  1
  H  H373  1  0.549200  0.543900  0.755000  1
  H  H374  1  0.950800  0.043900  0.745000  1
  H  H375  1  0.450800  0.456100  0.245000  1
  H  H376  1  0.049200  0.956100  0.255000  1
  H  H377  1  0.352400  0.566600  0.734500  1
  H  H378  1  0.147600  0.066600  0.765500  1
  H  H379  1  0.647600  0.433400  0.265500  1
  H  H380  1  0.852400  0.933400  0.234500  1
  H  H381  1  0.572700  0.451000  0.754900  1
  H  H382  1  0.927300  0.951000  0.745100  1
  H  H383  1  0.427300  0.549000  0.245100  1
  H  H384  1  0.072700  0.049000  0.254900  1
  H  H385  1  0.392000  0.640400  0.779300  1
  H  H386  1  0.108000  0.140400  0.720700  1
  H  H387  1  0.608000  0.359600  0.220700  1
  H  H388  1  0.892000  0.859600  0.279300  1
  H  H389  1  0.550000  0.402300  0.688100  1
  H  H390  1  0.950000  0.902300  0.811900  1
  H  H391  1  0.450000  0.597700  0.311900  1
  H  H392  1  0.050000  0.097700  0.188100  1
  H  H393  1  0.527200  0.817800  0.812000  1
  H  H394  1  0.972800  0.317800  0.688000  1
  H  H395  1  0.472800  0.182200  0.188000  1
  H  H396  1  0.027200  0.682200  0.312000  1
  H  H397  1  0.391500  0.413500  0.634100  1
  H  H398  1  0.108500  0.913500  0.865900  1
  H  H399  1  0.608500  0.586500  0.365900  1
  H  H400  1  0.891500  0.086500  0.134100  1
  H  H401  1  0.641900  0.827200  0.813100  1
  H  H402  1  0.858100  0.327200  0.686900  1
  H  H403  1  0.358100  0.172800  0.186900  1
  H  H404  1  0.141900  0.672800  0.313100  1
  H  H405  1  0.277900  0.408300  0.605900  1
  H  H406  1  0.222100  0.908300  0.894100  1
  H  H407  1  0.722100  0.591700  0.394100  1
  H  H408  1  0.777900  0.091700  0.105900  1
  H  H409  1  0.690400  0.771300  0.767600  1
  H  H410  1  0.809600  0.271300  0.732400  1
  H  H411  1  0.309600  0.228700  0.232400  1
  H  H412  1  0.190400  0.728700  0.267600  1
  H  H413  1  0.236800  0.422900  0.532300  1
  H  H414  1  0.263200  0.922900  0.967700  1
  H  H415  1  0.763200  0.577100  0.467700  1
  H  H416  1  0.736800  0.077100  0.032300  1
  H  H417  1  0.628200  0.711100  0.720000  1
  H  H418  1  0.871800  0.211100  0.780000  1
  H  H419  1  0.371800  0.288900  0.280000  1
  H  H420  1  0.128200  0.788900  0.220000  1
  H  H421  1  0.307800  0.442300  0.486700  1
  H  H422  1  0.192200  0.942300  0.013300  1
  H  H423  1  0.692200  0.557700  0.513300  1
  H  H424  1  0.807800  0.057700  0.986700  1
  H  H425  1  0.517300  0.703500  0.717100  1
  H  H426  1  0.982700  0.203500  0.782900  1
  H  H427  1  0.482700  0.296500  0.282900  1
  H  H428  1  0.017300  0.796500  0.217100  1
  H  H429  1  0.420400  0.445000  0.513600  1
  H  H430  1  0.079600  0.945000  0.986400  1
  H  H431  1  0.579600  0.555000  0.486400  1
  H  H432  1  0.920400  0.055000  0.013600  1
  H  H433  1  0.408500  0.725800  0.749000  1
  H  H434  1  0.091500  0.225800  0.751000  1
  H  H435  1  0.591500  0.274200  0.251000  1
  H  H436  1  0.908500  0.774200  0.249000  1
  H  H437  1  0.509400  0.449400  0.624200  1
  H  H438  1  0.990600  0.949400  0.875800  1
  H  H439  1  0.490600  0.550600  0.375800  1
  H  H440  1  0.009400  0.050600  0.124200  1
  Pd  Pd441  1  0.364700  0.833200  0.740700  1
  Pd  Pd442  1  0.135300  0.333200  0.759300  1
  Pd  Pd443  1  0.635300  0.166800  0.259300  1
  Pd  Pd444  1  0.864700  0.666800  0.240700  1
  Pd  Pd445  1  0.555700  0.349200  0.601600  1
  Pd  Pd446  1  0.944300  0.849200  0.898400  1
  Pd  Pd447  1  0.444300  0.650800  0.398400  1
  Pd  Pd448  1  0.055700  0.150800  0.101600  1
  C  C449  1  0.118400  0.250400  0.535600  1
  C  C450  1  0.381600  0.750400  0.964400  1
  C  C451  1  0.881600  0.749600  0.464400  1
  C  C452  1  0.618400  0.249600  0.035600  1
  C  C453  1  0.710300  0.838900  0.613400  1
  C  C454  1  0.789700  0.338900  0.886600  1
  C  C455  1  0.289700  0.161100  0.386600  1
  C  C456  1  0.210300  0.661100  0.113400  1
  C  C457  1  0.154100  0.293100  0.519100  1
  C  C458  1  0.345900  0.793100  0.980900  1
  C  C459  1  0.845900  0.706900  0.480900  1
  C  C460  1  0.654100  0.206900  0.019100  1
  C  C461  1  0.683100  0.802000  0.640200  1
  C  C462  1  0.816900  0.302000  0.859800  1
  C  C463  1  0.316900  0.198000  0.359800  1
  C  C464  1  0.183100  0.698000  0.140200  1
  C  C465  1  0.219700  0.287000  0.537600  1
  C  C466  1  0.280300  0.787000  0.962400  1
  C  C467  1  0.780300  0.713000  0.462400  1
  C  C468  1  0.719700  0.213000  0.037600  1
  C  C469  1  0.637500  0.829200  0.657500  1
  C  C470  1  0.862500  0.329200  0.842500  1
  C  C471  1  0.362500  0.170800  0.342500  1
  C  C472  1  0.137500  0.670800  0.157500  1
  C  C473  1  0.226500  0.238900  0.564400  1
  C  C474  1  0.273500  0.738900  0.935600  1
  C  C475  1  0.773500  0.761100  0.435600  1
  C  C476  1  0.726500  0.261100  0.064400  1
  C  C477  1  0.636000  0.885000  0.642800  1
  C  C478  1  0.864000  0.385000  0.857200  1
  C  C479  1  0.364000  0.115000  0.357200  1
  C  C480  1  0.136000  0.615000  0.142800  1
  C  C481  1  0.285100  0.216500  0.589200  1
  C  C482  1  0.214900  0.716500  0.910800  1
  C  C483  1  0.714900  0.783500  0.410800  1
  C  C484  1  0.785100  0.283500  0.089200  1
  C  C485  1  0.593900  0.926600  0.652300  1
  C  C486  1  0.906100  0.426600  0.847700  1
  C  C487  1  0.406100  0.073400  0.347700  1
  C  C488  1  0.093900  0.573400  0.152300  1
  C  C489  1  0.288000  0.166600  0.612700  1
  C  C490  1  0.212000  0.666600  0.887300  1
  C  C491  1  0.712000  0.833400  0.387300  1
  C  C492  1  0.788000  0.333400  0.112700  1
  C  C493  1  0.596600  0.983000  0.641700  1
  C  C494  1  0.903400  0.483000  0.858300  1
  C  C495  1  0.403400  0.017000  0.358300  1
  C  C496  1  0.096600  0.517000  0.141700  1
  C  C497  1  0.348400  0.136600  0.630000  1
  C  C498  1  0.151600  0.636600  0.870000  1
  C  C499  1  0.651600  0.863400  0.370000  1
  C  C500  1  0.848400  0.363400  0.130000  1
  C  C501  1  0.551300  0.024200  0.651700  1
  C  C502  1  0.948700  0.524200  0.848300  1
  C  C503  1  0.448700  0.975800  0.348300  1
  C  C504  1  0.051300  0.475800  0.151700  1
  C  C505  1  0.330900  0.090200  0.648100  1
  C  C506  1  0.169100  0.590200  0.851900  1
  C  C507  1  0.669100  0.909800  0.351900  1
  C  C508  1  0.830900  0.409800  0.148100  1
  C  C509  1  0.569500  0.072600  0.636700  1
  C  C510  1  0.930500  0.572600  0.863300  1
  C  C511  1  0.430500  0.927400  0.363300  1
  C  C512  1  0.069500  0.427400  0.136700  1
  C  C513  1  0.259200  0.091500  0.642900  1
  C  C514  1  0.240800  0.591500  0.857100  1
  C  C515  1  0.740800  0.908500  0.357100  1
  C  C516  1  0.759200  0.408500  0.142900  1
  C  C517  1  0.626500  0.060900  0.616600  1
  C  C518  1  0.873500  0.560900  0.883400  1
  C  C519  1  0.373500  0.939100  0.383400  1
  C  C520  1  0.126500  0.439100  0.116600  1
  C  C521  1  0.221200  0.052800  0.659500  1
  C  C522  1  0.278800  0.552800  0.840500  1
  C  C523  1  0.778800  0.947200  0.340500  1
  C  C524  1  0.721200  0.447200  0.159500  1
  C  C525  1  0.657400  0.100300  0.595200  1
  C  C526  1  0.842600  0.600300  0.904800  1
  C  C527  1  0.342600  0.899700  0.404800  1
  C  C528  1  0.157400  0.399700  0.095200  1
  C  C529  1  0.152900  0.054400  0.658500  1
  C  C530  1  0.347100  0.554400  0.841500  1
  C  C531  1  0.847100  0.945600  0.341500  1
  C  C532  1  0.652900  0.445600  0.158500  1
  C  C533  1  0.705300  0.088400  0.570700  1
  C  C534  1  0.794700  0.588400  0.929300  1
  C  C535  1  0.294700  0.911600  0.429300  1
  C  C536  1  0.205300  0.411600  0.070700  1
  C  C537  1  0.117300  0.018400  0.681800  1
  C  C538  1  0.382700  0.518400  0.818200  1
  C  C539  1  0.882700  0.981600  0.318200  1
  C  C540  1  0.617300  0.481600  0.181800  1
  C  C541  1  0.737600  0.126600  0.547700  1
  C  C542  1  0.762400  0.626600  0.952300  1
  C  C543  1  0.262400  0.873400  0.452300  1
  C  C544  1  0.237600  0.373400  0.047700  1
  C  C545  1  0.053600  0.035000  0.674500  1
  C  C546  1  0.446400  0.535000  0.825500  1
  C  C547  1  0.946400  0.965000  0.325500  1
  C  C548  1  0.553600  0.465000  0.174500  1
  C  C549  1  0.780900  0.099100  0.528600  1
  C  C550  1  0.719100  0.599100  0.971400  1
  C  C551  1  0.219100  0.900900  0.471400  1
  C  C552  1  0.280900  0.400900  0.028600  1
  C  C553  1  0.047000  0.081300  0.645300  1
  C  C554  1  0.453000  0.581300  0.854700  1
  C  C555  1  0.953000  0.918700  0.354700  1
  C  C556  1  0.547000  0.418700  0.145300  1
  C  C557  1  0.777600  0.041600  0.539400  1
  C  C558  1  0.722400  0.541600  0.960600  1
  C  C559  1  0.222400  0.958400  0.460600  1
  C  C560  1  0.277600  0.458400  0.039400  1
  C  C561  1  0.989600  0.111300  0.628500  1
  C  C562  1  0.510400  0.611300  0.871500  1
  C  C563  1  0.010400  0.888700  0.371500  1
  C  C564  1  0.489600  0.388700  0.128500  1
  C  C565  1  0.814400  0.998900  0.526300  1
  C  C566  1  0.685600  0.498900  0.973700  1
  C  C567  1  0.185600  0.001100  0.473700  1
  C  C568  1  0.314400  0.501100  0.026300  1
  C  C569  1  0.986500  0.153400  0.597500  1
  C  C570  1  0.513500  0.653400  0.902500  1
  C  C571  1  0.013500  0.846600  0.402500  1
  C  C572  1  0.486500  0.346600  0.097500  1
  C  C573  1  0.809900  0.942400  0.535900  1
  C  C574  1  0.690100  0.442400  0.964100  1
  C  C575  1  0.190100  0.057600  0.464100  1
  C  C576  1  0.309900  0.557600  0.035900  1
  C  C577  1  0.926000  0.180400  0.575400  1
  C  C578  1  0.574000  0.680400  0.924600  1
  C  C579  1  0.074000  0.819600  0.424600  1
  C  C580  1  0.426000  0.319600  0.075400  1
  C  C581  1  0.846300  0.899100  0.519200  1
  C  C582  1  0.653700  0.399100  0.980800  1
  C  C583  1  0.153700  0.100900  0.480800  1
  C  C584  1  0.346300  0.600900  0.019200  1
  C  C585  1  0.942700  0.215300  0.546500  1
  C  C586  1  0.557300  0.715300  0.953500  1
  C  C587  1  0.057300  0.784700  0.453500  1
  C  C588  1  0.442700  0.284700  0.046500  1
  C  C589  1  0.828300  0.851200  0.535100  1
  C  C590  1  0.671700  0.351200  0.964900  1
  C  C591  1  0.171700  0.148800  0.464900  1
  C  C592  1  0.328300  0.648800  0.035100  1
  C  C593  1  0.014000  0.211600  0.550800  1
  C  C594  1  0.486000  0.711600  0.949200  1
  C  C595  1  0.986000  0.788400  0.449200  1
  C  C596  1  0.514000  0.288400  0.050800  1
  C  C597  1  0.782800  0.865100  0.563200  1
  C  C598  1  0.717200  0.365100  0.936800  1
  C  C599  1  0.217200  0.134900  0.436800  1
  C  C600  1  0.282800  0.634900  0.063200  1
  C  C601  1  0.050400  0.245500  0.528300  1
  C  C602  1  0.449600  0.745500  0.971700  1
  C  C603  1  0.949600  0.754500  0.471700  1
  C  C604  1  0.550400  0.254500  0.028300  1
  C  C605  1  0.755100  0.826600  0.587000  1
  C  C606  1  0.744900  0.326600  0.913000  1
  C  C607  1  0.244900  0.173400  0.413000  1
  C  C608  1  0.255100  0.673400  0.087000  1
  C  C609  1  0.428400  0.293500  0.558600  1
  C  C610  1  0.071600  0.793500  0.941400  1
  C  C611  1  0.571600  0.706500  0.441400  1
  C  C612  1  0.928400  0.206500  0.058600  1
  C  C613  1  0.443400  0.852100  0.671300  1
  C  C614  1  0.056600  0.352100  0.828700  1
  C  C615  1  0.556600  0.147900  0.328700  1
  C  C616  1  0.943400  0.647900  0.171300  1
  C  C617  1  0.370600  0.263000  0.554600  1
  C  C618  1  0.129400  0.763000  0.945400  1
  C  C619  1  0.629400  0.737000  0.445400  1
  C  C620  1  0.870600  0.237000  0.054600  1
  C  C621  1  0.491300  0.871900  0.651100  1
  C  C622  1  0.008700  0.371900  0.848900  1
  C  C623  1  0.508700  0.128100  0.348900  1
  C  C624  1  0.991300  0.628100  0.151100  1
  C  C625  1  0.348300  0.247700  0.591700  1
  C  C626  1  0.151700  0.747700  0.908300  1
  C  C627  1  0.651700  0.752300  0.408300  1
  C  C628  1  0.848300  0.252300  0.091700  1
  C  C629  1  0.540100  0.907600  0.673700  1
  C  C630  1  0.959900  0.407600  0.826300  1
  C  C631  1  0.459900  0.092400  0.326300  1
  C  C632  1  0.040100  0.592400  0.173700  1
  C  C633  1  0.387400  0.262500  0.631700  1
  C  C634  1  0.112600  0.762500  0.868300  1
  C  C635  1  0.612600  0.737500  0.368300  1
  C  C636  1  0.887400  0.237500  0.131700  1
  C  C637  1  0.536900  0.921700  0.716000  1
  C  C638  1  0.963100  0.421700  0.784000  1
  C  C639  1  0.463100  0.078300  0.284000  1
  C  C640  1  0.036900  0.578300  0.216000  1
  C  C641  1  0.444500  0.291800  0.633600  1
  C  C642  1  0.055500  0.791800  0.866400  1
  C  C643  1  0.555500  0.708200  0.366400  1
  C  C644  1  0.944500  0.208200  0.133600  1
  C  C645  1  0.487000  0.899400  0.734200  1
  C  C646  1  0.013000  0.399400  0.765800  1
  C  C647  1  0.513000  0.100600  0.265800  1
  C  C648  1  0.987000  0.600600  0.234200  1
  C  C649  1  0.331100  0.955500  0.736400  1
  C  C650  1  0.168900  0.455500  0.763600  1
  C  C651  1  0.668900  0.044500  0.263600  1
  C  C652  1  0.831100  0.544500  0.236400  1
  C  C653  1  0.622000  0.240300  0.637200  1
  C  C654  1  0.878000  0.740300  0.862800  1
  C  C655  1  0.378000  0.759700  0.362800  1
  C  C656  1  0.122000  0.259700  0.137200  1
  C  C657  1  0.302700  0.003600  0.718900  1
  C  C658  1  0.197300  0.503600  0.781100  1
  C  C659  1  0.697300  0.996400  0.281100  1
  C  C660  1  0.802700  0.496400  0.218900  1
  C  C661  1  0.643000  0.186700  0.636400  1
  C  C662  1  0.857000  0.686700  0.863600  1
  C  C663  1  0.357000  0.813300  0.363600  1
  C  C664  1  0.143000  0.313300  0.136400  1
  C  C665  1  0.255300  0.002100  0.680800  1
  C  C666  1  0.244700  0.502100  0.819200  1
  C  C667  1  0.744700  0.997900  0.319200  1
  C  C668  1  0.755300  0.497900  0.180800  1
  C  C669  1  0.637200  0.158900  0.597000  1
  C  C670  1  0.862800  0.658900  0.903000  1
  C  C671  1  0.362800  0.841100  0.403000  1
  C  C672  1  0.137200  0.341100  0.097000  1
  C  C673  1  0.238200  0.951300  0.661500  1
  C  C674  1  0.261800  0.451300  0.838500  1
  C  C675  1  0.761800  0.048700  0.338500  1
  C  C676  1  0.738200  0.548700  0.161500  1
  C  C677  1  0.610200  0.189200  0.560000  1
  C  C678  1  0.889800  0.689200  0.940000  1
  C  C679  1  0.389800  0.810800  0.440000  1
  C  C680  1  0.110200  0.310800  0.060000  1
  C  C681  1  0.268300  0.904500  0.680800  1
  C  C682  1  0.231700  0.404500  0.819200  1
  C  C683  1  0.731700  0.095500  0.319200  1
  C  C684  1  0.768300  0.595500  0.180800  1
  C  C685  1  0.590700  0.242300  0.563100  1
  C  C686  1  0.909300  0.742300  0.936900  1
  C  C687  1  0.409300  0.757700  0.436900  1
  C  C688  1  0.090700  0.257700  0.063100  1
  C  C689  1  0.927800  0.095900  0.643900  1
  C  C690  1  0.572200  0.595900  0.856100  1
  C  C691  1  0.072200  0.904100  0.356100  1
  C  C692  1  0.427800  0.404100  0.143900  1
  C  C693  1  0.865300  0.016600  0.501100  1
  C  C694  1  0.634700  0.516600  0.998900  1
  C  C695  1  0.134700  0.983400  0.498900  1
  C  C696  1  0.365300  0.483400  0.001100  1
  C  C697  1  0.900800  0.042600  0.637900  1
  C  C698  1  0.599200  0.542600  0.862100  1
  C  C699  1  0.099200  0.957400  0.362100  1
  C  C700  1  0.400800  0.457400  0.137900  1
  C  C701  1  0.917300  0.050800  0.521500  1
  C  C702  1  0.582700  0.550800  0.978500  1
  C  C703  1  0.082700  0.949200  0.478500  1
  C  C704  1  0.417300  0.449200  0.021500  1
  C  C705  1  0.844500  0.028700  0.653100  1
  C  C706  1  0.655500  0.528700  0.846900  1
  C  C707  1  0.155500  0.971300  0.346900  1
  C  C708  1  0.344500  0.471300  0.153100  1
  C  C709  1  0.964800  0.069600  0.499900  1
  C  C710  1  0.535200  0.569600  0.000100  1
  C  C711  1  0.035200  0.930400  0.500100  1
  C  C712  1  0.464800  0.430400  0.999900  1
  C  C713  1  0.813600  0.067600  0.674200  1
  C  C714  1  0.686400  0.567600  0.825800  1
  C  C715  1  0.186400  0.932400  0.325800  1
  C  C716  1  0.313600  0.432400  0.174200  1
  C  C717  1  0.962100  0.053500  0.457700  1
  C  C718  1  0.537900  0.553500  0.042300  1
  C  C719  1  0.037900  0.946500  0.542300  1
  C  C720  1  0.462100  0.446500  0.957700  1
  C  C721  1  0.838700  0.121200  0.680000  1
  C  C722  1  0.661300  0.621200  0.820000  1
  C  C723  1  0.161300  0.878800  0.320000  1
  C  C724  1  0.338700  0.378800  0.180000  1
  C  C725  1  0.911700  0.019500  0.436900  1
  C  C726  1  0.588300  0.519500  0.063100  1
  C  C727  1  0.088300  0.980500  0.563100  1
  C  C728  1  0.411700  0.480500  0.936900  1
  C  C729  1  0.895400  0.135000  0.664900  1
  C  C730  1  0.604600  0.635000  0.835100  1
  C  C731  1  0.104600  0.865000  0.335100  1
  C  C732  1  0.395400  0.365000  0.164900  1
  C  C733  1  0.863500  0.001600  0.458400  1
  C  C734  1  0.636500  0.501600  0.041600  1
  C  C735  1  0.136500  0.998400  0.541600  1
  C  C736  1  0.363500  0.498400  0.958400  1
  C  C737  1  0.012900  0.282900  0.493300  1
  C  C738  1  0.487100  0.782900  0.006700  1
  C  C739  1  0.987100  0.717100  0.506700  1
  C  C740  1  0.512900  0.217100  0.993300  1
  C  C741  1  0.770800  0.766000  0.584600  1
  C  C742  1  0.729200  0.266000  0.915400  1
  C  C743  1  0.229200  0.234000  0.415400  1
  C  C744  1  0.270800  0.734000  0.084600  1
  C  C745  1  0.987400  0.331500  0.503700  1
  C  C746  1  0.512600  0.831500  0.996300  1
  C  C747  1  0.012600  0.668500  0.496300  1
  C  C748  1  0.487400  0.168500  0.003700  1
  C  C749  1  0.833300  0.745300  0.597800  1
  C  C750  1  0.666700  0.245300  0.902200  1
  C  C751  1  0.166700  0.254700  0.402200  1
  C  C752  1  0.333300  0.754700  0.097800  1
  C  C753  1  0.955000  0.366500  0.471200  1
  C  C754  1  0.545000  0.866500  0.028800  1
  C  C755  1  0.045000  0.633500  0.528800  1
  C  C756  1  0.455000  0.133500  0.971200  1
  C  C757  1  0.845000  0.689100  0.595400  1
  C  C758  1  0.655000  0.189100  0.904600  1
  C  C759  1  0.155000  0.310900  0.404600  1
  C  C760  1  0.345000  0.810900  0.095400  1
  C  C761  1  0.946700  0.350200  0.428100  1
  C  C762  1  0.553300  0.850200  0.071900  1
  C  C763  1  0.053300  0.649800  0.571900  1
  C  C764  1  0.446700  0.149800  0.928100  1
  C  C765  1  0.792600  0.654200  0.578400  1
  C  C766  1  0.707400  0.154200  0.921600  1
  C  C767  1  0.207400  0.345800  0.421600  1
  C  C768  1  0.292600  0.845800  0.078400  1
  C  C769  1  0.969900  0.301300  0.418900  1
  C  C770  1  0.530100  0.801300  0.081100  1
  C  C771  1  0.030100  0.698700  0.581100  1
  C  C772  1  0.469900  0.198700  0.918900  1
  C  C773  1  0.730000  0.674800  0.564200  1
  C  C774  1  0.770000  0.174800  0.935800  1
  C  C775  1  0.270000  0.325200  0.435800  1
  C  C776  1  0.230000  0.825200  0.064200  1
  C  C777  1  0.003300  0.269700  0.451200  1
  C  C778  1  0.496700  0.769700  0.048800  1
  C  C779  1  0.996700  0.730300  0.548800  1
  C  C780  1  0.503300  0.230300  0.951200  1
  C  C781  1  0.719200  0.729800  0.567700  1
  C  C782  1  0.780800  0.229800  0.932300  1
  C  C783  1  0.280800  0.270200  0.432300  1
  C  C784  1  0.219200  0.770200  0.067700  1
  C  C785  1  0.311200  0.782400  0.827600  1
  C  C786  1  0.188800  0.282400  0.672400  1
  C  C787  1  0.688800  0.217600  0.172400  1
  C  C788  1  0.811200  0.717600  0.327600  1
  C  C789  1  0.656100  0.452300  0.572300  1
  C  C790  1  0.843900  0.952300  0.927700  1
  C  C791  1  0.343900  0.547700  0.427700  1
  C  C792  1  0.156100  0.047700  0.072300  1
  C  C793  1  0.355700  0.731300  0.832700  1
  C  C794  1  0.144300  0.231300  0.667300  1
  C  C795  1  0.644300  0.268700  0.167300  1
  C  C796  1  0.855700  0.768700  0.332700  1
  C  C797  1  0.609300  0.497700  0.580700  1
  C  C798  1  0.890700  0.997700  0.919300  1
  C  C799  1  0.390700  0.502300  0.419300  1
  C  C800  1  0.109300  0.002300  0.080700  1
  C  C801  1  0.422200  0.739200  0.820100  1
  C  C802  1  0.077800  0.239200  0.679900  1
  C  C803  1  0.577800  0.260800  0.179900  1
  C  C804  1  0.922200  0.760800  0.320100  1
  C  C805  1  0.536900  0.483000  0.564100  1
  C  C806  1  0.963100  0.983000  0.935900  1
  C  C807  1  0.463100  0.517000  0.435900  1
  C  C808  1  0.036900  0.017000  0.064100  1
  C  C809  1  0.219900  0.855600  0.774600  1
  C  C810  1  0.280100  0.355600  0.725400  1
  C  C811  1  0.780100  0.144400  0.225400  1
  C  C812  1  0.719900  0.644400  0.274600  1
  C  C813  1  0.708800  0.344300  0.581300  1
  C  C814  1  0.791200  0.844300  0.918700  1
  C  C815  1  0.291200  0.655700  0.418700  1
  C  C816  1  0.208800  0.155700  0.081300  1
  C  C817  1  0.153600  0.850800  0.753600  1
  C  C818  1  0.346400  0.350800  0.746400  1
  C  C819  1  0.846400  0.149200  0.246400  1
  C  C820  1  0.653600  0.649200  0.253600  1
  C  C821  1  0.696400  0.335400  0.538000  1
  C  C822  1  0.803600  0.835400  0.962000  1
  C  C823  1  0.303600  0.664600  0.462000  1
  C  C824  1  0.196400  0.164600  0.038000  1
  C  C825  1  0.108900  0.892200  0.757400  1
  C  C826  1  0.391100  0.392200  0.742600  1
  C  C827  1  0.891100  0.107800  0.242600  1
  C  C828  1  0.608900  0.607800  0.257400  1
  C  C829  1  0.735000  0.300500  0.518900  1
  C  C830  1  0.765000  0.800500  0.981100  1
  C  C831  1  0.265000  0.699500  0.481100  1
  C  C832  1  0.235000  0.199500  0.018900  1
  C  C833  1  0.128800  0.937800  0.781900  1
  C  C834  1  0.371200  0.437800  0.718100  1
  C  C835  1  0.871200  0.062200  0.218100  1
  C  C836  1  0.628800  0.562200  0.281900  1
  C  C837  1  0.783000  0.270500  0.543700  1
  C  C838  1  0.717000  0.770500  0.956300  1
  C  C839  1  0.217000  0.729500  0.456300  1
  C  C840  1  0.283000  0.229500  0.043700  1
  C  C841  1  0.194200  0.943800  0.802400  1
  C  C842  1  0.305800  0.443800  0.697600  1
  C  C843  1  0.805800  0.056200  0.197600  1
  C  C844  1  0.694200  0.556200  0.302400  1
  C  C845  1  0.793100  0.274800  0.588500  1
  C  C846  1  0.706900  0.774800  0.911500  1
  C  C847  1  0.206900  0.725200  0.411500  1
  C  C848  1  0.293100  0.225200  0.088500  1
  C  C849  1  0.239400  0.902900  0.799200  1
  C  C850  1  0.260600  0.402900  0.700800  1
  C  C851  1  0.760600  0.097100  0.200800  1
  C  C852  1  0.739400  0.597100  0.299200  1
  C  C853  1  0.755100  0.311200  0.607200  1
  C  C854  1  0.744900  0.811200  0.892800  1
  C  C855  1  0.244900  0.688800  0.392800  1
  C  C856  1  0.255100  0.188800  0.107200  1
  C  C857  1  0.234800  0.744600  0.744900  1
  C  C858  1  0.265200  0.244600  0.755100  1
  C  C859  1  0.765200  0.255400  0.255100  1
  C  C860  1  0.734800  0.755400  0.244900  1
  C  C861  1  0.699700  0.405800  0.659300  1
  C  C862  1  0.800300  0.905800  0.840700  1
  C  C863  1  0.300300  0.594200  0.340700  1
  C  C864  1  0.199700  0.094200  0.159300  1
  C  C865  1  0.229700  0.736900  0.700600  1
  C  C866  1  0.270300  0.236900  0.799400  1
  C  C867  1  0.770300  0.263100  0.299400  1
  C  C868  1  0.729700  0.763100  0.200600  1
  C  C869  1  0.749100  0.445700  0.667500  1
  C  C870  1  0.750900  0.945700  0.832500  1
  C  C871  1  0.250900  0.554300  0.332500  1
  C  C872  1  0.249100  0.054300  0.167500  1
  C  C873  1  0.192100  0.694300  0.678900  1
  C  C874  1  0.307900  0.194300  0.821100  1
  C  C875  1  0.807900  0.305700  0.321100  1
  C  C876  1  0.692100  0.805700  0.178900  1
  C  C877  1  0.782100  0.457000  0.709100  1
  C  C878  1  0.717900  0.957000  0.790900  1
  C  C879  1  0.217900  0.543000  0.290900  1
  C  C880  1  0.282100  0.043000  0.209100  1
  C  C881  1  0.158800  0.658200  0.701500  1
  C  C882  1  0.341200  0.158200  0.798500  1
  C  C883  1  0.841200  0.341800  0.298500  1
  C  C884  1  0.658800  0.841800  0.201500  1
  C  C885  1  0.766100  0.428200  0.743000  1
  C  C886  1  0.733900  0.928200  0.757000  1
  C  C887  1  0.233900  0.571800  0.257000  1
  C  C888  1  0.266100  0.071800  0.243000  1
  C  C889  1  0.163800  0.664900  0.744700  1
  C  C890  1  0.336200  0.164900  0.755300  1
  C  C891  1  0.836200  0.335100  0.255300  1
  C  C892  1  0.663800  0.835100  0.244700  1
  C  C893  1  0.720100  0.388100  0.736000  1
  C  C894  1  0.779900  0.888100  0.764000  1
  C  C895  1  0.279900  0.611900  0.264000  1
  C  C896  1  0.220100  0.111900  0.236000  1
  C  C897  1  0.200500  0.707900  0.766800  1
  C  C898  1  0.299500  0.207900  0.733200  1
  C  C899  1  0.799500  0.292100  0.233200  1
  C  C900  1  0.700500  0.792100  0.266800  1
  C  C901  1  0.686600  0.376900  0.694200  1
  C  C902  1  0.813400  0.876900  0.805800  1
  C  C903  1  0.313400  0.623100  0.305800  1
  C  C904  1  0.186600  0.123100  0.194200  1
  C  C905  1  0.392600  0.695200  0.730900  1
  C  C906  1  0.107400  0.195200  0.769100  1
  C  C907  1  0.607400  0.304800  0.269100  1
  C  C908  1  0.892600  0.804800  0.230900  1
  C  C909  1  0.516500  0.468700  0.651100  1
  C  C910  1  0.983500  0.968700  0.848900  1
  C  C911  1  0.483500  0.531300  0.348900  1
  C  C912  1  0.016500  0.031300  0.151100  1
  C  C913  1  0.379100  0.700500  0.686700  1
  C  C914  1  0.120900  0.200500  0.813300  1
  C  C915  1  0.620900  0.299500  0.313300  1
  C  C916  1  0.879100  0.799500  0.186700  1
  C  C917  1  0.501400  0.524300  0.651800  1
  C  C918  1  0.998600  0.024300  0.848200  1
  C  C919  1  0.498600  0.475700  0.348200  1
  C  C920  1  0.001400  0.975700  0.151800  1
  C  C921  1  0.356600  0.656300  0.659500  1
  C  C922  1  0.143400  0.156300  0.840500  1
  C  C923  1  0.643400  0.343700  0.340500  1
  C  C924  1  0.856600  0.843700  0.159500  1
  C  C925  1  0.512900  0.552200  0.690200  1
  C  C926  1  0.987100  0.052200  0.809800  1
  C  C927  1  0.487100  0.447800  0.309800  1
  C  C928  1  0.012900  0.947800  0.190200  1
  C  C929  1  0.347600  0.605500  0.678300  1
  C  C930  1  0.152400  0.105500  0.821700  1
  C  C931  1  0.652400  0.394500  0.321700  1
  C  C932  1  0.847600  0.894500  0.178300  1
  C  C933  1  0.540300  0.524100  0.728400  1
  C  C934  1  0.959700  0.024100  0.771600  1
  C  C935  1  0.459700  0.475900  0.271600  1
  C  C936  1  0.040300  0.975900  0.228400  1
  C  C937  1  0.359800  0.601000  0.721800  1
  C  C938  1  0.140200  0.101000  0.778200  1
  C  C939  1  0.640200  0.399000  0.278200  1
  C  C940  1  0.859800  0.899000  0.221800  1
  C  C941  1  0.554500  0.469500  0.728600  1
  C  C942  1  0.945500  0.969500  0.771400  1
  C  C943  1  0.445500  0.530500  0.271400  1
  C  C944  1  0.054500  0.030500  0.228600  1
  C  C945  1  0.382900  0.644900  0.748600  1
  C  C946  1  0.117100  0.144900  0.751400  1
  C  C947  1  0.617100  0.355100  0.251400  1
  C  C948  1  0.882900  0.855100  0.248600  1
  C  C949  1  0.541500  0.440800  0.688800  1
  C  C950  1  0.958500  0.940800  0.811200  1
  C  C951  1  0.458500  0.559200  0.311200  1
  C  C952  1  0.041500  0.059200  0.188800  1
  C  C953  1  0.509500  0.759900  0.763400  1
  C  C954  1  0.990500  0.259900  0.736600  1
  C  C955  1  0.490500  0.240100  0.236600  1
  C  C956  1  0.009500  0.740100  0.263400  1
  C  C957  1  0.417600  0.430700  0.576400  1
  C  C958  1  0.082400  0.930700  0.923600  1
  C  C959  1  0.582400  0.569300  0.423600  1
  C  C960  1  0.917600  0.069300  0.076400  1
  C  C961  1  0.547400  0.796500  0.792900  1
  C  C962  1  0.952600  0.296500  0.707100  1
  C  C963  1  0.452600  0.203500  0.207100  1
  C  C964  1  0.047400  0.703500  0.292900  1
  C  C965  1  0.374700  0.419200  0.604000  1
  C  C966  1  0.125300  0.919200  0.896000  1
  C  C967  1  0.625300  0.580800  0.396000  1
  C  C968  1  0.874700  0.080800  0.104000  1
  C  C969  1  0.615800  0.801700  0.794000  1
  C  C970  1  0.884200  0.301700  0.706000  1
  C  C971  1  0.384200  0.198300  0.206000  1
  C  C972  1  0.115800  0.698300  0.294000  1
  C  C973  1  0.307400  0.416300  0.587200  1
  C  C974  1  0.192600  0.916300  0.912800  1
  C  C975  1  0.692600  0.583700  0.412800  1
  C  C976  1  0.807400  0.083700  0.087200  1
  C  C977  1  0.644200  0.768700  0.766500  1
  C  C978  1  0.855800  0.268700  0.733500  1
  C  C979  1  0.355800  0.231300  0.233500  1
  C  C980  1  0.144200  0.731300  0.266500  1
  C  C981  1  0.283100  0.424900  0.543600  1
  C  C982  1  0.216900  0.924900  0.956400  1
  C  C983  1  0.716900  0.575100  0.456400  1
  C  C984  1  0.783100  0.075100  0.043600  1
  C  C985  1  0.607800  0.733100  0.738500  1
  C  C986  1  0.892200  0.233100  0.761500  1
  C  C987  1  0.392200  0.266900  0.261500  1
  C  C988  1  0.107800  0.766900  0.238500  1
  C  C989  1  0.324800  0.436000  0.516700  1
  C  C990  1  0.175200  0.936000  0.983300  1
  C  C991  1  0.675200  0.564000  0.483300  1
  C  C992  1  0.824800  0.064000  0.016700  1
  C  C993  1  0.539400  0.728600  0.736900  1
  C  C994  1  0.960600  0.228600  0.763100  1
  C  C995  1  0.460600  0.271400  0.263100  1
  C  C996  1  0.039400  0.771400  0.236900  1
  C  C997  1  0.391400  0.438200  0.532800  1
  C  C998  1  0.108600  0.938200  0.967200  1
  C  C999  1  0.608600  0.561800  0.467200  1
  C  C1000  1  0.891400  0.061800  0.032800  1
  C  C1001  1  0.522900  0.229600  0.762100  1
  C  C1002  1  0.977100  0.729600  0.737900  1
  C  C1003  1  0.477100  0.770400  0.237900  1
  C  C1004  1  0.022900  0.270400  0.262100  1
  C  C1005  1  0.183300  0.817900  0.580230  1
  C  C1006  1  0.316700  0.317900  0.919770  1
  C  C1007  1  0.816700  0.182100  0.419770  1
  C  C1008  1  0.683300  0.682100  0.080230  1
  C  C1009  1  0.413400  0.946200  0.895300  1
  C  C1010  1  0.086600  0.446200  0.604700  1
  C  C1011  1  0.586600  0.053800  0.104700  1
  C  C1012  1  0.913400  0.553800  0.395300  1
  C  C1013  1  0.487300  0.705100  0.570800  1
  C  C1014  1  0.012700  0.205100  0.929200  1
  C  C1015  1  0.512700  0.294900  0.429200  1
  C  C1016  1  0.987300  0.794900  0.070800  1
  C  C1017  1  0.539100  0.395100  0.863200  1
  C  C1018  1  0.960900  0.895100  0.636800  1
  C  C1019  1  0.460900  0.604900  0.136800  1
  C  C1020  1  0.039100  0.104900  0.363200  1
  C  C1021  1  0.484700  0.352100  0.863800  1
  C  C1022  1  0.015300  0.852100  0.636200  1
  C  C1023  1  0.515300  0.647900  0.136200  1
  C  C1024  1  0.984700  0.147900  0.363800  1
  C  C1025  1  0.343100  0.020800  0.051700  1
  C  C1026  1  0.156900  0.520800  0.448300  1
  C  C1027  1  0.656900  0.979200  0.948300  1
  C  C1028  1  0.843100  0.479200  0.551700  1
  C  C1029  1  0.391700  0.980600  0.036800  1
  C  C1030  1  0.108300  0.480600  0.463200  1
  C  C1031  1  0.608300  0.019400  0.963200  1
  C  C1032  1  0.891700  0.519400  0.536800  1
  C  C1033  1  0.446700  0.936200  0.177700  1
  C  C1034  1  0.053300  0.436200  0.322300  1
  C  C1035  1  0.553300  0.063800  0.822300  1
  C  C1036  1  0.946700  0.563800  0.677700  1
  C  C1037  1  0.494300  0.944000  0.219000  1
  C  C1038  1  0.005700  0.444000  0.281000  1
  C  C1039  1  0.505700  0.056000  0.781000  1
  C  C1040  1  0.994300  0.556000  0.719000  1
  C  C1041  1  0.373500  0.932800  0.555600  1
  C  C1042  1  0.126500  0.432800  0.944400  1
  C  C1043  1  0.626500  0.067200  0.444400  1
  C  C1044  1  0.873500  0.567200  0.055600  1
  C  C1045  1  0.344200  0.948000  0.577600  1
  C  C1046  1  0.155800  0.448000  0.922400  1
  C  C1047  1  0.655800  0.052000  0.422400  1
  C  C1048  1  0.844200  0.552000  0.077600  1
  C  C1049  1  0.263200  0.866900  0.199500  1
  C  C1050  1  0.236800  0.366900  0.300500  1
  C  C1051  1  0.736800  0.133100  0.800500  1
  C  C1052  1  0.763200  0.633100  0.699500  1
  C  C1053  1  0.246400  0.814600  0.222900  1
  C  C1054  1  0.253600  0.314600  0.277100  1
  C  C1055  1  0.753600  0.185400  0.777100  1
  C  C1056  1  0.746400  0.685400  0.722900  1
  C  C1057  1  0.780200  0.923300  0.052200  1
  C  C1058  1  0.719800  0.423300  0.447800  1
  C  C1059  1  0.219800  0.076700  0.947800  1
  C  C1060  1  0.280200  0.576700  0.552200  1
  C  C1061  1  0.719900  0.933600  0.069800  1
  C  C1062  1  0.780100  0.433600  0.430200  1
  C  C1063  1  0.280100  0.066400  0.930200  1
  C  C1064  1  0.219900  0.566400  0.569800  1
  C  C1065  1  0.898800  0.372100  0.004800  1
  C  C1066  1  0.601200  0.872100  0.495200  1
  C  C1067  1  0.101200  0.627900  0.995200  1
  C  C1068  1  0.398800  0.127900  0.504800  1
  C  C1069  1  0.943700  0.332100  0.984500  1
  C  C1070  1  0.556300  0.832100  0.515500  1
  C  C1071  1  0.056300  0.667900  0.015500  1
  C  C1072  1  0.443700  0.167900  0.484500  1
  S  S1073  1  0.588500  0.277200  0.756200  1
  S  S1074  1  0.911500  0.777200  0.743800  1
  S  S1075  1  0.411500  0.722800  0.243800  1
  S  S1076  1  0.088500  0.222800  0.256200  1
  S  S1077  1  0.263400  0.784000  0.584800  1
  S  S1078  1  0.236600  0.284000  0.915200  1
  S  S1079  1  0.736600  0.216000  0.415200  1
  S  S1080  1  0.763400  0.716000  0.084800  1
  S  S1081  1  0.456000  0.907100  0.861200  1
  S  S1082  1  0.044000  0.407100  0.638800  1
  S  S1083  1  0.544000  0.092900  0.138800  1
  S  S1084  1  0.956000  0.592900  0.361200  1
  S  S1085  1  0.488800  0.640200  0.542100  1
  S  S1086  1  0.011200  0.140200  0.957900  1
  S  S1087  1  0.511200  0.359800  0.457900  1
  S  S1088  1  0.988800  0.859800  0.042100  1
  N  N1089  1  0.164800  0.217500  0.562800  1
  N  N1090  1  0.335200  0.717500  0.937200  1
  N  N1091  1  0.835200  0.782500  0.437200  1
  N  N1092  1  0.664800  0.282500  0.062800  1
  N  N1093  1  0.681900  0.889900  0.617300  1
  N  N1094  1  0.818100  0.389900  0.882700  1
  N  N1095  1  0.318100  0.110100  0.382700  1
  N  N1096  1  0.181900  0.610100  0.117300  1
  N  N1097  1  0.234500  0.138600  0.620200  1
  N  N1098  1  0.265500  0.638600  0.879800  1
  N  N1099  1  0.765500  0.861400  0.379800  1
  N  N1100  1  0.734500  0.361400  0.120200  1
  N  N1101  1  0.641800  0.005800  0.620500  1
  N  N1102  1  0.858200  0.505800  0.879500  1
  N  N1103  1  0.358200  0.994200  0.379500  1
  N  N1104  1  0.141800  0.494200  0.120500  1
  N  N1105  1  0.108700  0.092500  0.636800  1
  N  N1106  1  0.391300  0.592500  0.863200  1
  N  N1107  1  0.891300  0.907500  0.363200  1
  N  N1108  1  0.608700  0.407500  0.136800  1
  N  N1109  1  0.730000  0.036700  0.564300  1
  N  N1110  1  0.770000  0.536700  0.935700  1
  N  N1111  1  0.270000  0.963300  0.435700  1
  N  N1112  1  0.230000  0.463300  0.064300  1
  N  N1113  1  0.039900  0.173200  0.582000  1
  N  N1114  1  0.460100  0.673200  0.918000  1
  N  N1115  1  0.960100  0.826800  0.418000  1
  N  N1116  1  0.539900  0.326800  0.082000  1
  N  N1117  1  0.771700  0.921400  0.562400  1
  N  N1118  1  0.728300  0.421400  0.937600  1
  N  N1119  1  0.228300  0.078600  0.437600  1
  N  N1120  1  0.271700  0.578600  0.062400  1
  N  N1121  1  0.464600  0.307800  0.597700  1
  N  N1122  1  0.035400  0.807800  0.902300  1
  N  N1123  1  0.535400  0.692200  0.402300  1
  N  N1124  1  0.964600  0.192200  0.097700  1
  N  N1125  1  0.441400  0.864600  0.712500  1
  N  N1126  1  0.058600  0.364600  0.787500  1
  N  N1127  1  0.558600  0.135400  0.287500  1
  N  N1128  1  0.941400  0.635400  0.212500  1
  N  N1129  1  0.314500  0.906000  0.717900  1
  N  N1130  1  0.185500  0.406000  0.782100  1
  N  N1131  1  0.685500  0.094000  0.282100  1
  N  N1132  1  0.814500  0.594000  0.217900  1
  N  N1133  1  0.595900  0.268900  0.601200  1
  N  N1134  1  0.904100  0.768900  0.898800  1
  N  N1135  1  0.404100  0.731100  0.398800  1
  N  N1136  1  0.095900  0.231100  0.101200  1
  O  O1137  1  0.643100  0.244200  0.748100  1
  O  O1138  1  0.856900  0.744200  0.751900  1
  O  O1139  1  0.356900  0.755800  0.251900  1
  O  O1140  1  0.143100  0.255800  0.248100  1
  O  O1141  1  0.602800  0.305700  0.796400  1
  O  O1142  1  0.897200  0.805700  0.703600  1
  O  O1143  1  0.397200  0.694300  0.203600  1
  O  O1144  1  0.102800  0.194300  0.296400  1
  O  O1145  1  0.559300  0.307100  0.719300  1
  O  O1146  1  0.940700  0.807100  0.780700  1
  O  O1147  1  0.440700  0.692900  0.280700  1
  O  O1148  1  0.059300  0.192900  0.219300  1
  O  O1149  1  0.299600  0.803400  0.626000  1
  O  O1150  1  0.200400  0.303400  0.874000  1
  O  O1151  1  0.700400  0.196600  0.374000  1
  O  O1152  1  0.799600  0.696600  0.126000  1
  O  O1153  1  0.287200  0.804500  0.547500  1
  O  O1154  1  0.212800  0.304500  0.952500  1
  O  O1155  1  0.712800  0.195500  0.452500  1
  O  O1156  1  0.787200  0.695500  0.047500  1
  O  O1157  1  0.246900  0.726700  0.583400  1
  O  O1158  1  0.253100  0.226700  0.916600  1
  O  O1159  1  0.753100  0.273300  0.416600  1
  O  O1160  1  0.746900  0.773300  0.083400  1
  O  O1161  1  0.411500  0.896500  0.822800  1
  O  O1162  1  0.088500  0.396500  0.677200  1
  O  O1163  1  0.588500  0.103500  0.177200  1
  O  O1164  1  0.911500  0.603500  0.322800  1
  O  O1165  1  0.514200  0.931900  0.858300  1
  O  O1166  1  0.985800  0.431900  0.641700  1
  O  O1167  1  0.485800  0.068100  0.141700  1
  O  O1168  1  0.014200  0.568100  0.358300  1
  O  O1169  1  0.470700  0.855000  0.886100  1
  O  O1170  1  0.029300  0.355000  0.613900  1
  O  O1171  1  0.529300  0.145000  0.113900  1
  O  O1172  1  0.970700  0.645000  0.386100  1
  O  O1173  1  0.444200  0.598900  0.553400  1
  O  O1174  1  0.055800  0.098900  0.946600  1
  O  O1175  1  0.555800  0.401100  0.446600  1
  O  O1176  1  0.944200  0.901100  0.053400  1
  O  O1177  1  0.473800  0.655100  0.498800  1
  O  O1178  1  0.026200  0.155100  0.001200  1
  O  O1179  1  0.526200  0.344900  0.501200  1
  O  O1180  1  0.973800  0.844900  0.998800  1
  O  O1181  1  0.560100  0.621000  0.556500  1
  O  O1182  1  0.939900  0.121000  0.943500  1
  O  O1183  1  0.439900  0.379000  0.443500  1
  O  O1184  1  0.060100  0.879000  0.056500  1
  O  O1185  1  0.544600  0.406000  0.819100  1
  O  O1186  1  0.955400  0.906000  0.680900  1
  O  O1187  1  0.455400  0.594000  0.180900  1
  O  O1188  1  0.044600  0.094000  0.319100  1
  O  O1189  1  0.312400  0.991100  0.083100  1
  O  O1190  1  0.187600  0.491100  0.416900  1
  O  O1191  1  0.687600  0.008900  0.916900  1
  O  O1192  1  0.812400  0.508900  0.583100  1
  O  O1193  1  0.406500  0.988300  0.163100  1
  O  O1194  1  0.093500  0.488300  0.336900  1
  O  O1195  1  0.593500  0.011700  0.836900  1
  O  O1196  1  0.906500  0.511700  0.663100  1
  O  O1197  1  0.391800  0.878600  0.553800  1
  O  O1198  1  0.108200  0.378600  0.946200  1
  O  O1199  1  0.608200  0.121400  0.446200  1
  O  O1200  1  0.891800  0.621400  0.053800  1
  O  O1201  1  0.203600  0.889800  0.178200  1
  O  O1202  1  0.296400  0.389800  0.321800  1
  O  O1203  1  0.796400  0.110200  0.821800  1
  O  O1204  1  0.703600  0.610200  0.678200  1
  O  O1205  1  0.831500  0.943100  0.081800  1
  O  O1206  1  0.668500  0.443100  0.418200  1
  O  O1207  1  0.168500  0.056900  0.918200  1
  O  O1208  1  0.331500  0.556900  0.581800  1
  O  O1209  1  0.938000  0.367300  0.053500  1
  O  O1210  1  0.562000  0.867300  0.446500  1
  O  O1211  1  0.062000  0.632700  0.946500  1
  O  O1212  1  0.438000  0.132700  0.553500  1
  O  O1213  1  0.633700  0.343500  0.101400  1
  O  O1214  1  0.866300  0.843500  0.398600  1
  O  O1215  1  0.366300  0.656500  0.898600  1
  O  O1216  1  0.133700  0.156500  0.601400  1
  O  O1217  1  0.267300  0.835500  0.253500  1
  O  O1218  1  0.232700  0.335500  0.246500  1
  O  O1219  1  0.732700  0.164500  0.746500  1
  O  O1220  1  0.767300  0.664500  0.753500  1
  O  O1221  1  0.716000  0.906000  0.099800  1
  O  O1222  1  0.784000  0.406000  0.400200  1
  O  O1223  1  0.284000  0.094000  0.900200  1
  O  O1224  1  0.216000  0.594000  0.599800  1
  O  O1225  1  0.994500  0.366900  0.968200  1
  O  O1226  1  0.505500  0.866900  0.531800  1
  O  O1227  1  0.005500  0.633100  0.031800  1
  O  O1228  1  0.494500  0.133100  0.468200  1
  O  O1229  1  0.234000  0.554000  0.100000  1
  O  O1230  1  0.266000  0.054000  0.400000  1
  O  O1231  1  0.766000  0.446000  0.900000  1
  O  O1232  1  0.734000  0.946000  0.600000  1
  O  O1233  1  0.931400  0.693300  0.059200  1
  O  O1234  1  0.568600  0.193300  0.440800  1
  O  O1235  1  0.068600  0.306700  0.940800  1
  O  O1236  1  0.431400  0.806700  0.559200  1
  O  O1237  1  0.015000  0.516000  0.028000  1
  O  O1238  1  0.485000  0.016000  0.472000  1
  O  O1239  1  0.985000  0.484000  0.972000  1
  O  O1240  1  0.515000  0.984000  0.528000  1
  F  F1241  1  0.506100  0.199200  0.727600  1
  F  F1242  1  0.993900  0.699200  0.772400  1
  F  F1243  1  0.493900  0.800800  0.272400  1
  F  F1244  1  0.006100  0.300800  0.227600  1
  F  F1245  1  0.470900  0.256600  0.767000  1
  F  F1246  1  0.029100  0.756600  0.733000  1
  F  F1247  1  0.529100  0.743400  0.233000  1
  F  F1248  1  0.970900  0.243400  0.267000  1
  F  F1249  1  0.543100  0.196200  0.794700  1
  F  F1250  1  0.956900  0.696200  0.705300  1
  F  F1251  1  0.456900  0.803800  0.205300  1
  F  F1252  1  0.043100  0.303800  0.294700  1
  F  F1253  1  0.143200  0.804400  0.543500  1
  F  F1254  1  0.356800  0.304400  0.956500  1
  F  F1255  1  0.856800  0.195600  0.456500  1
  F  F1256  1  0.643200  0.695600  0.043500  1
  F  F1257  1  0.189800  0.872500  0.579000  1
  F  F1258  1  0.310200  0.372500  0.921000  1
  F  F1259  1  0.810200  0.127500  0.421000  1
  F  F1260  1  0.689800  0.627500  0.079000  1
  F  F1261  1  0.156000  0.806200  0.612900  1
  F  F1262  1  0.344000  0.306200  0.887100  1
  F  F1263  1  0.844000  0.193800  0.387100  1
  F  F1264  1  0.656000  0.693800  0.112900  1
  F  F1265  1  0.451900  0.955000  0.933700  1
  F  F1266  1  0.048100  0.455000  0.566300  1
  F  F1267  1  0.548100  0.045000  0.066300  1
  F  F1268  1  0.951900  0.545000  0.433700  1
  F  F1269  1  0.363500  0.924300  0.900900  1
  F  F1270  1  0.136500  0.424300  0.599100  1
  F  F1271  1  0.636500  0.075700  0.099100  1
  F  F1272  1  0.863500  0.575700  0.400900  1
  F  F1273  1  0.400500  0.994700  0.876500  1
  F  F1274  1  0.099500  0.494700  0.623500  1
  F  F1275  1  0.599500  0.005300  0.123500  1
  F  F1276  1  0.900500  0.505300  0.376500  1
  F  F1277  1  0.421200  0.716400  0.561300  1
  F  F1278  1  0.078800  0.216400  0.938700  1
  F  F1279  1  0.578800  0.283600  0.438700  1
  F  F1280  1  0.921200  0.783600  0.061300  1
  F  F1281  1  0.534000  0.732800  0.567500  1
  F  F1282  1  0.966000  0.232800  0.932500  1
  F  F1283  1  0.466000  0.267200  0.432500  1
  F  F1284  1  0.034000  0.767200  0.067500  1
  F  F1285  1  0.500500  0.687600  0.615700  1
  F  F1286  1  0.999500  0.187600  0.884300  1
  F  F1287  1  0.499500  0.312400  0.384300  1
  F  F1288  1  0.000500  0.812400  0.115700  1
