
#######################################################################
#
#                 Cambridge Crystallographic Data Centre
#                                CCDC 
#
#######################################################################
#
# If this CIF has been generated from an entry in the Cambridge 
# Structural Database, then it will include bibliographic, chemical, 
# crystal, experimental, refinement or atomic coordinate data resulting 
# from the CCDC's data processing and validation procedures.
#
#######################################################################

data_GULREK
_chemical_formula_moiety         'C50 H84 N4 O4 P4 Pt2 4+,4(C1 F3 O3 S1 1-)'
_chemical_name_systematic        
'bis(\m~2~-2,2-bis(4-Pyridyl)-1,3-dioxolane)-tetrakis(triethylphosphine)-di-platinum(ii) tetrakis(trifluoromethanesulfonate)'
_symmetry_cell_setting           monoclinic
_symmetry_space_group_name_H-M   'C 2/c'
_symmetry_Int_Tables_number      15
_space_group_name_Hall           '-C 2yn'
loop_
_symmetry_equiv_pos_site_id
_symmetry_equiv_pos_as_xyz
1 x,y,z
2 -x,y,1/2-z
3 1/2+x,1/2+y,z
4 1/2-x,1/2+y,1/2-z
5 -x,-y,-z
6 x,-y,1/2+z
7 1/2-x,1/2-y,-z
8 1/2+x,1/2-y,1/2+z
_cell_length_a                   27.0947(6)
_cell_length_b                   18.3342(4)
_cell_length_c                   17.6983(4)
_cell_angle_alpha                90
_cell_angle_beta                 109.068(1)
_cell_angle_gamma                90
_cell_volume                     8309.41
_chemical_melting_point          '214-218 deg.C.(dec.)'
_cell_formula_units_Z            4
loop_
_atom_site_label
_atom_site_type_symbol
_atom_site_fract_x
_atom_site_fract_y
_atom_site_fract_z
Pt1 Pt 0.1889(1) 0.1320(1) 0.2544(1)
P1 P 0.2156(1) 0.1288(1) 0.1446(1)
P2 P 0.2675(1) 0.1257(1) 0.3535(1)
O1 O 0.0575(2) 0.2174(2) 0.5230(2)
O2 O 0.0583(2) 0.0929(2) 0.5367(2)
N1 N 0.1505(2) 0.1367(2) 0.3403(2)
N2 N 0.1114(2) 0.1380(2) 0.1749(2)
C1 C 0.0481(2) 0.1506(3) 0.4804(3)
C2 C 0.0490(3) 0.2014(4) 0.5975(4)
C3 C 0.0531(5) 0.1231(5) 0.6065(4)
C4 C 0.0854(2) 0.1461(3) 0.4323(3)
C5 C 0.1032(2) 0.2079(3) 0.4059(3)
C6 C 0.1358(2) 0.2014(3) 0.3597(3)
C7 C 0.1328(2) 0.0762(3) 0.3660(3)
C8 C 0.1008(2) 0.0787(2) 0.4115(3)
C9 C -0.0087(2) 0.1469(3) 0.4244(3)
C10 C -0.0365(2) 0.2087(3) 0.3945(4)
C11 C 0.0883(2) 0.2028(3) 0.1543(4)
C12 C 0.0836(2) 0.0775(3) 0.1481(4)
C13 C -0.0329(2) 0.0798(3) 0.4016(3)
C14 C 0.2735(5) 0.2059(7) 0.4226(7)
C15 C 0.2842(3) 0.2750(4) 0.3787(6)
C16 C 0.3300(4) 0.1183(7) 0.3436(7)
C17 C 0.3775(6) 0.1129(11) 0.4217(9)
C18 C 0.2657(5) 0.0499(7) 0.4211(7)
C19 C 0.2610(8) -0.0219(9) 0.3779(12)
C25 C 0.1867(3) 0.0513(3) 0.0822(3)
C26 C 0.1988(3) -0.0228(4) 0.1242(5)
C27 C 0.2841(2) 0.1283(4) 0.1539(3)
C28 C 0.2948(3) 0.1250(7) 0.0741(5)
C29 C 0.1885(3) 0.2068(3) 0.0812(3)
C30 C 0.2063(4) 0.2800(4) 0.1195(5)
H1 H 0.0140 0.2182 0.5960
H2 H 0.0756 0.2258 0.6425
H3 H 0.0838 0.1103 0.6532
H4 H 0.0215 0.1034 0.6156
H5 H 0.0933 0.2547 0.4191
H6 H 0.1479 0.2444 0.3415
H7 H 0.1429 0.0300 0.3518
H8 H 0.0891 0.0349 0.4289
H9 H -0.0205 0.2553 0.4070
H10 H 0.1077 0.2460 0.1735
H11 H 0.0996 0.0314 0.1640
H12 H -0.0144 0.0359 0.4204
H13 H 0.2409 0.2122 0.4355
H14 H 0.3026 0.1980 0.4731
H15 H 0.2869 0.3179 0.4129
H16 H 0.2554 0.2819 0.3285
H17 H 0.3169 0.2686 0.3672
H18 H 0.3301 0.0745 0.3109
H19 H 0.3353 0.1612 0.3132
H20 H 0.4098 0.1093 0.4082
H21 H 0.3739 0.0695 0.4517
H22 H 0.3789 0.1565 0.4543
H23 H 0.2980 0.0503 0.4680
H24 H 0.2356 0.0563 0.4406
H25 H 0.2592 -0.0616 0.4139
H26 H 0.2914 -0.0288 0.3604
H27 H 0.2292 -0.0218 0.3312
H40 H 0.1482 0.0574 0.0627
H41 H 0.1986 0.0513 0.0349
H42 H 0.1828 -0.0617 0.0867
H43 H 0.1874 -0.0239 0.1703
H44 H 0.2377 -0.0301 0.1423
H45 H 0.3006 0.1728 0.1828
H46 H 0.3009 0.0858 0.1867
H47 H 0.3326 0.1250 0.0843
H48 H 0.2792 0.1676 0.0416
H49 H 0.2796 0.0804 0.0455
H50 H 0.1980 0.2031 0.0320
H51 H 0.1499 0.2046 0.0653
H52 H 0.1900 0.3189 0.0817
H53 H 0.2444 0.2836 0.1341
H54 H 0.1962 0.2850 0.1676
C11A C -0.0883(2) 0.2028(3) 0.3457(4)
N2A N -0.1114(2) 0.1380(2) 0.3251(2)
Pt1A Pt -0.1889(1) 0.1320(1) 0.2456(1)
P1A P -0.2156(1) 0.1288(1) 0.3554(1)
C25A C -0.1867(3) 0.0513(3) 0.4178(3)
C26A C -0.1988(3) -0.0228(4) 0.3758(5)
H42A H -0.1828 -0.0617 0.4133
H43A H -0.1874 -0.0239 0.3297
H44A H -0.2377 -0.0301 0.3577
H40A H -0.1482 0.0574 0.4373
H41A H -0.1986 0.0513 0.4651
C27A C -0.2841(2) 0.1283(4) 0.3461(3)
C28A C -0.2948(3) 0.1250(7) 0.4259(5)
H47A H -0.3326 0.1250 0.4157
H48A H -0.2792 0.1676 0.4584
H49A H -0.2796 0.0804 0.4545
H45A H -0.3006 0.1728 0.3172
H46A H -0.3009 0.0858 0.3133
C29A C -0.1885(3) 0.2068(3) 0.4188(3)
C30A C -0.2063(4) 0.2800(4) 0.3805(5)
H52A H -0.1900 0.3189 0.4183
H53A H -0.2444 0.2836 0.3659
H54A H -0.1962 0.2850 0.3324
H50A H -0.1980 0.2031 0.4680
H51A H -0.1499 0.2046 0.4347
P2A P -0.2675(1) 0.1257(1) 0.1465(1)
C14A C -0.2735(5) 0.2059(7) 0.0774(7)
C15A C -0.2842(3) 0.2750(4) 0.1213(6)
H15A H -0.2869 0.3179 0.0871
H16A H -0.2554 0.2819 0.1715
H17A H -0.3169 0.2686 0.1328
H13A H -0.2409 0.2122 0.0645
H14A H -0.3026 0.1980 0.0269
C16A C -0.3300(4) 0.1183(7) 0.1564(7)
C17A C -0.3775(6) 0.1129(11) 0.0783(9)
H20A H -0.4098 0.1093 0.0918
H21A H -0.3739 0.0695 0.0483
H22A H -0.3789 0.1565 0.0457
H18A H -0.3301 0.0745 0.1891
H19A H -0.3353 0.1612 0.1868
C18A C -0.2657(5) 0.0499(7) 0.0789(7)
C19A C -0.2610(8) -0.0219(9) 0.1221(12)
H25A H -0.2592 -0.0616 0.0861
H26A H -0.2914 -0.0288 0.1396
H27A H -0.2292 -0.0218 0.1688
H23A H -0.2980 0.0503 0.0320
H24A H -0.2356 0.0563 0.0594
N1A N -0.1505(2) 0.1367(2) 0.1597(2)
C6A C -0.1358(2) 0.2014(3) 0.1403(3)
C5A C -0.1032(2) 0.2079(3) 0.0941(3)
C4A C -0.0854(2) 0.1461(3) 0.0677(3)
C1A C -0.0481(2) 0.1506(3) 0.0196(3)
O1A O -0.0575(2) 0.2174(2) -0.0230(2)
C2A C -0.0490(3) 0.2014(4) -0.0975(4)
C3A C -0.0531(5) 0.1231(5) -0.1065(4)
O2A O -0.0583(2) 0.0929(2) -0.0367(2)
C9A C 0.0087(2) 0.1469(3) 0.0756(3)
C10A C 0.0365(2) 0.2087(3) 0.1055(4)
C13A C 0.0329(2) 0.0798(3) 0.0984(3)
H12A H 0.0144 0.0359 0.0796
H9A H 0.0205 0.2553 0.0930
H3A H -0.0838 0.1103 -0.1532
H4A H -0.0215 0.1034 -0.1156
H1A H -0.0140 0.2182 -0.0960
H2A H -0.0756 0.2258 -0.1425
C8A C -0.1008(2) 0.0787(2) 0.0885(3)
C7A C -0.1328(2) 0.0762(3) 0.1340(3)
H7A H -0.1429 0.0300 0.1482
H8A H -0.0891 0.0349 0.0711
H5A H -0.0933 0.2547 0.0809
H6A H -0.1479 0.2444 0.1585
C12A C -0.0836(2) 0.0775(3) 0.3519(4)
H11A H -0.0996 0.0314 0.3360
H10A H -0.1077 0.2460 0.3265
S1 S 0.3535(1) 0.3616(2) 0.1737(1)
F1 F 0.4200(7) 0.3769(12) 0.0832(10)
F2 F 0.4037(6) 0.2811(10) 0.1015(9)
F3 F 0.4521(6) 0.3306(10) 0.2070(11)
O3 O 0.3139(4) 0.3738(13) 0.0976(7)
O4 O 0.3459(5) 0.3006(6) 0.2183(7)
O5 O 0.3679(6) 0.4262(7) 0.2235(7)
C31 C 0.4112(7) 0.3338(13) 0.1485(16)
S3 S 0.1448(1) 0.4008(2) 0.3196(2)
F7 F 0.0497(19) 0.3410(30) 0.2970(40)
F8 F 0.0553(16) 0.4220(40) 0.2020(20)
F9 F 0.0576(12) 0.4571(15) 0.3110(40)
O9 O 0.1608(8) 0.4712(8) 0.3051(11)
O10 O 0.1583(7) 0.3702(7) 0.4006(7)
O11 O 0.1537(3) 0.3435(3) 0.2654(4)
C33 C 0.0730(7) 0.4051(11) 0.2653(19)
C20? C 0.3097(4) 0.2027(6) 0.3553(7)
C21? C 0.3069(4) 0.0455(6) 0.3447(6)
C22? C 0.2801(7) -0.0259(8) 0.3500(12)
C23? C 0.2614(4) 0.1185(8) 0.4499(6)
C24? C 0.3131(5) 0.1129(9) 0.5175(6)
S2? S 0.3898(3) 0.3727(4) 0.1342(3)
F4? F 0.3914(9) 0.2373(10) 0.1001(12)
F5? F 0.4520(8) 0.2801(13) 0.2072(13)
F6? F 0.3781(8) 0.2627(14) 0.2160(10)
O6? O 0.3988(14) 0.4147(11) 0.2061(9)
O7? O 0.4194(11) 0.4001(2) 0.1081(20)
O8? O 0.3336(7) 0.3730(20) 0.0990(14)
C32? C 0.4032(10) 0.2812(18) 0.1640(16)
S4? S 0.1333(2) 0.4045(2) 0.2313(3)
F10? F 0.0479(7) 0.3439(12) 0.2390(20)
F11? F 0.0822(6) 0.4123(14) 0.3297(10)
F12? F 0.0474(13) 0.4620(20) 0.2200(20)
O12? O 0.1636(13) 0.4638(14) 0.2631(17)
O13? O 0.1158(7) 0.4008(13) 0.1437(9)
H28? H 0.3446 0.1941 0.3949
H29? H 0.3138 0.2089 0.3021
H30? H 0.3134 0.0477 0.2929
H31? H 0.3411 0.0473 0.3878
H32? H 0.3020 -0.0667 0.3442
H33? H 0.2463 -0.0281 0.3072
H34? H 0.2746 -0.0292 0.4019
H35? H 0.2423 0.1618 0.4593
H36? H 0.2402 0.0749 0.4512
H37? H 0.3065 0.1092 0.5686
H38? H 0.3341 0.1564 0.5177
H39? H 0.3319 0.0695 0.5097
loop_
_geom_bond_atom_site_label_1
_geom_bond_atom_site_label_2
_geom_bond_site_symmetry_1
_geom_bond_site_symmetry_2
Pt1 P1 1_555 1_555
P1 C25 1_555 1_555
P2 Pt1 1_555 1_555
O1 C1 1_555 1_555
O2 C1 1_555 1_555
N1 Pt1 1_555 1_555
N2 Pt1 1_555 1_555
C1 C4 1_555 1_555
C2 O1 1_555 1_555
C3 O2 1_555 1_555
C4 C5 1_555 1_555
C5 C6 1_555 1_555
C6 N1 1_555 1_555
C7 N1 1_555 1_555
C8 C4 1_555 1_555
C9 C1 1_555 1_555
C10 C9 1_555 1_555
C11 N2 1_555 1_555
C12 N2 1_555 1_555
C13 C9 1_555 1_555
C14 P2 1_555 1_555
C15 C14 1_555 1_555
C16 P2 1_555 1_555
C17 C16 1_555 1_555
C18 P2 1_555 1_555
C19 C18 1_555 1_555
C25 C26 1_555 1_555
C26 H42 1_555 1_555
C27 P1 1_555 1_555
C28 C27 1_555 1_555
C29 P1 1_555 1_555
C30 C29 1_555 1_555
S1 O3 1_555 1_555
F1 C31 1_555 1_555
F2 C31 1_555 1_555
F3 C31 1_555 1_555
O4 S1 1_555 1_555
O5 S1 1_555 1_555
C31 S1 1_555 1_555
S3 O9 1_555 1_555
F7 C33 1_555 1_555
F8 C33 1_555 1_555
F9 C33 1_555 1_555
O10 S3 1_555 1_555
O11 S3 1_555 1_555
C33 S3 1_555 1_555
H1 C2 1_555 1_555
H2 C2 1_555 1_555
H3 C3 1_555 1_555
H4 C3 1_555 1_555
H5 C5 1_555 1_555
H6 C6 1_555 1_555
H7 C7 1_555 1_555
H8 C8 1_555 1_555
H9 C10 1_555 1_555
H10 C11 1_555 1_555
H11 C12 1_555 1_555
H12 C13 1_555 1_555
H13 C14 1_555 1_555
H14 C14 1_555 1_555
H15 C15 1_555 1_555
H16 C15 1_555 1_555
H17 C15 1_555 1_555
H18 C16 1_555 1_555
H19 C16 1_555 1_555
H20 C17 1_555 1_555
H21 C17 1_555 1_555
H22 C17 1_555 1_555
H23 C18 1_555 1_555
H24 C18 1_555 1_555
H25 C19 1_555 1_555
H26 C19 1_555 1_555
H27 C19 1_555 1_555
H40 C25 1_555 1_555
H41 C25 1_555 1_555
H43 C26 1_555 1_555
H44 C26 1_555 1_555
H45 C27 1_555 1_555
H46 C27 1_555 1_555
H47 C28 1_555 1_555
H48 C28 1_555 1_555
H49 C28 1_555 1_555
H50 C29 1_555 1_555
H51 C29 1_555 1_555
H52 C30 1_555 1_555
H53 C30 1_555 1_555
H54 C30 1_555 1_555
C11A C10 1_555 1_555
N2A C11A 1_555 1_555
Pt1A N2A 1_555 1_555
P1A Pt1A 1_555 1_555
C25A P1A 1_555 1_555
C26A C25A 1_555 1_555
H42A C26A 1_555 1_555
H43A C26A 1_555 1_555
H44A C26A 1_555 1_555
H40A C25A 1_555 1_555
H41A C25A 1_555 1_555
C27A P1A 1_555 1_555
C28A C27A 1_555 1_555
H47A C28A 1_555 1_555
H48A C28A 1_555 1_555
H49A C28A 1_555 1_555
H45A C27A 1_555 1_555
H46A C27A 1_555 1_555
C29A P1A 1_555 1_555
C30A C29A 1_555 1_555
H52A C30A 1_555 1_555
H53A C30A 1_555 1_555
H54A C30A 1_555 1_555
H50A C29A 1_555 1_555
H51A C29A 1_555 1_555
P2A Pt1A 1_555 1_555
C14A P2A 1_555 1_555
C15A C14A 1_555 1_555
H15A C15A 1_555 1_555
H16A C15A 1_555 1_555
H17A C15A 1_555 1_555
H13A C14A 1_555 1_555
H14A C14A 1_555 1_555
C16A P2A 1_555 1_555
C17A C16A 1_555 1_555
H20A C17A 1_555 1_555
H21A C17A 1_555 1_555
H22A C17A 1_555 1_555
H18A C16A 1_555 1_555
H19A C16A 1_555 1_555
C18A P2A 1_555 1_555
C19A C18A 1_555 1_555
H25A C19A 1_555 1_555
H26A C19A 1_555 1_555
H27A C19A 1_555 1_555
H23A C18A 1_555 1_555
H24A C18A 1_555 1_555
N1A Pt1A 1_555 1_555
C6A N1A 1_555 1_555
C5A C6A 1_555 1_555
C4A C5A 1_555 1_555
C1A C4A 1_555 1_555
O1A C1A 1_555 1_555
C2A O1A 1_555 1_555
C3A C2A 1_555 1_555
O2A C1A 1_555 1_555
C9A C1A 1_555 1_555
C10A C11 1_555 1_555
C13A C12 1_555 1_555
H12A C13A 1_555 1_555
H9A C10A 1_555 1_555
H3A C3A 1_555 1_555
H4A C3A 1_555 1_555
H1A C2A 1_555 1_555
H2A C2A 1_555 1_555
C8A C4A 1_555 1_555
C7A N1A 1_555 1_555
H7A C7A 1_555 1_555
H8A C8A 1_555 1_555
H5A C5A 1_555 1_555
H6A C6A 1_555 1_555
C12A C13 1_555 1_555
H11A C12A 1_555 1_555
H10A C11A 1_555 1_555
C2 C3 1_555 1_555
C7 C8 1_555 1_555
N2A C12A 1_555 1_555
C3A O2A 1_555 1_555
C9A C10A 1_555 1_555
C9A C13A 1_555 1_555
C8A C7A 1_555 1_555

#END
