
#######################################################################
#
#                 Cambridge Crystallographic Data Centre
#                                CCDC 
#
#######################################################################
#
# If this CIF has been generated from an entry in the Cambridge 
# Structural Database, then it will include bibliographic, chemical, 
# crystal, experimental, refinement or atomic coordinate data resulting 
# from the CCDC's data processing and validation procedures.
#
#######################################################################

data_GULROU
_chemical_formula_moiety         
'C46 H80 N4 O4 P4 Pt2 4+,4(C1 F3 O3 S1 1-),2(C1 H3 N1 O2)'
_chemical_name_systematic        
'bis(\m~2~-Dihydroxybis(4-pyridyl)methane)-tetrakis(triethylphosphine)-di-platinum(ii) tetrakis(trifluoromethanesulfonate) nitromethane solvate'
_symmetry_cell_setting           monoclinic
_symmetry_space_group_name_H-M   'P 21/n'
_symmetry_Int_Tables_number      14
_space_group_name_Hall           '-P 2yn'
loop_
_symmetry_equiv_pos_site_id
_symmetry_equiv_pos_as_xyz
1 x,y,z
2 1/2-x,1/2+y,1/2-z
3 -x,-y,-z
4 1/2+x,1/2-y,1/2+z
_cell_length_a                   17.4547(5)
_cell_length_b                   11.7934(2)
_cell_length_c                   20.6865(5)
_cell_angle_alpha                90
_cell_angle_beta                 111.9624(8)
_cell_angle_gamma                90
_cell_volume                     3949.29
_exptl_crystal_colour            colorless
_cell_formula_units_Z            2
loop_
_atom_site_label
_atom_site_type_symbol
_atom_site_fract_x
_atom_site_fract_y
_atom_site_fract_z
Pt1 Pt 0.5541(1) 0.2413(1) 0.8208(1)
P1 P 0.5000(1) 0.2361(1) 0.7021(1)
P2 P 0.6461(1) 0.0988(1) 0.8334(1)
O1 O 0.7403(2) 0.3528(2) 1.1733(2)
O2 O 0.6356(2) 0.2391(2) 1.1817(2)
N1 N 0.5917(2) 0.2599(2) 0.9294(2)
N2 N 0.4801(2) 0.3814(2) 0.8226(2)
C1 C 0.6552(2) 0.3303(3) 1.1477(2)
C2 C 0.6313(2) 0.3068(3) 1.0700(2)
C3 C 0.6709(2) 0.3618(3) 1.0319(2)
C4 C 0.6503(2) 0.3364(3) 0.9625(2)
C5 C 0.5516(3) 0.2085(3) 0.9656(2)
C6 C 0.5696(2) 0.2300(3) 1.0352(2)
C7 C 0.6069(2) 0.4322(3) 1.1582(2)
C8 C 0.6384(2) 0.5410(3) 1.1626(2)
C9 C 0.4067(3) 0.3681(3) 0.8279(2)
C10 C 0.5116(3) 0.4864(3) 0.8283(2)
C11 C 0.5298(3) 0.4194(3) 1.1625(2)
C12 C 0.7241(3) 0.0959(4) 0.9218(2)
C13 C 0.7939(3) 0.0089(4) 0.9324(3)
C14 C 0.6020(3) -0.0431(3) 0.8202(3)
C15 C 0.5523(4) -0.0686(4) 0.8654(3)
C16 C 0.7057(3) 0.1069(4) 0.7776(2)
C17 C 0.7616(3) 0.2097(5) 0.7918(3)
C18 C 0.4808(3) 0.0973(4) 0.6608(2)
C19 C 0.4160(3) 0.0273(4) 0.6773(3)
C20 C 0.5616(3) 0.3113(4) 0.6614(2)
C21 C 0.5801(4) 0.4332(4) 0.6860(3)
C22 C 0.3999(2) 0.3062(4) 0.6689(2)
C23 C 0.3573(3) 0.3069(4) 0.5896(2)
H1 H 0.6570(30) 0.1860(40) 1.1770(30)
H2 H 0.7560(30) 0.3630(40) 1.2140(30)
H3 H 0.7122 0.4169 1.0537
H4 H 0.6784 0.3742 0.9373
H5 H 0.5094 0.1553 0.9424
H6 H 0.5399 0.1924 1.0591
H7 H 0.6906 0.5532 1.1592
H8 H 0.3847 0.2938 0.8251
H9 H 0.5645 0.4962 0.8258
H10 H 0.5058 0.3463 1.1590
H11 H 0.7488 0.1724 0.9335
H12 H 0.6966 0.0782 0.9547
H13 H 0.8334 0.0124 0.9807
H14 H 0.8224 0.0267 0.9008
H15 H 0.7703 -0.0674 0.9224
H16 H 0.5656 -0.0520 0.7706
H17 H 0.6472 -0.0993 0.8307
H18 H 0.5303 -0.1459 0.8559
H19 H 0.5066 -0.0145 0.8545
H20 H 0.5882 -0.0618 0.9146
H21 H 0.7398 0.0376 0.7844
H22 H 0.6671 0.1086 0.7284
H23 H 0.7917 0.2092 0.7602
H24 H 0.8010 0.2077 0.8402
H25 H 0.7282 0.2788 0.7842
H26 H 0.4619 0.1074 0.6097
H27 H 0.5333 0.0544 0.6762
H28 H 0.4082 -0.0458 0.6532
H29 H 0.3635 0.0686 0.6615
H30 H 0.4351 0.0146 0.7277
H31 H 0.6144 0.2704 0.6717
H32 H 0.5316 0.3108 0.6102
H33 H 0.6128 0.4694 0.6622
H34 H 0.6113 0.4343 0.7364
H35 H 0.5281 0.4747 0.6753
H36 H 0.3631 0.2682 0.6888
H37 H 0.4072 0.3856 0.6857
H38 H 0.3041 0.3461 0.5763
H39 H 0.3481 0.2284 0.5724
H40 H 0.3922 0.3464 0.5692
C9B C 0.5933(3) 0.6319(3) 1.1721(2)
N2B N 0.5199(2) 0.6186(2) 1.1774(2)
Pt1B Pt 0.4459(1) 0.7587(1) 1.1792(1)
P1B P 0.5000(1) 0.7639(1) 1.2979(1)
C18B C 0.5192(3) 0.9027(4) 1.3392(2)
C19B C 0.5840(3) 0.9727(4) 1.3227(3)
H28B H 0.5918 1.0458 1.3468
H29B H 0.6365 0.9314 1.3385
H30B H 0.5649 0.9854 1.2723
H26B H 0.5381 0.8926 1.3903
H27B H 0.4667 0.9456 1.3238
C20B C 0.4384(3) 0.6887(4) 1.3386(2)
C21B C 0.4199(4) 0.5668(4) 1.3140(3)
H33B H 0.3872 0.5306 1.3378
H34B H 0.3887 0.5657 1.2636
H35B H 0.4719 0.5253 1.3247
H31B H 0.3856 0.7296 1.3283
H32B H 0.4684 0.6892 1.3898
C22B C 0.6001(2) 0.6938(4) 1.3311(2)
C23B C 0.6427(3) 0.6931(4) 1.4104(2)
H38B H 0.6959 0.6539 1.4237
H39B H 0.6519 0.7716 1.4276
H40B H 0.6078 0.6536 1.4308
H36B H 0.6369 0.7318 1.3112
H37B H 0.5928 0.6144 1.3143
P2B P 0.3539(1) 0.9012(1) 1.1666(1)
C12B C 0.2759(3) 0.9041(4) 1.0782(2)
C13B C 0.2061(3) 0.9911(4) 1.0676(3)
H13B H 0.1666 0.9876 1.0193
H14B H 0.1776 0.9733 1.0992
H15B H 0.2297 1.0674 1.0776
H11B H 0.2512 0.8276 1.0665
H12B H 0.3034 0.9218 1.0453
C14B C 0.3980(3) 1.0431(3) 1.1798(3)
C15B C 0.4477(4) 1.0686(4) 1.1346(3)
H18B H 0.4697 1.1459 1.1441
H19B H 0.4934 1.0145 1.1455
H20B H 0.4118 1.0618 1.0854
H16B H 0.4344 1.0520 1.2294
H17B H 0.3528 1.0993 1.1693
C16B C 0.2943(3) 0.8931(4) 1.2224(2)
C17B C 0.2384(3) 0.7903(5) 1.2082(3)
H23B H 0.2083 0.7908 1.2398
H24B H 0.1990 0.7923 1.1598
H25B H 0.2718 0.7212 1.2158
H21B H 0.2602 0.9624 1.2156
H22B H 0.3329 0.8914 1.2716
N1B N 0.4083(2) 0.7401(2) 1.0706(2)
C4B C 0.3497(2) 0.6636(3) 1.0375(2)
C3B C 0.3291(2) 0.6382(3) 0.9681(2)
C2B C 0.3687(2) 0.6932(3) 0.9300(2)
C1B C 0.3448(2) 0.6697(3) 0.8523(2)
O1B O 0.2597(2) 0.6472(2) 0.8267(2)
H2B H 0.2440(30) 0.6370(40) 0.7860(30)
O2B O 0.3644(2) 0.7609(2) 0.8183(2)
H1B H 0.3430(30) 0.8140(40) 0.8230(30)
C7B C 0.3931(2) 0.5678(3) 0.8418(2)
C8B C 0.3616(2) 0.4590(3) 0.8374(2)
C11B C 0.4702(3) 0.5806(3) 0.8375(2)
H10B H 0.4942 0.6537 0.8410
H7B H 0.3094 0.4468 0.8408
C6B C 0.4304(2) 0.7700(3) 0.9648(2)
C5B C 0.4484(3) 0.7915(3) 1.0344(2)
H5B H 0.4906 0.8447 1.0576
H6B H 0.4601 0.8076 0.9409
H3B H 0.2878 0.5831 0.9463
H4B H 0.3216 0.6258 1.0627
C10B C 0.4884(3) 0.5136(3) 1.1717(2)
H9B H 0.4355 0.5038 1.1742
H8B H 0.6153 0.7062 1.1749
S1 S 0.7945(1) 0.5257(1) 0.9135(1)
F1 F 0.8021(4) 0.7076(5) 0.9871(3)
F2 F 0.6879(3) 0.6179(4) 0.9592(3)
F3 F 0.7170(5) 0.7149(5) 0.8810(4)
O3 O 0.7253(2) 0.4782(3) 0.8590(2)
O4 O 0.8577(3) 0.5737(4) 0.8937(2)
O5 O 0.8229(3) 0.4614(4) 0.9775(2)
C24 C 0.7489(6) 0.6462(6) 0.9368(6)
S2 S 0.6812(1) -0.0509(1) 0.1331(1)
F4 F 0.7390(4) -0.2406(3) 0.1071(3)
F5 F 0.8318(3) -0.1302(4) 0.1767(2)
F6 F 0.7795(3) -0.0950(3) 0.0677(2)
O6 O 0.6662(2) -0.1115(3) 0.1878(2)
O7 O 0.7200(2) 0.0569(2) 0.1539(2)
O8 O 0.6142(3) -0.0532(4) 0.0674(2)
C25 C 0.7624(5) -0.1344(4) 0.1202(3)
C26 C 0.9899(7) 0.3413(8) 0.9530(5)
N3 N 0.9945(7) 0.2339(11) 0.9236(9)
O9 O 1.0110(40) 0.1460(30) 0.9670(30)
O10 O 0.9730(30) 0.2710(50) 0.8440(20)
H41 H 0.9739 0.3991 0.9163
H42 H 1.0439 0.3606 0.9884
H43 H 0.9486 0.3385 0.9746
O11? O 1.0070(20) 0.2200(30) 0.8740(20)
O12? O 0.9740(30) 0.1620(30) 0.9520(20)
loop_
_geom_bond_atom_site_label_1
_geom_bond_atom_site_label_2
_geom_bond_site_symmetry_1
_geom_bond_site_symmetry_2
Pt1 P1 1_555 1_555
S1 O3 1_555 1_555
S2 O6 1_555 1_555
P1 C18 1_555 1_555
P2 Pt1 1_555 1_555
F1 C24 1_555 1_555
F2 C24 1_555 1_555
F3 C24 1_555 1_555
F4 C25 1_555 1_555
F5 C25 1_555 1_555
F6 C25 1_555 1_555
O1 C1 1_555 1_555
O2 C1 1_555 1_555
O4 S1 1_555 1_555
O5 S1 1_555 1_555
O7 S2 1_555 1_555
O8 S2 1_555 1_555
N1 Pt1 1_555 1_555
N2 Pt1 1_555 1_555
C1 C2 1_555 1_555
C2 C3 1_555 1_555
C3 C4 1_555 1_555
C4 N1 1_555 1_555
C5 N1 1_555 1_555
C6 C2 1_555 1_555
C7 C1 1_555 1_555
C8 C7 1_555 1_555
C9 N2 1_555 1_555
C10 N2 1_555 1_555
C11 C7 1_555 1_555
C12 P2 1_555 1_555
C13 C12 1_555 1_555
C14 P2 1_555 1_555
C15 C14 1_555 1_555
C16 P2 1_555 1_555
C17 C16 1_555 1_555
C18 C19 1_555 1_555
C19 H28 1_555 1_555
C20 P1 1_555 1_555
C21 C20 1_555 1_555
C22 P1 1_555 1_555
C23 C22 1_555 1_555
C24 S1 1_555 1_555
C25 S2 1_555 1_555
C26 N3 1_555 1_555
N3 O9 1_555 1_555
O10 N3 1_555 1_555
H1 O2 1_555 1_555
H2 O1 1_555 1_555
H3 C3 1_555 1_555
H4 C4 1_555 1_555
H5 C5 1_555 1_555
H6 C6 1_555 1_555
H7 C8 1_555 1_555
H8 C9 1_555 1_555
H9 C10 1_555 1_555
H10 C11 1_555 1_555
H11 C12 1_555 1_555
H12 C12 1_555 1_555
H13 C13 1_555 1_555
H14 C13 1_555 1_555
H15 C13 1_555 1_555
H16 C14 1_555 1_555
H17 C14 1_555 1_555
H18 C15 1_555 1_555
H19 C15 1_555 1_555
H20 C15 1_555 1_555
H21 C16 1_555 1_555
H22 C16 1_555 1_555
H23 C17 1_555 1_555
H24 C17 1_555 1_555
H25 C17 1_555 1_555
H26 C18 1_555 1_555
H27 C18 1_555 1_555
H29 C19 1_555 1_555
H30 C19 1_555 1_555
H31 C20 1_555 1_555
H32 C20 1_555 1_555
H33 C21 1_555 1_555
H34 C21 1_555 1_555
H35 C21 1_555 1_555
H36 C22 1_555 1_555
H37 C22 1_555 1_555
H38 C23 1_555 1_555
H39 C23 1_555 1_555
H40 C23 1_555 1_555
H41 C26 1_555 1_555
H42 C26 1_555 1_555
H43 C26 1_555 1_555
C9B C8 1_555 1_555
N2B C9B 1_555 1_555
Pt1B N2B 1_555 1_555
P1B Pt1B 1_555 1_555
C18B P1B 1_555 1_555
C19B C18B 1_555 1_555
H28B C19B 1_555 1_555
H29B C19B 1_555 1_555
H30B C19B 1_555 1_555
H26B C18B 1_555 1_555
H27B C18B 1_555 1_555
C20B P1B 1_555 1_555
C21B C20B 1_555 1_555
H33B C21B 1_555 1_555
H34B C21B 1_555 1_555
H35B C21B 1_555 1_555
H31B C20B 1_555 1_555
H32B C20B 1_555 1_555
C22B P1B 1_555 1_555
C23B C22B 1_555 1_555
H38B C23B 1_555 1_555
H39B C23B 1_555 1_555
H40B C23B 1_555 1_555
H36B C22B 1_555 1_555
H37B C22B 1_555 1_555
P2B Pt1B 1_555 1_555
C12B P2B 1_555 1_555
C13B C12B 1_555 1_555
H13B C13B 1_555 1_555
H14B C13B 1_555 1_555
H15B C13B 1_555 1_555
H11B C12B 1_555 1_555
H12B C12B 1_555 1_555
C14B P2B 1_555 1_555
C15B C14B 1_555 1_555
H18B C15B 1_555 1_555
H19B C15B 1_555 1_555
H20B C15B 1_555 1_555
H16B C14B 1_555 1_555
H17B C14B 1_555 1_555
C16B P2B 1_555 1_555
C17B C16B 1_555 1_555
H23B C17B 1_555 1_555
H24B C17B 1_555 1_555
H25B C17B 1_555 1_555
H21B C16B 1_555 1_555
H22B C16B 1_555 1_555
N1B Pt1B 1_555 1_555
C4B N1B 1_555 1_555
C3B C4B 1_555 1_555
C2B C3B 1_555 1_555
C1B C2B 1_555 1_555
O1B C1B 1_555 1_555
H2B O1B 1_555 1_555
O2B C1B 1_555 1_555
H1B O2B 1_555 1_555
C7B C1B 1_555 1_555
C8B C9 1_555 1_555
C11B C10 1_555 1_555
H10B C11B 1_555 1_555
H7B C8B 1_555 1_555
C6B C2B 1_555 1_555
C5B N1B 1_555 1_555
H5B C5B 1_555 1_555
H6B C6B 1_555 1_555
H3B C3B 1_555 1_555
H4B C4B 1_555 1_555
C10B C11 1_555 1_555
H9B C10B 1_555 1_555
H8B C9B 1_555 1_555
C5 C6 1_555 1_555
N2B C10B 1_555 1_555
C7B C8B 1_555 1_555
C7B C11B 1_555 1_555
C6B C5B 1_555 1_555

#END
