
#######################################################################
#
#                 Cambridge Crystallographic Data Centre
#                                CCDC 
#
#######################################################################
#
# If this CIF has been generated from an entry in the Cambridge 
# Structural Database, then it will include bibliographic, chemical, 
# crystal, experimental, refinement or atomic coordinate data resulting 
# from the CCDC's data processing and validation procedures.
#
#######################################################################

data_GUPPOW01
_chemical_formula_moiety         'C36 H32 Ag2 N4 S4 2+,2(Cl1 O4 1-)'
_chemical_name_systematic        
"bis(\m~2~-1,2-bis((Pyrid-4-yl)sulfanylmethyl)benzene-N,N')-di-silver(i) diperchlorate"
_symmetry_cell_setting           triclinic
_symmetry_space_group_name_H-M   'P -1'
_symmetry_Int_Tables_number      2
_space_group_name_Hall           '-P 1'
loop_
_symmetry_equiv_pos_site_id
_symmetry_equiv_pos_as_xyz
1 x,y,z
2 -x,-y,-z
_cell_length_a                   8.1587(14)
_cell_length_b                   8.4447(14)
_cell_length_c                   14.745(3)
_cell_angle_alpha                87.307(3)
_cell_angle_beta                 82.638(3)
_cell_angle_gamma                72.716(3)
_cell_volume                     961.984
_cell_formula_units_Z            1
loop_
_atom_site_label
_atom_site_type_symbol
_atom_site_fract_x
_atom_site_fract_y
_atom_site_fract_z
Ag1 Ag 0.358150(19) 0.91659(2) 0.458740(10)
S1 S -0.23597(6) 1.01554(5) 0.82350(3)
S2 S 0.96847(6) 0.62418(5) 0.11025(3)
N1 N 0.1513(2) 0.9614(2) 0.56769(10)
N2 N 0.5575(2) 0.8370(2) 0.34752(11)
C1 C 0.1097(3) 0.8340(2) 0.60987(14)
H1 H 0.1653 0.7282 0.5872
C2 C -0.0114(3) 0.8506(2) 0.68532(14)
H2 H -0.0357 0.7571 0.7123
C3 C -0.0985(2) 1.00736(19) 0.72195(11)
C4 C -0.0636(2) 1.1426(2) 0.67324(12)
H3 H -0.1233 1.2505 0.6912
C5 C 0.0607(2) 1.1130(2) 0.59831(12)
H4 H 0.0830 1.2040 0.5670
C6 C 0.6445(3) 0.6766(2) 0.34145(14)
H5 H 0.6201 0.6052 0.3876
C7 C 0.7708(3) 0.6107(2) 0.26872(14)
H6 H 0.8296 0.4979 0.2674
C8 C 0.8080(2) 0.71494(19) 0.19827(12)
C9 C 0.7136(2) 0.8823(2) 0.20353(13)
H7 H 0.7313 0.9558 0.1570
C10 C 0.5926(2) 0.9378(2) 0.27939(13)
H8 H 0.5330 1.0503 0.2831
C11 C -0.3196(2) 1.2352(2) 0.85301(12)
H9 H -0.2417 1.2941 0.8233
H10 H -0.4315 1.2822 0.8313
C12 C -0.3373(2) 1.2561(2) 0.95417(12)
C13 C -0.5010(2) 1.2922(2) 1.00393(15)
H11 H -0.5963 1.2978 0.9740
C14 C -0.5245(3) 1.3203(2) 1.09812(16)
H12 H -0.6343 1.3437 1.1306
C15 C -0.3827(3) 1.3130(2) 1.14241(14)
H13 H -0.3974 1.3327 1.2049
C16 C -0.2205(3) 1.2766(2) 1.09439(13)
H14 H -0.1262 1.2723 1.1248
C17 C -0.1950(2) 1.24607(19) 1.00071(12)
C18 C 1.01244(7) 0.80234(5) 0.04836(3)
H15 H 0.9983 0.8909 0.0909
H16 H 0.9306 0.8428 0.0042
C18A C -0.01244(7) 1.19766(5) 0.95164(3)
S2A S 0.03153(6) 1.37582(5) 0.88975(3)
C8A C 0.1920(2) 1.28506(19) 0.80173(12)
C7A C 0.2292(3) 1.3893(2) 0.73128(14)
C6A C 0.3555(3) 1.3234(2) 0.65855(14)
N2A N 0.4425(2) 1.1630(2) 0.65248(11)
Ag1A Ag 0.641850(19) 1.08341(2) 0.541260(10)
N1A N 0.8487(2) 1.0386(2) 0.43231(10)
C1A C 0.8903(3) 1.1660(2) 0.39013(14)
H1A H 0.8347 1.2718 0.4128
C2A C 1.0114(3) 1.1494(2) 0.31468(14)
H2A H 1.0357 1.2429 0.2877
C3A C 1.0985(2) 0.99264(19) 0.27805(11)
S1A S 1.23597(6) 0.98446(5) 0.17650(3)
C11A C 1.3196(2) 0.7648(2) 0.14699(12)
H9A H 1.2417 0.7059 0.1767
H10A H 1.4315 0.7178 0.1687
C12A C 1.3373(2) 0.7439(2) 0.04583(12)
C13A C 1.5010(2) 0.7078(2) -0.00393(15)
H11A H 1.5963 0.7022 0.0260
C14A C 1.5245(3) 0.6797(2) -0.09812(16)
H12A H 1.6343 0.6563 -0.1306
C15A C 1.3827(3) 0.6870(2) -0.14241(14)
H13A H 1.3974 0.6673 -0.2049
C16A C 1.2205(3) 0.7234(2) -0.09439(13)
H14A H 1.1262 0.7277 -0.1248
C17A C 1.1950(2) 0.75393(19) -0.00071(12)
C4A C 1.0636(2) 0.8574(2) 0.32676(12)
H3A H 1.1233 0.7495 0.3088
C5A C 0.9393(2) 0.8870(2) 0.40169(12)
H4A H 0.9170 0.7960 0.4330
C10A C 0.4074(2) 1.0622(2) 0.72061(13)
C9A C 0.2864(2) 1.1177(2) 0.79647(13)
H7A H 0.2687 1.0442 0.8430
H8A H 0.4670 0.9497 0.7169
H5A H 0.3799 1.3948 0.6124
H6A H 0.1704 1.5021 0.7326
H15A H 0.0017 1.1091 0.9091
H16A H 0.0694 1.1572 0.9958
Cl1 Cl -0.31142(7) 1.59819(5) 0.60469(3)
O1 O -0.25242(7) 1.56393(5) 0.69163(3)
O2 O -0.29448(7) 1.45818(5) 0.55421(3)
O3 O -0.28692(7) 1.73895(5) 0.56287(3)
O4 O -0.50473(7) 1.66573(5) 0.62230(3)
loop_
_geom_bond_atom_site_label_1
_geom_bond_atom_site_label_2
_geom_bond_site_symmetry_1
_geom_bond_site_symmetry_2
Ag1 N1 1_555 1_555
S1 C3 1_555 1_555
S2 C8 1_555 1_555
N1 C1 1_555 1_555
N2 Ag1 1_555 1_555
C1 H1 1_555 1_555
C2 C1 1_555 1_555
H2 C2 1_555 1_555
C3 C2 1_555 1_555
C4 C3 1_555 1_555
H3 C4 1_555 1_555
C5 N1 1_555 1_555
H4 C5 1_555 1_555
C6 N2 1_555 1_555
H5 C6 1_555 1_555
C7 C6 1_555 1_555
H6 C7 1_555 1_555
C8 C7 1_555 1_555
C9 C8 1_555 1_555
H7 C9 1_555 1_555
C10 N2 1_555 1_555
H8 C10 1_555 1_555
C11 S1 1_555 1_555
H9 C11 1_555 1_555
H10 C11 1_555 1_555
C12 C11 1_555 1_555
C13 C12 1_555 1_555
H11 C13 1_555 1_555
C14 C13 1_555 1_555
H12 C14 1_555 1_555
C15 C14 1_555 1_555
H13 C15 1_555 1_555
C16 C15 1_555 1_555
H14 C16 1_555 1_555
C17 C12 1_555 1_555
C18 S2 1_555 1_555
H15 C18 1_555 1_555
H16 C18 1_555 1_555
Cl1 O1 1_555 1_555
O2 Cl1 1_555 1_555
O3 Cl1 1_555 1_555
O4 Cl1 1_555 1_555
C18A C17 1_555 1_555
S2A C18A 1_555 1_555
C8A S2A 1_555 1_555
C7A C8A 1_555 1_555
C6A C7A 1_555 1_555
N2A C6A 1_555 1_555
Ag1A N2A 1_555 1_555
N1A Ag1A 1_555 1_555
C1A N1A 1_555 1_555
H1A C1A 1_555 1_555
C2A C1A 1_555 1_555
H2A C2A 1_555 1_555
C3A C2A 1_555 1_555
S1A C3A 1_555 1_555
C11A S1A 1_555 1_555
H9A C11A 1_555 1_555
H10A C11A 1_555 1_555
C12A C11A 1_555 1_555
C13A C12A 1_555 1_555
H11A C13A 1_555 1_555
C14A C13A 1_555 1_555
H12A C14A 1_555 1_555
C15A C14A 1_555 1_555
H13A C15A 1_555 1_555
C16A C15A 1_555 1_555
H14A C16A 1_555 1_555
C17A C18 1_555 1_555
C4A C3A 1_555 1_555
H3A C4A 1_555 1_555
C5A N1A 1_555 1_555
H4A C5A 1_555 1_555
C10A N2A 1_555 1_555
C9A C8A 1_555 1_555
H7A C9A 1_555 1_555
H8A C10A 1_555 1_555
H5A C6A 1_555 1_555
H6A C7A 1_555 1_555
H15A C18A 1_555 1_555
H16A C18A 1_555 1_555
C4 C5 1_555 1_555
C9 C10 1_555 1_555
C16 C17 1_555 1_555
C12A C17A 1_555 1_555
C16A C17A 1_555 1_555
C4A C5A 1_555 1_555
C10A C9A 1_555 1_555

#END
