
#######################################################################
#
#                 Cambridge Crystallographic Data Centre
#                                CCDC 
#
#######################################################################
#
# If this CIF has been generated from an entry in the Cambridge 
# Structural Database, then it will include bibliographic, chemical, 
# crystal, experimental, refinement or atomic coordinate data resulting 
# from the CCDC's data processing and validation procedures.
#
#######################################################################

data_GUPPOW
_chemical_formula_moiety         'C36 H32 Ag2 N4 S4 2+,2(Cl1 O4 1-)'
_chemical_name_systematic        
"bis(\m~2~-1,2-bis((Pyrid-4-yl)sulfanylmethyl)benzene-N,N')-di-silver(i) diperchlorate"
_symmetry_cell_setting           triclinic
_symmetry_space_group_name_H-M   'P 1'
_symmetry_Int_Tables_number      1
_space_group_name_Hall           'P 1'
loop_
_symmetry_equiv_pos_site_id
_symmetry_equiv_pos_as_xyz
1 x,y,z
_cell_length_a                   8.1587(14)
_cell_length_b                   8.4447(14)
_cell_length_c                   14.745(3)
_cell_angle_alpha                87.307(3)
_cell_angle_beta                 82.638(3)
_cell_angle_gamma                72.716(3)
_cell_volume                     961.984
_exptl_crystal_colour            colorless
_exptl_crystal_description       prism
_cell_formula_units_Z            1
loop_
_atom_site_label
_atom_site_type_symbol
_atom_site_fract_x
_atom_site_fract_y
_atom_site_fract_z
Ag1 Ag 0.415528(17) 0.602707(17) 0.629728(11)
Ag2 Ag 0.699231(16) 0.769226(17) 0.712307(11)
S1 S 1.02584(7) 0.30985(6) 0.28114(4)
S2 S 1.29284(7) 0.66902(6) 0.34764(4)
S3 S 0.08898(8) 1.06175(7) 1.06052(5)
S4 S -0.17920(8) 0.70005(7) 0.99450(4)
N1 N 0.6150(2) 0.5179(2) 0.51742(12)
N2 N 0.9038(2) 0.7224(2) 0.60343(12)
N3 N 0.5011(3) 0.8438(2) 0.82280(15)
N4 N 0.2072(3) 0.6457(3) 0.73862(15)
C1 C 0.7052(3) 0.3664(3) 0.51411(15)
H1 H 0.6899 0.2987 0.5641
C2 C 0.8279(3) 0.2936(3) 0.43902(14)
H2 H 0.8819 0.1800 0.4359
C3 C 0.8621(2) 0.4005(2) 0.37140(15)
C4 C 0.7720(3) 0.5661(3) 0.37570(15)
H3 H 0.7931 0.6387 0.3294
C5 C 0.6548(3) 0.6211(2) 0.44665(16)
H4 H 0.5962 0.7338 0.4495
C6 C 1.0695(3) 0.4868(3) 0.21951(16)
H5 H 0.9872 0.5273 0.1756
H6 H 1.0554 0.5753 0.2621
C7 C 1.2466(2) 0.4408(2) 0.17136(12)
C8 C 1.2776(3) 0.4115(3) 0.0777(2)
H7 H 1.1831 0.4220 0.0462
C9 C 1.4448(3) 0.3667(3) 0.02725(16)
H8 H 1.4618 0.3406 -0.0345
C10 C 1.5809(3) 0.3640(3) 0.07485(18)
H9 H 1.6920 0.3418 0.0440
C11 C 1.5534(3) 0.3941(3) 0.16865(18)
H10 H 1.6485 0.3896 0.1985
C12 C 1.3981(3) 0.4290(3) 0.21797(16)
C13 C 1.3786(3) 0.4525(3) 0.31657(17)
H11 H 1.4902 0.4067 0.3387
H12 H 1.3017 0.3923 0.3462
C14 C 1.1590(3) 0.6791(2) 0.44794(15)
C15 C 1.1217(2) 0.5418(2) 0.49630(15)
H13 H 1.1799 0.4342 0.4772
C16 C 0.9991(3) 0.5692(3) 0.57139(17)
H14 H 0.9796 0.4770 0.6027
C17 C 0.9471(3) 0.8537(3) 0.55888(18)
H15 H 0.8891 0.9609 0.5788
C18 C 1.0697(3) 0.8312(2) 0.48826(18)
H16 H 1.0981 0.9244 0.4637
C19 C 0.4138(4) 1.0155(3) 0.83307(19)
H17 H 0.4447 1.0906 0.7913
C20 C 0.2897(3) 1.0708(3) 0.9006(2)
H18 H 0.2269 1.1825 0.9000
C21 C 0.2460(3) 0.9700(3) 0.97451(15)
C22 C 0.3443(3) 0.8015(2) 0.96793(18)
H19 H 0.3295 0.7264 1.0142
C23 C 0.4666(3) 0.7485(3) 0.88916(16)
H20 H 0.5265 0.6361 0.8851
C24 C 0.0439(3) 0.8827(3) 1.12326(17)
H21 H 0.0592 0.7933 1.0810
H22 H 0.1246 0.8431 1.1681
C25 C -0.1431(3) 0.9330(3) 1.17191(18)
C26 C -0.1623(3) 0.9629(3) 1.26595(14)
H23 H -0.0682 0.9618 1.2958
C27 C -0.3235(4) 0.9934(3) 1.31153(18)
H24 H -0.3371 1.0083 1.3744
C28 C -0.4646(4) 1.0035(3) 1.2711(2)
H25 H -0.5727 1.0282 1.3055
C29 C -0.4486(3) 0.9766(3) 1.17699(19)
H26 H -0.5445 0.9818 1.1477
C30 C -0.2782(3) 0.9406(3) 1.12708(14)
C31 C -0.2587(3) 0.9216(3) 1.02259(15)
H27 H -0.1779 0.9781 0.9936
H28 H -0.3694 0.9711 1.0001
C32 C -0.0382(2) 0.6956(3) 0.89122(14)
C33 C -0.0046(4) 0.8273(3) 0.84311(16)
H29 H -0.0642 0.9357 0.8603
C34 C 0.1207(3) 0.7948(3) 0.76815(14)
H30 H 0.1450 0.8847 0.7366
C35 C 0.1661(4) 0.5204(3) 0.78069(18)
H31 H 0.2209 0.4154 0.7566
C36 C 0.0455(3) 0.5314(3) 0.85951(16)
H32 H 0.044(3) 0.418(3) 0.8872(16)
Cl1 Cl -0.25571(9) 1.28398(7) 0.77534(4)
O1 O -0.4398(5) 1.3320(7) 0.8089(4)
O2 O -0.2066(6) 1.4048(4) 0.7223(3)
O3 O -0.1878(5) 1.2618(6) 0.8649(2)
O4 O -0.2518(4) 1.1450(4) 0.7227(3)
Cl2 Cl 0.36656(9) 1.08774(7) 0.56605(4)
O5 O 0.2696(6) 1.1232(5) 0.4904(3)
O6 O 0.4014(6) 1.2213(6) 0.6086(5)
O7 O 0.5600(5) 1.0060(6) 0.5503(3)
O8 O 0.3060(6) 0.9559(6) 0.6050(4)
O9? O -0.4424(9) 1.3466(9) 0.7737(5)
O10? O -0.2534(8) 1.4467(8) 0.7476(5)
O11? O -0.2572(8) 1.2352(8) 0.8639(5)
O12? O -0.1585(9) 1.1795(8) 0.7116(5)
O13? O 0.3306(5) 1.1276(5) 0.4760(3)
O14? O 0.3210(5) 1.2341(4) 0.6197(2)
O15? O 0.4341(8) 0.9313(7) 0.5942(5)
O16? O 0.1750(9) 1.1224(8) 0.6158(5)
loop_
_geom_bond_atom_site_label_1
_geom_bond_atom_site_label_2
_geom_bond_site_symmetry_1
_geom_bond_site_symmetry_2
Ag1 N1 1_555 1_555
Ag2 N2 1_555 1_555
S1 C3 1_555 1_555
S2 C13 1_555 1_555
S3 C21 1_555 1_555
S4 C31 1_555 1_555
N1 C1 1_555 1_555
N2 C16 1_555 1_555
N3 Ag2 1_555 1_555
N4 Ag1 1_555 1_555
C1 H1 1_555 1_555
C2 C1 1_555 1_555
H2 C2 1_555 1_555
C3 C2 1_555 1_555
C4 C3 1_555 1_555
H3 C4 1_555 1_555
C5 N1 1_555 1_555
H4 C5 1_555 1_555
C6 S1 1_555 1_555
H5 C6 1_555 1_555
H6 C6 1_555 1_555
C7 C6 1_555 1_555
C8 C7 1_555 1_555
H7 C8 1_555 1_555
C9 C8 1_555 1_555
H8 C9 1_555 1_555
C10 C9 1_555 1_555
H9 C10 1_555 1_555
C11 C10 1_555 1_555
H10 C11 1_555 1_555
C12 C7 1_555 1_555
C13 C12 1_555 1_555
H11 C13 1_555 1_555
H12 C13 1_555 1_555
C14 S2 1_555 1_555
C15 C14 1_555 1_555
H13 C15 1_555 1_555
C16 C15 1_555 1_555
H14 C16 1_555 1_555
C17 N2 1_555 1_555
H15 C17 1_555 1_555
C18 C14 1_555 1_555
H16 C18 1_555 1_555
C19 N3 1_555 1_555
H17 C19 1_555 1_555
C20 C19 1_555 1_555
H18 C20 1_555 1_555
C21 C20 1_555 1_555
C22 C21 1_555 1_555
H19 C22 1_555 1_555
C23 N3 1_555 1_555
H20 C23 1_555 1_555
C24 S3 1_555 1_555
H21 C24 1_555 1_555
H22 C24 1_555 1_555
C25 C24 1_555 1_555
C26 C25 1_555 1_555
H23 C26 1_555 1_555
C27 C26 1_555 1_555
H24 C27 1_555 1_555
C28 C27 1_555 1_555
H25 C28 1_555 1_555
C29 C28 1_555 1_555
H26 C29 1_555 1_555
C30 C25 1_555 1_555
C31 C30 1_555 1_555
H27 C31 1_555 1_555
H28 C31 1_555 1_555
C32 S4 1_555 1_555
C33 C32 1_555 1_555
H29 C33 1_555 1_555
C34 N4 1_555 1_555
H30 C34 1_555 1_555
C35 N4 1_555 1_555
H31 C35 1_555 1_555
C36 C32 1_555 1_555
H32 C36 1_555 1_555
Cl1 O1 1_555 1_555
O2 Cl1 1_555 1_555
O3 Cl1 1_555 1_555
O4 Cl1 1_555 1_555
Cl2 O5 1_555 1_555
O6 Cl2 1_555 1_555
O7 Cl2 1_555 1_555
O8 Cl2 1_555 1_555
C4 C5 1_555 1_555
C11 C12 1_555 1_555
C17 C18 1_555 1_555
C22 C23 1_555 1_555
C29 C30 1_555 1_555
C33 C34 1_555 1_555
C35 C36 1_555 1_555

#END
