
#######################################################################
#
#                 Cambridge Crystallographic Data Centre
#                                CCDC 
#
#######################################################################
#
# If this CIF has been generated from an entry in the Cambridge 
# Structural Database, then it will include bibliographic, chemical, 
# crystal, experimental, refinement or atomic coordinate data resulting 
# from the CCDC's data processing and validation procedures.
#
#######################################################################

data_GUSRET
_chemical_name_common            
"tris(1,1'-methylenebis(3-(naphthalen-2-ylmethyl)-imidazol-2-ylidene))-bis(tris(isonicotinoyl)tris(propyl)cyclotricatechylene)-tri-palladium(ii) hexakis(tetrafluoroborate) 1,2-dichlorobenzene nitromethane solvate"
_chemical_formula_moiety         
'C183 H162 N18 O18 Pd3 6+,6(B1 F4 1-),5(C1 H3 N1 O2),3(C6 H4 Cl2)'
_chemical_name_systematic        
"tris(1,1'-methylenebis(3-(naphthalen-2-ylmethyl)-imidazol-2-ylidene))-bis(3,8,13-tripropoxy-10,15-dihydro-5H-tribenzo[a,d,g][9]annulene-2,7,12-triyl triisonicotinate)-tri-palladium(ii) hexakis(tetrafluoroborate) 1,2-dichlorobenzene nitromethane solvate"
_symmetry_cell_setting           hexagonal
_symmetry_space_group_name_H-M   'P 63/m'
_symmetry_Int_Tables_number      176
_space_group_name_Hall           '-P 6c'
loop_
_symmetry_equiv_pos_site_id
_symmetry_equiv_pos_as_xyz
1 x,y,z
2 x-y,x,1/2+z
3 -y,x-y,z
4 -x,-y,1/2+z
5 -x+y,-x,z
6 y,-x+y,1/2+z
7 -x,-y,-z
8 -x+y,-x,1/2-z
9 y,-x+y,-z
10 x,y,1/2-z
11 x-y,x,-z
12 -y,x-y,1/2-z
_cell_length_a                   24.7360(8)
_cell_length_b                   24.7360(8)
_cell_length_c                   20.0595(7)
_cell_angle_alpha                90
_cell_angle_beta                 90
_cell_angle_gamma                120
_cell_volume                     10629.4
_exptl_crystal_colour            yellow
_exptl_crystal_description       needle
_cell_formula_units_Z            2
loop_
_atom_site_label
_atom_site_type_symbol
_atom_site_fract_x
_atom_site_fract_y
_atom_site_fract_z
F1 F 0.4489(6) 0.3303(5) 0.3039(6)
B1 B 0.4355(9) 0.2930(10) 0.2500
F2 F 0.4576(7) 0.2507(7) 0.2500
F3 F 0.3672(5) 0.2540(5) 0.2500
F1I F 0.4489(6) 0.3303(5) 0.1961(6)
B2 B -0.052(4) -0.219(4) 0.7500
F4 F -0.0365(7) -0.2463(6) 0.6925(7)
F5 F -0.1095(11) -0.2575(9) 0.7500
F6 F -0.0388(13) -0.1746(16) 0.7500
F4I F -0.0365(7) -0.2463(6) 0.8075(7)
Pd1 Pd 0.23445(4) 0.00949(5) 0.7500
O1 O 0.5680(5) 0.1212(5) 0.9751(6)
N1 N 0.1203(3) -0.0920(4) 0.6906(3)
C1 C 0.1183(6) -0.1278(6) 0.7500
H1 H 0.0794 -0.1689 0.7500
H2 H 0.1543 -0.1348 0.7500
O2 O 0.4784(4) 0.1535(5) 0.9755(5)
N2 N 0.1480(4) -0.0097(4) 0.6335(4)
C2 C 0.1658(4) -0.0318(5) 0.6847(4)
O3 O 0.4391(5) 0.0610(5) 1.0187(6)
N3 N 0.3043(4) 0.0438(5) 0.8243(4)
C3 C 0.0758(4) -0.1078(5) 0.6428(5)
H3 H 0.0401 -0.1477 0.6363
C4 C 0.0912(5) -0.0585(6) 0.6080(5)
H4 H 0.0684 -0.0554 0.5715
C5 C 0.1793(5) 0.0546(5) 0.6120(5)
H5 H 0.2027 0.0812 0.6504
H6 H 0.1472 0.0655 0.5995
C6 C 0.2243(5) 0.0709(6) 0.5538(5)
C7 C 0.2254(6) 0.0253(7) 0.5178(6)
H7 H 0.1982 -0.0168 0.5304
C8 C 0.2652(9) 0.0373(9) 0.4622(9)
H8 H 0.2649 0.0044 0.4374
C9 C 0.3027(7) 0.0966(9) 0.4464(6)
C10 C 0.3431(8) 0.1093(10) 0.3836(7)
H9 H 0.3428 0.0770 0.3578
C11 C 0.3776(8) 0.1682(14) 0.3692(10)
H10 H 0.4030 0.1775 0.3306
C12 C 0.3821(8) 0.2209(10) 0.4040(10)
H11 H 0.4072 0.2625 0.3883
C13 C 0.3463(8) 0.2068(8) 0.4638(11)
H12 H 0.3509 0.2400 0.4914
C14 C 0.3051(6) 0.1457(7) 0.4826(9)
C15 C 0.2640(6) 0.1310(7) 0.5392(6)
H13 H 0.2650 0.1633 0.5657
C16 C 0.5865(5) 0.3115(5) 1.1492(5)
H14 H 0.5445 0.2998 1.1663
H15 H 0.6145 0.3194 1.1878
C17 C 0.5829(5) 0.2572(5) 1.1057(5)
C18 C 0.6306(5) 0.2419(5) 1.1069(5)
C19 C 0.6247(5) 0.1951(5) 1.0662(6)
H16 H 0.6561 0.1838 1.0686
C20 C 0.5753(6) 0.1621(7) 1.0209(7)
C21 C 0.5306(5) 0.1819(7) 1.0235(8)
C22 C 0.5332(5) 0.2259(6) 1.0669(6)
H17 H 0.4996 0.2340 1.0693
C23 C 0.4416(8) 0.0998(9) 0.9773(9)
C24 C 0.3922(5) 0.0781(6) 0.9211(7)
C25 C 0.3550(7) 0.0190(9) 0.9075(7)
H18 H 0.3581 -0.0116 0.9330
C26 C 0.3124(6) 0.0007(7) 0.8585(5)
H19 H 0.2879 -0.0424 0.8477
C27 C 0.3386(5) 0.1053(6) 0.8375(7)
H20 H 0.3323 0.1356 0.8153
C28 C 0.3870(5) 0.1221(6) 0.8890(6)
H21 H 0.4147 0.1647 0.8993
C29 C 0.6211(16) 0.1053(16) 0.9701(16)
H22 H 0.6171 0.0751 1.0049
H23 H 0.6628 0.1431 0.9733
C30 C 0.6086(16) 0.0758(16) 0.8990(16)
H24 H 0.5678 0.0365 0.8976
H25 H 0.6083 0.1050 0.8655
C31 C 0.6612(16) 0.0631(16) 0.8856(15)
H26 H 0.7004 0.0979 0.9024
H27 H 0.6648 0.0586 0.8375
H28 H 0.6527 0.0245 0.9082
O1B O 0.8788(5) 0.4468(7) 0.9751(6)
O2B O 0.8465(5) 0.3249(6) 0.9755(5)
O3B O 0.9390(5) 0.3781(7) 1.0187(6)
N3B N 0.9562(5) 0.2605(6) 0.8243(4)
C16B C 0.6885(5) 0.2750(7) 1.1492(5)
H14B H 0.7002 0.2447 1.1663
H15B H 0.6806 0.2951 1.1878
C17B C 0.7428(5) 0.3257(7) 1.1057(5)
C18B C 0.7581(5) 0.3887(7) 1.1069(5)
C19B C 0.8049(5) 0.4296(7) 1.0662(6)
H16B H 0.8162 0.4723 1.0686
C20B C 0.8379(7) 0.4132(9) 1.0209(7)
C21B C 0.8181(7) 0.3487(9) 1.0235(8)
C22B C 0.7741(6) 0.3073(8) 1.0669(6)
H17B H 0.7660 0.2656 1.0693
C23B C 0.9002(9) 0.3418(12) 0.9773(9)
C24B C 0.9219(6) 0.3141(8) 0.9211(7)
C25B C 0.9810(9) 0.3360(11) 0.9075(7)
H18B H 1.0116 0.3697 0.9330
C26B C 0.9993(7) 0.3117(9) 0.8585(5)
H19B H 1.0424 0.3303 0.8477
C27B C 0.8947(6) 0.2333(8) 0.8375(7)
H20B H 0.8644 0.1967 0.8153
C28B C 0.8779(6) 0.2649(8) 0.8890(6)
H21B H 0.8353 0.2500 0.8993
C29B C 0.8947(16) 0.5158(23) 0.9701(16)
H22B H 0.9249 0.5420 1.0049
H23B H 0.8569 0.5197 0.9733
C30B C 0.9242(16) 0.5328(23) 0.8990(16)
H24B H 0.9635 0.5313 0.8976
H25B H 0.8950 0.5033 0.8655
C31B C 0.9369(16) 0.5981(23) 0.8856(15)
H26B H 0.9021 0.6025 0.9024
H27B H 0.9414 0.6062 0.8375
H28B H 0.9755 0.6282 0.9082
O1D O 0.5532(7) 0.4320(5) 0.9751(6)
O2D O 0.6751(6) 0.5216(4) 0.9755(5)
O3D O 0.6219(7) 0.5609(5) 1.0187(6)
N3D N 0.7395(6) 0.6957(4) 0.8243(4)
C16D C 0.7250(7) 0.4135(5) 1.1492(5)
H14D H 0.7553 0.4555 1.1663
H15D H 0.7049 0.3855 1.1878
C17D C 0.6743(7) 0.4171(5) 1.1057(5)
C18D C 0.6113(7) 0.3694(5) 1.1069(5)
C19D C 0.5704(7) 0.3753(5) 1.0662(6)
H16D H 0.5277 0.3439 1.0686
C20D C 0.5868(9) 0.4247(6) 1.0209(7)
C21D C 0.6513(9) 0.4694(5) 1.0235(8)
C22D C 0.6927(8) 0.4668(5) 1.0669(6)
H17D H 0.7344 0.5004 1.0693
C23D C 0.6582(12) 0.5584(8) 0.9773(9)
C24D C 0.6859(8) 0.6078(5) 0.9211(7)
C25D C 0.6640(11) 0.6450(7) 0.9075(7)
H18D H 0.6303 0.6419 0.9330
C26D C 0.6883(9) 0.6876(6) 0.8585(5)
H19D H 0.6697 0.7121 0.8477
C27D C 0.7667(8) 0.6614(5) 0.8375(7)
H20D H 0.8033 0.6677 0.8153
C28D C 0.7351(8) 0.6130(5) 0.8890(6)
H21D H 0.7500 0.5853 0.8993
C29D C 0.4842(23) 0.3789(16) 0.9701(16)
H22D H 0.4580 0.3829 1.0049
H23D H 0.4803 0.3372 0.9733
C30D C 0.4672(23) 0.3914(16) 0.8990(16)
H24D H 0.4687 0.4322 0.8976
H25D H 0.4967 0.3917 0.8655
C31D C 0.4019(23) 0.3388(16) 0.8856(15)
H26D H 0.3975 0.2996 0.9024
H27D H 0.3938 0.3352 0.8375
H28D H 0.3718 0.3473 0.9082
N1I N 0.1203(3) -0.0920(4) 0.8094(3)
N2I N 0.1480(4) -0.0097(4) 0.8665(4)
C2I C 0.1658(4) -0.0318(5) 0.8153(4)
C3I C 0.0758(4) -0.1078(5) 0.8572(5)
H3I H 0.0401 -0.1477 0.8637
C4I C 0.0912(5) -0.0585(6) 0.8920(5)
H4I H 0.0684 -0.0554 0.9285
C5I C 0.1793(5) 0.0546(5) 0.8880(5)
H5I H 0.2027 0.0812 0.8496
H6I H 0.1472 0.0655 0.9005
C6I C 0.2243(5) 0.0709(6) 0.9462(5)
C7I C 0.2254(6) 0.0253(7) 0.9822(6)
H7I H 0.1982 -0.0168 0.9696
C8I C 0.2652(9) 0.0373(9) 1.0378(9)
H8I H 0.2649 0.0044 1.0626
C9I C 0.3027(7) 0.0966(9) 1.0536(6)
C10I C 0.3431(8) 0.1093(10) 1.1164(7)
H9I H 0.3428 0.0770 1.1422
C11I C 0.3776(8) 0.1682(14) 1.1308(10)
H10I H 0.4030 0.1775 1.1694
C12I C 0.3821(8) 0.2209(10) 1.0960(10)
H11I H 0.4072 0.2625 1.1117
C13I C 0.3463(8) 0.2068(8) 1.0362(11)
H12I H 0.3509 0.2400 1.0086
C14I C 0.3051(6) 0.1457(7) 1.0174(9)
C15I C 0.2640(6) 0.1310(7) 0.9608(6)
H13I H 0.2650 0.1633 0.9343
Pd1B Pd 0.99051(5) 0.22496(6) 0.7500
N1B N 1.0920(4) 0.2123(5) 0.6906(3)
C1B C 1.1278(6) 0.2461(8) 0.7500
H1B H 1.1689 0.2483 0.7500
H2B H 1.1348 0.2891 0.7500
N2B N 1.0097(4) 0.1577(6) 0.6335(4)
C2B C 1.0318(5) 0.1976(6) 0.6847(4)
C3B C 1.1078(5) 0.1836(6) 0.6428(5)
H3B H 1.1477 0.1878 0.6363
C4B C 1.0585(6) 0.1497(8) 0.6080(5)
H4B H 1.0554 0.1238 0.5715
C5B C 0.9454(5) 0.1247(7) 0.6120(5)
H5B H 0.9188 0.1215 0.6504
H6B H 0.9345 0.0817 0.5995
C6B C 0.9291(6) 0.1534(8) 0.5538(5)
C7B C 0.9747(7) 0.2001(9) 0.5178(6)
H7B H 1.0168 0.2150 0.5304
C8B C 0.9627(9) 0.2279(13) 0.4622(9)
H8B H 0.9956 0.2605 0.4374
C9B C 0.9034(9) 0.2061(11) 0.4464(6)
C10B C 0.8907(10) 0.2338(13) 0.3836(7)
H9B H 0.9230 0.2658 0.3578
C11B C 0.8318(14) 0.2094(16) 0.3692(10)
H10B H 0.8225 0.2255 0.3306
C12B C 0.7791(10) 0.1612(13) 0.4040(10)
H11B H 0.7375 0.1447 0.3883
C13B C 0.7932(8) 0.1395(11) 0.4638(11)
H12B H 0.7600 0.1109 0.4914
C14B C 0.8543(7) 0.1594(9) 0.4826(9)
C15B C 0.8690(7) 0.1330(9) 0.5392(6)
H13B H 0.8367 0.1017 0.5657
N1K N 1.0920(4) 0.2123(5) 0.8094(3)
N2K N 1.0097(4) 0.1577(6) 0.8665(4)
C2K C 1.0318(5) 0.1976(6) 0.8153(4)
C3K C 1.1078(5) 0.1836(6) 0.8572(5)
H3K H 1.1477 0.1878 0.8637
C4K C 1.0585(6) 0.1497(8) 0.8920(5)
H4K H 1.0554 0.1238 0.9285
C5K C 0.9454(5) 0.1247(7) 0.8880(5)
H5K H 0.9188 0.1215 0.8496
H6K H 0.9345 0.0817 0.9005
C6K C 0.9291(6) 0.1534(8) 0.9462(5)
C7K C 0.9747(7) 0.2001(9) 0.9822(6)
H7K H 1.0168 0.2150 0.9696
C8K C 0.9627(9) 0.2279(13) 1.0378(9)
H8K H 0.9956 0.2605 1.0626
C9K C 0.9034(9) 0.2061(11) 1.0536(6)
C10K C 0.8907(10) 0.2338(13) 1.1164(7)
H9K H 0.9230 0.2658 1.1422
C11K C 0.8318(14) 0.2094(16) 1.1308(10)
H10K H 0.8225 0.2255 1.1694
C12K C 0.7791(10) 0.1612(13) 1.0960(10)
H11K H 0.7375 0.1447 1.1117
C13K C 0.7932(8) 0.1395(11) 1.0362(11)
H12K H 0.7600 0.1109 1.0086
C14K C 0.8543(7) 0.1594(9) 1.0174(9)
C15K C 0.8690(7) 0.1330(9) 0.9608(6)
H13K H 0.8367 0.1017 0.9343
Pd1D Pd 0.77504(6) 0.76555(4) 0.7500
N1D N 0.7877(5) 0.8797(3) 0.6906(3)
C1D C 0.7539(8) 0.8817(6) 0.7500
H1D H 0.7517 0.9206 0.7500
H2D H 0.7109 0.8457 0.7500
N2D N 0.8423(6) 0.8520(4) 0.6335(4)
C2D C 0.8024(6) 0.8342(4) 0.6847(4)
C3D C 0.8164(6) 0.9242(4) 0.6428(5)
H3D H 0.8122 0.9599 0.6363
C4D C 0.8503(8) 0.9088(5) 0.6080(5)
H4D H 0.8762 0.9316 0.5715
C5D C 0.8753(7) 0.8207(5) 0.6120(5)
H5D H 0.8785 0.7973 0.6504
H6D H 0.9183 0.8528 0.5995
C6D C 0.8466(8) 0.7757(5) 0.5538(5)
C7D C 0.7999(9) 0.7746(6) 0.5178(6)
H7D H 0.7850 0.8018 0.5304
C8D C 0.7721(13) 0.7348(9) 0.4622(9)
H8D H 0.7395 0.7351 0.4374
C9D C 0.7939(11) 0.6973(7) 0.4464(6)
C10D C 0.7662(13) 0.6569(8) 0.3836(7)
H9D H 0.7342 0.6572 0.3578
C11D C 0.7906(16) 0.6224(8) 0.3692(10)
H10D H 0.7745 0.5970 0.3306
C12D C 0.8388(13) 0.6179(8) 0.4040(10)
H11D H 0.8553 0.5928 0.3883
C13D C 0.8605(11) 0.6537(8) 0.4638(11)
H12D H 0.8891 0.6491 0.4914
C14D C 0.8406(9) 0.6949(6) 0.4826(9)
C15D C 0.8670(9) 0.7360(6) 0.5392(6)
H13D H 0.8983 0.7350 0.5657
N1G N 0.7877(5) 0.8797(3) 0.8094(3)
N2G N 0.8423(6) 0.8520(4) 0.8665(4)
C2G C 0.8024(6) 0.8342(4) 0.8153(4)
C3G C 0.8164(6) 0.9242(4) 0.8572(5)
H3G H 0.8122 0.9599 0.8637
C4G C 0.8503(8) 0.9088(5) 0.8920(5)
H4G H 0.8762 0.9316 0.9285
C5G C 0.8753(7) 0.8207(5) 0.8880(5)
H5G H 0.8785 0.7973 0.8496
H6G H 0.9183 0.8528 0.9005
C6G C 0.8466(8) 0.7757(5) 0.9462(5)
C7G C 0.7999(9) 0.7746(6) 0.9822(6)
H7G H 0.7850 0.8018 0.9696
C8G C 0.7721(13) 0.7348(9) 1.0378(9)
H8G H 0.7395 0.7351 1.0626
C9G C 0.7939(11) 0.6973(7) 1.0536(6)
C10G C 0.7662(13) 0.6569(8) 1.1164(7)
H9G H 0.7342 0.6572 1.1422
C11G C 0.7906(16) 0.6224(8) 1.1308(10)
H10G H 0.7745 0.5970 1.1694
C12G C 0.8388(13) 0.6179(8) 1.0960(10)
H11G H 0.8553 0.5928 1.1117
C13G C 0.8605(11) 0.6537(8) 1.0362(11)
H12G H 0.8891 0.6491 1.0086
C14G C 0.8406(9) 0.6949(6) 1.0174(9)
C15G C 0.8670(9) 0.7360(6) 0.9608(6)
H13G H 0.8983 0.7350 0.9343
O1G O 0.5532(7) 0.4320(5) 0.5249(6)
O2G O 0.6751(6) 0.5216(4) 0.5245(5)
O3G O 0.6219(7) 0.5609(5) 0.4813(6)
N3G N 0.7395(6) 0.6957(4) 0.6757(4)
C16G C 0.7250(7) 0.4135(5) 0.3508(5)
H14G H 0.7553 0.4555 0.3337
H15G H 0.7049 0.3855 0.3122
C17G C 0.6743(7) 0.4171(5) 0.3943(5)
C18G C 0.6113(7) 0.3694(5) 0.3931(5)
C19G C 0.5704(7) 0.3753(5) 0.4338(6)
H16G H 0.5277 0.3439 0.4314
C20G C 0.5868(9) 0.4247(6) 0.4791(7)
C21G C 0.6513(9) 0.4694(5) 0.4765(8)
C22G C 0.6927(8) 0.4668(5) 0.4331(6)
H17G H 0.7344 0.5004 0.4307
C23G C 0.6582(12) 0.5584(8) 0.5227(9)
C24G C 0.6859(8) 0.6078(5) 0.5789(7)
C25G C 0.6640(11) 0.6450(7) 0.5925(7)
H18G H 0.6303 0.6419 0.5670
C26G C 0.6883(9) 0.6876(6) 0.6415(5)
H19G H 0.6697 0.7121 0.6523
C27G C 0.7667(8) 0.6614(5) 0.6625(7)
H20G H 0.8033 0.6677 0.6847
C28G C 0.7351(8) 0.6130(5) 0.6110(6)
H21G H 0.7500 0.5853 0.6007
C29G C 0.4842(23) 0.3789(16) 0.5299(16)
H22G H 0.4580 0.3829 0.4951
H23G H 0.4803 0.3372 0.5267
C30G C 0.4672(23) 0.3914(16) 0.6010(16)
H24G H 0.4687 0.4322 0.6024
H25G H 0.4967 0.3917 0.6345
C31G C 0.4019(23) 0.3388(16) 0.6144(15)
H26G H 0.3975 0.2996 0.5976
H27G H 0.3938 0.3352 0.6625
H28G H 0.3718 0.3473 0.5918
O1I O 0.5680(5) 0.1212(5) 0.5249(6)
O2I O 0.4784(4) 0.1535(5) 0.5245(5)
O3I O 0.4391(5) 0.0610(5) 0.4813(6)
N3I N 0.3043(4) 0.0438(5) 0.6757(4)
C16I C 0.5865(5) 0.3115(5) 0.3508(5)
H14I H 0.5445 0.2998 0.3337
H15I H 0.6145 0.3194 0.3122
C17I C 0.5829(5) 0.2572(5) 0.3943(5)
C18I C 0.6306(5) 0.2419(5) 0.3931(5)
C19I C 0.6247(5) 0.1951(5) 0.4338(6)
H16I H 0.6561 0.1838 0.4314
C20I C 0.5753(6) 0.1621(7) 0.4791(7)
C21I C 0.5306(5) 0.1819(7) 0.4765(8)
C22I C 0.5332(5) 0.2259(6) 0.4331(6)
H17I H 0.4996 0.2340 0.4307
C23I C 0.4416(8) 0.0998(9) 0.5227(9)
C24I C 0.3922(5) 0.0781(6) 0.5789(7)
C25I C 0.3550(7) 0.0190(9) 0.5925(7)
H18I H 0.3581 -0.0116 0.5670
C26I C 0.3124(6) 0.0007(7) 0.6415(5)
H19I H 0.2879 -0.0424 0.6523
C27I C 0.3386(5) 0.1053(6) 0.6625(7)
H20I H 0.3323 0.1356 0.6847
C28I C 0.3870(5) 0.1221(6) 0.6110(6)
H21I H 0.4147 0.1647 0.6007
C29I C 0.6211(16) 0.1053(16) 0.5299(16)
H22I H 0.6171 0.0751 0.4951
H23I H 0.6628 0.1431 0.5267
C30I C 0.6086(16) 0.0758(16) 0.6010(16)
H24I H 0.5678 0.0365 0.6024
H25I H 0.6083 0.1050 0.6345
C31I C 0.6612(16) 0.0631(16) 0.6144(15)
H26I H 0.7004 0.0979 0.5976
H27I H 0.6648 0.0586 0.6625
H28I H 0.6527 0.0245 0.5918
O1K O 0.8788(5) 0.4468(7) 0.5249(6)
O2K O 0.8465(5) 0.3249(6) 0.5245(5)
O3K O 0.9390(5) 0.3781(7) 0.4813(6)
N3K N 0.9562(5) 0.2605(6) 0.6757(4)
C16K C 0.6885(5) 0.2750(7) 0.3508(5)
H14K H 0.7002 0.2447 0.3337
H15K H 0.6806 0.2951 0.3122
C17K C 0.7428(5) 0.3257(7) 0.3943(5)
C18K C 0.7581(5) 0.3887(7) 0.3931(5)
C19K C 0.8049(5) 0.4296(7) 0.4338(6)
H16K H 0.8162 0.4723 0.4314
C20K C 0.8379(7) 0.4132(9) 0.4791(7)
C21K C 0.8181(7) 0.3487(9) 0.4765(8)
C22K C 0.7741(6) 0.3073(8) 0.4331(6)
H17K H 0.7660 0.2656 0.4307
C23K C 0.9002(9) 0.3418(12) 0.5227(9)
C24K C 0.9219(6) 0.3141(8) 0.5789(7)
C25K C 0.9810(9) 0.3360(11) 0.5925(7)
H18K H 1.0116 0.3697 0.5670
C26K C 0.9993(7) 0.3117(9) 0.6415(5)
H19K H 1.0424 0.3303 0.6523
C27K C 0.8947(6) 0.2333(8) 0.6625(7)
H20K H 0.8644 0.1967 0.6847
C28K C 0.8779(6) 0.2649(8) 0.6110(6)
H21K H 0.8353 0.2500 0.6007
C29K C 0.8947(16) 0.5158(23) 0.5299(16)
H22K H 0.9249 0.5420 0.4951
H23K H 0.8569 0.5197 0.5267
C30K C 0.9242(16) 0.5328(23) 0.6010(16)
H24K H 0.9635 0.5313 0.6024
H25K H 0.8950 0.5033 0.6345
C31K C 0.9369(16) 0.5981(23) 0.6144(15)
H26K H 0.9021 0.6025 0.5976
H27K H 0.9414 0.6062 0.6625
H28K H 0.9755 0.6282 0.5918
loop_
_geom_bond_atom_site_label_1
_geom_bond_atom_site_label_2
_geom_bond_site_symmetry_1
_geom_bond_site_symmetry_2
Pd1 C2 1_555 1_555
O1 C20 1_555 1_555
N1 C1 1_555 1_555
C1 H1 1_555 1_555
H2 C1 1_555 1_555
O2 C21 1_555 1_555
N2 C2 1_555 1_555
C2 N1 1_555 1_555
O3 C23 1_555 1_555
N3 Pd1 1_555 1_555
C3 N1 1_555 1_555
H3 C3 1_555 1_555
C4 N2 1_555 1_555
H4 C4 1_555 1_555
C5 N2 1_555 1_555
H5 C5 1_555 1_555
H6 C5 1_555 1_555
C6 C5 1_555 1_555
C7 C6 1_555 1_555
H7 C7 1_555 1_555
C8 C7 1_555 1_555
H8 C8 1_555 1_555
C9 C8 1_555 1_555
C10 C9 1_555 1_555
H9 C10 1_555 1_555
C11 C10 1_555 1_555
H10 C11 1_555 1_555
C12 C11 1_555 1_555
H11 C12 1_555 1_555
C13 C12 1_555 1_555
H12 C13 1_555 1_555
C14 C9 1_555 1_555
C15 C6 1_555 1_555
H13 C15 1_555 1_555
C16 H14 1_555 1_555
H15 C16 1_555 1_555
C17 C16 1_555 1_555
C18 C17 1_555 1_555
C19 C18 1_555 1_555
H16 C19 1_555 1_555
C20 C19 1_555 1_555
C21 C20 1_555 1_555
C22 C17 1_555 1_555
H17 C22 1_555 1_555
C23 O2 1_555 1_555
C24 C23 1_555 1_555
C25 C24 1_555 1_555
H18 C25 1_555 1_555
C26 N3 1_555 1_555
H19 C26 1_555 1_555
C27 N3 1_555 1_555
H20 C27 1_555 1_555
C28 C24 1_555 1_555
H21 C28 1_555 1_555
C29 O1 1_555 1_555
H22 C29 1_555 1_555
H23 C29 1_555 1_555
C30 C29 1_555 1_555
H24 C30 1_555 1_555
H25 C30 1_555 1_555
C31 C30 1_555 1_555
H26 C31 1_555 1_555
H27 C31 1_555 1_555
H28 C31 1_555 1_555
F1 B1 1_555 1_555
B1 F2 1_555 1_555
F3 B1 1_555 1_555
B2 F4 1_555 1_555
F5 B2 1_555 1_555
F6 B2 1_555 1_555
O1B C20B 1_555 1_555
O2B C21B 1_555 1_555
O3B C23B 1_555 1_555
N3B C26B 1_555 1_555
C16B C18 1_555 1_555
H14B C16B 1_555 1_555
H15B C16B 1_555 1_555
C17B C16B 1_555 1_555
C18B C17B 1_555 1_555
C19B C18B 1_555 1_555
H16B C19B 1_555 1_555
C20B C19B 1_555 1_555
C21B C20B 1_555 1_555
C22B C17B 1_555 1_555
H17B C22B 1_555 1_555
C23B O2B 1_555 1_555
C24B C23B 1_555 1_555
C25B C24B 1_555 1_555
H18B C25B 1_555 1_555
C26B C25B 1_555 1_555
H19B C26B 1_555 1_555
C27B N3B 1_555 1_555
H20B C27B 1_555 1_555
C28B C24B 1_555 1_555
H21B C28B 1_555 1_555
C29B O1B 1_555 1_555
H22B C29B 1_555 1_555
H23B C29B 1_555 1_555
C30B C29B 1_555 1_555
H24B C30B 1_555 1_555
H25B C30B 1_555 1_555
C31B C30B 1_555 1_555
H26B C31B 1_555 1_555
H27B C31B 1_555 1_555
H28B C31B 1_555 1_555
O1D C20D 1_555 1_555
O2D C21D 1_555 1_555
O3D C23D 1_555 1_555
N3D C26D 1_555 1_555
C16D C18B 1_555 1_555
H14D C16D 1_555 1_555
H15D C16D 1_555 1_555
C17D C16D 1_555 1_555
C18D C16 1_555 1_555
C19D C18D 1_555 1_555
H16D C19D 1_555 1_555
C20D C19D 1_555 1_555
C21D C20D 1_555 1_555
C22D C17D 1_555 1_555
H17D C22D 1_555 1_555
C23D O2D 1_555 1_555
C24D C23D 1_555 1_555
C25D C24D 1_555 1_555
H18D C25D 1_555 1_555
C26D C25D 1_555 1_555
H19D C26D 1_555 1_555
C27D N3D 1_555 1_555
H20D C27D 1_555 1_555
C28D C24D 1_555 1_555
H21D C28D 1_555 1_555
C29D O1D 1_555 1_555
H22D C29D 1_555 1_555
H23D C29D 1_555 1_555
C30D C29D 1_555 1_555
H24D C30D 1_555 1_555
H25D C30D 1_555 1_555
C31D C30D 1_555 1_555
H26D C31D 1_555 1_555
H27D C31D 1_555 1_555
H28D C31D 1_555 1_555
N1I C1 1_555 1_555
N2I C2I 1_555 1_555
C2I Pd1 1_555 1_555
C3I N1I 1_555 1_555
H3I C3I 1_555 1_555
C4I N2I 1_555 1_555
H4I C4I 1_555 1_555
C5I N2I 1_555 1_555
H5I C5I 1_555 1_555
H6I C5I 1_555 1_555
C6I C5I 1_555 1_555
C7I C6I 1_555 1_555
H7I C7I 1_555 1_555
C8I C7I 1_555 1_555
H8I C8I 1_555 1_555
C9I C8I 1_555 1_555
C10I C9I 1_555 1_555
H9I C10I 1_555 1_555
C11I C10I 1_555 1_555
H10I C11I 1_555 1_555
C12I C11I 1_555 1_555
H11I C12I 1_555 1_555
C13I C12I 1_555 1_555
H12I C13I 1_555 1_555
C14I C9I 1_555 1_555
C15I C6I 1_555 1_555
H13I C15I 1_555 1_555
Pd1B N3B 1_555 1_555
N1B C1B 1_555 1_555
C1B H1B 1_555 1_555
H2B C1B 1_555 1_555
N2B C2B 1_555 1_555
C2B Pd1B 1_555 1_555
C3B N1B 1_555 1_555
H3B C3B 1_555 1_555
C4B N2B 1_555 1_555
H4B C4B 1_555 1_555
C5B N2B 1_555 1_555
H5B C5B 1_555 1_555
H6B C5B 1_555 1_555
C6B C5B 1_555 1_555
C7B C6B 1_555 1_555
H7B C7B 1_555 1_555
C8B C7B 1_555 1_555
H8B C8B 1_555 1_555
C9B C8B 1_555 1_555
C10B C9B 1_555 1_555
H9B C10B 1_555 1_555
C11B C10B 1_555 1_555
H10B C11B 1_555 1_555
C12B C11B 1_555 1_555
H11B C12B 1_555 1_555
C13B C12B 1_555 1_555
H12B C13B 1_555 1_555
C14B C9B 1_555 1_555
C15B C6B 1_555 1_555
H13B C15B 1_555 1_555
N1K C1B 1_555 1_555
N2K C2K 1_555 1_555
C2K Pd1B 1_555 1_555
C3K N1K 1_555 1_555
H3K C3K 1_555 1_555
C4K N2K 1_555 1_555
H4K C4K 1_555 1_555
C5K N2K 1_555 1_555
H5K C5K 1_555 1_555
H6K C5K 1_555 1_555
C6K C5K 1_555 1_555
C7K C6K 1_555 1_555
H7K C7K 1_555 1_555
C8K C7K 1_555 1_555
H8K C8K 1_555 1_555
C9K C8K 1_555 1_555
C10K C9K 1_555 1_555
H9K C10K 1_555 1_555
C11K C10K 1_555 1_555
H10K C11K 1_555 1_555
C12K C11K 1_555 1_555
H11K C12K 1_555 1_555
C13K C12K 1_555 1_555
H12K C13K 1_555 1_555
C14K C9K 1_555 1_555
C15K C6K 1_555 1_555
H13K C15K 1_555 1_555
Pd1D N3D 1_555 1_555
N1D C1D 1_555 1_555
C1D H1D 1_555 1_555
H2D C1D 1_555 1_555
N2D C2D 1_555 1_555
C2D Pd1D 1_555 1_555
C3D N1D 1_555 1_555
H3D C3D 1_555 1_555
C4D N2D 1_555 1_555
H4D C4D 1_555 1_555
C5D N2D 1_555 1_555
H5D C5D 1_555 1_555
H6D C5D 1_555 1_555
C6D C5D 1_555 1_555
C7D C6D 1_555 1_555
H7D C7D 1_555 1_555
C8D C7D 1_555 1_555
H8D C8D 1_555 1_555
C9D C8D 1_555 1_555
C10D C9D 1_555 1_555
H9D C10D 1_555 1_555
C11D C10D 1_555 1_555
H10D C11D 1_555 1_555
C12D C11D 1_555 1_555
H11D C12D 1_555 1_555
C13D C12D 1_555 1_555
H12D C13D 1_555 1_555
C14D C9D 1_555 1_555
C15D C6D 1_555 1_555
H13D C15D 1_555 1_555
N1G C1D 1_555 1_555
N2G C2G 1_555 1_555
C2G Pd1D 1_555 1_555
C3G N1G 1_555 1_555
H3G C3G 1_555 1_555
C4G N2G 1_555 1_555
H4G C4G 1_555 1_555
C5G N2G 1_555 1_555
H5G C5G 1_555 1_555
H6G C5G 1_555 1_555
C6G C5G 1_555 1_555
C7G C6G 1_555 1_555
H7G C7G 1_555 1_555
C8G C7G 1_555 1_555
H8G C8G 1_555 1_555
C9G C8G 1_555 1_555
C10G C9G 1_555 1_555
H9G C10G 1_555 1_555
C11G C10G 1_555 1_555
H10G C11G 1_555 1_555
C12G C11G 1_555 1_555
H11G C12G 1_555 1_555
C13G C12G 1_555 1_555
H12G C13G 1_555 1_555
C14G C9G 1_555 1_555
C15G C6G 1_555 1_555
H13G C15G 1_555 1_555
O1G C20G 1_555 1_555
O2G C21G 1_555 1_555
O3G C23G 1_555 1_555
N3G Pd1D 1_555 1_555
C16G H14G 1_555 1_555
H15G C16G 1_555 1_555
C17G C16G 1_555 1_555
C18G C17G 1_555 1_555
C19G C18G 1_555 1_555
H16G C19G 1_555 1_555
C20G C19G 1_555 1_555
C21G C20G 1_555 1_555
C22G C17G 1_555 1_555
H17G C22G 1_555 1_555
C23G O2G 1_555 1_555
C24G C23G 1_555 1_555
C25G C24G 1_555 1_555
H18G C25G 1_555 1_555
C26G N3G 1_555 1_555
H19G C26G 1_555 1_555
C27G N3G 1_555 1_555
H20G C27G 1_555 1_555
C28G C24G 1_555 1_555
H21G C28G 1_555 1_555
C29G O1G 1_555 1_555
H22G C29G 1_555 1_555
H23G C29G 1_555 1_555
C30G C29G 1_555 1_555
H24G C30G 1_555 1_555
H25G C30G 1_555 1_555
C31G C30G 1_555 1_555
H26G C31G 1_555 1_555
H27G C31G 1_555 1_555
H28G C31G 1_555 1_555
O1I C20I 1_555 1_555
O2I C21I 1_555 1_555
O3I C23I 1_555 1_555
N3I Pd1 1_555 1_555
C16I C18G 1_555 1_555
H14I C16I 1_555 1_555
H15I C16I 1_555 1_555
C17I C16I 1_555 1_555
C18I C17I 1_555 1_555
C19I C18I 1_555 1_555
H16I C19I 1_555 1_555
C20I C19I 1_555 1_555
C21I C20I 1_555 1_555
C22I C17I 1_555 1_555
H17I C22I 1_555 1_555
C23I O2I 1_555 1_555
C24I C23I 1_555 1_555
C25I C24I 1_555 1_555
H18I C25I 1_555 1_555
C26I N3I 1_555 1_555
H19I C26I 1_555 1_555
C27I N3I 1_555 1_555
H20I C27I 1_555 1_555
C28I C24I 1_555 1_555
H21I C28I 1_555 1_555
C29I O1I 1_555 1_555
H22I C29I 1_555 1_555
H23I C29I 1_555 1_555
C30I C29I 1_555 1_555
H24I C30I 1_555 1_555
H25I C30I 1_555 1_555
C31I C30I 1_555 1_555
H26I C31I 1_555 1_555
H27I C31I 1_555 1_555
H28I C31I 1_555 1_555
O1K C20K 1_555 1_555
O2K C21K 1_555 1_555
O3K C23K 1_555 1_555
N3K Pd1B 1_555 1_555
C16K C18I 1_555 1_555
H14K C16K 1_555 1_555
H15K C16K 1_555 1_555
C17K C16K 1_555 1_555
C18K C16G 1_555 1_555
C19K C18K 1_555 1_555
H16K C19K 1_555 1_555
C20K C19K 1_555 1_555
C21K C20K 1_555 1_555
C22K C17K 1_555 1_555
H17K C22K 1_555 1_555
C23K O2K 1_555 1_555
C24K C23K 1_555 1_555
C25K C24K 1_555 1_555
H18K C25K 1_555 1_555
C26K N3K 1_555 1_555
H19K C26K 1_555 1_555
C27K N3K 1_555 1_555
H20K C27K 1_555 1_555
C28K C24K 1_555 1_555
H21K C28K 1_555 1_555
C29K O1K 1_555 1_555
H22K C29K 1_555 1_555
H23K C29K 1_555 1_555
C30K C29K 1_555 1_555
H24K C30K 1_555 1_555
H25K C30K 1_555 1_555
C31K C30K 1_555 1_555
H26K C31K 1_555 1_555
H27K C31K 1_555 1_555
H28K C31K 1_555 1_555
F1I B1 1_555 1_555
F4I B2 1_555 1_555
C3 C4 1_555 1_555
C13 C14 1_555 1_555
C14 C15 1_555 1_555
C21 C22 1_555 1_555
C25 C26 1_555 1_555
C27 C28 1_555 1_555
C21B C22B 1_555 1_555
C27B C28B 1_555 1_555
C17D C18D 1_555 1_555
C21D C22D 1_555 1_555
C27D C28D 1_555 1_555
N1I C2I 1_555 1_555
C3I C4I 1_555 1_555
C13I C14I 1_555 1_555
C14I C15I 1_555 1_555
N1B C2B 1_555 1_555
C3B C4B 1_555 1_555
C13B C14B 1_555 1_555
C14B C15B 1_555 1_555
N1K C2K 1_555 1_555
C3K C4K 1_555 1_555
C13K C14K 1_555 1_555
C14K C15K 1_555 1_555
N1D C2D 1_555 1_555
C3D C4D 1_555 1_555
C13D C14D 1_555 1_555
C14D C15D 1_555 1_555
N1G C2G 1_555 1_555
C3G C4G 1_555 1_555
C13G C14G 1_555 1_555
C14G C15G 1_555 1_555
C21G C22G 1_555 1_555
C25G C26G 1_555 1_555
C27G C28G 1_555 1_555
C21I C22I 1_555 1_555
C25I C26I 1_555 1_555
C27I C28I 1_555 1_555
C17K C18K 1_555 1_555
C21K C22K 1_555 1_555
C25K C26K 1_555 1_555
C27K C28K 1_555 1_555

#END
