# generated using pymatgen
data_B7H138Pd3C171I23N18O27F32
_symmetry_space_group_name_H-M   'P 1'
_cell_length_a   20.39050000
_cell_length_b   24.70160000
_cell_length_c   24.70160000
_cell_angle_alpha   120.00000000
_cell_angle_beta   90.00000000
_cell_angle_gamma   90.00000000
_symmetry_Int_Tables_number   1
_chemical_formula_structural   B7H138Pd3C171I23N18O27F32
_chemical_formula_sum   'B14 H276 Pd6 C342 I46 N36 O54 F64'
_cell_volume   10774.78657781
_cell_formula_units_Z   2
loop_
 _symmetry_equiv_pos_site_id
 _symmetry_equiv_pos_as_xyz
  1  'x, y, z'
loop_
 _atom_site_type_symbol
 _atom_site_label
 _atom_site_symmetry_multiplicity
 _atom_site_fract_x
 _atom_site_fract_y
 _atom_site_fract_z
 _atom_site_occupancy
  B  B1  1  0.250000  0.113100  0.432900  1
  B  B2  1  0.750000  0.432900  0.319800  1
  B  B3  1  0.250000  0.319800  0.886900  1
  B  B4  1  0.750000  0.886900  0.567100  1
  B  B5  1  0.250000  0.567100  0.680200  1
  B  B6  1  0.750000  0.680200  0.113100  1
  B  B7  1  0.250000  0.811700  0.052800  1
  B  B8  1  0.750000  0.052800  0.241100  1
  B  B9  1  0.250000  0.241100  0.188300  1
  B  B10  1  0.750000  0.188300  0.947200  1
  B  B11  1  0.250000  0.947200  0.758900  1
  B  B12  1  0.750000  0.758900  0.811700  1
  B  B13  1  0.500000  0.000000  0.000000  1
  B  B14  1  0.000000  0.000000  0.000000  1
  H  H15  1  0.250000  0.128300  0.286300  1.0
  H  H16  1  0.750000  0.286300  0.158000  1.0
  H  H17  1  0.250000  0.158000  0.871700  1.0
  H  H18  1  0.750000  0.871700  0.713700  1.0
  H  H19  1  0.250000  0.713700  0.842000  1.0
  H  H20  1  0.750000  0.842000  0.128300  1.0
  H  H21  1  0.250000  0.163600  0.246400  1.0
  H  H22  1  0.750000  0.246400  0.082800  1.0
  H  H23  1  0.250000  0.082800  0.836400  1.0
  H  H24  1  0.750000  0.836400  0.753600  1.0
  H  H25  1  0.250000  0.753600  0.917200  1.0
  H  H26  1  0.750000  0.917200  0.163600  1.0
  H  H27  1  0.138700  0.145300  0.186600  1.0
  H  H28  1  0.638700  0.186600  0.041300  1.0
  H  H29  1  0.138700  0.041300  0.854700  1.0
  H  H30  1  0.638700  0.854700  0.813400  1.0
  H  H31  1  0.138700  0.813400  0.958700  1.0
  H  H32  1  0.638700  0.958700  0.145300  1.0
  H  H33  1  0.861300  0.854700  0.813400  1.0
  H  H34  1  0.361300  0.813400  0.958700  1.0
  H  H35  1  0.861300  0.958700  0.145300  1.0
  H  H36  1  0.361300  0.145300  0.186600  1.0
  H  H37  1  0.861300  0.186600  0.041300  1.0
  H  H38  1  0.361300  0.041300  0.854700  1.0
  H  H39  1  0.074800  0.051900  0.120600  1.0
  H  H40  1  0.574800  0.120600  0.068700  1.0
  H  H41  1  0.074800  0.068700  0.948100  1.0
  H  H42  1  0.574800  0.948100  0.879400  1.0
  H  H43  1  0.074800  0.879400  0.931300  1.0
  H  H44  1  0.574800  0.931300  0.051900  1.0
  H  H45  1  0.925200  0.948100  0.879400  1.0
  H  H46  1  0.425200  0.879400  0.931300  1.0
  H  H47  1  0.925200  0.931300  0.051900  1.0
  H  H48  1  0.425200  0.051900  0.120600  1.0
  H  H49  1  0.925200  0.120600  0.068700  1.0
  H  H50  1  0.425200  0.068700  0.948100  1.0
  H  H51  1  0.149200  0.912000  0.119600  1.0
  H  H52  1  0.649200  0.119600  0.207600  1.0
  H  H53  1  0.149200  0.207600  0.088000  1.0
  H  H54  1  0.649200  0.088000  0.880400  1.0
  H  H55  1  0.149200  0.880400  0.792400  1.0
  H  H56  1  0.649200  0.792400  0.912000  1.0
  H  H57  1  0.850800  0.088000  0.880400  1.0
  H  H58  1  0.350800  0.880400  0.792400  1.0
  H  H59  1  0.850800  0.792400  0.912000  1.0
  H  H60  1  0.350800  0.912000  0.119600  1.0
  H  H61  1  0.850800  0.119600  0.207600  1.0
  H  H62  1  0.350800  0.207600  0.088000  1.0
  H  H63  1  0.101400  0.927200  0.077800  1.0
  H  H64  1  0.601400  0.077800  0.150600  1.0
  H  H65  1  0.101400  0.150600  0.072800  1.0
  H  H66  1  0.601400  0.072800  0.922200  1.0
  H  H67  1  0.101400  0.922200  0.849400  1.0
  H  H68  1  0.601400  0.849400  0.927200  1.0
  H  H69  1  0.898600  0.072800  0.922200  1.0
  H  H70  1  0.398600  0.922200  0.849400  1.0
  H  H71  1  0.898600  0.849400  0.927200  1.0
  H  H72  1  0.398600  0.927200  0.077800  1.0
  H  H73  1  0.898600  0.077800  0.150600  1.0
  H  H74  1  0.398600  0.150600  0.072800  1.0
  H  H75  1  0.063600  0.832400  0.103300  1.0
  H  H76  1  0.563600  0.103300  0.270900  1.0
  H  H77  1  0.063600  0.270900  0.167600  1.0
  H  H78  1  0.563600  0.167600  0.896700  1.0
  H  H79  1  0.063600  0.896700  0.729100  1.0
  H  H80  1  0.563600  0.729100  0.832400  1.0
  H  H81  1  0.936400  0.167600  0.896700  1.0
  H  H82  1  0.436400  0.896700  0.729100  1.0
  H  H83  1  0.936400  0.729100  0.832400  1.0
  H  H84  1  0.436400  0.832400  0.103300  1.0
  H  H85  1  0.936400  0.103300  0.270900  1.0
  H  H86  1  0.436400  0.270900  0.167600  1.0
  H  H87  1  0.993200  0.756300  0.105200  1.0
  H  H88  1  0.493200  0.105200  0.348900  1.0
  H  H89  1  0.993200  0.348900  0.243700  1.0
  H  H90  1  0.493200  0.243700  0.894800  1.0
  H  H91  1  0.993200  0.894800  0.651100  1.0
  H  H92  1  0.493200  0.651100  0.756300  1.0
  H  H93  1  0.006800  0.243700  0.894800  1.0
  H  H94  1  0.506800  0.894800  0.651100  1.0
  H  H95  1  0.006800  0.651100  0.756300  1.0
  H  H96  1  0.506800  0.756300  0.105200  1.0
  H  H97  1  0.006800  0.105200  0.348900  1.0
  H  H98  1  0.506800  0.348900  0.243700  1.0
  H  H99  1  0.896000  0.734800  0.141200  1.0
  H  H100  1  0.396000  0.141200  0.406400  1.0
  H  H101  1  0.896000  0.406400  0.265200  1.0
  H  H102  1  0.396000  0.265200  0.858800  1.0
  H  H103  1  0.896000  0.858800  0.593600  1.0
  H  H104  1  0.396000  0.593600  0.734800  1.0
  H  H105  1  0.104000  0.265200  0.858800  1.0
  H  H106  1  0.604000  0.858800  0.593600  1.0
  H  H107  1  0.104000  0.593600  0.734800  1.0
  H  H108  1  0.604000  0.734800  0.141200  1.0
  H  H109  1  0.104000  0.141200  0.406400  1.0
  H  H110  1  0.604000  0.406400  0.265200  1.0
  H  H111  1  0.830800  0.811200  0.213300  1.0
  H  H112  1  0.330800  0.213300  0.402100  1.0
  H  H113  1  0.830800  0.402100  0.188800  1.0
  H  H114  1  0.330800  0.188800  0.786700  1.0
  H  H115  1  0.830800  0.786700  0.597900  1.0
  H  H116  1  0.330800  0.597900  0.811200  1.0
  H  H117  1  0.169200  0.188800  0.786700  1.0
  H  H118  1  0.669200  0.786700  0.597900  1.0
  H  H119  1  0.169200  0.597900  0.811200  1.0
  H  H120  1  0.669200  0.811200  0.213300  1.0
  H  H121  1  0.169200  0.213300  0.402100  1.0
  H  H122  1  0.669200  0.402100  0.188800  1.0
  H  H123  1  0.858900  0.915900  0.258300  1.0
  H  H124  1  0.358900  0.258300  0.342400  1.0
  H  H125  1  0.858900  0.342400  0.084100  1.0
  H  H126  1  0.358900  0.084100  0.741700  1.0
  H  H127  1  0.858900  0.741700  0.657600  1.0
  H  H128  1  0.358900  0.657600  0.915900  1.0
  H  H129  1  0.141100  0.084100  0.741700  1.0
  H  H130  1  0.641100  0.741700  0.657600  1.0
  H  H131  1  0.141100  0.657600  0.915900  1.0
  H  H132  1  0.641100  0.915900  0.258300  1.0
  H  H133  1  0.141100  0.258300  0.342400  1.0
  H  H134  1  0.641100  0.342400  0.084100  1.0
  H  H135  1  0.932400  0.990100  0.251800  1.0
  H  H136  1  0.432400  0.251800  0.261700  1.0
  H  H137  1  0.932400  0.261700  0.009900  1.0
  H  H138  1  0.432400  0.009900  0.748200  1.0
  H  H139  1  0.932400  0.748200  0.738300  1.0
  H  H140  1  0.432400  0.738300  0.990100  1.0
  H  H141  1  0.067600  0.009900  0.748200  1.0
  H  H142  1  0.567600  0.748200  0.738300  1.0
  H  H143  1  0.067600  0.738300  0.990100  1.0
  H  H144  1  0.567600  0.990100  0.251800  1.0
  H  H145  1  0.067600  0.251800  0.261700  1.0
  H  H146  1  0.567600  0.261700  0.009900  1.0
  H  H147  1  0.027600  0.015000  0.215400  1.0
  H  H148  1  0.527600  0.215400  0.200400  1.0
  H  H149  1  0.027600  0.200400  0.985000  1.0
  H  H150  1  0.527600  0.985000  0.784600  1.0
  H  H151  1  0.027600  0.784600  0.799600  1.0
  H  H152  1  0.527600  0.799600  0.015000  1.0
  H  H153  1  0.972400  0.985000  0.784600  1.0
  H  H154  1  0.472400  0.784600  0.799600  1.0
  H  H155  1  0.972400  0.799600  0.015000  1.0
  H  H156  1  0.472400  0.015000  0.215400  1.0
  H  H157  1  0.972400  0.215400  0.200400  1.0
  H  H158  1  0.472400  0.200400  0.985000  1.0
  H  H159  1  0.691400  0.703300  0.384200  1.0
  H  H160  1  0.191400  0.384200  0.680900  1.0
  H  H161  1  0.691400  0.680900  0.296700  1.0
  H  H162  1  0.191400  0.296700  0.615800  1.0
  H  H163  1  0.691400  0.615800  0.319100  1.0
  H  H164  1  0.191400  0.319100  0.703300  1.0
  H  H165  1  0.308600  0.296700  0.615800  1.0
  H  H166  1  0.808600  0.615800  0.319100  1.0
  H  H167  1  0.308600  0.319100  0.703300  1.0
  H  H168  1  0.808600  0.703300  0.384200  1.0
  H  H169  1  0.308600  0.384200  0.680900  1.0
  H  H170  1  0.808600  0.680900  0.296700  1.0
  H  H171  1  0.671700  0.757000  0.453200  1.0
  H  H172  1  0.171700  0.453200  0.696200  1.0
  H  H173  1  0.671700  0.696200  0.243000  1.0
  H  H174  1  0.171700  0.243000  0.546800  1.0
  H  H175  1  0.671700  0.546800  0.303800  1.0
  H  H176  1  0.171700  0.303800  0.757000  1.0
  H  H177  1  0.328300  0.243000  0.546800  1.0
  H  H178  1  0.828300  0.546800  0.303800  1.0
  H  H179  1  0.328300  0.303800  0.757000  1.0
  H  H180  1  0.828300  0.757000  0.453200  1.0
  H  H181  1  0.328300  0.453200  0.696200  1.0
  H  H182  1  0.828300  0.696200  0.243000  1.0
  H  H183  1  0.566000  0.755900  0.257600  1.0
  H  H184  1  0.066000  0.257600  0.501700  1.0
  H  H185  1  0.566000  0.501700  0.244100  1.0
  H  H186  1  0.066000  0.244100  0.742400  1.0
  H  H187  1  0.566000  0.742400  0.498300  1.0
  H  H188  1  0.066000  0.498300  0.755900  1.0
  H  H189  1  0.434000  0.244100  0.742400  1.0
  H  H190  1  0.934000  0.742400  0.498300  1.0
  H  H191  1  0.434000  0.498300  0.755900  1.0
  H  H192  1  0.934000  0.755900  0.257600  1.0
  H  H193  1  0.434000  0.257600  0.501700  1.0
  H  H194  1  0.934000  0.501700  0.244100  1.0
  H  H195  1  0.572300  0.822700  0.471800  1.0
  H  H196  1  0.072300  0.471800  0.649100  1.0
  H  H197  1  0.572300  0.649100  0.177300  1.0
  H  H198  1  0.072300  0.177300  0.528200  1.0
  H  H199  1  0.572300  0.528200  0.350900  1.0
  H  H200  1  0.072300  0.350900  0.822700  1.0
  H  H201  1  0.427700  0.177300  0.528200  1.0
  H  H202  1  0.927700  0.528200  0.350900  1.0
  H  H203  1  0.427700  0.350900  0.822700  1.0
  H  H204  1  0.927700  0.822700  0.471800  1.0
  H  H205  1  0.427700  0.471800  0.649100  1.0
  H  H206  1  0.927700  0.649100  0.177300  1.0
  H  H207  1  0.398700  0.827300  0.243100  1.0
  H  H208  1  0.898700  0.243100  0.415800  1.0
  H  H209  1  0.398700  0.415800  0.172700  1.0
  H  H210  1  0.898700  0.172700  0.756900  1.0
  H  H211  1  0.398700  0.756900  0.584200  1.0
  H  H212  1  0.898700  0.584200  0.827300  1.0
  H  H213  1  0.601300  0.172700  0.756900  1.0
  H  H214  1  0.101300  0.756900  0.584200  1.0
  H  H215  1  0.601300  0.584200  0.827300  1.0
  H  H216  1  0.101300  0.827300  0.243100  1.0
  H  H217  1  0.601300  0.243100  0.415800  1.0
  H  H218  1  0.101300  0.415800  0.172700  1.0
  H  H219  1  0.309500  0.863200  0.200000  1.0
  H  H220  1  0.809500  0.200000  0.336800  1.0
  H  H221  1  0.309500  0.336800  0.136800  1.0
  H  H222  1  0.809500  0.136800  0.800000  1.0
  H  H223  1  0.309500  0.800000  0.663200  1.0
  H  H224  1  0.809500  0.663200  0.863200  1.0
  H  H225  1  0.690500  0.136800  0.800000  1.0
  H  H226  1  0.190500  0.800000  0.663200  1.0
  H  H227  1  0.690500  0.663200  0.863200  1.0
  H  H228  1  0.190500  0.863200  0.200000  1.0
  H  H229  1  0.690500  0.200000  0.336800  1.0
  H  H230  1  0.190500  0.336800  0.136800  1.0
  H  H231  1  0.348800  0.035800  0.322800  1.0
  H  H232  1  0.848800  0.322800  0.287000  1.0
  H  H233  1  0.348800  0.287000  0.964200  1.0
  H  H234  1  0.848800  0.964200  0.677200  1.0
  H  H235  1  0.348800  0.677200  0.713000  1.0
  H  H236  1  0.848800  0.713000  0.035800  1.0
  H  H237  1  0.651200  0.964200  0.677200  1.0
  H  H238  1  0.151200  0.677200  0.713000  1.0
  H  H239  1  0.651200  0.713000  0.035800  1.0
  H  H240  1  0.151200  0.035800  0.322800  1.0
  H  H241  1  0.651200  0.322800  0.287000  1.0
  H  H242  1  0.151200  0.287000  0.964200  1.0
  H  H243  1  0.433000  0.011600  0.362800  1.0
  H  H244  1  0.933000  0.362800  0.351200  1.0
  H  H245  1  0.433000  0.351200  0.988400  1.0
  H  H246  1  0.933000  0.988400  0.637200  1.0
  H  H247  1  0.433000  0.637200  0.648800  1.0
  H  H248  1  0.933000  0.648800  0.011600  1.0
  H  H249  1  0.567000  0.988400  0.637200  1.0
  H  H250  1  0.067000  0.637200  0.648800  1.0
  H  H251  1  0.567000  0.648800  0.011600  1.0
  H  H252  1  0.067000  0.011600  0.362800  1.0
  H  H253  1  0.567000  0.362800  0.351200  1.0
  H  H254  1  0.067000  0.351200  0.988400  1.0
  H  H255  1  0.484600  0.958900  0.535600  1.0
  H  H256  1  0.984600  0.535600  0.576700  1.0
  H  H257  1  0.484600  0.576700  0.041100  1.0
  H  H258  1  0.984600  0.041100  0.464400  1.0
  H  H259  1  0.484600  0.464400  0.423300  1.0
  H  H260  1  0.984600  0.423300  0.958900  1.0
  H  H261  1  0.515400  0.041100  0.464400  1.0
  H  H262  1  0.015400  0.464400  0.423300  1.0
  H  H263  1  0.515400  0.423300  0.958900  1.0
  H  H264  1  0.015400  0.958900  0.535600  1.0
  H  H265  1  0.515400  0.535600  0.576700  1.0
  H  H266  1  0.015400  0.576700  0.041100  1.0
  H  H267  1  0.559300  0.937700  0.517200  1.0
  H  H268  1  0.059300  0.517200  0.579500  1.0
  H  H269  1  0.559300  0.579500  0.062300  1.0
  H  H270  1  0.059300  0.062300  0.482800  1.0
  H  H271  1  0.559300  0.482800  0.420500  1.0
  H  H272  1  0.059300  0.420500  0.937700  1.0
  H  H273  1  0.440700  0.062300  0.482800  1.0
  H  H274  1  0.940700  0.482800  0.420500  1.0
  H  H275  1  0.440700  0.420500  0.937700  1.0
  H  H276  1  0.940700  0.937700  0.517200  1.0
  H  H277  1  0.440700  0.517200  0.579500  1.0
  H  H278  1  0.940700  0.579500  0.062300  1.0
  H  H279  1  0.509600  0.894200  0.528600  1.0
  H  H280  1  0.009600  0.528600  0.634400  1.0
  H  H281  1  0.509600  0.634400  0.105800  1.0
  H  H282  1  0.009600  0.105800  0.471400  1.0
  H  H283  1  0.509600  0.471400  0.365600  1.0
  H  H284  1  0.009600  0.365600  0.894200  1.0
  H  H285  1  0.490400  0.105800  0.471400  1.0
  H  H286  1  0.990400  0.471400  0.365600  1.0
  H  H287  1  0.490400  0.365600  0.894200  1.0
  H  H288  1  0.990400  0.894200  0.528600  1.0
  H  H289  1  0.490400  0.528600  0.634400  1.0
  H  H290  1  0.990400  0.634400  0.105800  1.0
  Pd  Pd291  1  0.250000  0.982770  0.220480  1.0
  Pd  Pd292  1  0.750000  0.220480  0.237710  1.0
  Pd  Pd293  1  0.250000  0.237710  0.017230  1.0
  Pd  Pd294  1  0.750000  0.017230  0.779520  1.0
  Pd  Pd295  1  0.250000  0.779520  0.762290  1.0
  Pd  Pd296  1  0.750000  0.762290  0.982770  1.0
  C  C297  1  0.250000  0.122200  0.243600  1.0
  C  C298  1  0.750000  0.243600  0.121400  1.0
  C  C299  1  0.250000  0.121400  0.877800  1.0
  C  C300  1  0.750000  0.877800  0.756400  1.0
  C  C301  1  0.250000  0.756400  0.878600  1.0
  C  C302  1  0.750000  0.878600  0.122200  1.0
  C  C303  1  0.186100  0.025500  0.192900  1.0
  C  C304  1  0.686100  0.192900  0.167400  1.0
  C  C305  1  0.186100  0.167400  0.974500  1.0
  C  C306  1  0.686100  0.974500  0.807100  1.0
  C  C307  1  0.186100  0.807100  0.832600  1.0
  C  C308  1  0.686100  0.832600  0.025500  1.0
  C  C309  1  0.813900  0.974500  0.807100  1.0
  C  C310  1  0.313900  0.807100  0.832600  1.0
  C  C311  1  0.813900  0.832600  0.025500  1.0
  C  C312  1  0.313900  0.025500  0.192900  1.0
  C  C313  1  0.813900  0.192900  0.167400  1.0
  C  C314  1  0.313900  0.167400  0.974500  1.0
  C  C315  1  0.144800  0.104800  0.181200  1.0
  C  C316  1  0.644800  0.181200  0.076400  1.0
  C  C317  1  0.144800  0.076400  0.895200  1.0
  C  C318  1  0.644800  0.895200  0.818800  1.0
  C  C319  1  0.144800  0.818800  0.923600  1.0
  C  C320  1  0.644800  0.923600  0.104800  1.0
  C  C321  1  0.855200  0.895200  0.818800  1.0
  C  C322  1  0.355200  0.818800  0.923600  1.0
  C  C323  1  0.855200  0.923600  0.104800  1.0
  C  C324  1  0.355200  0.104800  0.181200  1.0
  C  C325  1  0.855200  0.181200  0.076400  1.0
  C  C326  1  0.355200  0.076400  0.895200  1.0
  C  C327  1  0.110300  0.054500  0.146800  1.0
  C  C328  1  0.610300  0.146800  0.092300  1.0
  C  C329  1  0.110300  0.092300  0.945500  1.0
  C  C330  1  0.610300  0.945500  0.853200  1.0
  C  C331  1  0.110300  0.853200  0.907700  1.0
  C  C332  1  0.610300  0.907700  0.054500  1.0
  C  C333  1  0.889700  0.945500  0.853200  1.0
  C  C334  1  0.389700  0.853200  0.907700  1.0
  C  C335  1  0.889700  0.907700  0.054500  1.0
  C  C336  1  0.389700  0.054500  0.146800  1.0
  C  C337  1  0.889700  0.146800  0.092300  1.0
  C  C338  1  0.389700  0.092300  0.945500  1.0
  C  C339  1  0.112100  0.938700  0.121300  1.0
  C  C340  1  0.612100  0.121300  0.182600  1.0
  C  C341  1  0.112100  0.182600  0.061300  1.0
  C  C342  1  0.612100  0.061300  0.878700  1.0
  C  C343  1  0.112100  0.878700  0.817400  1.0
  C  C344  1  0.612100  0.817400  0.938700  1.0
  C  C345  1  0.887900  0.061300  0.878700  1.0
  C  C346  1  0.387900  0.878700  0.817400  1.0
  C  C347  1  0.887900  0.817400  0.938700  1.0
  C  C348  1  0.387900  0.938700  0.121300  1.0
  C  C349  1  0.887900  0.121300  0.182600  1.0
  C  C350  1  0.387900  0.182600  0.061300  1.0
  C  C351  1  0.051300  0.923300  0.150200  1.0
  C  C352  1  0.551300  0.150200  0.226900  1.0
  C  C353  1  0.051300  0.226900  0.076700  1.0
  C  C354  1  0.551300  0.076700  0.849800  1.0
  C  C355  1  0.051300  0.849800  0.773100  1.0
  C  C356  1  0.551300  0.773100  0.923300  1.0
  C  C357  1  0.948700  0.076700  0.849800  1.0
  C  C358  1  0.448700  0.849800  0.773100  1.0
  C  C359  1  0.948700  0.773100  0.923300  1.0
  C  C360  1  0.448700  0.923300  0.150200  1.0
  C  C361  1  0.948700  0.150200  0.226900  1.0
  C  C362  1  0.448700  0.226900  0.076700  1.0
  C  C363  1  0.036800  0.865600  0.132500  1.0
  C  C364  1  0.536800  0.132500  0.266900  1.0
  C  C365  1  0.036800  0.266900  0.134400  1.0
  C  C366  1  0.536800  0.134400  0.867500  1.0
  C  C367  1  0.036800  0.867500  0.733100  1.0
  C  C368  1  0.536800  0.733100  0.865600  1.0
  C  C369  1  0.963200  0.134400  0.867500  1.0
  C  C370  1  0.463200  0.867500  0.733100  1.0
  C  C371  1  0.963200  0.733100  0.865600  1.0
  C  C372  1  0.463200  0.865600  0.132500  1.0
  C  C373  1  0.963200  0.132500  0.266900  1.0
  C  C374  1  0.463200  0.266900  0.134400  1.0
  C  C375  1  0.978900  0.853200  0.158500  1.0
  C  C376  1  0.478900  0.158500  0.305300  1.0
  C  C377  1  0.978900  0.305300  0.146800  1.0
  C  C378  1  0.478900  0.146800  0.841500  1.0
  C  C379  1  0.978900  0.841500  0.694700  1.0
  C  C380  1  0.478900  0.694700  0.853200  1.0
  C  C381  1  0.021100  0.146800  0.841500  1.0
  C  C382  1  0.521100  0.841500  0.694700  1.0
  C  C383  1  0.021100  0.694700  0.853200  1.0
  C  C384  1  0.521100  0.853200  0.158500  1.0
  C  C385  1  0.021100  0.158500  0.305300  1.0
  C  C386  1  0.521100  0.305300  0.146800  1.0
  C  C387  1  0.965400  0.788700  0.134400  1.0
  C  C388  1  0.465400  0.134400  0.345700  1.0
  C  C389  1  0.965400  0.345700  0.211300  1.0
  C  C390  1  0.465400  0.211300  0.865600  1.0
  C  C391  1  0.965400  0.865600  0.654300  1.0
  C  C392  1  0.465400  0.654300  0.788700  1.0
  C  C393  1  0.034600  0.211300  0.865600  1.0
  C  C394  1  0.534600  0.865600  0.654300  1.0
  C  C395  1  0.034600  0.654300  0.788700  1.0
  C  C396  1  0.534600  0.788700  0.134400  1.0
  C  C397  1  0.034600  0.134400  0.345700  1.0
  C  C398  1  0.534600  0.345700  0.211300  1.0
  C  C399  1  0.909000  0.777100  0.156900  1.0
  C  C400  1  0.409000  0.156900  0.379800  1.0
  C  C401  1  0.909000  0.379800  0.222900  1.0
  C  C402  1  0.409000  0.222900  0.843100  1.0
  C  C403  1  0.909000  0.843100  0.620200  1.0
  C  C404  1  0.409000  0.620200  0.777100  1.0
  C  C405  1  0.091000  0.222900  0.843100  1.0
  C  C406  1  0.591000  0.843100  0.620200  1.0
  C  C407  1  0.091000  0.620200  0.777100  1.0
  C  C408  1  0.591000  0.777100  0.156900  1.0
  C  C409  1  0.091000  0.156900  0.379800  1.0
  C  C410  1  0.591000  0.379800  0.222900  1.0
  C  C411  1  0.869700  0.822700  0.200400  1.0
  C  C412  1  0.369700  0.200400  0.377700  1.0
  C  C413  1  0.869700  0.377700  0.177300  1.0
  C  C414  1  0.369700  0.177300  0.799600  1.0
  C  C415  1  0.869700  0.799600  0.622300  1.0
  C  C416  1  0.369700  0.622300  0.822700  1.0
  C  C417  1  0.130300  0.177300  0.799600  1.0
  C  C418  1  0.630300  0.799600  0.622300  1.0
  C  C419  1  0.130300  0.622300  0.822700  1.0
  C  C420  1  0.630300  0.822700  0.200400  1.0
  C  C421  1  0.130300  0.200400  0.377700  1.0
  C  C422  1  0.630300  0.377700  0.177300  1.0
  C  C423  1  0.884800  0.884300  0.226000  1.0
  C  C424  1  0.384800  0.226000  0.341700  1.0
  C  C425  1  0.884800  0.341700  0.115700  1.0
  C  C426  1  0.384800  0.115700  0.774000  1.0
  C  C427  1  0.884800  0.774000  0.658300  1.0
  C  C428  1  0.384800  0.658300  0.884300  1.0
  C  C429  1  0.115200  0.115700  0.774000  1.0
  C  C430  1  0.615200  0.774000  0.658300  1.0
  C  C431  1  0.115200  0.658300  0.884300  1.0
  C  C432  1  0.615200  0.884300  0.226000  1.0
  C  C433  1  0.115200  0.226000  0.341700  1.0
  C  C434  1  0.615200  0.341700  0.115700  1.0
  C  C435  1  0.944200  0.899800  0.200800  1.0
  C  C436  1  0.444200  0.200800  0.301000  1.0
  C  C437  1  0.944200  0.301000  0.100200  1.0
  C  C438  1  0.444200  0.100200  0.799200  1.0
  C  C439  1  0.944200  0.799200  0.699000  1.0
  C  C440  1  0.444200  0.699000  0.899800  1.0
  C  C441  1  0.055800  0.100200  0.799200  1.0
  C  C442  1  0.555800  0.799200  0.699000  1.0
  C  C443  1  0.055800  0.699000  0.899800  1.0
  C  C444  1  0.555800  0.899800  0.200800  1.0
  C  C445  1  0.055800  0.200800  0.301000  1.0
  C  C446  1  0.555800  0.301000  0.100200  1.0
  C  C447  1  0.959300  0.957800  0.221300  1.0
  C  C448  1  0.459300  0.221300  0.263500  1.0
  C  C449  1  0.959300  0.263500  0.042200  1.0
  C  C450  1  0.459300  0.042200  0.778700  1.0
  C  C451  1  0.959300  0.778700  0.736500  1.0
  C  C452  1  0.459300  0.736500  0.957800  1.0
  C  C453  1  0.040700  0.042200  0.778700  1.0
  C  C454  1  0.540700  0.778700  0.736500  1.0
  C  C455  1  0.040700  0.736500  0.957800  1.0
  C  C456  1  0.540700  0.957800  0.221300  1.0
  C  C457  1  0.040700  0.221300  0.263500  1.0
  C  C458  1  0.540700  0.263500  0.042200  1.0
  C  C459  1  0.014500  0.972700  0.198800  1.0
  C  C460  1  0.514500  0.198800  0.226100  1.0
  C  C461  1  0.014500  0.226100  0.027300  1.0
  C  C462  1  0.514500  0.027300  0.801200  1.0
  C  C463  1  0.014500  0.801200  0.773900  1.0
  C  C464  1  0.514500  0.773900  0.972700  1.0
  C  C465  1  0.985500  0.027300  0.801200  1.0
  C  C466  1  0.485500  0.801200  0.773900  1.0
  C  C467  1  0.985500  0.773900  0.972700  1.0
  C  C468  1  0.485500  0.972700  0.198800  1.0
  C  C469  1  0.985500  0.198800  0.226100  1.0
  C  C470  1  0.485500  0.226100  0.027300  1.0
  C  C471  1  0.653900  0.725500  0.412000  1.0
  C  C472  1  0.153900  0.412000  0.686500  1.0
  C  C473  1  0.653900  0.686500  0.274500  1.0
  C  C474  1  0.153900  0.274500  0.588000  1.0
  C  C475  1  0.653900  0.588000  0.313500  1.0
  C  C476  1  0.153900  0.313500  0.725500  1.0
  C  C477  1  0.346100  0.274500  0.588000  1.0
  C  C478  1  0.846100  0.588000  0.313500  1.0
  C  C479  1  0.346100  0.313500  0.725500  1.0
  C  C480  1  0.846100  0.725500  0.412000  1.0
  C  C481  1  0.346100  0.412000  0.686500  1.0
  C  C482  1  0.846100  0.686500  0.274500  1.0
  C  C483  1  0.614100  0.758400  0.384400  1.0
  C  C484  1  0.114100  0.384400  0.626000  1.0
  C  C485  1  0.614100  0.626000  0.241600  1.0
  C  C486  1  0.114100  0.241600  0.615600  1.0
  C  C487  1  0.614100  0.615600  0.374000  1.0
  C  C488  1  0.114100  0.374000  0.758400  1.0
  C  C489  1  0.385900  0.241600  0.615600  1.0
  C  C490  1  0.885900  0.615600  0.374000  1.0
  C  C491  1  0.385900  0.374000  0.758400  1.0
  C  C492  1  0.885900  0.758400  0.384400  1.0
  C  C493  1  0.385900  0.384400  0.626000  1.0
  C  C494  1  0.885900  0.626000  0.241600  1.0
  C  C495  1  0.610900  0.741800  0.321900  1.0
  C  C496  1  0.110900  0.321900  0.580100  1.0
  C  C497  1  0.610900  0.580100  0.258200  1.0
  C  C498  1  0.110900  0.258200  0.678100  1.0
  C  C499  1  0.610900  0.678100  0.419900  1.0
  C  C500  1  0.110900  0.419900  0.741800  1.0
  C  C501  1  0.389100  0.258200  0.678100  1.0
  C  C502  1  0.889100  0.678100  0.419900  1.0
  C  C503  1  0.389100  0.419900  0.741800  1.0
  C  C504  1  0.889100  0.741800  0.321900  1.0
  C  C505  1  0.389100  0.321900  0.580100  1.0
  C  C506  1  0.889100  0.580100  0.258200  1.0
  C  C507  1  0.569000  0.769700  0.301000  1.0
  C  C508  1  0.069000  0.301000  0.531300  1.0
  C  C509  1  0.569000  0.531300  0.230300  1.0
  C  C510  1  0.069000  0.230300  0.699000  1.0
  C  C511  1  0.569000  0.699000  0.468700  1.0
  C  C512  1  0.069000  0.468700  0.769700  1.0
  C  C513  1  0.431000  0.230300  0.699000  1.0
  C  C514  1  0.931000  0.699000  0.468700  1.0
  C  C515  1  0.431000  0.468700  0.769700  1.0
  C  C516  1  0.931000  0.769700  0.301000  1.0
  C  C517  1  0.431000  0.301000  0.531300  1.0
  C  C518  1  0.931000  0.531300  0.230300  1.0
  C  C519  1  0.532200  0.816600  0.342100  1.0
  C  C520  1  0.032200  0.342100  0.525500  1.0
  C  C521  1  0.532200  0.525500  0.183400  1.0
  C  C522  1  0.032200  0.183400  0.657900  1.0
  C  C523  1  0.532200  0.657900  0.474500  1.0
  C  C524  1  0.032200  0.474500  0.816600  1.0
  C  C525  1  0.467800  0.183400  0.657900  1.0
  C  C526  1  0.967800  0.657900  0.474500  1.0
  C  C527  1  0.467800  0.474500  0.816600  1.0
  C  C528  1  0.967800  0.816600  0.342100  1.0
  C  C529  1  0.467800  0.342100  0.525500  1.0
  C  C530  1  0.967800  0.525500  0.183400  1.0
  C  C531  1  0.530900  0.840500  0.407800  1.0
  C  C532  1  0.030900  0.407800  0.567300  1.0
  C  C533  1  0.530900  0.567300  0.159500  1.0
  C  C534  1  0.030900  0.159500  0.592200  1.0
  C  C535  1  0.530900  0.592200  0.432700  1.0
  C  C536  1  0.030900  0.432700  0.840500  1.0
  C  C537  1  0.469100  0.159500  0.592200  1.0
  C  C538  1  0.969100  0.592200  0.432700  1.0
  C  C539  1  0.469100  0.432700  0.840500  1.0
  C  C540  1  0.969100  0.840500  0.407800  1.0
  C  C541  1  0.469100  0.407800  0.567300  1.0
  C  C542  1  0.969100  0.567300  0.159500  1.0
  C  C543  1  0.571600  0.810200  0.428700  1.0
  C  C544  1  0.071600  0.428700  0.618500  1.0
  C  C545  1  0.571600  0.618500  0.189800  1.0
  C  C546  1  0.071600  0.189800  0.571300  1.0
  C  C547  1  0.571600  0.571300  0.381500  1.0
  C  C548  1  0.071600  0.381500  0.810200  1.0
  C  C549  1  0.428400  0.189800  0.571300  1.0
  C  C550  1  0.928400  0.571300  0.381500  1.0
  C  C551  1  0.428400  0.381500  0.810200  1.0
  C  C552  1  0.928400  0.810200  0.428700  1.0
  C  C553  1  0.428400  0.428700  0.618500  1.0
  C  C554  1  0.928400  0.618500  0.189800  1.0
  C  C555  1  0.488200  0.902500  0.336700  1.0
  C  C556  1  0.988200  0.336700  0.434200  1.0
  C  C557  1  0.488200  0.434200  0.097500  1.0
  C  C558  1  0.988200  0.097500  0.663300  1.0
  C  C559  1  0.488200  0.663300  0.565800  1.0
  C  C560  1  0.988200  0.565800  0.902500  1.0
  C  C561  1  0.511800  0.097500  0.663300  1.0
  C  C562  1  0.011800  0.663300  0.565800  1.0
  C  C563  1  0.511800  0.565800  0.902500  1.0
  C  C564  1  0.011800  0.902500  0.336700  1.0
  C  C565  1  0.511800  0.336700  0.434200  1.0
  C  C566  1  0.011800  0.434200  0.097500  1.0
  C  C567  1  0.426200  0.917900  0.307700  1.0
  C  C568  1  0.926200  0.307700  0.389800  1.0
  C  C569  1  0.426200  0.389800  0.082100  1.0
  C  C570  1  0.926200  0.082100  0.692300  1.0
  C  C571  1  0.426200  0.692300  0.610200  1.0
  C  C572  1  0.926200  0.610200  0.917900  1.0
  C  C573  1  0.573800  0.082100  0.692300  1.0
  C  C574  1  0.073800  0.692300  0.610200  1.0
  C  C575  1  0.573800  0.610200  0.917900  1.0
  C  C576  1  0.073800  0.917900  0.307700  1.0
  C  C577  1  0.573800  0.307700  0.389800  1.0
  C  C578  1  0.073800  0.389800  0.082100  1.0
  C  C579  1  0.389800  0.870400  0.259000  1.0
  C  C580  1  0.889800  0.259000  0.388600  1.0
  C  C581  1  0.389800  0.388600  0.129600  1.0
  C  C582  1  0.889800  0.129600  0.741000  1.0
  C  C583  1  0.389800  0.741000  0.611400  1.0
  C  C584  1  0.889800  0.611400  0.870400  1.0
  C  C585  1  0.610200  0.129600  0.741000  1.0
  C  C586  1  0.110200  0.741000  0.611400  1.0
  C  C587  1  0.610200  0.611400  0.870400  1.0
  C  C588  1  0.110200  0.870400  0.259000  1.0
  C  C589  1  0.610200  0.259000  0.388600  1.0
  C  C590  1  0.110200  0.388600  0.129600  1.0
  C  C591  1  0.335600  0.892800  0.233600  1.0
  C  C592  1  0.835600  0.233600  0.340800  1.0
  C  C593  1  0.335600  0.340800  0.107200  1.0
  C  C594  1  0.835600  0.107200  0.766400  1.0
  C  C595  1  0.335600  0.766400  0.659200  1.0
  C  C596  1  0.835600  0.659200  0.892800  1.0
  C  C597  1  0.664400  0.107200  0.766400  1.0
  C  C598  1  0.164400  0.766400  0.659200  1.0
  C  C599  1  0.664400  0.659200  0.892800  1.0
  C  C600  1  0.164400  0.892800  0.233600  1.0
  C  C601  1  0.664400  0.233600  0.340800  1.0
  C  C602  1  0.164400  0.340800  0.107200  1.0
  C  C603  1  0.360000  0.992900  0.305000  1.0
  C  C604  1  0.860000  0.305000  0.312100  1.0
  C  C605  1  0.360000  0.312100  0.007100  1.0
  C  C606  1  0.860000  0.007100  0.695000  1.0
  C  C607  1  0.360000  0.695000  0.687900  1.0
  C  C608  1  0.860000  0.687900  0.992900  1.0
  C  C609  1  0.640000  0.007100  0.695000  1.0
  C  C610  1  0.140000  0.695000  0.687900  1.0
  C  C611  1  0.640000  0.687900  0.992900  1.0
  C  C612  1  0.140000  0.992900  0.305000  1.0
  C  C613  1  0.640000  0.305000  0.312100  1.0
  C  C614  1  0.140000  0.312100  0.007100  1.0
  C  C615  1  0.409000  0.979100  0.329500  1.0
  C  C616  1  0.909000  0.329500  0.350400  1.0
  C  C617  1  0.409000  0.350400  0.020900  1.0
  C  C618  1  0.909000  0.020900  0.670500  1.0
  C  C619  1  0.409000  0.670500  0.649600  1.0
  C  C620  1  0.909000  0.649600  0.979100  1.0
  C  C621  1  0.591000  0.020900  0.670500  1.0
  C  C622  1  0.091000  0.670500  0.649600  1.0
  C  C623  1  0.591000  0.649600  0.979100  1.0
  C  C624  1  0.091000  0.979100  0.329500  1.0
  C  C625  1  0.591000  0.329500  0.350400  1.0
  C  C626  1  0.091000  0.350400  0.020900  1.0
  C  C627  1  0.514000  0.923000  0.512300  1.0
  C  C628  1  0.014000  0.512300  0.589300  1.0
  C  C629  1  0.514000  0.589300  0.077000  1.0
  C  C630  1  0.014000  0.077000  0.487700  1.0
  C  C631  1  0.514000  0.487700  0.410700  1.0
  C  C632  1  0.014000  0.410700  0.923000  1.0
  C  C633  1  0.486000  0.077000  0.487700  1.0
  C  C634  1  0.986000  0.487700  0.410700  1.0
  C  C635  1  0.486000  0.410700  0.923000  1.0
  C  C636  1  0.986000  0.923000  0.512300  1.0
  C  C637  1  0.486000  0.512300  0.589300  1.0
  C  C638  1  0.986000  0.589300  0.077000  1.0
  I  I639  1  0.392000  0.525200  0.313100  1
  I  I640  1  0.892000  0.313100  0.787900  1
  I  I641  1  0.392000  0.787900  0.474800  1
  I  I642  1  0.892000  0.474800  0.686900  1
  I  I643  1  0.392000  0.686900  0.212100  1
  I  I644  1  0.892000  0.212100  0.525200  1
  I  I645  1  0.608000  0.474800  0.686900  1
  I  I646  1  0.108000  0.686900  0.212100  1
  I  I647  1  0.608000  0.212100  0.525200  1
  I  I648  1  0.108000  0.525200  0.313100  1
  I  I649  1  0.608000  0.313100  0.787900  1
  I  I650  1  0.108000  0.787900  0.474800  1
  I  I651  1  0.353100  0.412000  0.294800  1
  I  I652  1  0.853100  0.294800  0.882800  1
  I  I653  1  0.353100  0.882800  0.588000  1
  I  I654  1  0.853100  0.588000  0.705200  1
  I  I655  1  0.353100  0.705200  0.117200  1
  I  I656  1  0.853100  0.117200  0.412000  1
  I  I657  1  0.646900  0.588000  0.705200  1
  I  I658  1  0.146900  0.705200  0.117200  1
  I  I659  1  0.646900  0.117200  0.412000  1
  I  I660  1  0.146900  0.412000  0.294800  1
  I  I661  1  0.646900  0.294800  0.882800  1
  I  I662  1  0.146900  0.882800  0.588000  1
  I  I663  1  0.250000  0.960400  0.029200  1
  I  I664  1  0.750000  0.029200  0.068800  1
  I  I665  1  0.250000  0.068800  0.039600  1
  I  I666  1  0.750000  0.039600  0.970800  1
  I  I667  1  0.250000  0.970800  0.931200  1
  I  I668  1  0.750000  0.931200  0.960400  1
  I  I669  1  0.445500  0.666667  0.333333  1
  I  I670  1  0.945500  0.333333  0.666667  1
  I  I671  1  0.554500  0.333333  0.666667  1
  I  I672  1  0.054500  0.666667  0.333333  1
  I  I673  1  0.366200  0.567400  0.299300  1
  I  I674  1  0.866200  0.299300  0.731900  1
  I  I675  1  0.366200  0.731900  0.432600  1
  I  I676  1  0.866200  0.432600  0.700700  1
  I  I677  1  0.366200  0.700700  0.268100  1
  I  I678  1  0.866200  0.268100  0.567400  1
  I  I679  1  0.633800  0.432600  0.700700  1
  I  I680  1  0.133800  0.700700  0.268100  1
  I  I681  1  0.633800  0.268100  0.567400  1
  I  I682  1  0.133800  0.567400  0.299300  1
  I  I683  1  0.633800  0.299300  0.731900  1
  I  I684  1  0.133800  0.731900  0.432600  1
  N  N685  1  0.133500  0.002900  0.154000  1.0
  N  N686  1  0.633500  0.154000  0.151100  1.0
  N  N687  1  0.133500  0.151100  0.997100  1.0
  N  N688  1  0.633500  0.997100  0.846000  1.0
  N  N689  1  0.133500  0.846000  0.848900  1.0
  N  N690  1  0.633500  0.848900  0.002900  1.0
  N  N691  1  0.866500  0.997100  0.846000  1.0
  N  N692  1  0.366500  0.846000  0.848900  1.0
  N  N693  1  0.866500  0.848900  0.002900  1.0
  N  N694  1  0.366500  0.002900  0.154000  1.0
  N  N695  1  0.866500  0.154000  0.151100  1.0
  N  N696  1  0.366500  0.151100  0.997100  1.0
  N  N697  1  0.192600  0.085100  0.208000  1.0
  N  N698  1  0.692600  0.208000  0.122900  1.0
  N  N699  1  0.192600  0.122900  0.914900  1.0
  N  N700  1  0.692600  0.914900  0.792000  1.0
  N  N701  1  0.192600  0.792000  0.877100  1.0
  N  N702  1  0.692600  0.877100  0.085100  1.0
  N  N703  1  0.807400  0.914900  0.792000  1.0
  N  N704  1  0.307400  0.792000  0.877100  1.0
  N  N705  1  0.807400  0.877100  0.085100  1.0
  N  N706  1  0.307400  0.085100  0.208000  1.0
  N  N707  1  0.807400  0.208000  0.122900  1.0
  N  N708  1  0.307400  0.122900  0.914900  1.0
  N  N709  1  0.324300  0.951500  0.256900  1.0
  N  N710  1  0.824300  0.256900  0.305400  1.0
  N  N711  1  0.324300  0.305400  0.048500  1.0
  N  N712  1  0.824300  0.048500  0.743100  1.0
  N  N713  1  0.324300  0.743100  0.694600  1.0
  N  N714  1  0.824300  0.694600  0.951500  1.0
  N  N715  1  0.675700  0.048500  0.743100  1.0
  N  N716  1  0.175700  0.743100  0.694600  1.0
  N  N717  1  0.675700  0.694600  0.951500  1.0
  N  N718  1  0.175700  0.951500  0.256900  1.0
  N  N719  1  0.675700  0.256900  0.305400  1.0
  N  N720  1  0.175700  0.305400  0.048500  1.0
  O  O721  1  0.250000  0.932000  0.396000  1
  O  O722  1  0.750000  0.396000  0.464000  1
  O  O723  1  0.250000  0.464000  0.068000  1
  O  O724  1  0.750000  0.068000  0.604000  1
  O  O725  1  0.250000  0.604000  0.536000  1
  O  O726  1  0.750000  0.536000  0.932000  1
  O  O727  1  0.750000  0.845000  0.358000  1
  O  O728  1  0.250000  0.358000  0.513000  1
  O  O729  1  0.750000  0.513000  0.155000  1
  O  O730  1  0.250000  0.155000  0.642000  1
  O  O731  1  0.750000  0.642000  0.487000  1
  O  O732  1  0.250000  0.487000  0.845000  1
  O  O733  1  0.250000  0.480000  0.271000  1
  O  O734  1  0.750000  0.271000  0.791000  1
  O  O735  1  0.250000  0.791000  0.520000  1
  O  O736  1  0.750000  0.520000  0.729000  1
  O  O737  1  0.250000  0.729000  0.209000  1
  O  O738  1  0.750000  0.209000  0.480000  1
  O  O739  1  0.495700  0.890000  0.444900  1.0
  O  O740  1  0.995700  0.444900  0.554900  1.0
  O  O741  1  0.495700  0.554900  0.110000  1.0
  O  O742  1  0.995700  0.110000  0.555100  1.0
  O  O743  1  0.495700  0.555100  0.445100  1.0
  O  O744  1  0.995700  0.445100  0.890000  1.0
  O  O745  1  0.504300  0.110000  0.555100  1.0
  O  O746  1  0.004300  0.555100  0.445100  1.0
  O  O747  1  0.504300  0.445100  0.890000  1.0
  O  O748  1  0.004300  0.890000  0.444900  1.0
  O  O749  1  0.504300  0.444900  0.554900  1.0
  O  O750  1  0.004300  0.554900  0.110000  1.0
  O  O751  1  0.482100  0.841400  0.317800  1.0
  O  O752  1  0.982100  0.317800  0.476400  1.0
  O  O753  1  0.482100  0.476400  0.158600  1.0
  O  O754  1  0.982100  0.158600  0.682200  1.0
  O  O755  1  0.482100  0.682200  0.523600  1.0
  O  O756  1  0.982100  0.523600  0.841400  1.0
  O  O757  1  0.517900  0.158600  0.682200  1.0
  O  O758  1  0.017900  0.682200  0.523600  1.0
  O  O759  1  0.517900  0.523600  0.841400  1.0
  O  O760  1  0.017900  0.841400  0.317800  1.0
  O  O761  1  0.517900  0.317800  0.476400  1.0
  O  O762  1  0.017900  0.476400  0.158600  1.0
  O  O763  1  0.529300  0.938600  0.364900  1.0
  O  O764  1  0.029300  0.364900  0.426300  1.0
  O  O765  1  0.529300  0.426300  0.061400  1.0
  O  O766  1  0.029300  0.061400  0.635100  1.0
  O  O767  1  0.529300  0.635100  0.573700  1.0
  O  O768  1  0.029300  0.573700  0.938600  1.0
  O  O769  1  0.470700  0.061400  0.635100  1.0
  O  O770  1  0.970700  0.635100  0.573700  1.0
  O  O771  1  0.470700  0.573700  0.938600  1.0
  O  O772  1  0.970700  0.938600  0.364900  1.0
  O  O773  1  0.470700  0.364900  0.426300  1.0
  O  O774  1  0.970700  0.426300  0.061400  1.0
  F  F775  1  0.250000  0.097000  0.365300  1
  F  F776  1  0.750000  0.365300  0.268300  1
  F  F777  1  0.250000  0.268300  0.903000  1
  F  F778  1  0.750000  0.903000  0.634700  1
  F  F779  1  0.250000  0.634700  0.731700  1
  F  F780  1  0.750000  0.731700  0.097000  1
  F  F781  1  0.250000  0.177800  0.457000  1
  F  F782  1  0.750000  0.457000  0.279200  1
  F  F783  1  0.250000  0.279200  0.822200  1
  F  F784  1  0.750000  0.822200  0.543000  1
  F  F785  1  0.250000  0.543000  0.720800  1
  F  F786  1  0.750000  0.720800  0.177800  1
  F  F787  1  0.250000  0.831100  0.112800  1
  F  F788  1  0.750000  0.112800  0.281700  1
  F  F789  1  0.250000  0.281700  0.168900  1
  F  F790  1  0.750000  0.168900  0.887200  1
  F  F791  1  0.250000  0.887200  0.718300  1
  F  F792  1  0.750000  0.718300  0.831100  1
  F  F793  1  0.250000  0.860000  0.035500  1
  F  F794  1  0.750000  0.035500  0.175500  1
  F  F795  1  0.250000  0.175500  0.140000  1
  F  F796  1  0.750000  0.140000  0.964500  1
  F  F797  1  0.250000  0.964500  0.824500  1
  F  F798  1  0.750000  0.824500  0.860000  1
  F  F799  1  0.427200  0.000000  0.000000  1
  F  F800  1  0.927200  0.000000  0.000000  1
  F  F801  1  0.572800  0.000000  0.000000  1
  F  F802  1  0.072800  0.000000  0.000000  1
  F  F803  1  0.519500  0.019400  0.061900  1
  F  F804  1  0.019500  0.061900  0.042500  1
  F  F805  1  0.519500  0.042500  0.980600  1
  F  F806  1  0.019500  0.980600  0.938100  1
  F  F807  1  0.519500  0.938100  0.957500  1
  F  F808  1  0.019500  0.957500  0.019400  1
  F  F809  1  0.480500  0.980600  0.938100  1
  F  F810  1  0.980500  0.938100  0.957500  1
  F  F811  1  0.480500  0.957500  0.019400  1
  F  F812  1  0.980500  0.019400  0.061900  1
  F  F813  1  0.480500  0.061900  0.042500  1
  F  F814  1  0.980500  0.042500  0.980600  1
  F  F815  1  0.308500  0.098600  0.446800  1.0
  F  F816  1  0.808500  0.446800  0.348200  1.0
  F  F817  1  0.308500  0.348200  0.901400  1.0
  F  F818  1  0.808500  0.901400  0.553200  1.0
  F  F819  1  0.308500  0.553200  0.651800  1.0
  F  F820  1  0.808500  0.651800  0.098600  1.0
  F  F821  1  0.691500  0.901400  0.553200  1.0
  F  F822  1  0.191500  0.553200  0.651800  1.0
  F  F823  1  0.691500  0.651800  0.098600  1.0
  F  F824  1  0.191500  0.098600  0.446800  1.0
  F  F825  1  0.691500  0.446800  0.348200  1.0
  F  F826  1  0.191500  0.348200  0.901400  1.0
  F  F827  1  0.307500  0.783300  0.026100  1.0
  F  F828  1  0.807500  0.026100  0.242800  1.0
  F  F829  1  0.307500  0.242800  0.216700  1.0
  F  F830  1  0.807500  0.216700  0.973900  1.0
  F  F831  1  0.307500  0.973900  0.757200  1.0
  F  F832  1  0.807500  0.757200  0.783300  1.0
  F  F833  1  0.692500  0.216700  0.973900  1.0
  F  F834  1  0.192500  0.973900  0.757200  1.0
  F  F835  1  0.692500  0.757200  0.783300  1.0
  F  F836  1  0.192500  0.783300  0.026100  1.0
  F  F837  1  0.692500  0.026100  0.242800  1.0
  F  F838  1  0.192500  0.242800  0.216700  1.0
