# generated using pymatgen
data_B14H408Pd6C447N56O75F64
_symmetry_space_group_name_H-M   'P 1'
_cell_length_a   20.27200000
_cell_length_b   24.61180000
_cell_length_c   24.61180000
_cell_angle_alpha   120.00000000
_cell_angle_beta   90.00000000
_cell_angle_gamma   90.00000000
_symmetry_Int_Tables_number   1
_chemical_formula_structural   B14H408Pd6C447N56O75F64
_chemical_formula_sum   'B14 H408 Pd6 C447 N56 O75 F64'
_cell_volume   10634.42429171
_cell_formula_units_Z   1
loop_
 _symmetry_equiv_pos_site_id
 _symmetry_equiv_pos_as_xyz
  1  'x, y, z'
loop_
 _atom_site_type_symbol
 _atom_site_label
 _atom_site_symmetry_multiplicity
 _atom_site_fract_x
 _atom_site_fract_y
 _atom_site_fract_z
 _atom_site_occupancy
  B  B1  1  0.750000  0.568800  0.895600  1
  B  B2  1  0.250000  0.895600  0.326800  1
  B  B3  1  0.750000  0.326800  0.431200  1
  B  B4  1  0.250000  0.431200  0.104400  1
  B  B5  1  0.750000  0.104400  0.673200  1
  B  B6  1  0.250000  0.673200  0.568800  1
  B  B7  1  0.750000  0.810300  0.766000  1
  B  B8  1  0.250000  0.766000  0.955700  1
  B  B9  1  0.750000  0.955700  0.189700  1
  B  B10  1  0.250000  0.189700  0.234000  1
  B  B11  1  0.750000  0.234000  0.044300  1
  B  B12  1  0.250000  0.044300  0.810300  1
  B  B13  1  0.000000  0.000000  0.000000  1
  B  B14  1  0.500000  0.000000  0.000000  1
  H  H15  1  0.750000  0.418600  0.841700  1
  H  H16  1  0.250000  0.841700  0.423100  1
  H  H17  1  0.750000  0.423100  0.581400  1
  H  H18  1  0.250000  0.581400  0.158300  1
  H  H19  1  0.750000  0.158300  0.576900  1
  H  H20  1  0.250000  0.576900  0.418600  1
  H  H21  1  0.855100  0.680100  0.992100  1
  H  H22  1  0.355100  0.992100  0.312000  1
  H  H23  1  0.855100  0.312000  0.319900  1
  H  H24  1  0.355100  0.319900  0.007900  1
  H  H25  1  0.855100  0.007900  0.688000  1
  H  H26  1  0.355100  0.688000  0.680100  1
  H  H27  1  0.144900  0.319900  0.007900  1
  H  H28  1  0.644900  0.007900  0.688000  1
  H  H29  1  0.144900  0.688000  0.680100  1
  H  H30  1  0.644900  0.680100  0.992100  1
  H  H31  1  0.144900  0.992100  0.312000  1
  H  H32  1  0.644900  0.312000  0.319900  1
  H  H33  1  0.932300  0.655200  0.046900  1
  H  H34  1  0.432300  0.046900  0.391700  1
  H  H35  1  0.932300  0.391700  0.344800  1
  H  H36  1  0.432300  0.344800  0.953100  1
  H  H37  1  0.932300  0.953100  0.608300  1
  H  H38  1  0.432300  0.608300  0.655200  1
  H  H39  1  0.067700  0.344800  0.953100  1
  H  H40  1  0.567700  0.953100  0.608300  1
  H  H41  1  0.067700  0.608300  0.655200  1
  H  H42  1  0.567700  0.655200  0.046900  1
  H  H43  1  0.067700  0.046900  0.391700  1
  H  H44  1  0.567700  0.391700  0.344800  1
  H  H45  1  0.865100  0.799100  0.211200  1
  H  H46  1  0.365100  0.211200  0.412100  1
  H  H47  1  0.865100  0.412100  0.200900  1
  H  H48  1  0.365100  0.200900  0.788800  1
  H  H49  1  0.865100  0.788800  0.587900  1
  H  H50  1  0.365100  0.587900  0.799100  1
  H  H51  1  0.134900  0.200900  0.788800  1
  H  H52  1  0.634900  0.788800  0.587900  1
  H  H53  1  0.134900  0.587900  0.799100  1
  H  H54  1  0.634900  0.799100  0.211200  1
  H  H55  1  0.134900  0.211200  0.412100  1
  H  H56  1  0.634900  0.412100  0.200900  1
  H  H57  1  0.787900  0.824000  0.156400  1
  H  H58  1  0.287900  0.156400  0.332400  1
  H  H59  1  0.787900  0.332400  0.176000  1
  H  H60  1  0.287900  0.176000  0.843600  1
  H  H61  1  0.787900  0.843600  0.667600  1
  H  H62  1  0.287900  0.667600  0.824000  1
  H  H63  1  0.212100  0.176000  0.843600  1
  H  H64  1  0.712100  0.843600  0.667600  1
  H  H65  1  0.212100  0.667600  0.824000  1
  H  H66  1  0.712100  0.824000  0.156400  1
  H  H67  1  0.212100  0.156400  0.332400  1
  H  H68  1  0.712100  0.332400  0.176000  1
  H  H69  1  0.750000  0.970800  0.056300  1
  H  H70  1  0.250000  0.056300  0.085500  1
  H  H71  1  0.750000  0.085500  0.029200  1
  H  H72  1  0.250000  0.029200  0.943700  1
  H  H73  1  0.750000  0.943700  0.914500  1
  H  H74  1  0.250000  0.914500  0.970800  1
  H  H75  1  0.789500  0.928600  0.992300  1
  H  H76  1  0.289500  0.992300  0.063700  1
  H  H77  1  0.789500  0.063700  0.071400  1
  H  H78  1  0.289500  0.071400  0.007700  1
  H  H79  1  0.789500  0.007700  0.936300  1
  H  H80  1  0.289500  0.936300  0.928600  1
  H  H81  1  0.210500  0.071400  0.007700  1
  H  H82  1  0.710500  0.007700  0.936300  1
  H  H83  1  0.210500  0.936300  0.928600  1
  H  H84  1  0.710500  0.928600  0.992300  1
  H  H85  1  0.210500  0.992300  0.063700  1
  H  H86  1  0.710500  0.063700  0.071400  1
  H  H87  1  0.789500  0.444700  0.906300  1.0
  H  H88  1  0.289500  0.906300  0.461600  1.0
  H  H89  1  0.789500  0.461600  0.555300  1.0
  H  H90  1  0.289500  0.555300  0.093700  1.0
  H  H91  1  0.789500  0.093700  0.538400  1.0
  H  H92  1  0.289500  0.538400  0.444700  1.0
  H  H93  1  0.210500  0.555300  0.093700  1.0
  H  H94  1  0.710500  0.093700  0.538400  1.0
  H  H95  1  0.210500  0.538400  0.444700  1.0
  H  H96  1  0.710500  0.444700  0.906300  1.0
  H  H97  1  0.210500  0.906300  0.461600  1.0
  H  H98  1  0.710500  0.461600  0.555300  1.0
  H  H99  1  0.750000  0.750800  0.840500  1.0
  H  H100  1  0.250000  0.840500  0.089700  1.0
  H  H101  1  0.750000  0.089700  0.249200  1.0
  H  H102  1  0.250000  0.249200  0.159500  1.0
  H  H103  1  0.750000  0.159500  0.910300  1.0
  H  H104  1  0.250000  0.910300  0.750800  1.0
  H  H105  1  0.750000  0.711400  0.876600  1.0
  H  H106  1  0.250000  0.876600  0.165200  1.0
  H  H107  1  0.750000  0.165200  0.288600  1.0
  H  H108  1  0.250000  0.288600  0.123400  1.0
  H  H109  1  0.750000  0.123400  0.834800  1.0
  H  H110  1  0.250000  0.834800  0.711400  1.0
  H  H111  1  0.860200  0.810200  0.859400  1.0
  H  H112  1  0.360200  0.859400  0.049200  1.0
  H  H113  1  0.860200  0.049200  0.189800  1.0
  H  H114  1  0.360200  0.189800  0.140600  1.0
  H  H115  1  0.860200  0.140600  0.950800  1.0
  H  H116  1  0.360200  0.950800  0.810200  1.0
  H  H117  1  0.139800  0.189800  0.140600  1.0
  H  H118  1  0.639800  0.140600  0.950800  1.0
  H  H119  1  0.139800  0.950800  0.810200  1.0
  H  H120  1  0.639800  0.810200  0.859400  1.0
  H  H121  1  0.139800  0.859400  0.049200  1.0
  H  H122  1  0.639800  0.049200  0.189800  1.0
  H  H123  1  0.928900  0.878200  0.953900  1.0
  H  H124  1  0.428900  0.953900  0.075700  1.0
  H  H125  1  0.928900  0.075700  0.121800  1.0
  H  H126  1  0.428900  0.121800  0.046100  1.0
  H  H127  1  0.928900  0.046100  0.924300  1.0
  H  H128  1  0.428900  0.924300  0.878200  1.0
  H  H129  1  0.071100  0.121800  0.046100  1.0
  H  H130  1  0.571100  0.046100  0.924300  1.0
  H  H131  1  0.071100  0.924300  0.878200  1.0
  H  H132  1  0.571100  0.878200  0.953900  1.0
  H  H133  1  0.071100  0.953900  0.075700  1.0
  H  H134  1  0.571100  0.075700  0.121800  1.0
  H  H135  1  0.851300  0.883300  0.092300  1.0
  H  H136  1  0.351300  0.092300  0.209000  1.0
  H  H137  1  0.851300  0.209000  0.116700  1.0
  H  H138  1  0.351300  0.116700  0.907700  1.0
  H  H139  1  0.851300  0.907700  0.791000  1.0
  H  H140  1  0.351300  0.791000  0.883300  1.0
  H  H141  1  0.148700  0.116700  0.907700  1.0
  H  H142  1  0.648700  0.907700  0.791000  1.0
  H  H143  1  0.148700  0.791000  0.883300  1.0
  H  H144  1  0.648700  0.883300  0.092300  1.0
  H  H145  1  0.148700  0.092300  0.209000  1.0
  H  H146  1  0.648700  0.209000  0.116700  1.0
  H  H147  1  0.900000  0.924000  0.075600  1.0
  H  H148  1  0.400000  0.075600  0.151600  1.0
  H  H149  1  0.900000  0.151600  0.076000  1.0
  H  H150  1  0.400000  0.076000  0.924400  1.0
  H  H151  1  0.900000  0.924400  0.848400  1.0
  H  H152  1  0.400000  0.848400  0.924000  1.0
  H  H153  1  0.100000  0.076000  0.924400  1.0
  H  H154  1  0.600000  0.924400  0.848400  1.0
  H  H155  1  0.100000  0.848400  0.924000  1.0
  H  H156  1  0.600000  0.924000  0.075600  1.0
  H  H157  1  0.100000  0.075600  0.151600  1.0
  H  H158  1  0.600000  0.151600  0.076000  1.0
  H  H159  1  0.973100  0.786600  0.987500  1.0
  H  H160  1  0.473100  0.987500  0.200900  1.0
  H  H161  1  0.973100  0.200900  0.213400  1.0
  H  H162  1  0.473100  0.213400  0.012500  1.0
  H  H163  1  0.973100  0.012500  0.799100  1.0
  H  H164  1  0.473100  0.799100  0.786600  1.0
  H  H165  1  0.026900  0.213400  0.012500  1.0
  H  H166  1  0.526900  0.012500  0.799100  1.0
  H  H167  1  0.026900  0.799100  0.786600  1.0
  H  H168  1  0.526900  0.786600  0.987500  1.0
  H  H169  1  0.026900  0.987500  0.200900  1.0
  H  H170  1  0.526900  0.200900  0.213400  1.0
  H  H171  1  0.064700  0.744400  0.009500  1.0
  H  H172  1  0.564700  0.009500  0.265100  1.0
  H  H173  1  0.064700  0.265100  0.255600  1.0
  H  H174  1  0.564700  0.255600  0.990500  1.0
  H  H175  1  0.064700  0.990500  0.734900  1.0
  H  H176  1  0.564700  0.734900  0.744400  1.0
  H  H177  1  0.935300  0.255600  0.990500  1.0
  H  H178  1  0.435300  0.990500  0.734900  1.0
  H  H179  1  0.935300  0.734900  0.744400  1.0
  H  H180  1  0.435300  0.744400  0.009500  1.0
  H  H181  1  0.935300  0.009500  0.265100  1.0
  H  H182  1  0.435300  0.265100  0.255600  1.0
  H  H183  1  0.143100  0.742400  0.088900  1.0
  H  H184  1  0.643100  0.088900  0.346500  1.0
  H  H185  1  0.143100  0.346500  0.257600  1.0
  H  H186  1  0.643100  0.257600  0.911100  1.0
  H  H187  1  0.143100  0.911100  0.653500  1.0
  H  H188  1  0.643100  0.653500  0.742400  1.0
  H  H189  1  0.856900  0.257600  0.911100  1.0
  H  H190  1  0.356900  0.911100  0.653500  1.0
  H  H191  1  0.856900  0.653500  0.742400  1.0
  H  H192  1  0.356900  0.742400  0.088900  1.0
  H  H193  1  0.856900  0.088900  0.346500  1.0
  H  H194  1  0.356900  0.346500  0.257600  1.0
  H  H195  1  0.174100  0.786900  0.190000  1.0
  H  H196  1  0.674100  0.190000  0.403100  1.0
  H  H197  1  0.174100  0.403100  0.213100  1.0
  H  H198  1  0.674100  0.213100  0.810000  1.0
  H  H199  1  0.174100  0.810000  0.596900  1.0
  H  H200  1  0.674100  0.596900  0.786900  1.0
  H  H201  1  0.825900  0.213100  0.810000  1.0
  H  H202  1  0.325900  0.810000  0.596900  1.0
  H  H203  1  0.825900  0.596900  0.786900  1.0
  H  H204  1  0.325900  0.786900  0.190000  1.0
  H  H205  1  0.825900  0.190000  0.403100  1.0
  H  H206  1  0.325900  0.403100  0.213100  1.0
  H  H207  1  0.111400  0.864100  0.272300  1.0
  H  H208  1  0.611400  0.272300  0.408200  1.0
  H  H209  1  0.111400  0.408200  0.135900  1.0
  H  H210  1  0.611400  0.135900  0.727700  1.0
  H  H211  1  0.111400  0.727700  0.591800  1.0
  H  H212  1  0.611400  0.591800  0.864100  1.0
  H  H213  1  0.888600  0.135900  0.727700  1.0
  H  H214  1  0.388600  0.727700  0.591800  1.0
  H  H215  1  0.888600  0.591800  0.864100  1.0
  H  H216  1  0.388600  0.864100  0.272300  1.0
  H  H217  1  0.888600  0.272300  0.408200  1.0
  H  H218  1  0.388600  0.408200  0.135900  1.0
  H  H219  1  0.014900  0.901800  0.250100  1.0
  H  H220  1  0.514900  0.250100  0.348300  1.0
  H  H221  1  0.014900  0.348300  0.098200  1.0
  H  H222  1  0.514900  0.098200  0.749900  1.0
  H  H223  1  0.014900  0.749900  0.651700  1.0
  H  H224  1  0.514900  0.651700  0.901800  1.0
  H  H225  1  0.985100  0.098200  0.749900  1.0
  H  H226  1  0.485100  0.749900  0.651700  1.0
  H  H227  1  0.985100  0.651700  0.901800  1.0
  H  H228  1  0.485100  0.901800  0.250100  1.0
  H  H229  1  0.985100  0.250100  0.348300  1.0
  H  H230  1  0.485100  0.348300  0.098200  1.0
  H  H231  1  0.937000  0.902200  0.169800  1.0
  H  H232  1  0.437000  0.169800  0.267600  1.0
  H  H233  1  0.937000  0.267600  0.097800  1.0
  H  H234  1  0.437000  0.097800  0.830200  1.0
  H  H235  1  0.937000  0.830200  0.732400  1.0
  H  H236  1  0.437000  0.732400  0.902200  1.0
  H  H237  1  0.063000  0.097800  0.830200  1.0
  H  H238  1  0.563000  0.830200  0.732400  1.0
  H  H239  1  0.063000  0.732400  0.902200  1.0
  H  H240  1  0.563000  0.902200  0.169800  1.0
  H  H241  1  0.063000  0.169800  0.267600  1.0
  H  H242  1  0.563000  0.267600  0.097800  1.0
  H  H243  1  0.172200  0.545200  0.248400  1.0
  H  H244  1  0.672200  0.248400  0.703200  1.0
  H  H245  1  0.172200  0.703200  0.454800  1.0
  H  H246  1  0.672200  0.454800  0.751600  1.0
  H  H247  1  0.172200  0.751600  0.296800  1.0
  H  H248  1  0.672200  0.296800  0.545200  1.0
  H  H249  1  0.827800  0.454800  0.751600  1.0
  H  H250  1  0.327800  0.751600  0.296800  1.0
  H  H251  1  0.827800  0.296800  0.545200  1.0
  H  H252  1  0.327800  0.545200  0.248400  1.0
  H  H253  1  0.827800  0.248400  0.703200  1.0
  H  H254  1  0.327800  0.703200  0.454800  1.0
  H  H255  1  0.191800  0.615600  0.299000  1.0
  H  H256  1  0.691800  0.299000  0.683400  1.0
  H  H257  1  0.191800  0.683400  0.384400  1.0
  H  H258  1  0.691800  0.384400  0.701000  1.0
  H  H259  1  0.191800  0.701000  0.316600  1.0
  H  H260  1  0.691800  0.316600  0.615600  1.0
  H  H261  1  0.808200  0.384400  0.701000  1.0
  H  H262  1  0.308200  0.701000  0.316600  1.0
  H  H263  1  0.808200  0.316600  0.615600  1.0
  H  H264  1  0.308200  0.615600  0.299000  1.0
  H  H265  1  0.808200  0.299000  0.683400  1.0
  H  H266  1  0.308200  0.683400  0.384400  1.0
  H  H267  1  0.073400  0.734600  0.234700  1.0
  H  H268  1  0.573400  0.234700  0.500100  1.0
  H  H269  1  0.073400  0.500100  0.265400  1.0
  H  H270  1  0.573400  0.265400  0.765300  1.0
  H  H271  1  0.073400  0.765300  0.499900  1.0
  H  H272  1  0.573400  0.499900  0.734600  1.0
  H  H273  1  0.926600  0.265400  0.765300  1.0
  H  H274  1  0.426600  0.765300  0.499900  1.0
  H  H275  1  0.926600  0.499900  0.734600  1.0
  H  H276  1  0.426600  0.734600  0.234700  1.0
  H  H277  1  0.926600  0.234700  0.500100  1.0
  H  H278  1  0.426600  0.500100  0.265400  1.0
  H  H279  1  0.075800  0.526800  0.182600  1.0
  H  H280  1  0.575800  0.182600  0.655800  1.0
  H  H281  1  0.075800  0.655800  0.473200  1.0
  H  H282  1  0.575800  0.473200  0.817400  1.0
  H  H283  1  0.075800  0.817400  0.344200  1.0
  H  H284  1  0.575800  0.344200  0.526800  1.0
  H  H285  1  0.924200  0.473200  0.817400  1.0
  H  H286  1  0.424200  0.817400  0.344200  1.0
  H  H287  1  0.924200  0.344200  0.526800  1.0
  H  H288  1  0.424200  0.526800  0.182600  1.0
  H  H289  1  0.924200  0.182600  0.655800  1.0
  H  H290  1  0.424200  0.655800  0.473200  1.0
  H  H291  1  0.853100  0.676700  0.960700  1.0
  H  H292  1  0.353100  0.960700  0.284000  1.0
  H  H293  1  0.853100  0.284000  0.323300  1.0
  H  H294  1  0.353100  0.323300  0.039300  1.0
  H  H295  1  0.853100  0.039300  0.716000  1.0
  H  H296  1  0.353100  0.716000  0.676700  1.0
  H  H297  1  0.146900  0.323300  0.039300  1.0
  H  H298  1  0.646900  0.039300  0.716000  1.0
  H  H299  1  0.146900  0.716000  0.676700  1.0
  H  H300  1  0.646900  0.676700  0.960700  1.0
  H  H301  1  0.146900  0.960700  0.284000  1.0
  H  H302  1  0.646900  0.284000  0.323300  1.0
  H  H303  1  0.937300  0.631500  0.990100  1.0
  H  H304  1  0.437300  0.990100  0.358600  1.0
  H  H305  1  0.937300  0.358600  0.368500  1.0
  H  H306  1  0.437300  0.368500  0.009900  1.0
  H  H307  1  0.937300  0.009900  0.641400  1.0
  H  H308  1  0.437300  0.641400  0.631500  1.0
  H  H309  1  0.062700  0.368500  0.009900  1.0
  H  H310  1  0.562700  0.009900  0.641400  1.0
  H  H311  1  0.062700  0.641400  0.631500  1.0
  H  H312  1  0.562700  0.631500  0.990100  1.0
  H  H313  1  0.062700  0.990100  0.358600  1.0
  H  H314  1  0.562700  0.358600  0.368500  1.0
  H  H315  1  0.904500  0.758700  0.173000  1.0
  H  H316  1  0.404500  0.173000  0.414300  1.0
  H  H317  1  0.904500  0.414300  0.241300  1.0
  H  H318  1  0.404500  0.241300  0.827000  1.0
  H  H319  1  0.904500  0.827000  0.585700  1.0
  H  H320  1  0.404500  0.585700  0.758700  1.0
  H  H321  1  0.095500  0.241300  0.827000  1.0
  H  H322  1  0.595500  0.827000  0.585700  1.0
  H  H323  1  0.095500  0.585700  0.758700  1.0
  H  H324  1  0.595500  0.758700  0.173000  1.0
  H  H325  1  0.095500  0.173000  0.414300  1.0
  H  H326  1  0.595500  0.414300  0.241300  1.0
  H  H327  1  0.820300  0.803900  0.143600  1.0
  H  H328  1  0.320300  0.143600  0.339700  1.0
  H  H329  1  0.820300  0.339700  0.196100  1.0
  H  H330  1  0.320300  0.196100  0.856400  1.0
  H  H331  1  0.820300  0.856400  0.660300  1.0
  H  H332  1  0.320300  0.660300  0.803900  1.0
  H  H333  1  0.179700  0.196100  0.856400  1.0
  H  H334  1  0.679700  0.856400  0.660300  1.0
  H  H335  1  0.179700  0.660300  0.803900  1.0
  H  H336  1  0.679700  0.803900  0.143600  1.0
  H  H337  1  0.179700  0.143600  0.339700  1.0
  H  H338  1  0.679700  0.339700  0.196100  1.0
  H  H339  1  0.958000  0.488500  0.139800  1.0
  H  H340  1  0.458000  0.139800  0.651300  1.0
  H  H341  1  0.958000  0.651300  0.511500  1.0
  H  H342  1  0.458000  0.511500  0.860200  1.0
  H  H343  1  0.958000  0.860200  0.348700  1.0
  H  H344  1  0.458000  0.348700  0.488500  1.0
  H  H345  1  0.042000  0.511500  0.860200  1.0
  H  H346  1  0.542000  0.860200  0.348700  1.0
  H  H347  1  0.042000  0.348700  0.488500  1.0
  H  H348  1  0.542000  0.488500  0.139800  1.0
  H  H349  1  0.042000  0.139800  0.651300  1.0
  H  H350  1  0.542000  0.651300  0.511500  1.0
  H  H351  1  0.010600  0.463400  0.083900  1.0
  H  H352  1  0.510600  0.083900  0.620500  1.0
  H  H353  1  0.010600  0.620500  0.536600  1.0
  H  H354  1  0.510600  0.536600  0.916100  1.0
  H  H355  1  0.010600  0.916100  0.379500  1.0
  H  H356  1  0.510600  0.379500  0.463400  1.0
  H  H357  1  0.989400  0.536600  0.916100  1.0
  H  H358  1  0.489400  0.916100  0.379500  1.0
  H  H359  1  0.989400  0.379500  0.463400  1.0
  H  H360  1  0.489400  0.463400  0.083900  1.0
  H  H361  1  0.989400  0.083900  0.620500  1.0
  H  H362  1  0.489400  0.620500  0.536600  1.0
  H  H363  1  0.875300  0.489900  0.066400  1.0
  H  H364  1  0.375300  0.066400  0.576500  1.0
  H  H365  1  0.875300  0.576500  0.510100  1.0
  H  H366  1  0.375300  0.510100  0.933600  1.0
  H  H367  1  0.875300  0.933600  0.423500  1.0
  H  H368  1  0.375300  0.423500  0.489900  1.0
  H  H369  1  0.124700  0.510100  0.933600  1.0
  H  H370  1  0.624700  0.933600  0.423500  1.0
  H  H371  1  0.124700  0.423500  0.489900  1.0
  H  H372  1  0.624700  0.489900  0.066400  1.0
  H  H373  1  0.124700  0.066400  0.576500  1.0
  H  H374  1  0.624700  0.576500  0.510100  1.0
  H  H375  1  0.928300  0.454700  0.011300  1.0
  H  H376  1  0.428300  0.011300  0.556600  1.0
  H  H377  1  0.928300  0.556600  0.545300  1.0
  H  H378  1  0.428300  0.545300  0.988700  1.0
  H  H379  1  0.928300  0.988700  0.443400  1.0
  H  H380  1  0.428300  0.443400  0.454700  1.0
  H  H381  1  0.071700  0.545300  0.988700  1.0
  H  H382  1  0.571700  0.988700  0.443400  1.0
  H  H383  1  0.071700  0.443400  0.454700  1.0
  H  H384  1  0.571700  0.454700  0.011300  1.0
  H  H385  1  0.071700  0.011300  0.556600  1.0
  H  H386  1  0.571700  0.556600  0.545300  1.0
  H  H387  1  0.849600  0.382600  0.018200  1.0
  H  H388  1  0.349600  0.018200  0.635600  1.0
  H  H389  1  0.849600  0.635600  0.617400  1.0
  H  H390  1  0.349600  0.617400  0.981800  1.0
  H  H391  1  0.849600  0.981800  0.364400  1.0
  H  H392  1  0.349600  0.364400  0.382600  1.0
  H  H393  1  0.150400  0.617400  0.981800  1.0
  H  H394  1  0.650400  0.981800  0.364400  1.0
  H  H395  1  0.150400  0.364400  0.382600  1.0
  H  H396  1  0.650400  0.382600  0.018200  1.0
  H  H397  1  0.150400  0.018200  0.635600  1.0
  H  H398  1  0.650400  0.635600  0.617400  1.0
  H  H399  1  0.881600  0.400100  0.084400  1.0
  H  H400  1  0.381600  0.084400  0.684300  1.0
  H  H401  1  0.881600  0.684300  0.599900  1.0
  H  H402  1  0.381600  0.599900  0.915600  1.0
  H  H403  1  0.881600  0.915600  0.315700  1.0
  H  H404  1  0.381600  0.315700  0.400100  1.0
  H  H405  1  0.118400  0.599900  0.915600  1.0
  H  H406  1  0.618400  0.915600  0.315700  1.0
  H  H407  1  0.118400  0.315700  0.400100  1.0
  H  H408  1  0.618400  0.400100  0.084400  1.0
  H  H409  1  0.118400  0.084400  0.684300  1.0
  H  H410  1  0.618400  0.684300  0.599900  1.0
  H  H411  1  0.924700  0.364500  0.021700  1.0
  H  H412  1  0.424700  0.021700  0.657200  1.0
  H  H413  1  0.924700  0.657200  0.635500  1.0
  H  H414  1  0.424700  0.635500  0.978300  1.0
  H  H415  1  0.924700  0.978300  0.342800  1.0
  H  H416  1  0.424700  0.342800  0.364500  1.0
  H  H417  1  0.075300  0.635500  0.978300  1.0
  H  H418  1  0.575300  0.978300  0.342800  1.0
  H  H419  1  0.075300  0.342800  0.364500  1.0
  H  H420  1  0.575300  0.364500  0.021700  1.0
  H  H421  1  0.075300  0.021700  0.657200  1.0
  H  H422  1  0.575300  0.657200  0.635500  1.0
  Pd  Pd423  1  0.750000  0.781440  0.021820  1.0
  Pd  Pd424  1  0.250000  0.021820  0.240380  1.0
  Pd  Pd425  1  0.750000  0.240380  0.218560  1.0
  Pd  Pd426  1  0.250000  0.218560  0.978180  1.0
  Pd  Pd427  1  0.750000  0.978180  0.759620  1.0
  Pd  Pd428  1  0.250000  0.759620  0.781440  1.0
  C  C429  1  0.750000  0.422000  0.883100  1
  C  C430  1  0.250000  0.883100  0.461100  1
  C  C431  1  0.750000  0.461100  0.578000  1
  C  C432  1  0.250000  0.578000  0.116900  1
  C  C433  1  0.750000  0.116900  0.538900  1
  C  C434  1  0.250000  0.538900  0.422000  1
  C  C435  1  0.957000  0.694600  0.168500  1
  C  C436  1  0.457000  0.168500  0.473900  1
  C  C437  1  0.957000  0.473900  0.305400  1
  C  C438  1  0.457000  0.305400  0.831500  1
  C  C439  1  0.957000  0.831500  0.526100  1
  C  C440  1  0.457000  0.526100  0.694600  1
  C  C441  1  0.043000  0.305400  0.831500  1
  C  C442  1  0.543000  0.831500  0.526100  1
  C  C443  1  0.043000  0.526100  0.694600  1
  C  C444  1  0.543000  0.694600  0.168500  1
  C  C445  1  0.043000  0.168500  0.473900  1
  C  C446  1  0.543000  0.473900  0.305400  1
  C  C447  1  0.857100  0.704300  0.036600  1
  C  C448  1  0.357100  0.036600  0.332300  1
  C  C449  1  0.857100  0.332300  0.295700  1
  C  C450  1  0.357100  0.295700  0.963400  1
  C  C451  1  0.857100  0.963400  0.667700  1
  C  C452  1  0.357100  0.667700  0.704300  1
  C  C453  1  0.142900  0.295700  0.963400  1
  C  C454  1  0.642900  0.963400  0.667700  1
  C  C455  1  0.142900  0.667700  0.704300  1
  C  C456  1  0.642900  0.704300  0.036600  1
  C  C457  1  0.142900  0.036600  0.332300  1
  C  C458  1  0.642900  0.332300  0.295700  1
  C  C459  1  0.903000  0.689500  0.069200  1
  C  C460  1  0.403000  0.069200  0.379700  1
  C  C461  1  0.903000  0.379700  0.310500  1
  C  C462  1  0.403000  0.310500  0.930800  1
  C  C463  1  0.903000  0.930800  0.620300  1
  C  C464  1  0.403000  0.620300  0.689500  1
  C  C465  1  0.097000  0.310500  0.930800  1
  C  C466  1  0.597000  0.930800  0.620300  1
  C  C467  1  0.097000  0.620300  0.689500  1
  C  C468  1  0.597000  0.689500  0.069200  1
  C  C469  1  0.097000  0.069200  0.379700  1
  C  C470  1  0.597000  0.379700  0.310500  1
  C  C471  1  0.906000  0.724800  0.134200  1
  C  C472  1  0.406000  0.134200  0.409400  1
  C  C473  1  0.906000  0.409400  0.275200  1
  C  C474  1  0.406000  0.275200  0.865800  1
  C  C475  1  0.906000  0.865800  0.590600  1
  C  C476  1  0.406000  0.590600  0.724800  1
  C  C477  1  0.094000  0.275200  0.865800  1
  C  C478  1  0.594000  0.865800  0.590600  1
  C  C479  1  0.094000  0.590600  0.724800  1
  C  C480  1  0.594000  0.724800  0.134200  1
  C  C481  1  0.094000  0.134200  0.409400  1
  C  C482  1  0.594000  0.409400  0.275200  1
  C  C483  1  0.863100  0.774900  0.166700  1
  C  C484  1  0.363100  0.166700  0.391800  1
  C  C485  1  0.863100  0.391800  0.225100  1
  C  C486  1  0.363100  0.225100  0.833300  1
  C  C487  1  0.863100  0.833300  0.608200  1
  C  C488  1  0.363100  0.608200  0.774900  1
  C  C489  1  0.136900  0.225100  0.833300  1
  C  C490  1  0.636900  0.833300  0.608200  1
  C  C491  1  0.136900  0.608200  0.774900  1
  C  C492  1  0.636900  0.774900  0.166700  1
  C  C493  1  0.136900  0.166700  0.391800  1
  C  C494  1  0.636900  0.391800  0.225100  1
  C  C495  1  0.817200  0.789700  0.134100  1
  C  C496  1  0.317200  0.134100  0.344400  1
  C  C497  1  0.817200  0.344400  0.210300  1
  C  C498  1  0.317200  0.210300  0.865900  1
  C  C499  1  0.817200  0.865900  0.655600  1
  C  C500  1  0.317200  0.655600  0.789700  1
  C  C501  1  0.182800  0.210300  0.865900  1
  C  C502  1  0.682800  0.865900  0.655600  1
  C  C503  1  0.182800  0.655600  0.789700  1
  C  C504  1  0.682800  0.789700  0.134100  1
  C  C505  1  0.182800  0.134100  0.344400  1
  C  C506  1  0.682800  0.344400  0.210300  1
  C  C507  1  0.750000  0.754200  0.882300  1.0
  C  C508  1  0.250000  0.882300  0.128100  1.0
  C  C509  1  0.750000  0.128100  0.245800  1.0
  C  C510  1  0.250000  0.245800  0.117700  1.0
  C  C511  1  0.750000  0.117700  0.871900  1.0
  C  C512  1  0.250000  0.871900  0.754200  1.0
  C  C513  1  0.815200  0.808500  0.980500  1.0
  C  C514  1  0.315200  0.980500  0.172000  1.0
  C  C515  1  0.815200  0.172000  0.191500  1.0
  C  C516  1  0.315200  0.191500  0.019500  1.0
  C  C517  1  0.815200  0.019500  0.828000  1.0
  C  C518  1  0.315200  0.828000  0.808500  1.0
  C  C519  1  0.184800  0.191500  0.019500  1.0
  C  C520  1  0.684800  0.019500  0.828000  1.0
  C  C521  1  0.184800  0.828000  0.808500  1.0
  C  C522  1  0.684800  0.808500  0.980500  1.0
  C  C523  1  0.184800  0.980500  0.172000  1.0
  C  C524  1  0.684800  0.172000  0.191500  1.0
  C  C525  1  0.854600  0.816100  0.900300  1.0
  C  C526  1  0.354600  0.900300  0.084200  1.0
  C  C527  1  0.854600  0.084200  0.183900  1.0
  C  C528  1  0.354600  0.183900  0.099700  1.0
  C  C529  1  0.854600  0.099700  0.915800  1.0
  C  C530  1  0.354600  0.915800  0.816100  1.0
  C  C531  1  0.145400  0.183900  0.099700  1.0
  C  C532  1  0.645400  0.099700  0.915800  1.0
  C  C533  1  0.145400  0.915800  0.816100  1.0
  C  C534  1  0.645400  0.816100  0.900300  1.0
  C  C535  1  0.145400  0.900300  0.084200  1.0
  C  C536  1  0.645400  0.084200  0.183900  1.0
  C  C537  1  0.892400  0.853000  0.951800  1.0
  C  C538  1  0.392400  0.951800  0.098800  1.0
  C  C539  1  0.892400  0.098800  0.147000  1.0
  C  C540  1  0.392400  0.147000  0.048200  1.0
  C  C541  1  0.892400  0.048200  0.901200  1.0
  C  C542  1  0.392400  0.901200  0.853000  1.0
  C  C543  1  0.107600  0.147000  0.048200  1.0
  C  C544  1  0.607600  0.048200  0.901200  1.0
  C  C545  1  0.107600  0.901200  0.853000  1.0
  C  C546  1  0.607600  0.853000  0.951800  1.0
  C  C547  1  0.107600  0.951800  0.098800  1.0
  C  C548  1  0.607600  0.098800  0.147000  1.0
  C  C549  1  0.888300  0.880700  0.064800  1.0
  C  C550  1  0.388300  0.064800  0.184100  1.0
  C  C551  1  0.888300  0.184100  0.119300  1.0
  C  C552  1  0.388300  0.119300  0.935200  1.0
  C  C553  1  0.888300  0.935200  0.815900  1.0
  C  C554  1  0.388300  0.815900  0.880700  1.0
  C  C555  1  0.111700  0.119300  0.935200  1.0
  C  C556  1  0.611700  0.935200  0.815900  1.0
  C  C557  1  0.111700  0.815900  0.880700  1.0
  C  C558  1  0.611700  0.880700  0.064800  1.0
  C  C559  1  0.111700  0.064800  0.184100  1.0
  C  C560  1  0.611700  0.184100  0.119300  1.0
  C  C561  1  0.947500  0.850700  0.078000  1.0
  C  C562  1  0.447500  0.078000  0.227300  1.0
  C  C563  1  0.947500  0.227300  0.149300  1.0
  C  C564  1  0.447500  0.149300  0.922000  1.0
  C  C565  1  0.947500  0.922000  0.772700  1.0
  C  C566  1  0.447500  0.772700  0.850700  1.0
  C  C567  1  0.052500  0.149300  0.922000  1.0
  C  C568  1  0.552500  0.922000  0.772700  1.0
  C  C569  1  0.052500  0.772700  0.850700  1.0
  C  C570  1  0.552500  0.850700  0.078000  1.0
  C  C571  1  0.052500  0.078000  0.227300  1.0
  C  C572  1  0.552500  0.227300  0.149300  1.0
  C  C573  1  0.985500  0.802200  0.030000  1.0
  C  C574  1  0.485500  0.030000  0.227800  1.0
  C  C575  1  0.985500  0.227800  0.197800  1.0
  C  C576  1  0.485500  0.197800  0.970000  1.0
  C  C577  1  0.985500  0.970000  0.772200  1.0
  C  C578  1  0.485500  0.772200  0.802200  1.0
  C  C579  1  0.014500  0.197800  0.970000  1.0
  C  C580  1  0.514500  0.970000  0.772200  1.0
  C  C581  1  0.014500  0.772200  0.802200  1.0
  C  C582  1  0.514500  0.802200  0.030000  1.0
  C  C583  1  0.014500  0.030000  0.227800  1.0
  C  C584  1  0.514500  0.227800  0.197800  1.0
  C  C585  1  0.040000  0.776700  0.042700  1.0
  C  C586  1  0.540000  0.042700  0.266000  1.0
  C  C587  1  0.040000  0.266000  0.223300  1.0
  C  C588  1  0.540000  0.223300  0.957300  1.0
  C  C589  1  0.040000  0.957300  0.734000  1.0
  C  C590  1  0.540000  0.734000  0.776700  1.0
  C  C591  1  0.960000  0.223300  0.957300  1.0
  C  C592  1  0.460000  0.957300  0.734000  1.0
  C  C593  1  0.960000  0.734000  0.776700  1.0
  C  C594  1  0.460000  0.776700  0.042700  1.0
  C  C595  1  0.960000  0.042700  0.266000  1.0
  C  C596  1  0.460000  0.266000  0.223300  1.0
  C  C597  1  0.058200  0.799000  0.105000  1.0
  C  C598  1  0.558200  0.105000  0.306000  1.0
  C  C599  1  0.058200  0.306000  0.201000  1.0
  C  C600  1  0.558200  0.201000  0.895000  1.0
  C  C601  1  0.058200  0.895000  0.694000  1.0
  C  C602  1  0.558200  0.694000  0.799000  1.0
  C  C603  1  0.941800  0.201000  0.895000  1.0
  C  C604  1  0.441800  0.895000  0.694000  1.0
  C  C605  1  0.941800  0.694000  0.799000  1.0
  C  C606  1  0.441800  0.799000  0.105000  1.0
  C  C607  1  0.941800  0.105000  0.306000  1.0
  C  C608  1  0.441800  0.306000  0.201000  1.0
  C  C609  1  0.117700  0.775300  0.120700  1.0
  C  C610  1  0.617700  0.120700  0.345400  1.0
  C  C611  1  0.117700  0.345400  0.224700  1.0
  C  C612  1  0.617700  0.224700  0.879300  1.0
  C  C613  1  0.117700  0.879300  0.654600  1.0
  C  C614  1  0.617700  0.654600  0.775300  1.0
  C  C615  1  0.882300  0.224700  0.879300  1.0
  C  C616  1  0.382300  0.879300  0.654600  1.0
  C  C617  1  0.882300  0.654600  0.775300  1.0
  C  C618  1  0.382300  0.775300  0.120700  1.0
  C  C619  1  0.882300  0.120700  0.345400  1.0
  C  C620  1  0.382300  0.345400  0.224700  1.0
  C  C621  1  0.134600  0.800900  0.180100  1.0
  C  C622  1  0.634600  0.180100  0.379200  1.0
  C  C623  1  0.134600  0.379200  0.199100  1.0
  C  C624  1  0.634600  0.199100  0.819900  1.0
  C  C625  1  0.134600  0.819900  0.620800  1.0
  C  C626  1  0.634600  0.620800  0.800900  1.0
  C  C627  1  0.865400  0.199100  0.819900  1.0
  C  C628  1  0.365400  0.819900  0.620800  1.0
  C  C629  1  0.865400  0.620800  0.800900  1.0
  C  C630  1  0.365400  0.800900  0.180100  1.0
  C  C631  1  0.865400  0.180100  0.379200  1.0
  C  C632  1  0.365400  0.379200  0.199100  1.0
  C  C633  1  0.097400  0.848100  0.230200  1.0
  C  C634  1  0.597400  0.230200  0.382100  1.0
  C  C635  1  0.097400  0.382100  0.151900  1.0
  C  C636  1  0.597400  0.151900  0.769800  1.0
  C  C637  1  0.097400  0.769800  0.617900  1.0
  C  C638  1  0.597400  0.617900  0.848100  1.0
  C  C639  1  0.902600  0.151900  0.769800  1.0
  C  C640  1  0.402600  0.769800  0.617900  1.0
  C  C641  1  0.902600  0.617900  0.848100  1.0
  C  C642  1  0.402600  0.848100  0.230200  1.0
  C  C643  1  0.902600  0.230200  0.382100  1.0
  C  C644  1  0.402600  0.382100  0.151900  1.0
  C  C645  1  0.040800  0.870500  0.217200  1.0
  C  C646  1  0.540800  0.217200  0.346700  1.0
  C  C647  1  0.040800  0.346700  0.129500  1.0
  C  C648  1  0.540800  0.129500  0.782800  1.0
  C  C649  1  0.040800  0.782800  0.653300  1.0
  C  C650  1  0.540800  0.653300  0.870500  1.0
  C  C651  1  0.959200  0.129500  0.782800  1.0
  C  C652  1  0.459200  0.782800  0.653300  1.0
  C  C653  1  0.959200  0.653300  0.870500  1.0
  C  C654  1  0.459200  0.870500  0.217200  1.0
  C  C655  1  0.959200  0.217200  0.346700  1.0
  C  C656  1  0.459200  0.346700  0.129500  1.0
  C  C657  1  0.022100  0.846000  0.154200  1.0
  C  C658  1  0.522100  0.154200  0.308200  1.0
  C  C659  1  0.022100  0.308200  0.154000  1.0
  C  C660  1  0.522100  0.154000  0.845800  1.0
  C  C661  1  0.022100  0.845800  0.691800  1.0
  C  C662  1  0.522100  0.691800  0.846000  1.0
  C  C663  1  0.977900  0.154000  0.845800  1.0
  C  C664  1  0.477900  0.845800  0.691800  1.0
  C  C665  1  0.977900  0.691800  0.846000  1.0
  C  C666  1  0.477900  0.846000  0.154200  1.0
  C  C667  1  0.977900  0.154200  0.308200  1.0
  C  C668  1  0.477900  0.308200  0.154000  1.0
  C  C669  1  0.963500  0.871000  0.137300  1.0
  C  C670  1  0.463500  0.137300  0.266300  1.0
  C  C671  1  0.963500  0.266300  0.129000  1.0
  C  C672  1  0.463500  0.129000  0.862700  1.0
  C  C673  1  0.963500  0.862700  0.733700  1.0
  C  C674  1  0.463500  0.733700  0.871000  1.0
  C  C675  1  0.036500  0.129000  0.862700  1.0
  C  C676  1  0.536500  0.862700  0.733700  1.0
  C  C677  1  0.036500  0.733700  0.871000  1.0
  C  C678  1  0.536500  0.871000  0.137300  1.0
  C  C679  1  0.036500  0.137300  0.266300  1.0
  C  C680  1  0.536500  0.266300  0.129000  1.0
  C  C681  1  0.154100  0.587200  0.278000  1.0
  C  C682  1  0.654100  0.278000  0.690800  1.0
  C  C683  1  0.154100  0.690800  0.412800  1.0
  C  C684  1  0.654100  0.412800  0.722000  1.0
  C  C685  1  0.154100  0.722000  0.309200  1.0
  C  C686  1  0.654100  0.309200  0.587200  1.0
  C  C687  1  0.845900  0.412800  0.722000  1.0
  C  C688  1  0.345900  0.722000  0.309200  1.0
  C  C689  1  0.845900  0.309200  0.587200  1.0
  C  C690  1  0.345900  0.587200  0.278000  1.0
  C  C691  1  0.845900  0.278000  0.690800  1.0
  C  C692  1  0.345900  0.690800  0.412800  1.0
  C  C693  1  0.116000  0.611000  0.241200  1.0
  C  C694  1  0.616000  0.241200  0.630200  1.0
  C  C695  1  0.116000  0.630200  0.389000  1.0
  C  C696  1  0.616000  0.389000  0.758800  1.0
  C  C697  1  0.116000  0.758800  0.369800  1.0
  C  C698  1  0.616000  0.369800  0.611000  1.0
  C  C699  1  0.884000  0.389000  0.758800  1.0
  C  C700  1  0.384000  0.758800  0.369800  1.0
  C  C701  1  0.884000  0.369800  0.611000  1.0
  C  C702  1  0.384000  0.611000  0.241200  1.0
  C  C703  1  0.884000  0.241200  0.630200  1.0
  C  C704  1  0.384000  0.630200  0.389000  1.0
  C  C705  1  0.114300  0.674300  0.256900  1.0
  C  C706  1  0.614300  0.256900  0.582600  1.0
  C  C707  1  0.114300  0.582600  0.325700  1.0
  C  C708  1  0.614300  0.325700  0.743100  1.0
  C  C709  1  0.114300  0.743100  0.417400  1.0
  C  C710  1  0.614300  0.417400  0.674300  1.0
  C  C711  1  0.885700  0.325700  0.743100  1.0
  C  C712  1  0.385700  0.743100  0.417400  1.0
  C  C713  1  0.885700  0.417400  0.674300  1.0
  C  C714  1  0.385700  0.674300  0.256900  1.0
  C  C715  1  0.885700  0.256900  0.582600  1.0
  C  C716  1  0.385700  0.582600  0.325700  1.0
  C  C717  1  0.073000  0.692200  0.225400  1.0
  C  C718  1  0.573000  0.225400  0.533200  1.0
  C  C719  1  0.073000  0.533200  0.307800  1.0
  C  C720  1  0.573000  0.307800  0.774600  1.0
  C  C721  1  0.073000  0.774600  0.466800  1.0
  C  C722  1  0.573000  0.466800  0.692200  1.0
  C  C723  1  0.927000  0.307800  0.774600  1.0
  C  C724  1  0.427000  0.774600  0.466800  1.0
  C  C725  1  0.927000  0.466800  0.692200  1.0
  C  C726  1  0.427000  0.692200  0.225400  1.0
  C  C727  1  0.927000  0.225400  0.533200  1.0
  C  C728  1  0.427000  0.533200  0.307800  1.0
  C  C729  1  0.033300  0.653300  0.183400  1.0
  C  C730  1  0.533300  0.183400  0.530100  1.0
  C  C731  1  0.033300  0.530100  0.346700  1.0
  C  C732  1  0.533300  0.346700  0.816600  1.0
  C  C733  1  0.033300  0.816600  0.469900  1.0
  C  C734  1  0.533300  0.469900  0.653300  1.0
  C  C735  1  0.966700  0.346700  0.816600  1.0
  C  C736  1  0.466700  0.816600  0.469900  1.0
  C  C737  1  0.966700  0.469900  0.653300  1.0
  C  C738  1  0.466700  0.653300  0.183400  1.0
  C  C739  1  0.966700  0.183400  0.530100  1.0
  C  C740  1  0.466700  0.530100  0.346700  1.0
  C  C741  1  0.030800  0.589300  0.164100  1.0
  C  C742  1  0.530800  0.164100  0.574800  1.0
  C  C743  1  0.030800  0.574800  0.410700  1.0
  C  C744  1  0.530800  0.410700  0.835900  1.0
  C  C745  1  0.030800  0.835900  0.425200  1.0
  C  C746  1  0.530800  0.425200  0.589300  1.0
  C  C747  1  0.969200  0.410700  0.835900  1.0
  C  C748  1  0.469200  0.835900  0.425200  1.0
  C  C749  1  0.969200  0.425200  0.589300  1.0
  C  C750  1  0.469200  0.589300  0.164100  1.0
  C  C751  1  0.969200  0.164100  0.574800  1.0
  C  C752  1  0.469200  0.574800  0.410700  1.0
  C  C753  1  0.074500  0.569900  0.194500  1.0
  C  C754  1  0.574500  0.194500  0.624600  1.0
  C  C755  1  0.074500  0.624600  0.430100  1.0
  C  C756  1  0.574500  0.430100  0.805500  1.0
  C  C757  1  0.074500  0.805500  0.375400  1.0
  C  C758  1  0.574500  0.375400  0.569900  1.0
  C  C759  1  0.925500  0.430100  0.805500  1.0
  C  C760  1  0.425500  0.805500  0.375400  1.0
  C  C761  1  0.925500  0.375400  0.569900  1.0
  C  C762  1  0.425500  0.569900  0.194500  1.0
  C  C763  1  0.925500  0.194500  0.624600  1.0
  C  C764  1  0.425500  0.624600  0.430100  1.0
  C  C765  1  0.984400  0.664000  0.100400  1.0
  C  C766  1  0.484400  0.100400  0.436400  1.0
  C  C767  1  0.984400  0.436400  0.336000  1.0
  C  C768  1  0.484400  0.336000  0.899600  1.0
  C  C769  1  0.984400  0.899600  0.563600  1.0
  C  C770  1  0.484400  0.563600  0.664000  1.0
  C  C771  1  0.015600  0.336000  0.899600  1.0
  C  C772  1  0.515600  0.899600  0.563600  1.0
  C  C773  1  0.015600  0.563600  0.664000  1.0
  C  C774  1  0.515600  0.664000  0.100400  1.0
  C  C775  1  0.015600  0.100400  0.436400  1.0
  C  C776  1  0.515600  0.436400  0.336000  1.0
  C  C777  1  0.863600  0.693300  0.003800  1.0
  C  C778  1  0.363600  0.003800  0.310500  1.0
  C  C779  1  0.863600  0.310500  0.306700  1.0
  C  C780  1  0.363600  0.306700  0.996200  1.0
  C  C781  1  0.863600  0.996200  0.689500  1.0
  C  C782  1  0.363600  0.689500  0.693300  1.0
  C  C783  1  0.136400  0.306700  0.996200  1.0
  C  C784  1  0.636400  0.996200  0.689500  1.0
  C  C785  1  0.136400  0.689500  0.693300  1.0
  C  C786  1  0.636400  0.693300  0.003800  1.0
  C  C787  1  0.136400  0.003800  0.310500  1.0
  C  C788  1  0.636400  0.310500  0.306700  1.0
  C  C789  1  0.913600  0.666500  0.021200  1.0
  C  C790  1  0.413600  0.021200  0.354700  1.0
  C  C791  1  0.913600  0.354700  0.333500  1.0
  C  C792  1  0.413600  0.333500  0.978800  1.0
  C  C793  1  0.913600  0.978800  0.645300  1.0
  C  C794  1  0.413600  0.645300  0.666500  1.0
  C  C795  1  0.086400  0.333500  0.978800  1.0
  C  C796  1  0.586400  0.978800  0.645300  1.0
  C  C797  1  0.086400  0.645300  0.666500  1.0
  C  C798  1  0.586400  0.666500  0.021200  1.0
  C  C799  1  0.086400  0.021200  0.354700  1.0
  C  C800  1  0.586400  0.354700  0.333500  1.0
  C  C801  1  0.928800  0.690800  0.084200  1.0
  C  C802  1  0.428800  0.084200  0.393400  1.0
  C  C803  1  0.928800  0.393400  0.309200  1.0
  C  C804  1  0.428800  0.309200  0.915800  1.0
  C  C805  1  0.928800  0.915800  0.606600  1.0
  C  C806  1  0.428800  0.606600  0.690800  1.0
  C  C807  1  0.071200  0.309200  0.915800  1.0
  C  C808  1  0.571200  0.915800  0.606600  1.0
  C  C809  1  0.071200  0.606600  0.690800  1.0
  C  C810  1  0.571200  0.690800  0.084200  1.0
  C  C811  1  0.071200  0.084200  0.393400  1.0
  C  C812  1  0.571200  0.393400  0.309200  1.0
  C  C813  1  0.894000  0.742100  0.129900  1.0
  C  C814  1  0.394000  0.129900  0.387800  1.0
  C  C815  1  0.894000  0.387800  0.257900  1.0
  C  C816  1  0.394000  0.257900  0.870100  1.0
  C  C817  1  0.894000  0.870100  0.612200  1.0
  C  C818  1  0.394000  0.612200  0.742100  1.0
  C  C819  1  0.106000  0.257900  0.870100  1.0
  C  C820  1  0.606000  0.870100  0.612200  1.0
  C  C821  1  0.106000  0.612200  0.742100  1.0
  C  C822  1  0.606000  0.742100  0.129900  1.0
  C  C823  1  0.106000  0.129900  0.387800  1.0
  C  C824  1  0.606000  0.387800  0.257900  1.0
  C  C825  1  0.844000  0.768900  0.112500  1.0
  C  C826  1  0.344000  0.112500  0.343600  1.0
  C  C827  1  0.844000  0.343600  0.231100  1.0
  C  C828  1  0.344000  0.231100  0.887500  1.0
  C  C829  1  0.844000  0.887500  0.656400  1.0
  C  C830  1  0.344000  0.656400  0.768900  1.0
  C  C831  1  0.156000  0.231100  0.887500  1.0
  C  C832  1  0.656000  0.887500  0.656400  1.0
  C  C833  1  0.156000  0.656400  0.768900  1.0
  C  C834  1  0.656000  0.768900  0.112500  1.0
  C  C835  1  0.156000  0.112500  0.343600  1.0
  C  C836  1  0.656000  0.343600  0.231100  1.0
  C  C837  1  0.970600  0.489500  0.101400  1.0
  C  C838  1  0.470600  0.101400  0.611900  1.0
  C  C839  1  0.970600  0.611900  0.510500  1.0
  C  C840  1  0.470600  0.510500  0.898600  1.0
  C  C841  1  0.970600  0.898600  0.388100  1.0
  C  C842  1  0.470600  0.388100  0.489500  1.0
  C  C843  1  0.029400  0.510500  0.898600  1.0
  C  C844  1  0.529400  0.898600  0.388100  1.0
  C  C845  1  0.029400  0.388100  0.489500  1.0
  C  C846  1  0.529400  0.489500  0.101400  1.0
  C  C847  1  0.029400  0.101400  0.611900  1.0
  C  C848  1  0.529400  0.611900  0.510500  1.0
  C  C849  1  0.913100  0.460500  0.052100  1.0
  C  C850  1  0.413100  0.052100  0.591600  1.0
  C  C851  1  0.913100  0.591600  0.539500  1.0
  C  C852  1  0.413100  0.539500  0.947900  1.0
  C  C853  1  0.913100  0.947900  0.408400  1.0
  C  C854  1  0.413100  0.408400  0.460500  1.0
  C  C855  1  0.086900  0.539500  0.947900  1.0
  C  C856  1  0.586900  0.947900  0.408400  1.0
  C  C857  1  0.086900  0.408400  0.460500  1.0
  C  C858  1  0.586900  0.460500  0.052100  1.0
  C  C859  1  0.086900  0.052100  0.591600  1.0
  C  C860  1  0.586900  0.591600  0.539500  1.0
  C  C861  1  0.890100  0.395900  0.043300  1.0
  C  C862  1  0.390100  0.043300  0.647400  1.0
  C  C863  1  0.890100  0.647400  0.604100  1.0
  C  C864  1  0.390100  0.604100  0.956700  1.0
  C  C865  1  0.890100  0.956700  0.352600  1.0
  C  C866  1  0.390100  0.352600  0.395900  1.0
  C  C867  1  0.109900  0.604100  0.956700  1.0
  C  C868  1  0.609900  0.956700  0.352600  1.0
  C  C869  1  0.109900  0.352600  0.395900  1.0
  C  C870  1  0.609900  0.395900  0.043300  1.0
  C  C871  1  0.109900  0.043300  0.647400  1.0
  C  C872  1  0.609900  0.647400  0.604100  1.0
  C  C873  1  0.750000  0.954000  0.011000  0.5
  O  O874  1  0.750000  0.954000  0.011000  0.5
  C  C875  1  0.250000  0.011000  0.057000  0.5
  O  O876  1  0.250000  0.011000  0.057000  0.5
  C  C877  1  0.750000  0.057000  0.046000  0.5
  O  O878  1  0.750000  0.057000  0.046000  0.5
  C  C879  1  0.250000  0.046000  0.989000  0.5
  O  O880  1  0.250000  0.046000  0.989000  0.5
  C  C881  1  0.750000  0.989000  0.943000  0.5
  O  O882  1  0.750000  0.989000  0.943000  0.5
  C  C883  1  0.250000  0.943000  0.954000  0.5
  O  O884  1  0.250000  0.943000  0.954000  0.5
  N  N885  1  0.750000  0.360300  0.875700  1
  N  N886  1  0.250000  0.875700  0.515400  1
  N  N887  1  0.750000  0.515400  0.639700  1
  N  N888  1  0.250000  0.639700  0.124300  1
  N  N889  1  0.750000  0.124300  0.484600  1
  N  N890  1  0.250000  0.484600  0.360300  1
  N  N891  1  0.814200  0.754400  0.069100  1
  N  N892  1  0.314200  0.069100  0.314700  1
  N  N893  1  0.814200  0.314700  0.245600  1
  N  N894  1  0.314200  0.245600  0.930900  1
  N  N895  1  0.814200  0.930900  0.685300  1
  N  N896  1  0.314200  0.685300  0.754400  1
  N  N897  1  0.185800  0.245600  0.930900  1
  N  N898  1  0.685800  0.930900  0.685300  1
  N  N899  1  0.185800  0.685300  0.754400  1
  N  N900  1  0.685800  0.754400  0.069100  1
  N  N901  1  0.185800  0.069100  0.314700  1
  N  N902  1  0.685800  0.314700  0.245600  1
  N  N903  1  0.750000  0.000000  0.000000  1
  N  N904  1  0.250000  0.000000  0.000000  1
  N  N905  1  0.866700  0.846300  1.000000  1.0
  N  N906  1  0.366700  0.000000  0.153700  1.0
  N  N907  1  0.866700  0.153700  0.153700  1.0
  N  N908  1  0.366700  0.153700  1.000000  1.0
  N  N909  1  0.866700  0.000000  0.846300  1.0
  N  N910  1  0.366700  0.846300  0.846300  1.0
  N  N911  1  0.133300  0.153700  1.000000  1.0
  N  N912  1  0.633300  0.000000  0.846300  1.0
  N  N913  1  0.133300  0.846300  0.846300  1.0
  N  N914  1  0.633300  0.846300  1.000000  1.0
  N  N915  1  0.133300  0.000000  0.153700  1.0
  N  N916  1  0.633300  0.153700  0.153700  1.0
  N  N917  1  0.807400  0.789500  0.918700  1.0
  N  N918  1  0.307400  0.918700  0.129200  1.0
  N  N919  1  0.807400  0.129200  0.210500  1.0
  N  N920  1  0.307400  0.210500  0.081300  1.0
  N  N921  1  0.807400  0.081300  0.870800  1.0
  N  N922  1  0.307400  0.870800  0.789500  1.0
  N  N923  1  0.192600  0.210500  0.081300  1.0
  N  N924  1  0.692600  0.081300  0.870800  1.0
  N  N925  1  0.192600  0.870800  0.789500  1.0
  N  N926  1  0.692600  0.789500  0.918700  1.0
  N  N927  1  0.192600  0.918700  0.129200  1.0
  N  N928  1  0.692600  0.129200  0.210500  1.0
  N  N929  1  0.828800  0.744600  0.049500  1.0
  N  N930  1  0.328800  0.049500  0.304900  1.0
  N  N931  1  0.828800  0.304900  0.255400  1.0
  N  N932  1  0.328800  0.255400  0.950500  1.0
  N  N933  1  0.828800  0.950500  0.695100  1.0
  N  N934  1  0.328800  0.695100  0.744600  1.0
  N  N935  1  0.171200  0.255400  0.950500  1.0
  N  N936  1  0.671200  0.950500  0.695100  1.0
  N  N937  1  0.171200  0.695100  0.744600  1.0
  N  N938  1  0.671200  0.744600  0.049500  1.0
  N  N939  1  0.171200  0.049500  0.304900  1.0
  N  N940  1  0.671200  0.304900  0.255400  1.0
  O  O941  1  0.750000  0.313900  0.818400  1
  O  O942  1  0.250000  0.818400  0.504500  1
  O  O943  1  0.750000  0.504500  0.686100  1
  O  O944  1  0.250000  0.686100  0.181600  1
  O  O945  1  0.750000  0.181600  0.495500  1
  O  O946  1  0.250000  0.495500  0.313900  1
  O  O947  1  0.750000  0.347400  0.915000  1
  O  O948  1  0.250000  0.915000  0.567600  1
  O  O949  1  0.750000  0.567600  0.652600  1
  O  O950  1  0.250000  0.652600  0.085000  1
  O  O951  1  0.750000  0.085000  0.432400  1
  O  O952  1  0.250000  0.432400  0.347400  1
  O  O953  1  0.984700  0.662900  0.137300  1
  O  O954  1  0.484700  0.137300  0.474400  1
  O  O955  1  0.984700  0.474400  0.337100  1
  O  O956  1  0.484700  0.337100  0.862700  1
  O  O957  1  0.984700  0.862700  0.525600  1
  O  O958  1  0.484700  0.525600  0.662900  1
  O  O959  1  0.015300  0.337100  0.862700  1
  O  O960  1  0.515300  0.862700  0.525600  1
  O  O961  1  0.015300  0.525600  0.662900  1
  O  O962  1  0.515300  0.662900  0.137300  1
  O  O963  1  0.015300  0.137300  0.474400  1
  O  O964  1  0.515300  0.474400  0.337100  1
  O  O965  1  0.934100  0.729700  0.230000  1
  O  O966  1  0.434100  0.230000  0.500300  1
  O  O967  1  0.934100  0.500300  0.270300  1
  O  O968  1  0.434100  0.270300  0.770000  1
  O  O969  1  0.934100  0.770000  0.499700  1
  O  O970  1  0.434100  0.499700  0.729700  1
  O  O971  1  0.065900  0.270300  0.770000  1
  O  O972  1  0.565900  0.770000  0.499700  1
  O  O973  1  0.065900  0.499700  0.729700  1
  O  O974  1  0.565900  0.729700  0.230000  1
  O  O975  1  0.065900  0.230000  0.500300  1
  O  O976  1  0.565900  0.500300  0.270300  1
  O  O977  1  0.985400  0.551900  0.117600  1.0
  O  O978  1  0.485400  0.117600  0.565700  1.0
  O  O979  1  0.985400  0.565700  0.448100  1.0
  O  O980  1  0.485400  0.448100  0.882400  1.0
  O  O981  1  0.985400  0.882400  0.434300  1.0
  O  O982  1  0.485400  0.434300  0.551900  1.0
  O  O983  1  0.014600  0.448100  0.882400  1.0
  O  O984  1  0.514600  0.882400  0.434300  1.0
  O  O985  1  0.014600  0.434300  0.551900  1.0
  O  O986  1  0.514600  0.551900  0.117600  1.0
  O  O987  1  0.014600  0.117600  0.565700  1.0
  O  O988  1  0.514600  0.565700  0.448100  1.0
  O  O989  1  0.993000  0.680100  0.161700  1.0
  O  O990  1  0.493000  0.161700  0.481600  1.0
  O  O991  1  0.993000  0.481600  0.319900  1.0
  O  O992  1  0.493000  0.319900  0.838300  1.0
  O  O993  1  0.993000  0.838300  0.518400  1.0
  O  O994  1  0.493000  0.518400  0.680100  1.0
  O  O995  1  0.007000  0.319900  0.838300  1.0
  O  O996  1  0.507000  0.838300  0.518400  1.0
  O  O997  1  0.007000  0.518400  0.680100  1.0
  O  O998  1  0.507000  0.680100  0.161700  1.0
  O  O999  1  0.007000  0.161700  0.481600  1.0
  O  O1000  1  0.507000  0.481600  0.319900  1.0
  O  O1001  1  0.023400  0.629000  0.065300  1.0
  O  O1002  1  0.523400  0.065300  0.436300  1.0
  O  O1003  1  0.023400  0.436300  0.371000  1.0
  O  O1004  1  0.523400  0.371000  0.934700  1.0
  O  O1005  1  0.023400  0.934700  0.563700  1.0
  O  O1006  1  0.523400  0.563700  0.629000  1.0
  O  O1007  1  0.976600  0.371000  0.934700  1.0
  O  O1008  1  0.476600  0.934700  0.563700  1.0
  O  O1009  1  0.976600  0.563700  0.629000  1.0
  O  O1010  1  0.476600  0.629000  0.065300  1.0
  O  O1011  1  0.976600  0.065300  0.436300  1.0
  O  O1012  1  0.476600  0.436300  0.371000  1.0
  F  F1013  1  0.750000  0.631300  0.912800  1
  F  F1014  1  0.250000  0.912800  0.281500  1
  F  F1015  1  0.750000  0.281500  0.368700  1
  F  F1016  1  0.250000  0.368700  0.087200  1
  F  F1017  1  0.750000  0.087200  0.718500  1
  F  F1018  1  0.250000  0.718500  0.631300  1
  F  F1019  1  0.750000  0.533600  0.835500  1
  F  F1020  1  0.250000  0.835500  0.301900  1
  F  F1021  1  0.750000  0.301900  0.466400  1
  F  F1022  1  0.250000  0.466400  0.164500  1
  F  F1023  1  0.750000  0.164500  0.698100  1
  F  F1024  1  0.250000  0.698100  0.533600  1
  F  F1025  1  0.750000  0.861900  0.831600  1
  F  F1026  1  0.250000  0.831600  0.969700  1
  F  F1027  1  0.750000  0.969700  0.138100  1
  F  F1028  1  0.250000  0.138100  0.168400  1
  F  F1029  1  0.750000  0.168400  0.030300  1
  F  F1030  1  0.250000  0.030300  0.861900  1
  F  F1031  1  0.750000  0.838700  0.736100  1
  F  F1032  1  0.250000  0.736100  0.897400  1
  F  F1033  1  0.750000  0.897400  0.161300  1
  F  F1034  1  0.250000  0.161300  0.263900  1
  F  F1035  1  0.750000  0.263900  0.102600  1
  F  F1036  1  0.250000  0.102600  0.838700  1
  F  F1037  1  0.017000  0.939800  0.982600  1
  F  F1038  1  0.517000  0.982600  0.042800  1
  F  F1039  1  0.017000  0.042800  0.060200  1
  F  F1040  1  0.517000  0.060200  0.017400  1
  F  F1041  1  0.017000  0.017400  0.957200  1
  F  F1042  1  0.517000  0.957200  0.939800  1
  F  F1043  1  0.983000  0.060200  0.017400  1
  F  F1044  1  0.483000  0.017400  0.957200  1
  F  F1045  1  0.983000  0.957200  0.939800  1
  F  F1046  1  0.483000  0.939800  0.982600  1
  F  F1047  1  0.983000  0.982600  0.042800  1
  F  F1048  1  0.483000  0.042800  0.060200  1
  F  F1049  1  0.924600  0.000000  0.000000  1
  F  F1050  1  0.424600  0.000000  0.000000  1
  F  F1051  1  0.075400  0.000000  0.000000  1
  F  F1052  1  0.575400  0.000000  0.000000  1
  F  F1053  1  0.806600  0.554200  0.917200  1.0
  F  F1054  1  0.306600  0.917200  0.363000  1.0
  F  F1055  1  0.806600  0.363000  0.445800  1.0
  F  F1056  1  0.306600  0.445800  0.082800  1.0
  F  F1057  1  0.806600  0.082800  0.637000  1.0
  F  F1058  1  0.306600  0.637000  0.554200  1.0
  F  F1059  1  0.193400  0.445800  0.082800  1.0
  F  F1060  1  0.693400  0.082800  0.637000  1.0
  F  F1061  1  0.193400  0.637000  0.554200  1.0
  F  F1062  1  0.693400  0.554200  0.917200  1.0
  F  F1063  1  0.193400  0.917200  0.363000  1.0
  F  F1064  1  0.693400  0.363000  0.445800  1.0
  F  F1065  1  0.804300  0.780200  0.756800  1.0
  F  F1066  1  0.304300  0.756800  0.976600  1.0
  F  F1067  1  0.804300  0.976600  0.219800  1.0
  F  F1068  1  0.304300  0.219800  0.243200  1.0
  F  F1069  1  0.804300  0.243200  0.023400  1.0
  F  F1070  1  0.304300  0.023400  0.780200  1.0
  F  F1071  1  0.195700  0.219800  0.243200  1.0
  F  F1072  1  0.695700  0.243200  0.023400  1.0
  F  F1073  1  0.195700  0.023400  0.780200  1.0
  F  F1074  1  0.695700  0.780200  0.756800  1.0
  F  F1075  1  0.195700  0.756800  0.976600  1.0
  F  F1076  1  0.695700  0.976600  0.219800  1.0
