# generated using pymatgen
data_B14H348Pd6C363N44O51F64
_symmetry_space_group_name_H-M   'P 1'
_cell_length_a   20.33370000
_cell_length_b   24.61850000
_cell_length_c   24.61850000
_cell_angle_alpha   120.00000000
_cell_angle_beta   90.00000000
_cell_angle_gamma   90.00000000
_symmetry_Int_Tables_number   1
_chemical_formula_structural   B14H348Pd6C363N44O51F64
_chemical_formula_sum   'B14 H348 Pd6 C363 N44 O51 F64'
_cell_volume   10672.59967008
_cell_formula_units_Z   1
loop_
 _symmetry_equiv_pos_site_id
 _symmetry_equiv_pos_as_xyz
  1  'x, y, z'
loop_
 _atom_site_type_symbol
 _atom_site_label
 _atom_site_symmetry_multiplicity
 _atom_site_fract_x
 _atom_site_fract_y
 _atom_site_fract_z
 _atom_site_occupancy
  B  B1  1  0.750000  0.763300  0.949400  1
  B  B2  1  0.250000  0.949400  0.186100  1
  B  B3  1  0.750000  0.186100  0.236700  1
  B  B4  1  0.250000  0.236700  0.050600  1
  B  B5  1  0.750000  0.050600  0.813900  1
  B  B6  1  0.250000  0.813900  0.763300  1
  B  B7  1  0.750000  0.883900  0.314900  1
  B  B8  1  0.250000  0.314900  0.431000  1
  B  B9  1  0.750000  0.431000  0.116100  1
  B  B10  1  0.250000  0.116100  0.685100  1
  B  B11  1  0.750000  0.685100  0.569000  1
  B  B12  1  0.250000  0.569000  0.883900  1
  B  B13  1  0.500000  0.000000  0.000000  1
  B  B14  1  0.000000  0.000000  0.000000  1
  H  H15  1  0.250000  0.082600  0.526500  1
  H  H16  1  0.750000  0.526500  0.443900  1
  H  H17  1  0.250000  0.443900  0.917400  1
  H  H18  1  0.750000  0.917400  0.473500  1
  H  H19  1  0.250000  0.473500  0.556100  1
  H  H20  1  0.750000  0.556100  0.082600  1
  H  H21  1  0.588600  0.092400  0.596900  1
  H  H22  1  0.088600  0.596900  0.504500  1
  H  H23  1  0.588600  0.504500  0.907600  1
  H  H24  1  0.088600  0.907600  0.403100  1
  H  H25  1  0.588600  0.403100  0.495500  1
  H  H26  1  0.088600  0.495500  0.092400  1
  H  H27  1  0.411400  0.907600  0.403100  1
  H  H28  1  0.911400  0.403100  0.495500  1
  H  H29  1  0.411400  0.495500  0.092400  1
  H  H30  1  0.911400  0.092400  0.596900  1
  H  H31  1  0.411400  0.596900  0.504500  1
  H  H32  1  0.911400  0.504500  0.907600  1
  H  H33  1  0.542900  0.145500  0.649600  1
  H  H34  1  0.042900  0.649600  0.504100  1
  H  H35  1  0.542900  0.504100  0.854500  1
  H  H36  1  0.042900  0.854500  0.350400  1
  H  H37  1  0.542900  0.350400  0.495900  1
  H  H38  1  0.042900  0.495900  0.145500  1
  H  H39  1  0.457100  0.854500  0.350400  1
  H  H40  1  0.957100  0.350400  0.495900  1
  H  H41  1  0.457100  0.495900  0.145500  1
  H  H42  1  0.957100  0.145500  0.649600  1
  H  H43  1  0.457100  0.649600  0.504100  1
  H  H44  1  0.957100  0.504100  0.854500  1
  H  H45  1  0.591200  0.162600  0.609000  1
  H  H46  1  0.091200  0.609000  0.446400  1
  H  H47  1  0.591200  0.446400  0.837400  1
  H  H48  1  0.091200  0.837400  0.391000  1
  H  H49  1  0.591200  0.391000  0.553600  1
  H  H50  1  0.091200  0.553600  0.162600  1
  H  H51  1  0.408800  0.837400  0.391000  1
  H  H52  1  0.908800  0.391000  0.553600  1
  H  H53  1  0.408800  0.553600  0.162600  1
  H  H54  1  0.908800  0.162600  0.609000  1
  H  H55  1  0.408800  0.609000  0.446400  1
  H  H56  1  0.908800  0.446400  0.837400  1
  H  H57  1  0.250000  0.939300  0.910300  1
  H  H58  1  0.750000  0.910300  0.971000  1
  H  H59  1  0.250000  0.971000  0.060700  1
  H  H60  1  0.750000  0.060700  0.089700  1
  H  H61  1  0.250000  0.089700  0.029000  1
  H  H62  1  0.750000  0.029000  0.939300  1
  H  H63  1  0.289400  0.002600  0.929000  1
  H  H64  1  0.789400  0.929000  0.926400  1
  H  H65  1  0.289400  0.926400  0.997400  1
  H  H66  1  0.789400  0.997400  0.071000  1
  H  H67  1  0.289400  0.071000  0.073600  1
  H  H68  1  0.789400  0.073600  0.002600  1
  H  H69  1  0.710600  0.997400  0.071000  1
  H  H70  1  0.210600  0.071000  0.073600  1
  H  H71  1  0.710600  0.073600  0.002600  1
  H  H72  1  0.210600  0.002600  0.929000  1
  H  H73  1  0.710600  0.929000  0.926400  1
  H  H74  1  0.210600  0.926400  0.997400  1
  H  H75  1  0.210600  0.147300  0.564400  1.0
  H  H76  1  0.710600  0.564400  0.417100  1.0
  H  H77  1  0.210600  0.417100  0.852700  1.0
  H  H78  1  0.710600  0.852700  0.435600  1.0
  H  H79  1  0.210600  0.435600  0.582900  1.0
  H  H80  1  0.710600  0.582900  0.147300  1.0
  H  H81  1  0.789400  0.852700  0.435600  1.0
  H  H82  1  0.289400  0.435600  0.582900  1.0
  H  H83  1  0.789400  0.582900  0.147300  1.0
  H  H84  1  0.289400  0.147300  0.564400  1.0
  H  H85  1  0.789400  0.564400  0.417100  1.0
  H  H86  1  0.289400  0.417100  0.852700  1.0
  H  H87  1  0.750000  0.841000  0.085500  1.0
  H  H88  1  0.250000  0.085500  0.244500  1.0
  H  H89  1  0.750000  0.244500  0.159000  1.0
  H  H90  1  0.250000  0.159000  0.914500  1.0
  H  H91  1  0.750000  0.914500  0.755500  1.0
  H  H92  1  0.250000  0.755500  0.841000  1.0
  H  H93  1  0.750000  0.876200  0.160600  1.0
  H  H94  1  0.250000  0.160600  0.284400  1.0
  H  H95  1  0.750000  0.284400  0.123800  1.0
  H  H96  1  0.250000  0.123800  0.839400  1.0
  H  H97  1  0.750000  0.839400  0.715600  1.0
  H  H98  1  0.250000  0.715600  0.876200  1.0
  H  H99  1  0.639300  0.858900  0.043500  1.0
  H  H100  1  0.139300  0.043500  0.184600  1.0
  H  H101  1  0.639300  0.184600  0.141100  1.0
  H  H102  1  0.139300  0.141100  0.956500  1.0
  H  H103  1  0.639300  0.956500  0.815400  1.0
  H  H104  1  0.139300  0.815400  0.858900  1.0
  H  H105  1  0.360700  0.141100  0.956500  1.0
  H  H106  1  0.860700  0.956500  0.815400  1.0
  H  H107  1  0.360700  0.815400  0.858900  1.0
  H  H108  1  0.860700  0.858900  0.043500  1.0
  H  H109  1  0.360700  0.043500  0.184600  1.0
  H  H110  1  0.860700  0.184600  0.141100  1.0
  H  H111  1  0.572300  0.954300  0.075400  1.0
  H  H112  1  0.072300  0.075400  0.121100  1.0
  H  H113  1  0.572300  0.121100  0.045700  1.0
  H  H114  1  0.072300  0.045700  0.924600  1.0
  H  H115  1  0.572300  0.924600  0.878900  1.0
  H  H116  1  0.072300  0.878900  0.954300  1.0
  H  H117  1  0.427700  0.045700  0.924600  1.0
  H  H118  1  0.927700  0.924600  0.878900  1.0
  H  H119  1  0.427700  0.878900  0.954300  1.0
  H  H120  1  0.927700  0.954300  0.075400  1.0
  H  H121  1  0.427700  0.075400  0.121100  1.0
  H  H122  1  0.927700  0.121100  0.045700  1.0
  H  H123  1  0.596700  0.071900  0.150200  1.0
  H  H124  1  0.096700  0.150200  0.078300  1.0
  H  H125  1  0.596700  0.078300  0.928100  1.0
  H  H126  1  0.096700  0.928100  0.849800  1.0
  H  H127  1  0.596700  0.849800  0.921700  1.0
  H  H128  1  0.096700  0.921700  0.071900  1.0
  H  H129  1  0.403300  0.928100  0.849800  1.0
  H  H130  1  0.903300  0.849800  0.921700  1.0
  H  H131  1  0.403300  0.921700  0.071900  1.0
  H  H132  1  0.903300  0.071900  0.150200  1.0
  H  H133  1  0.403300  0.150200  0.078300  1.0
  H  H134  1  0.903300  0.078300  0.928100  1.0
  H  H135  1  0.646200  0.090400  0.207000  1.0
  H  H136  1  0.146200  0.207000  0.116600  1.0
  H  H137  1  0.646200  0.116600  0.909600  1.0
  H  H138  1  0.146200  0.909600  0.793000  1.0
  H  H139  1  0.646200  0.793000  0.883400  1.0
  H  H140  1  0.146200  0.883400  0.090400  1.0
  H  H141  1  0.353800  0.909600  0.793000  1.0
  H  H142  1  0.853800  0.793000  0.883400  1.0
  H  H143  1  0.353800  0.883400  0.090400  1.0
  H  H144  1  0.853800  0.090400  0.207000  1.0
  H  H145  1  0.353800  0.207000  0.116600  1.0
  H  H146  1  0.853800  0.116600  0.909600  1.0
  H  H147  1  0.565300  0.170100  0.273100  1.0
  H  H148  1  0.065300  0.273100  0.103000  1.0
  H  H149  1  0.565300  0.103000  0.829900  1.0
  H  H150  1  0.065300  0.829900  0.726900  1.0
  H  H151  1  0.565300  0.726900  0.897000  1.0
  H  H152  1  0.065300  0.897000  0.170100  1.0
  H  H153  1  0.434700  0.829900  0.726900  1.0
  H  H154  1  0.934700  0.726900  0.897000  1.0
  H  H155  1  0.434700  0.897000  0.170100  1.0
  H  H156  1  0.934700  0.170100  0.273100  1.0
  H  H157  1  0.434700  0.273100  0.103000  1.0
  H  H158  1  0.934700  0.103000  0.829900  1.0
  H  H159  1  0.483600  0.248600  0.352700  1.0
  H  H160  1  0.983600  0.352700  0.104100  1.0
  H  H161  1  0.483600  0.104100  0.751400  1.0
  H  H162  1  0.983600  0.751400  0.647300  1.0
  H  H163  1  0.483600  0.647300  0.895900  1.0
  H  H164  1  0.983600  0.895900  0.248600  1.0
  H  H165  1  0.516400  0.751400  0.647300  1.0
  H  H166  1  0.016400  0.647300  0.895900  1.0
  H  H167  1  0.516400  0.895900  0.248600  1.0
  H  H168  1  0.016400  0.248600  0.352700  1.0
  H  H169  1  0.516400  0.352700  0.104100  1.0
  H  H170  1  0.016400  0.104100  0.751400  1.0
  H  H171  1  0.391300  0.268600  0.408400  1.0
  H  H172  1  0.891300  0.408400  0.139800  1.0
  H  H173  1  0.391300  0.139800  0.731400  1.0
  H  H174  1  0.891300  0.731400  0.591600  1.0
  H  H175  1  0.391300  0.591600  0.860200  1.0
  H  H176  1  0.891300  0.860200  0.268600  1.0
  H  H177  1  0.608700  0.731400  0.591600  1.0
  H  H178  1  0.108700  0.591600  0.860200  1.0
  H  H179  1  0.608700  0.860200  0.268600  1.0
  H  H180  1  0.108700  0.268600  0.408400  1.0
  H  H181  1  0.608700  0.408400  0.139800  1.0
  H  H182  1  0.108700  0.139800  0.731400  1.0
  H  H183  1  0.326500  0.191100  0.403900  1.0
  H  H184  1  0.826500  0.403900  0.212800  1.0
  H  H185  1  0.326500  0.212800  0.808900  1.0
  H  H186  1  0.826500  0.808900  0.596100  1.0
  H  H187  1  0.326500  0.596100  0.787200  1.0
  H  H188  1  0.826500  0.787200  0.191100  1.0
  H  H189  1  0.673500  0.808900  0.596100  1.0
  H  H190  1  0.173500  0.596100  0.787200  1.0
  H  H191  1  0.673500  0.787200  0.191100  1.0
  H  H192  1  0.173500  0.191100  0.403900  1.0
  H  H193  1  0.673500  0.403900  0.212800  1.0
  H  H194  1  0.173500  0.212800  0.808900  1.0
  H  H195  1  0.355700  0.084400  0.341900  1.0
  H  H196  1  0.855700  0.341900  0.257500  1.0
  H  H197  1  0.355700  0.257500  0.915600  1.0
  H  H198  1  0.855700  0.915600  0.658100  1.0
  H  H199  1  0.355700  0.658100  0.742500  1.0
  H  H200  1  0.855700  0.742500  0.084400  1.0
  H  H201  1  0.644300  0.915600  0.658100  1.0
  H  H202  1  0.144300  0.658100  0.742500  1.0
  H  H203  1  0.644300  0.742500  0.084400  1.0
  H  H204  1  0.144300  0.084400  0.341900  1.0
  H  H205  1  0.644300  0.341900  0.257500  1.0
  H  H206  1  0.144300  0.257500  0.915600  1.0
  H  H207  1  0.435300  0.007100  0.260500  1.0
  H  H208  1  0.935300  0.260500  0.253400  1.0
  H  H209  1  0.435300  0.253400  0.992900  1.0
  H  H210  1  0.935300  0.992900  0.739500  1.0
  H  H211  1  0.435300  0.739500  0.746600  1.0
  H  H212  1  0.935300  0.746600  0.007100  1.0
  H  H213  1  0.564700  0.992900  0.739500  1.0
  H  H214  1  0.064700  0.739500  0.746600  1.0
  H  H215  1  0.564700  0.746600  0.007100  1.0
  H  H216  1  0.064700  0.007100  0.260500  1.0
  H  H217  1  0.564700  0.260500  0.253400  1.0
  H  H218  1  0.064700  0.253400  0.992900  1.0
  H  H219  1  0.524900  0.984100  0.198800  1.0
  H  H220  1  0.024900  0.198800  0.214700  1.0
  H  H221  1  0.524900  0.214700  0.015900  1.0
  H  H222  1  0.024900  0.015900  0.801200  1.0
  H  H223  1  0.524900  0.801200  0.785300  1.0
  H  H224  1  0.024900  0.785300  0.984100  1.0
  H  H225  1  0.475100  0.015900  0.801200  1.0
  H  H226  1  0.975100  0.801200  0.785300  1.0
  H  H227  1  0.475100  0.785300  0.984100  1.0
  H  H228  1  0.975100  0.984100  0.198800  1.0
  H  H229  1  0.475100  0.198800  0.214700  1.0
  H  H230  1  0.975100  0.214700  0.015900  1.0
  H  H231  1  0.331400  0.301100  0.543100  1.0
  H  H232  1  0.831400  0.543100  0.242000  1.0
  H  H233  1  0.331400  0.242000  0.698900  1.0
  H  H234  1  0.831400  0.698900  0.456900  1.0
  H  H235  1  0.331400  0.456900  0.758000  1.0
  H  H236  1  0.831400  0.758000  0.301100  1.0
  H  H237  1  0.668600  0.698900  0.456900  1.0
  H  H238  1  0.168600  0.456900  0.758000  1.0
  H  H239  1  0.668600  0.758000  0.301100  1.0
  H  H240  1  0.168600  0.301100  0.543100  1.0
  H  H241  1  0.668600  0.543100  0.242000  1.0
  H  H242  1  0.168600  0.242000  0.698900  1.0
  H  H243  1  0.307700  0.319100  0.612200  1.0
  H  H244  1  0.807700  0.612200  0.293100  1.0
  H  H245  1  0.307700  0.293100  0.680900  1.0
  H  H246  1  0.807700  0.680900  0.387800  1.0
  H  H247  1  0.307700  0.387800  0.706900  1.0
  H  H248  1  0.807700  0.706900  0.319100  1.0
  H  H249  1  0.692300  0.680900  0.387800  1.0
  H  H250  1  0.192300  0.387800  0.706900  1.0
  H  H251  1  0.692300  0.706900  0.319100  1.0
  H  H252  1  0.192300  0.319100  0.612200  1.0
  H  H253  1  0.692300  0.612200  0.293100  1.0
  H  H254  1  0.192300  0.293100  0.680900  1.0
  H  H255  1  0.416600  0.175300  0.646100  1.0
  H  H256  1  0.916600  0.646100  0.470800  1.0
  H  H257  1  0.416600  0.470800  0.824700  1.0
  H  H258  1  0.916600  0.824700  0.353900  1.0
  H  H259  1  0.416600  0.353900  0.529200  1.0
  H  H260  1  0.916600  0.529200  0.175300  1.0
  H  H261  1  0.583400  0.824700  0.353900  1.0
  H  H262  1  0.083400  0.353900  0.529200  1.0
  H  H263  1  0.583400  0.529200  0.175300  1.0
  H  H264  1  0.083400  0.175300  0.646100  1.0
  H  H265  1  0.583400  0.646100  0.470800  1.0
  H  H266  1  0.083400  0.470800  0.824700  1.0
  H  H267  1  0.435600  0.237300  0.500300  1.0
  H  H268  1  0.935600  0.500300  0.263000  1.0
  H  H269  1  0.435600  0.263000  0.762700  1.0
  H  H270  1  0.935600  0.762700  0.499700  1.0
  H  H271  1  0.435600  0.499700  0.737000  1.0
  H  H272  1  0.935600  0.737000  0.237300  1.0
  H  H273  1  0.564400  0.762700  0.499700  1.0
  H  H274  1  0.064400  0.499700  0.737000  1.0
  H  H275  1  0.564400  0.737000  0.237300  1.0
  H  H276  1  0.064400  0.237300  0.500300  1.0
  H  H277  1  0.564400  0.500300  0.263000  1.0
  H  H278  1  0.064400  0.263000  0.762700  1.0
  H  H279  1  0.600100  0.172800  0.420600  1.0
  H  H280  1  0.100100  0.420600  0.247800  1.0
  H  H281  1  0.600100  0.247800  0.827200  1.0
  H  H282  1  0.100100  0.827200  0.579400  1.0
  H  H283  1  0.600100  0.579400  0.752200  1.0
  H  H284  1  0.100100  0.752200  0.172800  1.0
  H  H285  1  0.399900  0.827200  0.579400  1.0
  H  H286  1  0.899900  0.579400  0.752200  1.0
  H  H287  1  0.399900  0.752200  0.172800  1.0
  H  H288  1  0.899900  0.172800  0.420600  1.0
  H  H289  1  0.399900  0.420600  0.247800  1.0
  H  H290  1  0.899900  0.247800  0.827200  1.0
  H  H291  1  0.691800  0.147800  0.343800  1.0
  H  H292  1  0.191800  0.343800  0.196000  1.0
  H  H293  1  0.691800  0.196000  0.852200  1.0
  H  H294  1  0.191800  0.852200  0.656200  1.0
  H  H295  1  0.691800  0.656200  0.804000  1.0
  H  H296  1  0.191800  0.804000  0.147800  1.0
  H  H297  1  0.308200  0.852200  0.656200  1.0
  H  H298  1  0.808200  0.656200  0.804000  1.0
  H  H299  1  0.308200  0.804000  0.147800  1.0
  H  H300  1  0.808200  0.147800  0.343800  1.0
  H  H301  1  0.308200  0.343800  0.196000  1.0
  H  H302  1  0.808200  0.196000  0.852200  1.0
  H  H303  1  0.651200  0.968100  0.286100  1.0
  H  H304  1  0.151200  0.286100  0.318000  1.0
  H  H305  1  0.651200  0.318000  0.031900  1.0
  H  H306  1  0.151200  0.031900  0.713900  1.0
  H  H307  1  0.651200  0.713900  0.682000  1.0
  H  H308  1  0.151200  0.682000  0.968100  1.0
  H  H309  1  0.348800  0.031900  0.713900  1.0
  H  H310  1  0.848800  0.713900  0.682000  1.0
  H  H311  1  0.348800  0.682000  0.968100  1.0
  H  H312  1  0.848800  0.968100  0.286100  1.0
  H  H313  1  0.348800  0.286100  0.318000  1.0
  H  H314  1  0.848800  0.318000  0.031900  1.0
  H  H315  1  0.561200  0.991200  0.349800  1.0
  H  H316  1  0.061200  0.349800  0.358600  1.0
  H  H317  1  0.561200  0.358600  0.008800  1.0
  H  H318  1  0.061200  0.008800  0.650200  1.0
  H  H319  1  0.561200  0.650200  0.641400  1.0
  H  H320  1  0.061200  0.641400  0.991200  1.0
  H  H321  1  0.438800  0.008800  0.650200  1.0
  H  H322  1  0.938800  0.650200  0.641400  1.0
  H  H323  1  0.438800  0.641400  0.991200  1.0
  H  H324  1  0.938800  0.991200  0.349800  1.0
  H  H325  1  0.438800  0.349800  0.358600  1.0
  H  H326  1  0.938800  0.358600  0.008800  1.0
  H  H327  1  0.524600  0.048000  0.589900  1.0
  H  H328  1  0.024600  0.589900  0.541900  1.0
  H  H329  1  0.524600  0.541900  0.952000  1.0
  H  H330  1  0.024600  0.952000  0.410100  1.0
  H  H331  1  0.524600  0.410100  0.458100  1.0
  H  H332  1  0.024600  0.458100  0.048000  1.0
  H  H333  1  0.475400  0.952000  0.410100  1.0
  H  H334  1  0.975400  0.410100  0.458100  1.0
  H  H335  1  0.475400  0.458100  0.048000  1.0
  H  H336  1  0.975400  0.048000  0.589900  1.0
  H  H337  1  0.475400  0.589900  0.541900  1.0
  H  H338  1  0.975400  0.541900  0.952000  1.0
  H  H339  1  0.449100  0.068800  0.596900  1.0
  H  H340  1  0.949100  0.596900  0.528100  1.0
  H  H341  1  0.449100  0.528100  0.931200  1.0
  H  H342  1  0.949100  0.931200  0.403100  1.0
  H  H343  1  0.449100  0.403100  0.471900  1.0
  H  H344  1  0.949100  0.471900  0.068800  1.0
  H  H345  1  0.550900  0.931200  0.403100  1.0
  H  H346  1  0.050900  0.403100  0.471900  1.0
  H  H347  1  0.550900  0.471900  0.068800  1.0
  H  H348  1  0.050900  0.068800  0.596900  1.0
  H  H349  1  0.550900  0.596900  0.528100  1.0
  H  H350  1  0.050900  0.528100  0.931200  1.0
  H  H351  1  0.502300  0.115000  0.646300  1.0
  H  H352  1  0.002300  0.646300  0.531300  1.0
  H  H353  1  0.502300  0.531300  0.885000  1.0
  H  H354  1  0.002300  0.885000  0.353700  1.0
  H  H355  1  0.502300  0.353700  0.468700  1.0
  H  H356  1  0.002300  0.468700  0.115000  1.0
  H  H357  1  0.497700  0.885000  0.353700  1.0
  H  H358  1  0.997700  0.353700  0.468700  1.0
  H  H359  1  0.497700  0.468700  0.115000  1.0
  H  H360  1  0.997700  0.115000  0.646300  1.0
  H  H361  1  0.497700  0.646300  0.531300  1.0
  H  H362  1  0.997700  0.531300  0.885000  1.0
  Pd  Pd363  1  0.750000  0.019180  0.238760  1.0
  Pd  Pd364  1  0.250000  0.238760  0.219580  1.0
  Pd  Pd365  1  0.750000  0.219580  0.980820  1.0
  Pd  Pd366  1  0.250000  0.980820  0.761240  1.0
  Pd  Pd367  1  0.750000  0.761240  0.780420  1.0
  Pd  Pd368  1  0.250000  0.780420  0.019180  1.0
  C  C369  1  0.250000  0.127000  0.539000  1
  C  C370  1  0.750000  0.539000  0.412000  1
  C  C371  1  0.250000  0.412000  0.873000  1
  C  C372  1  0.750000  0.873000  0.461000  1
  C  C373  1  0.250000  0.461000  0.588000  1
  C  C374  1  0.750000  0.588000  0.127000  1
  C  C375  1  0.563000  0.130000  0.608000  1
  C  C376  1  0.063000  0.608000  0.478000  1
  C  C377  1  0.563000  0.478000  0.870000  1
  C  C378  1  0.063000  0.870000  0.392000  1
  C  C379  1  0.563000  0.392000  0.522000  1
  C  C380  1  0.063000  0.522000  0.130000  1
  C  C381  1  0.437000  0.870000  0.392000  1
  C  C382  1  0.937000  0.392000  0.522000  1
  C  C383  1  0.437000  0.522000  0.130000  1
  C  C384  1  0.937000  0.130000  0.608000  1
  C  C385  1  0.437000  0.608000  0.478000  1
  C  C386  1  0.937000  0.478000  0.870000  1
  C  C387  1  0.750000  0.882600  0.124000  1.0
  C  C388  1  0.250000  0.124000  0.241400  1.0
  C  C389  1  0.750000  0.241400  0.117400  1.0
  C  C390  1  0.250000  0.117400  0.876000  1.0
  C  C391  1  0.750000  0.876000  0.758600  1.0
  C  C392  1  0.250000  0.758600  0.882600  1.0
  C  C393  1  0.686600  0.975700  0.169500  1.0
  C  C394  1  0.186600  0.169500  0.193800  1.0
  C  C395  1  0.686600  0.193800  0.024300  1.0
  C  C396  1  0.186600  0.024300  0.830500  1.0
  C  C397  1  0.686600  0.830500  0.806200  1.0
  C  C398  1  0.186600  0.806200  0.975700  1.0
  C  C399  1  0.313400  0.024300  0.830500  1.0
  C  C400  1  0.813400  0.830500  0.806200  1.0
  C  C401  1  0.313400  0.806200  0.975700  1.0
  C  C402  1  0.813400  0.975700  0.169500  1.0
  C  C403  1  0.313400  0.169500  0.193800  1.0
  C  C404  1  0.813400  0.193800  0.024300  1.0
  C  C405  1  0.645300  0.899000  0.079600  1.0
  C  C406  1  0.145300  0.079600  0.180600  1.0
  C  C407  1  0.645300  0.180600  0.101000  1.0
  C  C408  1  0.145300  0.101000  0.920400  1.0
  C  C409  1  0.645300  0.920400  0.819400  1.0
  C  C410  1  0.145300  0.819400  0.899000  1.0
  C  C411  1  0.354700  0.101000  0.920400  1.0
  C  C412  1  0.854700  0.920400  0.819400  1.0
  C  C413  1  0.354700  0.819400  0.899000  1.0
  C  C414  1  0.854700  0.899000  0.079600  1.0
  C  C415  1  0.354700  0.079600  0.180600  1.0
  C  C416  1  0.854700  0.180600  0.101000  1.0
  C  C417  1  0.609200  0.951200  0.097400  1.0
  C  C418  1  0.109200  0.097400  0.146200  1.0
  C  C419  1  0.609200  0.146200  0.048800  1.0
  C  C420  1  0.109200  0.048800  0.902600  1.0
  C  C421  1  0.609200  0.902600  0.853800  1.0
  C  C422  1  0.109200  0.853800  0.951200  1.0
  C  C423  1  0.390800  0.048800  0.902600  1.0
  C  C424  1  0.890800  0.902600  0.853800  1.0
  C  C425  1  0.390800  0.853800  0.951200  1.0
  C  C426  1  0.890800  0.951200  0.097400  1.0
  C  C427  1  0.390800  0.097400  0.146200  1.0
  C  C428  1  0.890800  0.146200  0.048800  1.0
  C  C429  1  0.609700  0.061800  0.182900  1.0
  C  C430  1  0.109700  0.182900  0.121100  1.0
  C  C431  1  0.609700  0.121100  0.938200  1.0
  C  C432  1  0.109700  0.938200  0.817100  1.0
  C  C433  1  0.609700  0.817100  0.878900  1.0
  C  C434  1  0.109700  0.878900  0.061800  1.0
  C  C435  1  0.390300  0.938200  0.817100  1.0
  C  C436  1  0.890300  0.817100  0.878900  1.0
  C  C437  1  0.390300  0.878900  0.061800  1.0
  C  C438  1  0.890300  0.061800  0.182900  1.0
  C  C439  1  0.390300  0.182900  0.121100  1.0
  C  C440  1  0.890300  0.121100  0.938200  1.0
  C  C441  1  0.552200  0.076000  0.226600  1.0
  C  C442  1  0.052200  0.226600  0.150600  1.0
  C  C443  1  0.552200  0.150600  0.924000  1.0
  C  C444  1  0.052200  0.924000  0.773400  1.0
  C  C445  1  0.552200  0.773400  0.849400  1.0
  C  C446  1  0.052200  0.849400  0.076000  1.0
  C  C447  1  0.447800  0.924000  0.773400  1.0
  C  C448  1  0.947800  0.773400  0.849400  1.0
  C  C449  1  0.447800  0.849400  0.076000  1.0
  C  C450  1  0.947800  0.076000  0.226600  1.0
  C  C451  1  0.447800  0.226600  0.150600  1.0
  C  C452  1  0.947800  0.150600  0.924000  1.0
  C  C453  1  0.537600  0.137300  0.269200  1.0
  C  C454  1  0.037600  0.269200  0.131900  1.0
  C  C455  1  0.537600  0.131900  0.862700  1.0
  C  C456  1  0.037600  0.862700  0.730800  1.0
  C  C457  1  0.537600  0.730800  0.868100  1.0
  C  C458  1  0.037600  0.868100  0.137300  1.0
  C  C459  1  0.462400  0.862700  0.730800  1.0
  C  C460  1  0.962400  0.730800  0.868100  1.0
  C  C461  1  0.462400  0.868100  0.137300  1.0
  C  C462  1  0.962400  0.137300  0.269200  1.0
  C  C463  1  0.462400  0.269200  0.131900  1.0
  C  C464  1  0.962400  0.131900  0.862700  1.0
  C  C465  1  0.479900  0.151300  0.307600  1.0
  C  C466  1  0.979900  0.307600  0.156300  1.0
  C  C467  1  0.479900  0.156300  0.848700  1.0
  C  C468  1  0.979900  0.848700  0.692400  1.0
  C  C469  1  0.479900  0.692400  0.843700  1.0
  C  C470  1  0.979900  0.843700  0.151300  1.0
  C  C471  1  0.520100  0.848700  0.692400  1.0
  C  C472  1  0.020100  0.692400  0.843700  1.0
  C  C473  1  0.520100  0.843700  0.151300  1.0
  C  C474  1  0.020100  0.151300  0.307600  1.0
  C  C475  1  0.520100  0.307600  0.156300  1.0
  C  C476  1  0.020100  0.156300  0.848700  1.0
  C  C477  1  0.458200  0.214600  0.349100  1.0
  C  C478  1  0.958200  0.349100  0.134500  1.0
  C  C479  1  0.458200  0.134500  0.785400  1.0
  C  C480  1  0.958200  0.785400  0.650900  1.0
  C  C481  1  0.458200  0.650900  0.865500  1.0
  C  C482  1  0.958200  0.865500  0.214600  1.0
  C  C483  1  0.541800  0.785400  0.650900  1.0
  C  C484  1  0.041800  0.650900  0.865500  1.0
  C  C485  1  0.541800  0.865500  0.214600  1.0
  C  C486  1  0.041800  0.214600  0.349100  1.0
  C  C487  1  0.541800  0.349100  0.134500  1.0
  C  C488  1  0.041800  0.134500  0.785400  1.0
  C  C489  1  0.404100  0.226200  0.381900  1.0
  C  C490  1  0.904100  0.381900  0.155700  1.0
  C  C491  1  0.404100  0.155700  0.773800  1.0
  C  C492  1  0.904100  0.773800  0.618100  1.0
  C  C493  1  0.404100  0.618100  0.844300  1.0
  C  C494  1  0.904100  0.844300  0.226200  1.0
  C  C495  1  0.595900  0.773800  0.618100  1.0
  C  C496  1  0.095900  0.618100  0.844300  1.0
  C  C497  1  0.595900  0.844300  0.226200  1.0
  C  C498  1  0.095900  0.226200  0.381900  1.0
  C  C499  1  0.595900  0.381900  0.155700  1.0
  C  C500  1  0.095900  0.155700  0.773800  1.0
  C  C501  1  0.365600  0.180000  0.379500  1.0
  C  C502  1  0.865600  0.379500  0.199500  1.0
  C  C503  1  0.365600  0.199500  0.820000  1.0
  C  C504  1  0.865600  0.820000  0.620500  1.0
  C  C505  1  0.365600  0.620500  0.800500  1.0
  C  C506  1  0.865600  0.800500  0.180000  1.0
  C  C507  1  0.634400  0.820000  0.620500  1.0
  C  C508  1  0.134400  0.620500  0.800500  1.0
  C  C509  1  0.634400  0.800500  0.180000  1.0
  C  C510  1  0.134400  0.180000  0.379500  1.0
  C  C511  1  0.634400  0.379500  0.199500  1.0
  C  C512  1  0.134400  0.199500  0.820000  1.0
  C  C513  1  0.381800  0.116600  0.342400  1.0
  C  C514  1  0.881800  0.342400  0.225800  1.0
  C  C515  1  0.381800  0.225800  0.883400  1.0
  C  C516  1  0.881800  0.883400  0.657600  1.0
  C  C517  1  0.381800  0.657600  0.774200  1.0
  C  C518  1  0.881800  0.774200  0.116600  1.0
  C  C519  1  0.618200  0.883400  0.657600  1.0
  C  C520  1  0.118200  0.657600  0.774200  1.0
  C  C521  1  0.618200  0.774200  0.116600  1.0
  C  C522  1  0.118200  0.116600  0.342400  1.0
  C  C523  1  0.618200  0.342400  0.225800  1.0
  C  C524  1  0.118200  0.225800  0.883400  1.0
  C  C525  1  0.441900  0.102900  0.304100  1.0
  C  C526  1  0.941900  0.304100  0.201200  1.0
  C  C527  1  0.441900  0.201200  0.897100  1.0
  C  C528  1  0.941900  0.897100  0.695900  1.0
  C  C529  1  0.441900  0.695900  0.798800  1.0
  C  C530  1  0.941900  0.798800  0.102900  1.0
  C  C531  1  0.558100  0.897100  0.695900  1.0
  C  C532  1  0.058100  0.695900  0.798800  1.0
  C  C533  1  0.558100  0.798800  0.102900  1.0
  C  C534  1  0.058100  0.102900  0.304100  1.0
  C  C535  1  0.558100  0.304100  0.201200  1.0
  C  C536  1  0.058100  0.201200  0.897100  1.0
  C  C537  1  0.460800  0.040400  0.262500  1.0
  C  C538  1  0.960800  0.262500  0.222100  1.0
  C  C539  1  0.460800  0.222100  0.959600  1.0
  C  C540  1  0.960800  0.959600  0.737500  1.0
  C  C541  1  0.460800  0.737500  0.777900  1.0
  C  C542  1  0.960800  0.777900  0.040400  1.0
  C  C543  1  0.539200  0.959600  0.737500  1.0
  C  C544  1  0.039200  0.737500  0.777900  1.0
  C  C545  1  0.539200  0.777900  0.040400  1.0
  C  C546  1  0.039200  0.040400  0.262500  1.0
  C  C547  1  0.539200  0.262500  0.222100  1.0
  C  C548  1  0.039200  0.222100  0.959600  1.0
  C  C549  1  0.513000  0.026700  0.225800  1.0
  C  C550  1  0.013000  0.225800  0.199100  1.0
  C  C551  1  0.513000  0.199100  0.973300  1.0
  C  C552  1  0.013000  0.973300  0.774200  1.0
  C  C553  1  0.513000  0.774200  0.800900  1.0
  C  C554  1  0.013000  0.800900  0.026700  1.0
  C  C555  1  0.487000  0.973300  0.774200  1.0
  C  C556  1  0.987000  0.774200  0.800900  1.0
  C  C557  1  0.487000  0.800900  0.026700  1.0
  C  C558  1  0.987000  0.026700  0.225800  1.0
  C  C559  1  0.487000  0.225800  0.199100  1.0
  C  C560  1  0.987000  0.199100  0.973300  1.0
  C  C561  1  0.346800  0.312300  0.585600  1.0
  C  C562  1  0.846800  0.585600  0.273300  1.0
  C  C563  1  0.346800  0.273300  0.687700  1.0
  C  C564  1  0.846800  0.687700  0.414400  1.0
  C  C565  1  0.346800  0.414400  0.726700  1.0
  C  C566  1  0.846800  0.726700  0.312300  1.0
  C  C567  1  0.653200  0.687700  0.414400  1.0
  C  C568  1  0.153200  0.414400  0.726700  1.0
  C  C569  1  0.653200  0.726700  0.312300  1.0
  C  C570  1  0.153200  0.312300  0.585600  1.0
  C  C571  1  0.653200  0.585600  0.273300  1.0
  C  C572  1  0.153200  0.273300  0.687700  1.0
  C  C573  1  0.388000  0.258800  0.581900  1.0
  C  C574  1  0.888000  0.581900  0.323100  1.0
  C  C575  1  0.388000  0.323100  0.741200  1.0
  C  C576  1  0.888000  0.741200  0.418100  1.0
  C  C577  1  0.388000  0.418100  0.676900  1.0
  C  C578  1  0.888000  0.676900  0.258800  1.0
  C  C579  1  0.612000  0.741200  0.418100  1.0
  C  C580  1  0.112000  0.418100  0.676900  1.0
  C  C581  1  0.612000  0.676900  0.258800  1.0
  C  C582  1  0.112000  0.258800  0.581900  1.0
  C  C583  1  0.612000  0.581900  0.323100  1.0
  C  C584  1  0.112000  0.323100  0.741200  1.0
  C  C585  1  0.386300  0.241200  0.628700  1.0
  C  C586  1  0.886300  0.628700  0.387500  1.0
  C  C587  1  0.386300  0.387500  0.758800  1.0
  C  C588  1  0.886300  0.758800  0.371300  1.0
  C  C589  1  0.386300  0.371300  0.612500  1.0
  C  C590  1  0.886300  0.612500  0.241200  1.0
  C  C591  1  0.613700  0.758800  0.371300  1.0
  C  C592  1  0.113700  0.371300  0.612500  1.0
  C  C593  1  0.613700  0.612500  0.241200  1.0
  C  C594  1  0.113700  0.241200  0.628700  1.0
  C  C595  1  0.613700  0.628700  0.387500  1.0
  C  C596  1  0.113700  0.387500  0.758800  1.0
  C  C597  1  0.422700  0.192200  0.619200  1.0
  C  C598  1  0.922700  0.619200  0.427000  1.0
  C  C599  1  0.422700  0.427000  0.807800  1.0
  C  C600  1  0.922700  0.807800  0.380800  1.0
  C  C601  1  0.422700  0.380800  0.573000  1.0
  C  C602  1  0.922700  0.573000  0.192200  1.0
  C  C603  1  0.577300  0.807800  0.380800  1.0
  C  C604  1  0.077300  0.380800  0.573000  1.0
  C  C605  1  0.577300  0.573000  0.192200  1.0
  C  C606  1  0.077300  0.192200  0.619200  1.0
  C  C607  1  0.577300  0.619200  0.427000  1.0
  C  C608  1  0.077300  0.427000  0.807800  1.0
  C  C609  1  0.468000  0.165700  0.572800  1.0
  C  C610  1  0.968000  0.572800  0.407100  1.0
  C  C611  1  0.468000  0.407100  0.834300  1.0
  C  C612  1  0.968000  0.834300  0.427200  1.0
  C  C613  1  0.468000  0.427200  0.592900  1.0
  C  C614  1  0.968000  0.592900  0.165700  1.0
  C  C615  1  0.532000  0.834300  0.427200  1.0
  C  C616  1  0.032000  0.427200  0.592900  1.0
  C  C617  1  0.532000  0.592900  0.165700  1.0
  C  C618  1  0.032000  0.165700  0.572800  1.0
  C  C619  1  0.532000  0.572800  0.407100  1.0
  C  C620  1  0.032000  0.407100  0.834300  1.0
  C  C621  1  0.468800  0.180900  0.525300  1.0
  C  C622  1  0.968800  0.525300  0.344400  1.0
  C  C623  1  0.468800  0.344400  0.819100  1.0
  C  C624  1  0.968800  0.819100  0.474700  1.0
  C  C625  1  0.468800  0.474700  0.655600  1.0
  C  C626  1  0.968800  0.655600  0.180900  1.0
  C  C627  1  0.531200  0.819100  0.474700  1.0
  C  C628  1  0.031200  0.474700  0.655600  1.0
  C  C629  1  0.531200  0.655600  0.180900  1.0
  C  C630  1  0.031200  0.180900  0.525300  1.0
  C  C631  1  0.531200  0.525300  0.344400  1.0
  C  C632  1  0.031200  0.344400  0.819100  1.0
  C  C633  1  0.432700  0.225400  0.531500  1.0
  C  C634  1  0.932700  0.531500  0.306100  1.0
  C  C635  1  0.432700  0.306100  0.774600  1.0
  C  C636  1  0.932700  0.774600  0.468500  1.0
  C  C637  1  0.432700  0.468500  0.693900  1.0
  C  C638  1  0.932700  0.693900  0.225400  1.0
  C  C639  1  0.567300  0.774600  0.468500  1.0
  C  C640  1  0.067300  0.468500  0.693900  1.0
  C  C641  1  0.567300  0.693900  0.225400  1.0
  C  C642  1  0.067300  0.225400  0.531500  1.0
  C  C643  1  0.567300  0.531500  0.306100  1.0
  C  C644  1  0.067300  0.306100  0.774600  1.0
  C  C645  1  0.516000  0.104500  0.440000  1.0
  C  C646  1  0.016000  0.440000  0.335500  1.0
  C  C647  1  0.516000  0.335500  0.895500  1.0
  C  C648  1  0.016000  0.895500  0.560000  1.0
  C  C649  1  0.516000  0.560000  0.664500  1.0
  C  C650  1  0.016000  0.664500  0.104500  1.0
  C  C651  1  0.484000  0.895500  0.560000  1.0
  C  C652  1  0.984000  0.560000  0.664500  1.0
  C  C653  1  0.484000  0.664500  0.104500  1.0
  C  C654  1  0.984000  0.104500  0.440000  1.0
  C  C655  1  0.484000  0.440000  0.335500  1.0
  C  C656  1  0.984000  0.335500  0.895500  1.0
  C  C657  1  0.576200  0.084400  0.391100  1.0
  C  C658  1  0.076200  0.391100  0.306700  1.0
  C  C659  1  0.576200  0.306700  0.915600  1.0
  C  C660  1  0.076200  0.915600  0.608900  1.0
  C  C661  1  0.576200  0.608900  0.693300  1.0
  C  C662  1  0.076200  0.693300  0.084400  1.0
  C  C663  1  0.423800  0.915600  0.608900  1.0
  C  C664  1  0.923800  0.608900  0.693300  1.0
  C  C665  1  0.423800  0.693300  0.084400  1.0
  C  C666  1  0.923800  0.084400  0.391100  1.0
  C  C667  1  0.423800  0.391100  0.306700  1.0
  C  C668  1  0.923800  0.306700  0.915600  1.0
  C  C669  1  0.610800  0.130400  0.391200  1.0
  C  C670  1  0.110800  0.391200  0.260800  1.0
  C  C671  1  0.610800  0.260800  0.869600  1.0
  C  C672  1  0.110800  0.869600  0.608800  1.0
  C  C673  1  0.610800  0.608800  0.739200  1.0
  C  C674  1  0.110800  0.739200  0.130400  1.0
  C  C675  1  0.389200  0.869600  0.608800  1.0
  C  C676  1  0.889200  0.608800  0.739200  1.0
  C  C677  1  0.389200  0.739200  0.130400  1.0
  C  C678  1  0.889200  0.130400  0.391200  1.0
  C  C679  1  0.389200  0.391200  0.260800  1.0
  C  C680  1  0.889200  0.260800  0.869600  1.0
  C  C681  1  0.666400  0.116400  0.345700  1.0
  C  C682  1  0.166400  0.345700  0.229300  1.0
  C  C683  1  0.666400  0.229300  0.883600  1.0
  C  C684  1  0.166400  0.883600  0.654300  1.0
  C  C685  1  0.666400  0.654300  0.770700  1.0
  C  C686  1  0.166400  0.770700  0.116400  1.0
  C  C687  1  0.333600  0.883600  0.654300  1.0
  C  C688  1  0.833600  0.654300  0.770700  1.0
  C  C689  1  0.333600  0.770700  0.116400  1.0
  C  C690  1  0.833600  0.116400  0.345700  1.0
  C  C691  1  0.333600  0.345700  0.229300  1.0
  C  C692  1  0.833600  0.229300  0.883600  1.0
  C  C693  1  0.639600  0.010900  0.312400  1.0
  C  C694  1  0.139600  0.312400  0.301500  1.0
  C  C695  1  0.639600  0.301500  0.989100  1.0
  C  C696  1  0.139600  0.989100  0.687600  1.0
  C  C697  1  0.639600  0.687600  0.698500  1.0
  C  C698  1  0.139600  0.698500  0.010900  1.0
  C  C699  1  0.360400  0.989100  0.687600  1.0
  C  C700  1  0.860400  0.687600  0.698500  1.0
  C  C701  1  0.360400  0.698500  0.010900  1.0
  C  C702  1  0.860400  0.010900  0.312400  1.0
  C  C703  1  0.360400  0.312400  0.301500  1.0
  C  C704  1  0.860400  0.301500  0.989100  1.0
  C  C705  1  0.587900  0.023500  0.350900  1.0
  C  C706  1  0.087900  0.350900  0.327400  1.0
  C  C707  1  0.587900  0.327400  0.976500  1.0
  C  C708  1  0.087900  0.976500  0.649100  1.0
  C  C709  1  0.587900  0.649100  0.672600  1.0
  C  C710  1  0.087900  0.672600  0.023500  1.0
  C  C711  1  0.412100  0.976500  0.649100  1.0
  C  C712  1  0.912100  0.649100  0.672600  1.0
  C  C713  1  0.412100  0.672600  0.023500  1.0
  C  C714  1  0.912100  0.023500  0.350900  1.0
  C  C715  1  0.412100  0.350900  0.327400  1.0
  C  C716  1  0.912100  0.327400  0.976500  1.0
  C  C717  1  0.494600  0.083500  0.602200  1.0
  C  C718  1  0.994600  0.602200  0.518700  1.0
  C  C719  1  0.494600  0.518700  0.916500  1.0
  C  C720  1  0.994600  0.916500  0.397800  1.0
  C  C721  1  0.494600  0.397800  0.481300  1.0
  C  C722  1  0.994600  0.481300  0.083500  1.0
  C  C723  1  0.505400  0.916500  0.397800  1.0
  C  C724  1  0.005400  0.397800  0.481300  1.0
  C  C725  1  0.505400  0.481300  0.083500  1.0
  C  C726  1  0.005400  0.083500  0.602200  1.0
  C  C727  1  0.505400  0.602200  0.518700  1.0
  C  C728  1  0.005400  0.518700  0.916500  1.0
  C  C729  1  0.250000  0.985000  0.937400  0.5
  O  O730  1  0.250000  0.985000  0.937400  0.5
  C  C731  1  0.750000  0.937400  0.952400  0.5
  O  O732  1  0.750000  0.937400  0.952400  0.5
  C  C733  1  0.250000  0.952400  0.015000  0.5
  O  O734  1  0.250000  0.952400  0.015000  0.5
  C  C735  1  0.750000  0.015000  0.062600  0.5
  O  O736  1  0.750000  0.015000  0.062600  0.5
  C  C737  1  0.250000  0.062600  0.047600  0.5
  O  O738  1  0.250000  0.062600  0.047600  0.5
  C  C739  1  0.750000  0.047600  0.985000  0.5
  O  O740  1  0.750000  0.047600  0.985000  0.5
  N  N741  1  0.250000  0.133800  0.484800  1
  N  N742  1  0.750000  0.484800  0.351000  1
  N  N743  1  0.250000  0.351000  0.866200  1
  N  N744  1  0.750000  0.866200  0.515200  1
  N  N745  1  0.250000  0.515200  0.649000  1
  N  N746  1  0.750000  0.649000  0.133800  1
  N  N747  1  0.250000  0.000000  0.000000  1
  N  N748  1  0.750000  0.000000  0.000000  1
  N  N749  1  0.693000  0.916700  0.125400  1.0
  N  N750  1  0.193000  0.125400  0.208700  1.0
  N  N751  1  0.693000  0.208700  0.083300  1.0
  N  N752  1  0.193000  0.083300  0.874600  1.0
  N  N753  1  0.693000  0.874600  0.791300  1.0
  N  N754  1  0.193000  0.791300  0.916700  1.0
  N  N755  1  0.307000  0.083300  0.874600  1.0
  N  N756  1  0.807000  0.874600  0.791300  1.0
  N  N757  1  0.307000  0.791300  0.916700  1.0
  N  N758  1  0.807000  0.916700  0.125400  1.0
  N  N759  1  0.307000  0.125400  0.208700  1.0
  N  N760  1  0.807000  0.208700  0.083300  1.0
  N  N761  1  0.634200  0.999100  0.152400  1.0
  N  N762  1  0.134200  0.152400  0.153300  1.0
  N  N763  1  0.634200  0.153300  0.000900  1.0
  N  N764  1  0.134200  0.000900  0.847600  1.0
  N  N765  1  0.634200  0.847600  0.846700  1.0
  N  N766  1  0.134200  0.846700  0.999100  1.0
  N  N767  1  0.365800  0.000900  0.847600  1.0
  N  N768  1  0.865800  0.847600  0.846700  1.0
  N  N769  1  0.365800  0.846700  0.999100  1.0
  N  N770  1  0.865800  0.999100  0.152400  1.0
  N  N771  1  0.365800  0.152400  0.153300  1.0
  N  N772  1  0.865800  0.153300  0.000900  1.0
  N  N773  1  0.676000  0.053900  0.308000  1.0
  N  N774  1  0.176000  0.308000  0.254100  1.0
  N  N775  1  0.676000  0.254100  0.946100  1.0
  N  N776  1  0.176000  0.946100  0.692000  1.0
  N  N777  1  0.676000  0.692000  0.745900  1.0
  N  N778  1  0.176000  0.745900  0.053900  1.0
  N  N779  1  0.324000  0.946100  0.692000  1.0
  N  N780  1  0.824000  0.692000  0.745900  1.0
  N  N781  1  0.324000  0.745900  0.053900  1.0
  N  N782  1  0.824000  0.053900  0.308000  1.0
  N  N783  1  0.324000  0.308000  0.254100  1.0
  N  N784  1  0.824000  0.254100  0.946100  1.0
  O  O785  1  0.250000  0.090000  0.428900  1
  O  O786  1  0.750000  0.428900  0.338900  1
  O  O787  1  0.250000  0.338900  0.910000  1
  O  O788  1  0.750000  0.910000  0.571100  1
  O  O789  1  0.250000  0.571100  0.661100  1
  O  O790  1  0.750000  0.661100  0.090000  1
  O  O791  1  0.250000  0.187000  0.503500  1
  O  O792  1  0.750000  0.503500  0.316500  1
  O  O793  1  0.250000  0.316500  0.813000  1
  O  O794  1  0.750000  0.813000  0.496500  1
  O  O795  1  0.250000  0.496500  0.683500  1
  O  O796  1  0.750000  0.683500  0.187000  1
  O  O797  1  0.507700  0.114100  0.559200  1.0
  O  O798  1  0.007700  0.559200  0.445100  1.0
  O  O799  1  0.507700  0.445100  0.885900  1.0
  O  O800  1  0.007700  0.885900  0.440800  1.0
  O  O801  1  0.507700  0.440800  0.554900  1.0
  O  O802  1  0.007700  0.554900  0.114100  1.0
  O  O803  1  0.492300  0.885900  0.440800  1.0
  O  O804  1  0.992300  0.440800  0.554900  1.0
  O  O805  1  0.492300  0.554900  0.114100  1.0
  O  O806  1  0.992300  0.114100  0.559200  1.0
  O  O807  1  0.492300  0.559200  0.445100  1.0
  O  O808  1  0.992300  0.445100  0.885900  1.0
  O  O809  1  0.518500  0.158800  0.478100  1.0
  O  O810  1  0.018500  0.478100  0.319300  1.0
  O  O811  1  0.518500  0.319300  0.841200  1.0
  O  O812  1  0.018500  0.841200  0.521900  1.0
  O  O813  1  0.518500  0.521900  0.680700  1.0
  O  O814  1  0.018500  0.680700  0.158800  1.0
  O  O815  1  0.481500  0.841200  0.521900  1.0
  O  O816  1  0.981500  0.521900  0.680700  1.0
  O  O817  1  0.481500  0.680700  0.158800  1.0
  O  O818  1  0.981500  0.158800  0.478100  1.0
  O  O819  1  0.481500  0.478100  0.319300  1.0
  O  O820  1  0.981500  0.319300  0.841200  1.0
  O  O821  1  0.472700  0.067200  0.430800  1.0
  O  O822  1  0.972700  0.430800  0.363600  1.0
  O  O823  1  0.472700  0.363600  0.932800  1.0
  O  O824  1  0.972700  0.932800  0.569200  1.0
  O  O825  1  0.472700  0.569200  0.636400  1.0
  O  O826  1  0.972700  0.636400  0.067200  1.0
  O  O827  1  0.527300  0.932800  0.569200  1.0
  O  O828  1  0.027300  0.569200  0.636400  1.0
  O  O829  1  0.527300  0.636400  0.067200  1.0
  O  O830  1  0.027300  0.067200  0.430800  1.0
  O  O831  1  0.527300  0.430800  0.363600  1.0
  O  O832  1  0.027300  0.363600  0.932800  1.0
  F  F833  1  0.750000  0.832200  0.967900  1
  F  F834  1  0.250000  0.967900  0.135700  1
  F  F835  1  0.750000  0.135700  0.167800  1
  F  F836  1  0.250000  0.167800  0.032100  1
  F  F837  1  0.750000  0.032100  0.864300  1
  F  F838  1  0.250000  0.864300  0.832200  1
  F  F839  1  0.750000  0.734300  0.891300  1
  F  F840  1  0.250000  0.891300  0.157000  1
  F  F841  1  0.750000  0.157000  0.265700  1
  F  F842  1  0.250000  0.265700  0.108700  1
  F  F843  1  0.750000  0.108700  0.843000  1
  F  F844  1  0.250000  0.843000  0.734300  1
  F  F845  1  0.750000  0.836400  0.302100  1
  F  F846  1  0.250000  0.302100  0.465700  1
  F  F847  1  0.750000  0.465700  0.163600  1
  F  F848  1  0.250000  0.163600  0.697900  1
  F  F849  1  0.750000  0.697900  0.534300  1
  F  F850  1  0.250000  0.534300  0.836400  1
  F  F851  1  0.750000  0.906200  0.278300  1
  F  F852  1  0.250000  0.278300  0.372100  1
  F  F853  1  0.750000  0.372100  0.093800  1
  F  F854  1  0.250000  0.093800  0.721700  1
  F  F855  1  0.750000  0.721700  0.627900  1
  F  F856  1  0.250000  0.627900  0.906200  1
  F  F857  1  0.423200  0.000000  0.000000  1
  F  F858  1  0.923200  0.000000  0.000000  1
  F  F859  1  0.576800  0.000000  0.000000  1
  F  F860  1  0.076800  0.000000  0.000000  1
  F  F861  1  0.515800  0.042000  0.060700  1
  F  F862  1  0.015800  0.060700  0.018700  1
  F  F863  1  0.515800  0.018700  0.958000  1
  F  F864  1  0.015800  0.958000  0.939300  1
  F  F865  1  0.515800  0.939300  0.981300  1
  F  F866  1  0.015800  0.981300  0.042000  1
  F  F867  1  0.484200  0.958000  0.939300  1
  F  F868  1  0.984200  0.939300  0.981300  1
  F  F869  1  0.484200  0.981300  0.042000  1
  F  F870  1  0.984200  0.042000  0.060700  1
  F  F871  1  0.484200  0.060700  0.018700  1
  F  F872  1  0.984200  0.018700  0.958000  1
  F  F873  1  0.694300  0.756200  0.976000  1.0
  F  F874  1  0.194300  0.976000  0.219800  1.0
  F  F875  1  0.694300  0.219800  0.243800  1.0
  F  F876  1  0.194300  0.243800  0.024000  1.0
  F  F877  1  0.694300  0.024000  0.780200  1.0
  F  F878  1  0.194300  0.780200  0.756200  1.0
  F  F879  1  0.305700  0.243800  0.024000  1.0
  F  F880  1  0.805700  0.024000  0.780200  1.0
  F  F881  1  0.305700  0.780200  0.756200  1.0
  F  F882  1  0.805700  0.756200  0.976000  1.0
  F  F883  1  0.305700  0.976000  0.219800  1.0
  F  F884  1  0.805700  0.219800  0.243800  1.0
  F  F885  1  0.697100  0.909400  0.355800  1.0
  F  F886  1  0.197100  0.355800  0.446400  1.0
  F  F887  1  0.697100  0.446400  0.090600  1.0
  F  F888  1  0.197100  0.090600  0.644200  1.0
  F  F889  1  0.697100  0.644200  0.553600  1.0
  F  F890  1  0.197100  0.553600  0.909400  1.0
  F  F891  1  0.302900  0.090600  0.644200  1.0
  F  F892  1  0.802900  0.644200  0.553600  1.0
  F  F893  1  0.302900  0.553600  0.909400  1.0
  F  F894  1  0.802900  0.909400  0.355800  1.0
  F  F895  1  0.302900  0.355800  0.446400  1.0
  F  F896  1  0.802900  0.446400  0.090600  1.0
