
#######################################################################
#
#                 Cambridge Crystallographic Data Centre
#                                CCDC 
#
#######################################################################
#
# If this CIF has been generated from an entry in the Cambridge 
# Structural Database, then it will include bibliographic, chemical, 
# crystal, experimental, refinement or atomic coordinate data resulting 
# from the CCDC's data processing and validation procedures.
#
#######################################################################

data_GUSRUJ
_chemical_name_common            
"tris(1,1'-methylenebis(3-(naphthalen-2-ylmethyl)-imidazol-2-ylidene))-bis(tris(isonicotinoyl)cyclotriguaiacylene)-tri-palladium(ii) iodine hexakis(tetrafluoroborate)"
_chemical_formula_moiety         'C171 H138 N18 O18 Pd3 6+,6(B1 F4 1-),I2'
_chemical_name_systematic        
"tris(1,1'-methylenebis(3-(naphthalen-2-ylmethyl)-imidazol-2-ylidene))-bis(3,8,13-trimethoxy-10,15-dihydro-5H-tribenzo[a,d,g][9]annulene-2,7,12-triyl triisonicotinate)-tri-palladium(ii) iodine hexakis(tetrafluoroborate)"
_symmetry_cell_setting           hexagonal
_symmetry_space_group_name_H-M   'P 63/m'
_symmetry_Int_Tables_number      176
_space_group_name_Hall           '-P 6c'
loop_
_symmetry_equiv_pos_site_id
_symmetry_equiv_pos_as_xyz
1 x,y,z
2 x-y,x,1/2+z
3 -y,x-y,z
4 -x,-y,1/2+z
5 -x+y,-x,z
6 y,-x+y,1/2+z
7 -x,-y,-z
8 -x+y,-x,1/2-z
9 y,-x+y,-z
10 x,y,1/2-z
11 x-y,x,-z
12 -y,x-y,1/2-z
_cell_length_a                   24.7255(18)
_cell_length_b                   24.7255(18)
_cell_length_c                   20.3293(11)
_cell_angle_alpha                90
_cell_angle_beta                 90
_cell_angle_gamma                120
_cell_volume                     10763.2
_exptl_crystal_colour            purple
_exptl_crystal_description       needle
_cell_formula_units_Z            2
loop_
_atom_site_label
_atom_site_type_symbol
_atom_site_fract_x
_atom_site_fract_y
_atom_site_fract_z
B1 B -0.1171(15) 0.3136(15) 0.7500
F1 F -0.1002(7) 0.3465(8) 0.6951(9)
F2 F -0.0994(8) 0.2662(9) 0.7500
F3 F -0.1829(12) 0.2796(12) 0.7500
F1I F -0.1002(7) 0.3465(8) 0.8049(9)
B2 B 0.1828(9) 0.2356(9) 0.7500
F4 F 0.2184(8) 0.2453(8) 0.6996(10)
F5 F 0.1635(13) 0.2693(13) 0.7500
F6 F 0.1398(14) 0.1721(14) 0.7500
F4I F 0.2184(8) 0.2453(8) 0.8004(10)
I1 I 0.0367(5) 0.0673(5) 0.7500
I1B I -0.0673(5) -0.0306(7) 0.7500
I1D I 0.0306(7) -0.0367(5) 0.7500
Pd1 Pd 0.01643(8) 0.23740(8) 0.7500
O1 O 0.1105(8) 0.5546(7) 0.5068(10)
N1 N -0.0034(7) 0.1519(7) 0.8658(7)
C1 C -0.1219(10) 0.1218(11) 0.7500
H1 H -0.1285 0.1582 0.7500
H2 H -0.1633 0.0832 0.7500
O2 O 0.1585(7) 0.4769(7) 0.5181(7)
N2 N -0.0872(7) 0.1235(7) 0.8068(7)
C2 C -0.0258(10) 0.1683(8) 0.8146(8)
O3 O 0.0641(7) 0.4263(6) 0.4746(8)
N3 N 0.0510(9) 0.3065(6) 0.6751(7)
C3 C -0.1044(9) 0.0780(8) 0.8555(9)
H3 H -0.1442 0.0419 0.8614
C4 C -0.0530(12) 0.0958(10) 0.8921(10)
H4 H -0.0503 0.0742 0.9296
C5 C 0.0587(9) 0.1808(9) 0.8866(9)
H5 H 0.0862 0.2060 0.8500
H6 H 0.0694 0.1484 0.8978
C6 C 0.0716(10) 0.2241(9) 0.9478(11)
C7 C 0.1358(11) 0.2678(10) 0.9628(10)
H7 H 0.1687 0.2718 0.9353
C8 C 0.1482(11) 0.3046(9) 1.0204(13)
C9 C 0.2148(12) 0.3469(12) 1.0388(13)
H8 H 0.2479 0.3501 1.0123
C10 C 0.2255(13) 0.3790(10) 1.0922(16)
H9 H 0.2673 0.4033 1.1073
C11 C 0.1774(15) 0.3791(10) 1.1286(12)
H10 H 0.1891 0.4068 1.1649
C12 C 0.1149(15) 0.3422(12) 1.1158(13)
H11 H 0.0833 0.3427 1.1421
C13 C 0.1009(13) 0.3009(10) 1.0562(11)
C14 C 0.0399(12) 0.2640(13) 1.0396(14)
H12 H 0.0074 0.2645 1.0640
C15 C 0.0269(10) 0.2247(10) 0.9839(12)
H13 H -0.0155 0.1977 0.9718
C16 C 0.2728(8) 0.6851(9) 0.3472(8)
H14 H 0.2415 0.6959 0.3314
H15 H 0.2932 0.6789 0.3083
C17 C 0.2407(9) 0.6255(8) 0.3870(9)
C18 C 0.2607(7) 0.5831(9) 0.3895(8)
C19 C 0.2301(9) 0.5329(9) 0.4318(11)
H16 H 0.2432 0.5027 0.4327
C20 C 0.1829(10) 0.5242(9) 0.4717(10)
C21 C 0.1610(11) 0.5686(11) 0.4657(11)
C22 C 0.1910(10) 0.6175(8) 0.4253(12)
H17 H 0.1777 0.6475 0.4229
C23 C 0.1005(12) 0.4331(11) 0.5180(13)
C24 C 0.0800(12) 0.3874(9) 0.5761(10)
C25 C 0.1288(10) 0.3864(8) 0.6109(12)
H18 H 0.1715 0.4134 0.6005
C26 C 0.1091(11) 0.3416(9) 0.6630(9)
H19 H 0.1393 0.3380 0.6886
C27 C 0.0072(11) 0.3118(9) 0.6418(10)
H20 H -0.0349 0.2872 0.6558
C28 C 0.0190(10) 0.3499(10) 0.5895(12)
H21 H -0.0132 0.3502 0.5643
C29 C 0.0836(14) 0.5944(15) 0.493(2)
H22 H 0.0477 0.5826 0.5220
H23 H 0.0701 0.5892 0.4471
H24 H 0.1151 0.6382 0.5010
O1B O 0.4454(7) 0.5559(11) 0.5068(10)
O2B O 0.5231(7) 0.6816(10) 0.5181(7)
O3B O 0.5737(6) 0.6378(9) 0.4746(8)
N3B N 0.6935(6) 0.7445(11) 0.6751(7)
C16B C 0.3149(9) 0.5877(12) 0.3472(8)
H14B H 0.3041 0.5456 0.3314
H15B H 0.3211 0.6143 0.3083
C17B C 0.3745(8) 0.6152(12) 0.3870(9)
C18B C 0.4169(9) 0.6776(11) 0.3895(8)
C19B C 0.4671(9) 0.6972(13) 0.4318(11)
H16B H 0.4973 0.7405 0.4327
C20B C 0.4758(9) 0.6587(13) 0.4717(10)
C21B C 0.4314(11) 0.5924(16) 0.4657(11)
C22B C 0.3825(8) 0.5735(13) 0.4253(12)
H17B H 0.3525 0.5302 0.4229
C23B C 0.5669(11) 0.6674(16) 0.5180(13)
C24B C 0.6126(9) 0.6926(15) 0.5761(10)
C25B C 0.6136(8) 0.7424(13) 0.6109(12)
H18B H 0.5866 0.7581 0.6005
C26B C 0.6584(9) 0.7675(14) 0.6630(9)
H19B H 0.6620 0.8013 0.6886
C27B C 0.6882(9) 0.6954(14) 0.6418(10)
H20B H 0.7128 0.6779 0.6558
C28B C 0.6501(10) 0.6691(14) 0.5895(12)
H21B H 0.6498 0.6366 0.5643
C29B C 0.4056(15) 0.4892(21) 0.493(2)
H22B H 0.4174 0.4651 0.5220
H23B H 0.4108 0.4809 0.4471
H24B H 0.3618 0.4769 0.5010
O1D O 0.4441(11) 0.8895(8) 0.5068(10)
O2D O 0.3184(10) 0.8415(7) 0.5181(7)
O3D O 0.3622(9) 0.9359(7) 0.4746(8)
N3D N 0.2555(11) 0.9490(9) 0.6751(7)
C16D C 0.4123(12) 0.7272(8) 0.3472(8)
H14D H 0.4544 0.7585 0.3314
H15D H 0.3857 0.7068 0.3083
C17D C 0.3848(12) 0.7593(9) 0.3870(9)
C18D C 0.3224(11) 0.7393(7) 0.3895(8)
C19D C 0.3028(13) 0.7699(9) 0.4318(11)
H16D H 0.2595 0.7568 0.4327
C20D C 0.3413(13) 0.8171(10) 0.4717(10)
C21D C 0.4076(16) 0.8390(11) 0.4657(11)
C22D C 0.4265(13) 0.8090(10) 0.4253(12)
H17D H 0.4698 0.8223 0.4229
C23D C 0.3326(16) 0.8995(12) 0.5180(13)
C24D C 0.3074(15) 0.9200(12) 0.5761(10)
C25D C 0.2576(13) 0.8712(10) 0.6109(12)
H18D H 0.2419 0.8285 0.6005
C26D C 0.2325(14) 0.8909(11) 0.6630(9)
H19D H 0.1987 0.8607 0.6886
C27D C 0.3046(14) 0.9928(11) 0.6418(10)
H20D H 0.3221 1.0349 0.6558
C28D C 0.3309(14) 0.9810(10) 0.5895(12)
H21D H 0.3634 1.0132 0.5643
C29D C 0.5108(21) 0.9164(14) 0.493(2)
H22D H 0.5349 0.9523 0.5220
H23D H 0.5191 0.9299 0.4471
H24D H 0.5231 0.8849 0.5010
N1I N -0.0034(7) 0.1519(7) 0.6342(7)
N2I N -0.0872(7) 0.1235(7) 0.6932(7)
C2I C -0.0258(10) 0.1683(8) 0.6854(8)
C3I C -0.1044(9) 0.0780(8) 0.6445(9)
H3I H -0.1442 0.0419 0.6386
C4I C -0.0530(12) 0.0958(10) 0.6079(10)
H4I H -0.0503 0.0742 0.5704
C5I C 0.0587(9) 0.1808(9) 0.6134(9)
H5I H 0.0862 0.2060 0.6500
H6I H 0.0694 0.1484 0.6022
C6I C 0.0716(10) 0.2241(9) 0.5522(11)
C7I C 0.1358(11) 0.2678(10) 0.5372(10)
H7I H 0.1687 0.2718 0.5647
C8I C 0.1482(11) 0.3046(9) 0.4796(13)
C9I C 0.2148(12) 0.3469(12) 0.4612(13)
H8I H 0.2479 0.3501 0.4877
C10I C 0.2255(13) 0.3790(10) 0.4078(16)
H9I H 0.2673 0.4033 0.3927
C11I C 0.1774(15) 0.3791(10) 0.3714(12)
H10I H 0.1891 0.4068 0.3351
C12I C 0.1149(15) 0.3422(12) 0.3842(13)
H11I H 0.0833 0.3427 0.3579
C13I C 0.1009(13) 0.3009(10) 0.4438(11)
C14I C 0.0399(12) 0.2640(13) 0.4604(14)
H12I H 0.0074 0.2645 0.4360
C15I C 0.0269(10) 0.2247(10) 0.5161(12)
H13I H -0.0155 0.1977 0.5282
Pd1B Pd 0.76260(8) 0.77903(11) 0.7500
N1B N 0.8481(7) 0.8447(10) 0.8658(7)
C1B C 0.8782(11) 0.7563(15) 0.7500
H1B H 0.8418 0.7133 0.7500
H2B H 0.9168 0.7535 0.7500
N2B N 0.8765(7) 0.7893(10) 0.8068(7)
C2B C 0.8317(8) 0.8059(13) 0.8146(8)
C3B C 0.9220(8) 0.8176(12) 0.8555(9)
H3B H 0.9581 0.8139 0.8614
C4B C 0.9042(10) 0.8512(16) 0.8921(10)
H4B H 0.9258 0.8755 0.9296
C5B C 0.8192(9) 0.8779(13) 0.8866(9)
H5B H 0.7940 0.8802 0.8500
H6B H 0.8516 0.9210 0.8978
C6B C 0.7759(9) 0.8475(13) 0.9478(11)
C7B C 0.7322(10) 0.8680(15) 0.9628(10)
H7B H 0.7282 0.8969 0.9353
C8B C 0.6954(9) 0.8436(14) 1.0204(13)
C9B C 0.6531(12) 0.8679(17) 1.0388(13)
H8B H 0.6499 0.8978 1.0123
C10B C 0.6210(10) 0.8465(16) 1.0922(16)
H9B H 0.5967 0.8640 1.1073
C11B C 0.6209(10) 0.7983(18) 1.1286(12)
H10B H 0.5932 0.7823 1.1649
C12B C 0.6578(12) 0.7727(19) 1.1158(13)
H11B H 0.6573 0.7406 1.1421
C13B C 0.6991(10) 0.8000(16) 1.0562(11)
C14B C 0.7360(13) 0.7759(18) 1.0396(14)
H12B H 0.7355 0.7429 1.0640
C15B C 0.7753(10) 0.8022(14) 0.9839(12)
H13B H 0.8023 0.7868 0.9718
N1K N 0.8481(7) 0.8447(10) 0.6342(7)
N2K N 0.8765(7) 0.7893(10) 0.6932(7)
C2K C 0.8317(8) 0.8059(13) 0.6854(8)
C3K C 0.9220(8) 0.8176(12) 0.6445(9)
H3K H 0.9581 0.8139 0.6386
C4K C 0.9042(10) 0.8512(16) 0.6079(10)
H4K H 0.9258 0.8755 0.5704
C5K C 0.8192(9) 0.8779(13) 0.6134(9)
H5K H 0.7940 0.8802 0.6500
H6K H 0.8516 0.9210 0.6022
C6K C 0.7759(9) 0.8475(13) 0.5522(11)
C7K C 0.7322(10) 0.8680(15) 0.5372(10)
H7K H 0.7282 0.8969 0.5647
C8K C 0.6954(9) 0.8436(14) 0.4796(13)
C9K C 0.6531(12) 0.8679(17) 0.4612(13)
H8K H 0.6499 0.8978 0.4877
C10K C 0.6210(10) 0.8465(16) 0.4078(16)
H9K H 0.5967 0.8640 0.3927
C11K C 0.6209(10) 0.7983(18) 0.3714(12)
H10K H 0.5932 0.7823 0.3351
C12K C 0.6578(12) 0.7727(19) 0.3842(13)
H11K H 0.6573 0.7406 0.3579
C13K C 0.6991(10) 0.8000(16) 0.4438(11)
C14K C 0.7360(13) 0.7759(18) 0.4604(14)
H12K H 0.7355 0.7429 0.4360
C15K C 0.7753(10) 0.8022(14) 0.5161(12)
H13K H 0.8023 0.7868 0.5282
Pd1D Pd 0.22097(11) 0.98357(8) 0.7500
N1D N 0.1553(10) 1.0034(7) 0.8658(7)
C1D C 0.2437(15) 1.1219(10) 0.7500
H1D H 0.2867 1.1285 0.7500
H2D H 0.2465 1.1633 0.7500
N2D N 0.2107(10) 1.0872(7) 0.8068(7)
C2D C 0.1941(13) 1.0258(10) 0.8146(8)
C3D C 0.1824(12) 1.1044(9) 0.8555(9)
H3D H 0.1861 1.1442 0.8614
C4D C 0.1488(16) 1.0530(12) 0.8921(10)
H4D H 0.1245 1.0503 0.9296
C5D C 0.1221(13) 0.9413(9) 0.8866(9)
H5D H 0.1198 0.9138 0.8500
H6D H 0.0790 0.9306 0.8978
C6D C 0.1525(13) 0.9284(10) 0.9478(11)
C7D C 0.1320(15) 0.8642(11) 0.9628(10)
H7D H 0.1031 0.8313 0.9353
C8D C 0.1564(14) 0.8518(11) 1.0204(13)
C9D C 0.1321(17) 0.7852(12) 1.0388(13)
H8D H 0.1022 0.7521 1.0123
C10D C 0.1535(16) 0.7745(13) 1.0922(16)
H9D H 0.1360 0.7327 1.1073
C11D C 0.2017(18) 0.8226(15) 1.1286(12)
H10D H 0.2177 0.8109 1.1649
C12D C 0.2273(19) 0.8851(15) 1.1158(13)
H11D H 0.2594 0.9167 1.1421
C13D C 0.2000(16) 0.8991(13) 1.0562(11)
C14D C 0.2241(18) 0.9601(12) 1.0396(14)
H12D H 0.2571 0.9926 1.0640
C15D C 0.1978(14) 0.9731(10) 0.9839(12)
H13D H 0.2132 1.0155 0.9718
N1G N 0.1553(10) 1.0034(7) 0.6342(7)
N2G N 0.2107(10) 1.0872(7) 0.6932(7)
C2G C 0.1941(13) 1.0258(10) 0.6854(8)
C3G C 0.1824(12) 1.1044(9) 0.6445(9)
H3G H 0.1861 1.1442 0.6386
C4G C 0.1488(16) 1.0530(12) 0.6079(10)
H4G H 0.1245 1.0503 0.5704
C5G C 0.1221(13) 0.9413(9) 0.6134(9)
H5G H 0.1198 0.9138 0.6500
H6G H 0.0790 0.9306 0.6022
C6G C 0.1525(13) 0.9284(10) 0.5522(11)
C7G C 0.1320(15) 0.8642(11) 0.5372(10)
H7G H 0.1031 0.8313 0.5647
C8G C 0.1564(14) 0.8518(11) 0.4796(13)
C9G C 0.1321(17) 0.7852(12) 0.4612(13)
H8G H 0.1022 0.7521 0.4877
C10G C 0.1535(16) 0.7745(13) 0.4078(16)
H9G H 0.1360 0.7327 0.3927
C11G C 0.2017(18) 0.8226(15) 0.3714(12)
H10G H 0.2177 0.8109 0.3351
C12G C 0.2273(19) 0.8851(15) 0.3842(13)
H11G H 0.2594 0.9167 0.3579
C13G C 0.2000(16) 0.8991(13) 0.4438(11)
C14G C 0.2241(18) 0.9601(12) 0.4604(14)
H12G H 0.2571 0.9926 0.4360
C15G C 0.1978(14) 0.9731(10) 0.5161(12)
H13G H 0.2132 1.0155 0.5282
O1G O 0.4441(11) 0.8895(8) 0.9932(10)
O2G O 0.3184(10) 0.8415(7) 0.9819(7)
O3G O 0.3622(9) 0.9359(7) 1.0254(8)
N3G N 0.2555(11) 0.9490(9) 0.8249(7)
C16G C 0.4123(12) 0.7272(8) 1.1528(8)
H14G H 0.4544 0.7585 1.1686
H15G H 0.3857 0.7068 1.1917
C17G C 0.3848(12) 0.7593(9) 1.1130(9)
C18G C 0.3224(11) 0.7393(7) 1.1105(8)
C19G C 0.3028(13) 0.7699(9) 1.0682(11)
H16G H 0.2595 0.7568 1.0673
C20G C 0.3413(13) 0.8171(10) 1.0283(10)
C21G C 0.4076(16) 0.8390(11) 1.0343(11)
C22G C 0.4265(13) 0.8090(10) 1.0747(12)
H17G H 0.4698 0.8223 1.0771
C23G C 0.3326(16) 0.8995(12) 0.9820(13)
C24G C 0.3074(15) 0.9200(12) 0.9239(10)
C25G C 0.2576(13) 0.8712(10) 0.8891(12)
H18G H 0.2419 0.8285 0.8995
C26G C 0.2325(14) 0.8909(11) 0.8370(9)
H19G H 0.1987 0.8607 0.8114
C27G C 0.3046(14) 0.9928(11) 0.8582(10)
H20G H 0.3221 1.0349 0.8442
C28G C 0.3309(14) 0.9810(10) 0.9105(12)
H21G H 0.3634 1.0132 0.9357
C29G C 0.5108(21) 0.9164(14) 1.007(2)
H22G H 0.5349 0.9523 0.9780
H23G H 0.5191 0.9299 1.0529
H24G H 0.5231 0.8849 0.9990
O1I O 0.1105(8) 0.5546(7) 0.9932(10)
O2I O 0.1585(7) 0.4769(7) 0.9819(7)
O3I O 0.0641(7) 0.4263(6) 1.0254(8)
N3I N 0.0510(9) 0.3065(6) 0.8249(7)
C16I C 0.2728(8) 0.6851(9) 1.1528(8)
H14I H 0.2415 0.6959 1.1686
H15I H 0.2932 0.6789 1.1917
C17I C 0.2407(9) 0.6255(8) 1.1130(9)
C18I C 0.2607(7) 0.5831(9) 1.1105(8)
C19I C 0.2301(9) 0.5329(9) 1.0682(11)
H16I H 0.2432 0.5027 1.0673
C20I C 0.1829(10) 0.5242(9) 1.0283(10)
C21I C 0.1610(11) 0.5686(11) 1.0343(11)
C22I C 0.1910(10) 0.6175(8) 1.0747(12)
H17I H 0.1777 0.6475 1.0771
C23I C 0.1005(12) 0.4331(11) 0.9820(13)
C24I C 0.0800(12) 0.3874(9) 0.9239(10)
C25I C 0.1288(10) 0.3864(8) 0.8891(12)
H18I H 0.1715 0.4134 0.8995
C26I C 0.1091(11) 0.3416(9) 0.8370(9)
H19I H 0.1393 0.3380 0.8114
C27I C 0.0072(11) 0.3118(9) 0.8582(10)
H20I H -0.0349 0.2872 0.8442
C28I C 0.0190(10) 0.3499(10) 0.9105(12)
H21I H -0.0132 0.3502 0.9357
C29I C 0.0836(14) 0.5944(15) 1.007(2)
H22I H 0.0477 0.5826 0.9780
H23I H 0.0701 0.5892 1.0529
H24I H 0.1151 0.6382 0.9990
O1K O 0.4454(7) 0.5559(11) 0.9932(10)
O2K O 0.5231(7) 0.6816(10) 0.9819(7)
O3K O 0.5737(6) 0.6378(9) 1.0254(8)
N3K N 0.6935(6) 0.7445(11) 0.8249(7)
C16K C 0.3149(9) 0.5877(12) 1.1528(8)
H14K H 0.3041 0.5456 1.1686
H15K H 0.3211 0.6143 1.1917
C17K C 0.3745(8) 0.6152(12) 1.1130(9)
C18K C 0.4169(9) 0.6776(11) 1.1105(8)
C19K C 0.4671(9) 0.6972(13) 1.0682(11)
H16K H 0.4973 0.7405 1.0673
C20K C 0.4758(9) 0.6587(13) 1.0283(10)
C21K C 0.4314(11) 0.5924(16) 1.0343(11)
C22K C 0.3825(8) 0.5735(13) 1.0747(12)
H17K H 0.3525 0.5302 1.0771
C23K C 0.5669(11) 0.6674(16) 0.9820(13)
C24K C 0.6126(9) 0.6926(15) 0.9239(10)
C25K C 0.6136(8) 0.7424(13) 0.8891(12)
H18K H 0.5866 0.7581 0.8995
C26K C 0.6584(9) 0.7675(14) 0.8370(9)
H19K H 0.6620 0.8013 0.8114
C27K C 0.6882(9) 0.6954(14) 0.8582(10)
H20K H 0.7128 0.6779 0.8442
C28K C 0.6501(10) 0.6691(14) 0.9105(12)
H21K H 0.6498 0.6366 0.9357
C29K C 0.4056(15) 0.4892(21) 1.007(2)
H22K H 0.4174 0.4651 0.9780
H23K H 0.4108 0.4809 1.0529
H24K H 0.3618 0.4769 0.9990
loop_
_geom_bond_atom_site_label_1
_geom_bond_atom_site_label_2
_geom_bond_site_symmetry_1
_geom_bond_site_symmetry_2
Pd1 C2 1_555 1_555
O1 C21 1_555 1_555
N1 C2 1_555 1_555
C1 H1 1_555 1_555
H2 C1 1_555 1_555
O2 C20 1_555 1_555
N2 C1 1_555 1_555
C2 N2 1_555 1_555
O3 C23 1_555 1_555
N3 Pd1 1_555 1_555
C3 N2 1_555 1_555
H3 C3 1_555 1_555
C4 N1 1_555 1_555
H4 C4 1_555 1_555
C5 N1 1_555 1_555
H5 C5 1_555 1_555
H6 C5 1_555 1_555
C6 C5 1_555 1_555
C7 C6 1_555 1_555
H7 C7 1_555 1_555
C8 C7 1_555 1_555
C9 C8 1_555 1_555
H8 C9 1_555 1_555
C10 C9 1_555 1_555
H9 C10 1_555 1_555
C11 C10 1_555 1_555
H10 C11 1_555 1_555
C12 C11 1_555 1_555
H11 C12 1_555 1_555
C13 C8 1_555 1_555
C14 C13 1_555 1_555
H12 C14 1_555 1_555
C15 C6 1_555 1_555
H13 C15 1_555 1_555
C16 H14 1_555 1_555
H15 C16 1_555 1_555
C17 C16 1_555 1_555
C18 C17 1_555 1_555
C19 C18 1_555 1_555
H16 C19 1_555 1_555
C20 C19 1_555 1_555
C21 C20 1_555 1_555
C22 C17 1_555 1_555
H17 C22 1_555 1_555
C23 O2 1_555 1_555
C24 C23 1_555 1_555
C25 C24 1_555 1_555
H18 C25 1_555 1_555
C26 N3 1_555 1_555
H19 C26 1_555 1_555
C27 N3 1_555 1_555
H20 C27 1_555 1_555
C28 C24 1_555 1_555
H21 C28 1_555 1_555
C29 O1 1_555 1_555
H22 C29 1_555 1_555
H23 C29 1_555 1_555
H24 C29 1_555 1_555
B1 F1 1_555 1_555
F2 B1 1_555 1_555
F3 B1 1_555 1_555
B2 F4 1_555 1_555
F5 B2 1_555 1_555
F6 B2 1_555 1_555
I1 I1B 1_555 1_555
O1B C21B 1_555 1_555
O2B C20B 1_555 1_555
O3B C23B 1_555 1_555
N3B C26B 1_555 1_555
C16B C18 1_555 1_555
H14B C16B 1_555 1_555
H15B C16B 1_555 1_555
C17B C16B 1_555 1_555
C18B C17B 1_555 1_555
C19B C18B 1_555 1_555
H16B C19B 1_555 1_555
C20B C19B 1_555 1_555
C21B C20B 1_555 1_555
C22B C17B 1_555 1_555
H17B C22B 1_555 1_555
C23B O2B 1_555 1_555
C24B C23B 1_555 1_555
C25B C24B 1_555 1_555
H18B C25B 1_555 1_555
C26B C25B 1_555 1_555
H19B C26B 1_555 1_555
C27B N3B 1_555 1_555
H20B C27B 1_555 1_555
C28B C24B 1_555 1_555
H21B C28B 1_555 1_555
C29B O1B 1_555 1_555
H22B C29B 1_555 1_555
H23B C29B 1_555 1_555
H24B C29B 1_555 1_555
O1D C21D 1_555 1_555
O2D C20D 1_555 1_555
O3D C23D 1_555 1_555
N3D C26D 1_555 1_555
C16D C18B 1_555 1_555
H14D C16D 1_555 1_555
H15D C16D 1_555 1_555
C17D C16D 1_555 1_555
C18D C16 1_555 1_555
C19D C18D 1_555 1_555
H16D C19D 1_555 1_555
C20D C19D 1_555 1_555
C21D C20D 1_555 1_555
C22D C17D 1_555 1_555
H17D C22D 1_555 1_555
C23D O2D 1_555 1_555
C24D C23D 1_555 1_555
C25D C24D 1_555 1_555
H18D C25D 1_555 1_555
C26D C25D 1_555 1_555
H19D C26D 1_555 1_555
C27D N3D 1_555 1_555
H20D C27D 1_555 1_555
C28D C24D 1_555 1_555
H21D C28D 1_555 1_555
C29D O1D 1_555 1_555
H22D C29D 1_555 1_555
H23D C29D 1_555 1_555
H24D C29D 1_555 1_555
N1I C2I 1_555 1_555
N2I C1 1_555 1_555
C2I Pd1 1_555 1_555
C3I N2I 1_555 1_555
H3I C3I 1_555 1_555
C4I N1I 1_555 1_555
H4I C4I 1_555 1_555
C5I N1I 1_555 1_555
H5I C5I 1_555 1_555
H6I C5I 1_555 1_555
C6I C5I 1_555 1_555
C7I C6I 1_555 1_555
H7I C7I 1_555 1_555
C8I C7I 1_555 1_555
C9I C8I 1_555 1_555
H8I C9I 1_555 1_555
C10I C9I 1_555 1_555
H9I C10I 1_555 1_555
C11I C10I 1_555 1_555
H10I C11I 1_555 1_555
C12I C11I 1_555 1_555
H11I C12I 1_555 1_555
C13I C8I 1_555 1_555
C14I C13I 1_555 1_555
H12I C14I 1_555 1_555
C15I C6I 1_555 1_555
H13I C15I 1_555 1_555
Pd1B N3B 1_555 1_555
N1B C2B 1_555 1_555
C1B H1B 1_555 1_555
H2B C1B 1_555 1_555
N2B C1B 1_555 1_555
C2B Pd1B 1_555 1_555
C3B N2B 1_555 1_555
H3B C3B 1_555 1_555
C4B N1B 1_555 1_555
H4B C4B 1_555 1_555
C5B N1B 1_555 1_555
H5B C5B 1_555 1_555
H6B C5B 1_555 1_555
C6B C5B 1_555 1_555
C7B C6B 1_555 1_555
H7B C7B 1_555 1_555
C8B C7B 1_555 1_555
C9B C8B 1_555 1_555
H8B C9B 1_555 1_555
C10B C9B 1_555 1_555
H9B C10B 1_555 1_555
C11B C10B 1_555 1_555
H10B C11B 1_555 1_555
C12B C11B 1_555 1_555
H11B C12B 1_555 1_555
C13B C8B 1_555 1_555
C14B C13B 1_555 1_555
H12B C14B 1_555 1_555
C15B C6B 1_555 1_555
H13B C15B 1_555 1_555
N1K C2K 1_555 1_555
N2K C1B 1_555 1_555
C2K Pd1B 1_555 1_555
C3K N2K 1_555 1_555
H3K C3K 1_555 1_555
C4K N1K 1_555 1_555
H4K C4K 1_555 1_555
C5K N1K 1_555 1_555
H5K C5K 1_555 1_555
H6K C5K 1_555 1_555
C6K C5K 1_555 1_555
C7K C6K 1_555 1_555
H7K C7K 1_555 1_555
C8K C7K 1_555 1_555
C9K C8K 1_555 1_555
H8K C9K 1_555 1_555
C10K C9K 1_555 1_555
H9K C10K 1_555 1_555
C11K C10K 1_555 1_555
H10K C11K 1_555 1_555
C12K C11K 1_555 1_555
H11K C12K 1_555 1_555
C13K C8K 1_555 1_555
C14K C13K 1_555 1_555
H12K C14K 1_555 1_555
C15K C6K 1_555 1_555
H13K C15K 1_555 1_555
Pd1D N3D 1_555 1_555
N1D C2D 1_555 1_555
C1D H1D 1_555 1_555
H2D C1D 1_555 1_555
N2D C1D 1_555 1_555
C2D Pd1D 1_555 1_555
C3D N2D 1_555 1_555
H3D C3D 1_555 1_555
C4D N1D 1_555 1_555
H4D C4D 1_555 1_555
C5D N1D 1_555 1_555
H5D C5D 1_555 1_555
H6D C5D 1_555 1_555
C6D C5D 1_555 1_555
C7D C6D 1_555 1_555
H7D C7D 1_555 1_555
C8D C7D 1_555 1_555
C9D C8D 1_555 1_555
H8D C9D 1_555 1_555
C10D C9D 1_555 1_555
H9D C10D 1_555 1_555
C11D C10D 1_555 1_555
H10D C11D 1_555 1_555
C12D C11D 1_555 1_555
H11D C12D 1_555 1_555
C13D C8D 1_555 1_555
C14D C13D 1_555 1_555
H12D C14D 1_555 1_555
C15D C6D 1_555 1_555
H13D C15D 1_555 1_555
N1G C2G 1_555 1_555
N2G C1D 1_555 1_555
C2G Pd1D 1_555 1_555
C3G N2G 1_555 1_555
H3G C3G 1_555 1_555
C4G N1G 1_555 1_555
H4G C4G 1_555 1_555
C5G N1G 1_555 1_555
H5G C5G 1_555 1_555
H6G C5G 1_555 1_555
C6G C5G 1_555 1_555
C7G C6G 1_555 1_555
H7G C7G 1_555 1_555
C8G C7G 1_555 1_555
C9G C8G 1_555 1_555
H8G C9G 1_555 1_555
C10G C9G 1_555 1_555
H9G C10G 1_555 1_555
C11G C10G 1_555 1_555
H10G C11G 1_555 1_555
C12G C11G 1_555 1_555
H11G C12G 1_555 1_555
C13G C8G 1_555 1_555
C14G C13G 1_555 1_555
H12G C14G 1_555 1_555
C15G C6G 1_555 1_555
H13G C15G 1_555 1_555
O1G C21G 1_555 1_555
O2G C20G 1_555 1_555
O3G C23G 1_555 1_555
N3G Pd1D 1_555 1_555
C16G H14G 1_555 1_555
H15G C16G 1_555 1_555
C17G C16G 1_555 1_555
C18G C17G 1_555 1_555
C19G C18G 1_555 1_555
H16G C19G 1_555 1_555
C20G C19G 1_555 1_555
C21G C20G 1_555 1_555
C22G C17G 1_555 1_555
H17G C22G 1_555 1_555
C23G O2G 1_555 1_555
C24G C23G 1_555 1_555
C25G C24G 1_555 1_555
H18G C25G 1_555 1_555
C26G N3G 1_555 1_555
H19G C26G 1_555 1_555
C27G N3G 1_555 1_555
H20G C27G 1_555 1_555
C28G C24G 1_555 1_555
H21G C28G 1_555 1_555
C29G O1G 1_555 1_555
H22G C29G 1_555 1_555
H23G C29G 1_555 1_555
H24G C29G 1_555 1_555
O1I C21I 1_555 1_555
O2I C20I 1_555 1_555
O3I C23I 1_555 1_555
N3I Pd1 1_555 1_555
C16I C18G 1_555 1_555
H14I C16I 1_555 1_555
H15I C16I 1_555 1_555
C17I C16I 1_555 1_555
C18I C17I 1_555 1_555
C19I C18I 1_555 1_555
H16I C19I 1_555 1_555
C20I C19I 1_555 1_555
C21I C20I 1_555 1_555
C22I C17I 1_555 1_555
H17I C22I 1_555 1_555
C23I O2I 1_555 1_555
C24I C23I 1_555 1_555
C25I C24I 1_555 1_555
H18I C25I 1_555 1_555
C26I N3I 1_555 1_555
H19I C26I 1_555 1_555
C27I N3I 1_555 1_555
H20I C27I 1_555 1_555
C28I C24I 1_555 1_555
H21I C28I 1_555 1_555
C29I O1I 1_555 1_555
H22I C29I 1_555 1_555
H23I C29I 1_555 1_555
H24I C29I 1_555 1_555
O1K C21K 1_555 1_555
O2K C20K 1_555 1_555
O3K C23K 1_555 1_555
N3K Pd1B 1_555 1_555
C16K C18I 1_555 1_555
H14K C16K 1_555 1_555
H15K C16K 1_555 1_555
C17K C16K 1_555 1_555
C18K C16G 1_555 1_555
C19K C18K 1_555 1_555
H16K C19K 1_555 1_555
C20K C19K 1_555 1_555
C21K C20K 1_555 1_555
C22K C17K 1_555 1_555
H17K C22K 1_555 1_555
C23K O2K 1_555 1_555
C24K C23K 1_555 1_555
C25K C24K 1_555 1_555
H18K C25K 1_555 1_555
C26K N3K 1_555 1_555
H19K C26K 1_555 1_555
C27K N3K 1_555 1_555
H20K C27K 1_555 1_555
C28K C24K 1_555 1_555
H21K C28K 1_555 1_555
C29K O1K 1_555 1_555
H22K C29K 1_555 1_555
H23K C29K 1_555 1_555
H24K C29K 1_555 1_555
F1I B1 1_555 1_555
F4I B2 1_555 1_555
I1B I1D 1_555 1_555
I1D I1 1_555 1_555
C3 C4 1_555 1_555
C12 C13 1_555 1_555
C14 C15 1_555 1_555
C21 C22 1_555 1_555
C25 C26 1_555 1_555
C27 C28 1_555 1_555
C21B C22B 1_555 1_555
C27B C28B 1_555 1_555
C17D C18D 1_555 1_555
C21D C22D 1_555 1_555
C27D C28D 1_555 1_555
N2I C2I 1_555 1_555
C3I C4I 1_555 1_555
C12I C13I 1_555 1_555
C14I C15I 1_555 1_555
N2B C2B 1_555 1_555
C3B C4B 1_555 1_555
C12B C13B 1_555 1_555
C14B C15B 1_555 1_555
N2K C2K 1_555 1_555
C3K C4K 1_555 1_555
C12K C13K 1_555 1_555
C14K C15K 1_555 1_555
N2D C2D 1_555 1_555
C3D C4D 1_555 1_555
C12D C13D 1_555 1_555
C14D C15D 1_555 1_555
N2G C2G 1_555 1_555
C3G C4G 1_555 1_555
C12G C13G 1_555 1_555
C14G C15G 1_555 1_555
C21G C22G 1_555 1_555
C25G C26G 1_555 1_555
C27G C28G 1_555 1_555
C21I C22I 1_555 1_555
C25I C26I 1_555 1_555
C27I C28I 1_555 1_555
C17K C18K 1_555 1_555
C21K C22K 1_555 1_555
C25K C26K 1_555 1_555
C27K C28K 1_555 1_555

#END
