# generated using pymatgen
data_B20H390Pd6C405N38Cl18O39F82
_symmetry_space_group_name_H-M   'P 1'
_cell_length_a   20.05950000
_cell_length_b   24.73600000
_cell_length_c   24.73600000
_cell_angle_alpha   120.00000000
_cell_angle_beta   90.00000000
_cell_angle_gamma   90.00000000
_symmetry_Int_Tables_number   1
_chemical_formula_structural   B20H390Pd6C405N38Cl18O39F82
_chemical_formula_sum   'B20 H390 Pd6 C405 N38 Cl18 O39 F82'
_cell_volume   10629.42274552
_cell_formula_units_Z   1
loop_
 _symmetry_equiv_pos_site_id
 _symmetry_equiv_pos_as_xyz
  1  'x, y, z'
loop_
 _atom_site_type_symbol
 _atom_site_label
 _atom_site_symmetry_multiplicity
 _atom_site_fract_x
 _atom_site_fract_y
 _atom_site_fract_z
 _atom_site_occupancy
  B  B1  1  0.750000  0.564500  0.857500  1
  B  B2  1  0.250000  0.857500  0.293000  1
  B  B3  1  0.750000  0.293000  0.435500  1
  B  B4  1  0.250000  0.435500  0.142500  1
  B  B5  1  0.750000  0.142500  0.707000  1
  B  B6  1  0.250000  0.707000  0.564500  1
  B  B7  1  0.250000  0.052000  0.833000  1
  B  B8  1  0.750000  0.833000  0.781000  1
  B  B9  1  0.250000  0.781000  0.948000  1
  B  B10  1  0.750000  0.948000  0.167000  1
  B  B11  1  0.250000  0.167000  0.219000  1
  B  B12  1  0.750000  0.219000  0.052000  1
  B  B13  1  0.250000  0.056300  0.798400  1
  B  B14  1  0.750000  0.798400  0.742100  1
  B  B15  1  0.250000  0.742100  0.943700  1
  B  B16  1  0.750000  0.943700  0.201600  1
  B  B17  1  0.250000  0.201600  0.257900  1
  B  B18  1  0.750000  0.257900  0.056300  1
  B  B19  1  0.500000  0.000000  0.000000  1
  B  B20  1  0.000000  0.000000  0.000000  1
  H  H21  1  0.353900  0.534000  0.481700  1
  H  H22  1  0.853900  0.481700  0.947700  1
  H  H23  1  0.353900  0.947700  0.466000  1
  H  H24  1  0.853900  0.466000  0.518300  1
  H  H25  1  0.353900  0.518300  0.052300  1
  H  H26  1  0.853900  0.052300  0.534000  1
  H  H27  1  0.646100  0.466000  0.518300  1
  H  H28  1  0.146100  0.518300  0.052300  1
  H  H29  1  0.646100  0.052300  0.534000  1
  H  H30  1  0.146100  0.534000  0.481700  1
  H  H31  1  0.646100  0.481700  0.947700  1
  H  H32  1  0.146100  0.947700  0.466000  1
  H  H33  1  0.223900  0.969200  0.053900  1
  H  H34  1  0.723900  0.053900  0.084700  1
  H  H35  1  0.223900  0.084700  0.030800  1
  H  H36  1  0.723900  0.030800  0.946100  1
  H  H37  1  0.223900  0.946100  0.915300  1
  H  H38  1  0.723900  0.915300  0.969200  1
  H  H39  1  0.776100  0.030800  0.946100  1
  H  H40  1  0.276100  0.946100  0.915300  1
  H  H41  1  0.776100  0.915300  0.969200  1
  H  H42  1  0.276100  0.969200  0.053900  1
  H  H43  1  0.776100  0.053900  0.084700  1
  H  H44  1  0.276100  0.084700  0.030800  1
  H  H45  1  0.230200  0.043500  0.087200  1
  H  H46  1  0.730200  0.087200  0.043700  1
  H  H47  1  0.230200  0.043700  0.956500  1
  H  H48  1  0.730200  0.956500  0.912800  1
  H  H49  1  0.230200  0.912800  0.956300  1
  H  H50  1  0.730200  0.956300  0.043500  1
  H  H51  1  0.769800  0.956500  0.912800  1
  H  H52  1  0.269800  0.912800  0.956300  1
  H  H53  1  0.769800  0.956300  0.043500  1
  H  H54  1  0.269800  0.043500  0.087200  1
  H  H55  1  0.769800  0.087200  0.043700  1
  H  H56  1  0.269800  0.043700  0.956500  1
  H  H57  1  0.295900  0.001200  0.068200  1
  H  H58  1  0.795900  0.068200  0.067000  1
  H  H59  1  0.295900  0.067000  0.998800  1
  H  H60  1  0.795900  0.998800  0.931800  1
  H  H61  1  0.295900  0.931800  0.933000  1
  H  H62  1  0.795900  0.933000  0.001200  1
  H  H63  1  0.704100  0.998800  0.931800  1
  H  H64  1  0.204100  0.931800  0.933000  1
  H  H65  1  0.704100  0.933000  0.001200  1
  H  H66  1  0.204100  0.001200  0.068200  1
  H  H67  1  0.704100  0.068200  0.067000  1
  H  H68  1  0.204100  0.067000  0.998800  1
  H  H69  1  0.347700  0.493000  0.379800  1
  H  H70  1  0.847700  0.379800  0.886800  1
  H  H71  1  0.347700  0.886800  0.507000  1
  H  H72  1  0.847700  0.507000  0.620200  1
  H  H73  1  0.347700  0.620200  0.113200  1
  H  H74  1  0.847700  0.113200  0.493000  1
  H  H75  1  0.652300  0.507000  0.620200  1
  H  H76  1  0.152300  0.620200  0.113200  1
  H  H77  1  0.652300  0.113200  0.493000  1
  H  H78  1  0.152300  0.493000  0.379800  1
  H  H79  1  0.652300  0.379800  0.886800  1
  H  H80  1  0.152300  0.886800  0.507000  1
  H  H81  1  0.250000  0.480600  0.323100  1
  H  H82  1  0.750000  0.323100  0.842500  1
  H  H83  1  0.250000  0.842500  0.519400  1
  H  H84  1  0.750000  0.519400  0.676900  1
  H  H85  1  0.250000  0.676900  0.157500  1
  H  H86  1  0.750000  0.157500  0.480600  1
  H  H87  1  0.250000  0.920600  0.751700  1.0
  H  H88  1  0.750000  0.751700  0.831100  1.0
  H  H89  1  0.250000  0.831100  0.079400  1.0
  H  H90  1  0.750000  0.079400  0.248300  1.0
  H  H91  1  0.250000  0.248300  0.168900  1.0
  H  H92  1  0.750000  0.168900  0.920600  1.0
  H  H93  1  0.250000  0.845700  0.710900  1.0
  H  H94  1  0.750000  0.710900  0.865200  1.0
  H  H95  1  0.250000  0.865200  0.154300  1.0
  H  H96  1  0.750000  0.154300  0.289100  1.0
  H  H97  1  0.250000  0.289100  0.134800  1.0
  H  H98  1  0.750000  0.134800  0.845700  1.0
  H  H99  1  0.363700  0.959900  0.812200  1.0
  H  H100  1  0.863700  0.812200  0.852300  1.0
  H  H101  1  0.363700  0.852300  0.040100  1.0
  H  H102  1  0.863700  0.040100  0.187800  1.0
  H  H103  1  0.363700  0.187800  0.147700  1.0
  H  H104  1  0.863700  0.147700  0.959900  1.0
  H  H105  1  0.636300  0.040100  0.187800  1.0
  H  H106  1  0.136300  0.187800  0.147700  1.0
  H  H107  1  0.636300  0.147700  0.959900  1.0
  H  H108  1  0.136300  0.959900  0.812200  1.0
  H  H109  1  0.636300  0.812200  0.852300  1.0
  H  H110  1  0.136300  0.852300  0.040100  1.0
  H  H111  1  0.428500  0.931600  0.876200  1.0
  H  H112  1  0.928500  0.876200  0.944600  1.0
  H  H113  1  0.428500  0.944600  0.068400  1.0
  H  H114  1  0.928500  0.068400  0.123800  1.0
  H  H115  1  0.428500  0.123800  0.055400  1.0
  H  H116  1  0.928500  0.055400  0.931600  1.0
  H  H117  1  0.571500  0.068400  0.123800  1.0
  H  H118  1  0.071500  0.123800  0.055400  1.0
  H  H119  1  0.571500  0.055400  0.931600  1.0
  H  H120  1  0.071500  0.931600  0.876200  1.0
  H  H121  1  0.571500  0.876200  0.944600  1.0
  H  H122  1  0.071500  0.944600  0.068400  1.0
  H  H123  1  0.349600  0.797300  0.878500  1.0
  H  H124  1  0.849600  0.878500  0.081200  1.0
  H  H125  1  0.349600  0.081200  0.202700  1.0
  H  H126  1  0.849600  0.202700  0.121500  1.0
  H  H127  1  0.349600  0.121500  0.918800  1.0
  H  H128  1  0.849600  0.918800  0.797300  1.0
  H  H129  1  0.650400  0.202700  0.121500  1.0
  H  H130  1  0.150400  0.121500  0.918800  1.0
  H  H131  1  0.650400  0.918800  0.797300  1.0
  H  H132  1  0.150400  0.797300  0.878500  1.0
  H  H133  1  0.650400  0.878500  0.081200  1.0
  H  H134  1  0.150400  0.081200  0.202700  1.0
  H  H135  1  0.400500  0.852800  0.918300  1.0
  H  H136  1  0.900500  0.918300  0.065500  1.0
  H  H137  1  0.400500  0.065500  0.147200  1.0
  H  H138  1  0.900500  0.147200  0.081700  1.0
  H  H139  1  0.400500  0.081700  0.934500  1.0
  H  H140  1  0.900500  0.934500  0.852800  1.0
  H  H141  1  0.599500  0.147200  0.081700  1.0
  H  H142  1  0.099500  0.081700  0.934500  1.0
  H  H143  1  0.599500  0.934500  0.852800  1.0
  H  H144  1  0.099500  0.852800  0.918300  1.0
  H  H145  1  0.599500  0.918300  0.065500  1.0
  H  H146  1  0.099500  0.065500  0.147200  1.0
  H  H147  1  0.469600  0.801800  0.785000  1.0
  H  H148  1  0.969600  0.785000  0.983200  1.0
  H  H149  1  0.469600  0.983200  0.198200  1.0
  H  H150  1  0.969600  0.198200  0.215000  1.0
  H  H151  1  0.469600  0.215000  0.016800  1.0
  H  H152  1  0.969600  0.016800  0.801800  1.0
  H  H153  1  0.530400  0.198200  0.215000  1.0
  H  H154  1  0.030400  0.215000  0.016800  1.0
  H  H155  1  0.530400  0.016800  0.801800  1.0
  H  H156  1  0.030400  0.801800  0.785000  1.0
  H  H157  1  0.530400  0.785000  0.983200  1.0
  H  H158  1  0.030400  0.983200  0.198200  1.0
  H  H159  1  0.562600  0.735100  0.739500  1.0
  H  H160  1  0.062600  0.739500  0.004400  1.0
  H  H161  1  0.562600  0.004400  0.264900  1.0
  H  H162  1  0.062600  0.264900  0.260500  1.0
  H  H163  1  0.562600  0.260500  0.995600  1.0
  H  H164  1  0.062600  0.995600  0.735100  1.0
  H  H165  1  0.437400  0.264900  0.260500  1.0
  H  H166  1  0.937400  0.260500  0.995600  1.0
  H  H167  1  0.437400  0.995600  0.735100  1.0
  H  H168  1  0.937400  0.735100  0.739500  1.0
  H  H169  1  0.437400  0.739500  0.004400  1.0
  H  H170  1  0.937400  0.004400  0.264900  1.0
  H  H171  1  0.642200  0.657200  0.734200  1.0
  H  H172  1  0.142200  0.734200  0.077000  1.0
  H  H173  1  0.642200  0.077000  0.342800  1.0
  H  H174  1  0.142200  0.342800  0.265800  1.0
  H  H175  1  0.642200  0.265800  0.923000  1.0
  H  H176  1  0.142200  0.923000  0.657200  1.0
  H  H177  1  0.357800  0.342800  0.265800  1.0
  H  H178  1  0.857800  0.265800  0.923000  1.0
  H  H179  1  0.357800  0.923000  0.657200  1.0
  H  H180  1  0.857800  0.657200  0.734200  1.0
  H  H181  1  0.357800  0.734200  0.077000  1.0
  H  H182  1  0.857800  0.077000  0.342800  1.0
  H  H183  1  0.669400  0.597000  0.774500  1.0
  H  H184  1  0.169400  0.774500  0.177500  1.0
  H  H185  1  0.669400  0.177500  0.403000  1.0
  H  H186  1  0.169400  0.403000  0.225500  1.0
  H  H187  1  0.669400  0.225500  0.822500  1.0
  H  H188  1  0.169400  0.822500  0.597000  1.0
  H  H189  1  0.330600  0.403000  0.225500  1.0
  H  H190  1  0.830600  0.225500  0.822500  1.0
  H  H191  1  0.330600  0.822500  0.597000  1.0
  H  H192  1  0.830600  0.597000  0.774500  1.0
  H  H193  1  0.330600  0.774500  0.177500  1.0
  H  H194  1  0.830600  0.177500  0.403000  1.0
  H  H195  1  0.611700  0.592800  0.855300  1.0
  H  H196  1  0.111700  0.855300  0.262500  1.0
  H  H197  1  0.611700  0.262500  0.407200  1.0
  H  H198  1  0.111700  0.407200  0.144700  1.0
  H  H199  1  0.611700  0.144700  0.737500  1.0
  H  H200  1  0.111700  0.737500  0.592800  1.0
  H  H201  1  0.388300  0.407200  0.144700  1.0
  H  H202  1  0.888300  0.144700  0.737500  1.0
  H  H203  1  0.388300  0.737500  0.592800  1.0
  H  H204  1  0.888300  0.592800  0.855300  1.0
  H  H205  1  0.388300  0.855300  0.262500  1.0
  H  H206  1  0.888300  0.262500  0.407200  1.0
  H  H207  1  0.508600  0.649100  0.889100  1.0
  H  H208  1  0.008600  0.889100  0.240000  1.0
  H  H209  1  0.508600  0.240000  0.350900  1.0
  H  H210  1  0.008600  0.350900  0.110900  1.0
  H  H211  1  0.508600  0.110900  0.760000  1.0
  H  H212  1  0.008600  0.760000  0.649100  1.0
  H  H213  1  0.491400  0.350900  0.110900  1.0
  H  H214  1  0.991400  0.110900  0.760000  1.0
  H  H215  1  0.491400  0.760000  0.649100  1.0
  H  H216  1  0.991400  0.649100  0.889100  1.0
  H  H217  1  0.491400  0.889100  0.240000  1.0
  H  H218  1  0.991400  0.240000  0.350900  1.0
  H  H219  1  0.434300  0.735000  0.898300  1.0
  H  H220  1  0.934300  0.898300  0.163300  1.0
  H  H221  1  0.434300  0.163300  0.265000  1.0
  H  H222  1  0.934300  0.265000  0.101700  1.0
  H  H223  1  0.434300  0.101700  0.836700  1.0
  H  H224  1  0.934300  0.836700  0.735000  1.0
  H  H225  1  0.565700  0.265000  0.101700  1.0
  H  H226  1  0.065700  0.101700  0.836700  1.0
  H  H227  1  0.565700  0.836700  0.735000  1.0
  H  H228  1  0.065700  0.735000  0.898300  1.0
  H  H229  1  0.565700  0.898300  0.163300  1.0
  H  H230  1  0.065700  0.163300  0.265000  1.0
  H  H231  1  0.833700  0.455500  0.755300  1.0
  H  H232  1  0.333700  0.755300  0.299800  1.0
  H  H233  1  0.833700  0.299800  0.544500  1.0
  H  H234  1  0.333700  0.544500  0.244700  1.0
  H  H235  1  0.833700  0.244700  0.700200  1.0
  H  H236  1  0.333700  0.700200  0.455500  1.0
  H  H237  1  0.166300  0.544500  0.244700  1.0
  H  H238  1  0.666300  0.244700  0.700200  1.0
  H  H239  1  0.166300  0.700200  0.455500  1.0
  H  H240  1  0.666300  0.455500  0.755300  1.0
  H  H241  1  0.166300  0.755300  0.299800  1.0
  H  H242  1  0.666300  0.299800  0.544500  1.0
  H  H243  1  0.812200  0.385500  0.704900  1.0
  H  H244  1  0.312200  0.704900  0.319400  1.0
  H  H245  1  0.812200  0.319400  0.614500  1.0
  H  H246  1  0.312200  0.614500  0.295100  1.0
  H  H247  1  0.812200  0.295100  0.680600  1.0
  H  H248  1  0.312200  0.680600  0.385500  1.0
  H  H249  1  0.187800  0.614500  0.295100  1.0
  H  H250  1  0.687800  0.295100  0.680600  1.0
  H  H251  1  0.187800  0.680600  0.385500  1.0
  H  H252  1  0.687800  0.385500  0.704900  1.0
  H  H253  1  0.187800  0.704900  0.319400  1.0
  H  H254  1  0.687800  0.319400  0.614500  1.0
  H  H255  1  0.931400  0.343900  0.527700  1.0
  H  H256  1  0.431400  0.527700  0.183800  1.0
  H  H257  1  0.931400  0.183800  0.656100  1.0
  H  H258  1  0.431400  0.656100  0.472300  1.0
  H  H259  1  0.931400  0.472300  0.816200  1.0
  H  H260  1  0.431400  0.816200  0.343900  1.0
  H  H261  1  0.068600  0.656100  0.472300  1.0
  H  H262  1  0.568600  0.472300  0.816200  1.0
  H  H263  1  0.068600  0.816200  0.343900  1.0
  H  H264  1  0.568600  0.343900  0.527700  1.0
  H  H265  1  0.068600  0.527700  0.183800  1.0
  H  H266  1  0.568600  0.183800  0.656100  1.0
  H  H267  1  0.930700  0.500400  0.734400  1.0
  H  H268  1  0.430700  0.734400  0.234000  1.0
  H  H269  1  0.930700  0.234000  0.499600  1.0
  H  H270  1  0.430700  0.499600  0.265600  1.0
  H  H271  1  0.930700  0.265600  0.766000  1.0
  H  H272  1  0.430700  0.766000  0.500400  1.0
  H  H273  1  0.069300  0.499600  0.265600  1.0
  H  H274  1  0.569300  0.265600  0.766000  1.0
  H  H275  1  0.069300  0.766000  0.500400  1.0
  H  H276  1  0.569300  0.500400  0.734400  1.0
  H  H277  1  0.069300  0.734400  0.234000  1.0
  H  H278  1  0.569300  0.234000  0.499600  1.0
  H  H279  1  0.067000  0.641900  0.630300  1.0
  H  H280  1  0.567000  0.630300  0.988400  1.0
  H  H281  1  0.067000  0.988400  0.358100  1.0
  H  H282  1  0.567000  0.358100  0.369700  1.0
  H  H283  1  0.067000  0.369700  0.011600  1.0
  H  H284  1  0.567000  0.011600  0.641900  1.0
  H  H285  1  0.933000  0.358100  0.369700  1.0
  H  H286  1  0.433000  0.369700  0.011600  1.0
  H  H287  1  0.933000  0.011600  0.641900  1.0
  H  H288  1  0.433000  0.641900  0.630300  1.0
  H  H289  1  0.933000  0.630300  0.988400  1.0
  H  H290  1  0.433000  0.988400  0.358100  1.0
  H  H291  1  0.152300  0.712100  0.669700  1.0
  H  H292  1  0.652300  0.669700  0.957600  1.0
  H  H293  1  0.152300  0.957600  0.287900  1.0
  H  H294  1  0.652300  0.287900  0.330300  1.0
  H  H295  1  0.152300  0.330300  0.042400  1.0
  H  H296  1  0.652300  0.042400  0.712100  1.0
  H  H297  1  0.847700  0.287900  0.330300  1.0
  H  H298  1  0.347700  0.330300  0.042400  1.0
  H  H299  1  0.847700  0.042400  0.712100  1.0
  H  H300  1  0.347700  0.712100  0.669700  1.0
  H  H301  1  0.847700  0.669700  0.957600  1.0
  H  H302  1  0.347700  0.957600  0.287900  1.0
  H  H303  1  0.184700  0.667700  0.803300  1.0
  H  H304  1  0.684700  0.803300  0.135600  1.0
  H  H305  1  0.184700  0.135600  0.332300  1.0
  H  H306  1  0.684700  0.332300  0.196700  1.0
  H  H307  1  0.184700  0.196700  0.864400  1.0
  H  H308  1  0.684700  0.864400  0.667700  1.0
  H  H309  1  0.815300  0.332300  0.196700  1.0
  H  H310  1  0.315300  0.196700  0.864400  1.0
  H  H311  1  0.815300  0.864400  0.667700  1.0
  H  H312  1  0.315300  0.667700  0.803300  1.0
  H  H313  1  0.815300  0.803300  0.135600  1.0
  H  H314  1  0.315300  0.135600  0.332300  1.0
  H  H315  1  0.100700  0.585300  0.750000  1.0
  H  H316  1  0.600700  0.750000  0.164700  1.0
  H  H317  1  0.100700  0.164700  0.414700  1.0
  H  H318  1  0.600700  0.414700  0.250000  1.0
  H  H319  1  0.100700  0.250000  0.835300  1.0
  H  H320  1  0.600700  0.835300  0.585300  1.0
  H  H321  1  0.899300  0.414700  0.250000  1.0
  H  H322  1  0.399300  0.250000  0.835300  1.0
  H  H323  1  0.899300  0.835300  0.585300  1.0
  H  H324  1  0.399300  0.585300  0.750000  1.0
  H  H325  1  0.899300  0.750000  0.164700  1.0
  H  H326  1  0.399300  0.164700  0.414700  1.0
  H  H327  1  0.995100  0.382900  0.458000  1.0
  H  H328  1  0.495100  0.458000  0.075100  1.0
  H  H329  1  0.995100  0.075100  0.617100  1.0
  H  H330  1  0.495100  0.617100  0.542000  1.0
  H  H331  1  0.995100  0.542000  0.924900  1.0
  H  H332  1  0.495100  0.924900  0.382900  1.0
  H  H333  1  0.004900  0.617100  0.542000  1.0
  H  H334  1  0.504900  0.542000  0.924900  1.0
  H  H335  1  0.004900  0.924900  0.382900  1.0
  H  H336  1  0.504900  0.382900  0.458000  1.0
  H  H337  1  0.004900  0.458000  0.075100  1.0
  H  H338  1  0.504900  0.075100  0.617100  1.0
  H  H339  1  0.026700  0.337200  0.480300  1.0
  H  H340  1  0.526700  0.480300  0.143100  1.0
  H  H341  1  0.026700  0.143100  0.662800  1.0
  H  H342  1  0.526700  0.662800  0.519700  1.0
  H  H343  1  0.026700  0.519700  0.856900  1.0
  H  H344  1  0.526700  0.856900  0.337200  1.0
  H  H345  1  0.973300  0.662800  0.519700  1.0
  H  H346  1  0.473300  0.519700  0.856900  1.0
  H  H347  1  0.973300  0.856900  0.337200  1.0
  H  H348  1  0.473300  0.337200  0.480300  1.0
  H  H349  1  0.973300  0.480300  0.143100  1.0
  H  H350  1  0.473300  0.143100  0.662800  1.0
  H  H351  1  0.102400  0.432200  0.468700  1.0
  H  H352  1  0.602400  0.468700  0.036500  1.0
  H  H353  1  0.102400  0.036500  0.567800  1.0
  H  H354  1  0.602400  0.567800  0.531300  1.0
  H  H355  1  0.102400  0.531300  0.963500  1.0
  H  H356  1  0.602400  0.963500  0.432200  1.0
  H  H357  1  0.897600  0.567800  0.531300  1.0
  H  H358  1  0.397600  0.531300  0.963500  1.0
  H  H359  1  0.897600  0.963500  0.432200  1.0
  H  H360  1  0.397600  0.432200  0.468700  1.0
  H  H361  1  0.897600  0.468700  0.036500  1.0
  H  H362  1  0.397600  0.036500  0.567800  1.0
  H  H363  1  0.134500  0.391700  0.496700  1.0
  H  H364  1  0.634500  0.496700  0.105000  1.0
  H  H365  1  0.134500  0.105000  0.608300  1.0
  H  H366  1  0.634500  0.608300  0.503300  1.0
  H  H367  1  0.134500  0.503300  0.895000  1.0
  H  H368  1  0.634500  0.895000  0.391700  1.0
  H  H369  1  0.865500  0.608300  0.503300  1.0
  H  H370  1  0.365500  0.503300  0.895000  1.0
  H  H371  1  0.865500  0.895000  0.391700  1.0
  H  H372  1  0.365500  0.391700  0.496700  1.0
  H  H373  1  0.865500  0.496700  0.105000  1.0
  H  H374  1  0.365500  0.105000  0.608300  1.0
  H  H375  1  0.097600  0.299600  0.397500  1.0
  H  H376  1  0.597600  0.397500  0.097900  1.0
  H  H377  1  0.097600  0.097900  0.700400  1.0
  H  H378  1  0.597600  0.700400  0.602500  1.0
  H  H379  1  0.097600  0.602500  0.902100  1.0
  H  H380  1  0.597600  0.902100  0.299600  1.0
  H  H381  1  0.902400  0.700400  0.602500  1.0
  H  H382  1  0.402400  0.602500  0.902100  1.0
  H  H383  1  0.902400  0.902100  0.299600  1.0
  H  H384  1  0.402400  0.299600  0.397500  1.0
  H  H385  1  0.902400  0.397500  0.097900  1.0
  H  H386  1  0.402400  0.097900  0.700400  1.0
  H  H387  1  0.162500  0.335200  0.393800  1.0
  H  H388  1  0.662500  0.393800  0.058600  1.0
  H  H389  1  0.162500  0.058600  0.664800  1.0
  H  H390  1  0.662500  0.664800  0.606200  1.0
  H  H391  1  0.162500  0.606200  0.941400  1.0
  H  H392  1  0.662500  0.941400  0.335200  1.0
  H  H393  1  0.837500  0.664800  0.606200  1.0
  H  H394  1  0.337500  0.606200  0.941400  1.0
  H  H395  1  0.837500  0.941400  0.335200  1.0
  H  H396  1  0.337500  0.335200  0.393800  1.0
  H  H397  1  0.837500  0.393800  0.058600  1.0
  H  H398  1  0.337500  0.058600  0.664800  1.0
  H  H399  1  0.091800  0.347300  0.371800  1.0
  H  H400  1  0.591800  0.371800  0.024500  1.0
  H  H401  1  0.091800  0.024500  0.652700  1.0
  H  H402  1  0.591800  0.652700  0.628200  1.0
  H  H403  1  0.091800  0.628200  0.975500  1.0
  H  H404  1  0.591800  0.975500  0.347300  1.0
  H  H405  1  0.908200  0.652700  0.628200  1.0
  H  H406  1  0.408200  0.628200  0.975500  1.0
  H  H407  1  0.908200  0.975500  0.347300  1.0
  H  H408  1  0.408200  0.347300  0.371800  1.0
  H  H409  1  0.908200  0.371800  0.024500  1.0
  H  H410  1  0.408200  0.024500  0.652700  1.0
  Pd  Pd411  1  0.250000  0.765550  0.775040  1.0
  Pd  Pd412  1  0.750000  0.775040  0.009490  1.0
  Pd  Pd413  1  0.250000  0.009490  0.234450  1.0
  Pd  Pd414  1  0.750000  0.234450  0.224960  1.0
  Pd  Pd415  1  0.250000  0.224960  0.990510  1.0
  Pd  Pd416  1  0.750000  0.990510  0.765550  1.0
  C  C417  1  0.250000  0.525500  0.491100  1
  C  C418  1  0.750000  0.491100  0.965600  1
  C  C419  1  0.250000  0.965600  0.474500  1
  C  C420  1  0.750000  0.474500  0.508900  1
  C  C421  1  0.250000  0.508900  0.034400  1
  C  C422  1  0.750000  0.034400  0.525500  1
  C  C423  1  0.312400  0.522300  0.460300  1
  C  C424  1  0.812400  0.460300  0.938000  1
  C  C425  1  0.312400  0.938000  0.477700  1
  C  C426  1  0.812400  0.477700  0.539700  1
  C  C427  1  0.312400  0.539700  0.062000  1
  C  C428  1  0.812400  0.062000  0.522300  1
  C  C429  1  0.687600  0.477700  0.539700  1
  C  C430  1  0.187600  0.539700  0.062000  1
  C  C431  1  0.687600  0.062000  0.522300  1
  C  C432  1  0.187600  0.522300  0.460300  1
  C  C433  1  0.687600  0.460300  0.938000  1
  C  C434  1  0.187600  0.938000  0.477700  1
  C  C435  1  0.306800  0.502500  0.402100  1
  C  C436  1  0.806800  0.402100  0.899600  1
  C  C437  1  0.306800  0.899600  0.497500  1
  C  C438  1  0.806800  0.497500  0.597900  1
  C  C439  1  0.306800  0.597900  0.100400  1
  C  C440  1  0.806800  0.100400  0.502500  1
  C  C441  1  0.693200  0.497500  0.597900  1
  C  C442  1  0.193200  0.597900  0.100400  1
  C  C443  1  0.693200  0.100400  0.502500  1
  C  C444  1  0.193200  0.502500  0.402100  1
  C  C445  1  0.693200  0.402100  0.899600  1
  C  C446  1  0.193200  0.899600  0.497500  1
  C  C447  1  0.250000  0.492500  0.366000  1
  C  C448  1  0.750000  0.366000  0.873500  1
  C  C449  1  0.250000  0.873500  0.507500  1
  C  C450  1  0.750000  0.507500  0.634000  1
  C  C451  1  0.250000  0.634000  0.126500  1
  C  C452  1  0.750000  0.126500  0.492500  1
  C  C453  1  0.250000  0.881700  0.753900  1.0
  C  C454  1  0.750000  0.753900  0.872200  1.0
  C  C455  1  0.250000  0.872200  0.118300  1.0
  C  C456  1  0.750000  0.118300  0.246100  1.0
  C  C457  1  0.250000  0.246100  0.127800  1.0
  C  C458  1  0.750000  0.127800  0.881700  1.0
  C  C459  1  0.315300  0.834200  0.802400  1.0
  C  C460  1  0.815300  0.802400  0.968200  1.0
  C  C461  1  0.315300  0.968200  0.165800  1.0
  C  C462  1  0.815300  0.165800  0.197600  1.0
  C  C463  1  0.315300  0.197600  0.031800  1.0
  C  C464  1  0.815300  0.031800  0.834200  1.0
  C  C465  1  0.684700  0.165800  0.197600  1.0
  C  C466  1  0.184700  0.197600  0.031800  1.0
  C  C467  1  0.684700  0.031800  0.834200  1.0
  C  C468  1  0.184700  0.834200  0.802400  1.0
  C  C469  1  0.684700  0.802400  0.968200  1.0
  C  C470  1  0.184700  0.968200  0.165800  1.0
  C  C471  1  0.357200  0.924200  0.816400  1.0
  C  C472  1  0.857200  0.816400  0.892200  1.0
  C  C473  1  0.357200  0.892200  0.075800  1.0
  C  C474  1  0.857200  0.075800  0.183600  1.0
  C  C475  1  0.357200  0.183600  0.107800  1.0
  C  C476  1  0.857200  0.107800  0.924200  1.0
  C  C477  1  0.642800  0.075800  0.183600  1.0
  C  C478  1  0.142800  0.183600  0.107800  1.0
  C  C479  1  0.642800  0.107800  0.924200  1.0
  C  C480  1  0.142800  0.924200  0.816400  1.0
  C  C481  1  0.642800  0.816400  0.892200  1.0
  C  C482  1  0.142800  0.892200  0.075800  1.0
  C  C483  1  0.392000  0.908800  0.850300  1.0
  C  C484  1  0.892000  0.850300  0.941500  1.0
  C  C485  1  0.392000  0.941500  0.091200  1.0
  C  C486  1  0.892000  0.091200  0.149700  1.0
  C  C487  1  0.392000  0.149700  0.058500  1.0
  C  C488  1  0.892000  0.058500  0.908800  1.0
  C  C489  1  0.608000  0.091200  0.149700  1.0
  C  C490  1  0.108000  0.149700  0.058500  1.0
  C  C491  1  0.608000  0.058500  0.908800  1.0
  C  C492  1  0.108000  0.908800  0.850300  1.0
  C  C493  1  0.608000  0.850300  0.941500  1.0
  C  C494  1  0.108000  0.941500  0.091200  1.0
  C  C495  1  0.388000  0.820700  0.875300  1.0
  C  C496  1  0.888000  0.875300  0.054600  1.0
  C  C497  1  0.388000  0.054600  0.179300  1.0
  C  C498  1  0.888000  0.179300  0.124700  1.0
  C  C499  1  0.388000  0.124700  0.945400  1.0
  C  C500  1  0.888000  0.945400  0.820700  1.0
  C  C501  1  0.612000  0.179300  0.124700  1.0
  C  C502  1  0.112000  0.124700  0.945400  1.0
  C  C503  1  0.612000  0.945400  0.820700  1.0
  C  C504  1  0.112000  0.820700  0.875300  1.0
  C  C505  1  0.612000  0.875300  0.054600  1.0
  C  C506  1  0.112000  0.054600  0.179300  1.0
  C  C507  1  0.446200  0.775700  0.846600  1.0
  C  C508  1  0.946200  0.846600  0.070900  1.0
  C  C509  1  0.446200  0.070900  0.224300  1.0
  C  C510  1  0.946200  0.224300  0.153400  1.0
  C  C511  1  0.446200  0.153400  0.929100  1.0
  C  C512  1  0.946200  0.929100  0.775700  1.0
  C  C513  1  0.553800  0.224300  0.153400  1.0
  C  C514  1  0.053800  0.153400  0.929100  1.0
  C  C515  1  0.553800  0.929100  0.775700  1.0
  C  C516  1  0.053800  0.775700  0.846600  1.0
  C  C517  1  0.553800  0.846600  0.070900  1.0
  C  C518  1  0.053800  0.070900  0.224300  1.0
  C  C519  1  0.482200  0.774600  0.799900  1.0
  C  C520  1  0.982200  0.799900  0.025300  1.0
  C  C521  1  0.482200  0.025300  0.225400  1.0
  C  C522  1  0.982200  0.225400  0.200100  1.0
  C  C523  1  0.482200  0.200100  0.974700  1.0
  C  C524  1  0.982200  0.974700  0.774600  1.0
  C  C525  1  0.517800  0.225400  0.200100  1.0
  C  C526  1  0.017800  0.200100  0.974700  1.0
  C  C527  1  0.517800  0.974700  0.774600  1.0
  C  C528  1  0.017800  0.774600  0.799900  1.0
  C  C529  1  0.517800  0.799900  0.025300  1.0
  C  C530  1  0.017800  0.025300  0.225400  1.0
  C  C531  1  0.537800  0.734800  0.772100  1.0
  C  C532  1  0.037800  0.772100  0.037300  1.0
  C  C533  1  0.537800  0.037300  0.265200  1.0
  C  C534  1  0.037800  0.265200  0.227900  1.0
  C  C535  1  0.537800  0.227900  0.962700  1.0
  C  C536  1  0.037800  0.962700  0.734800  1.0
  C  C537  1  0.462200  0.265200  0.227900  1.0
  C  C538  1  0.962200  0.227900  0.962700  1.0
  C  C539  1  0.462200  0.962700  0.734800  1.0
  C  C540  1  0.962200  0.734800  0.772100  1.0
  C  C541  1  0.462200  0.772100  0.037300  1.0
  C  C542  1  0.962200  0.037300  0.265200  1.0
  C  C543  1  0.553600  0.697300  0.793900  1.0
  C  C544  1  0.053600  0.793900  0.096600  1.0
  C  C545  1  0.553600  0.096600  0.302700  1.0
  C  C546  1  0.053600  0.302700  0.206100  1.0
  C  C547  1  0.553600  0.206100  0.903400  1.0
  C  C548  1  0.053600  0.903400  0.697300  1.0
  C  C549  1  0.446400  0.302700  0.206100  1.0
  C  C550  1  0.946400  0.206100  0.903400  1.0
  C  C551  1  0.446400  0.903400  0.697300  1.0
  C  C552  1  0.946400  0.697300  0.793900  1.0
  C  C553  1  0.446400  0.793900  0.096600  1.0
  C  C554  1  0.946400  0.096600  0.302700  1.0
  C  C555  1  0.616400  0.656900  0.766200  1.0
  C  C556  1  0.116400  0.766200  0.109300  1.0
  C  C557  1  0.616400  0.109300  0.343100  1.0
  C  C558  1  0.116400  0.343100  0.233800  1.0
  C  C559  1  0.616400  0.233800  0.890700  1.0
  C  C560  1  0.116400  0.890700  0.656900  1.0
  C  C561  1  0.383600  0.343100  0.233800  1.0
  C  C562  1  0.883600  0.233800  0.890700  1.0
  C  C563  1  0.383600  0.890700  0.656900  1.0
  C  C564  1  0.883600  0.656900  0.766200  1.0
  C  C565  1  0.383600  0.766200  0.109300  1.0
  C  C566  1  0.883600  0.109300  0.343100  1.0
  C  C567  1  0.630800  0.622400  0.790600  1.0
  C  C568  1  0.130800  0.790600  0.168200  1.0
  C  C569  1  0.630800  0.168200  0.377600  1.0
  C  C570  1  0.130800  0.377600  0.209400  1.0
  C  C571  1  0.630800  0.209400  0.831800  1.0
  C  C572  1  0.130800  0.831800  0.622400  1.0
  C  C573  1  0.369200  0.377600  0.209400  1.0
  C  C574  1  0.869200  0.209400  0.831800  1.0
  C  C575  1  0.369200  0.831800  0.622400  1.0
  C  C576  1  0.869200  0.622400  0.790600  1.0
  C  C577  1  0.369200  0.790600  0.168200  1.0
  C  C578  1  0.869200  0.168200  0.377600  1.0
  C  C579  1  0.596000  0.617900  0.838800  1.0
  C  C580  1  0.096000  0.838800  0.220900  1.0
  C  C581  1  0.596000  0.220900  0.382100  1.0
  C  C582  1  0.096000  0.382100  0.161200  1.0
  C  C583  1  0.596000  0.161200  0.779100  1.0
  C  C584  1  0.096000  0.779100  0.617900  1.0
  C  C585  1  0.404000  0.382100  0.161200  1.0
  C  C586  1  0.904000  0.161200  0.779100  1.0
  C  C587  1  0.404000  0.779100  0.617900  1.0
  C  C588  1  0.904000  0.617900  0.838800  1.0
  C  C589  1  0.404000  0.838800  0.220900  1.0
  C  C590  1  0.904000  0.220900  0.382100  1.0
  C  C591  1  0.536200  0.653700  0.860500  1.0
  C  C592  1  0.036200  0.860500  0.206800  1.0
  C  C593  1  0.536200  0.206800  0.346300  1.0
  C  C594  1  0.036200  0.346300  0.139500  1.0
  C  C595  1  0.536200  0.139500  0.793200  1.0
  C  C596  1  0.036200  0.793200  0.653700  1.0
  C  C597  1  0.463800  0.346300  0.139500  1.0
  C  C598  1  0.963800  0.139500  0.793200  1.0
  C  C599  1  0.463800  0.793200  0.653700  1.0
  C  C600  1  0.963800  0.653700  0.860500  1.0
  C  C601  1  0.463800  0.860500  0.206800  1.0
  C  C602  1  0.963800  0.206800  0.346300  1.0
  C  C603  1  0.517400  0.694900  0.840600  1.0
  C  C604  1  0.017400  0.840600  0.145700  1.0
  C  C605  1  0.517400  0.145700  0.305100  1.0
  C  C606  1  0.017400  0.305100  0.159400  1.0
  C  C607  1  0.517400  0.159400  0.854300  1.0
  C  C608  1  0.017400  0.854300  0.694900  1.0
  C  C609  1  0.482600  0.305100  0.159400  1.0
  C  C610  1  0.982600  0.159400  0.854300  1.0
  C  C611  1  0.482600  0.854300  0.694900  1.0
  C  C612  1  0.982600  0.694900  0.840600  1.0
  C  C613  1  0.482600  0.840600  0.145700  1.0
  C  C614  1  0.982600  0.145700  0.305100  1.0
  C  C615  1  0.460800  0.736000  0.867000  1.0
  C  C616  1  0.960800  0.867000  0.131000  1.0
  C  C617  1  0.460800  0.131000  0.264000  1.0
  C  C618  1  0.960800  0.264000  0.133000  1.0
  C  C619  1  0.460800  0.133000  0.869000  1.0
  C  C620  1  0.960800  0.869000  0.736000  1.0
  C  C621  1  0.539200  0.264000  0.133000  1.0
  C  C622  1  0.039200  0.133000  0.869000  1.0
  C  C623  1  0.539200  0.869000  0.736000  1.0
  C  C624  1  0.039200  0.736000  0.867000  1.0
  C  C625  1  0.539200  0.867000  0.131000  1.0
  C  C626  1  0.039200  0.131000  0.264000  1.0
  C  C627  1  0.850800  0.413500  0.725000  1.0
  C  C628  1  0.350800  0.725000  0.311500  1.0
  C  C629  1  0.850800  0.311500  0.586500  1.0
  C  C630  1  0.350800  0.586500  0.275000  1.0
  C  C631  1  0.850800  0.275000  0.688500  1.0
  C  C632  1  0.350800  0.688500  0.413500  1.0
  C  C633  1  0.149200  0.586500  0.275000  1.0
  C  C634  1  0.649200  0.275000  0.688500  1.0
  C  C635  1  0.149200  0.688500  0.413500  1.0
  C  C636  1  0.649200  0.413500  0.725000  1.0
  C  C637  1  0.149200  0.725000  0.311500  1.0
  C  C638  1  0.649200  0.311500  0.586500  1.0
  C  C639  1  0.894300  0.417100  0.674300  1.0
  C  C640  1  0.394300  0.674300  0.257200  1.0
  C  C641  1  0.894300  0.257200  0.582900  1.0
  C  C642  1  0.394300  0.582900  0.325700  1.0
  C  C643  1  0.894300  0.325700  0.742800  1.0
  C  C644  1  0.394300  0.742800  0.417100  1.0
  C  C645  1  0.105700  0.582900  0.325700  1.0
  C  C646  1  0.605700  0.325700  0.742800  1.0
  C  C647  1  0.105700  0.742800  0.417100  1.0
  C  C648  1  0.605700  0.417100  0.674300  1.0
  C  C649  1  0.105700  0.674300  0.257200  1.0
  C  C650  1  0.605700  0.257200  0.582900  1.0
  C  C651  1  0.893100  0.369400  0.611300  1.0
  C  C652  1  0.393100  0.611300  0.241900  1.0
  C  C653  1  0.893100  0.241900  0.630600  1.0
  C  C654  1  0.393100  0.630600  0.388700  1.0
  C  C655  1  0.893100  0.388700  0.758100  1.0
  C  C656  1  0.393100  0.758100  0.369400  1.0
  C  C657  1  0.106900  0.630600  0.388700  1.0
  C  C658  1  0.606900  0.388700  0.758100  1.0
  C  C659  1  0.106900  0.758100  0.369400  1.0
  C  C660  1  0.606900  0.369400  0.611300  1.0
  C  C661  1  0.106900  0.611300  0.241900  1.0
  C  C662  1  0.606900  0.241900  0.630600  1.0
  C  C663  1  0.933800  0.375300  0.570400  1.0
  C  C664  1  0.433800  0.570400  0.195100  1.0
  C  C665  1  0.933800  0.195100  0.624700  1.0
  C  C666  1  0.433800  0.624700  0.429600  1.0
  C  C667  1  0.933800  0.429600  0.804900  1.0
  C  C668  1  0.433800  0.804900  0.375300  1.0
  C  C669  1  0.066200  0.624700  0.429600  1.0
  C  C670  1  0.566200  0.429600  0.804900  1.0
  C  C671  1  0.066200  0.804900  0.375300  1.0
  C  C672  1  0.566200  0.375300  0.570400  1.0
  C  C673  1  0.066200  0.570400  0.195100  1.0
  C  C674  1  0.566200  0.195100  0.624700  1.0
  C  C675  1  0.979100  0.424700  0.586800  1.0
  C  C676  1  0.479100  0.586800  0.162100  1.0
  C  C677  1  0.979100  0.162100  0.575300  1.0
  C  C678  1  0.479100  0.575300  0.413200  1.0
  C  C679  1  0.979100  0.413200  0.837900  1.0
  C  C680  1  0.479100  0.837900  0.424700  1.0
  C  C681  1  0.020900  0.575300  0.413200  1.0
  C  C682  1  0.520900  0.413200  0.837900  1.0
  C  C683  1  0.020900  0.837900  0.424700  1.0
  C  C684  1  0.520900  0.424700  0.586800  1.0
  C  C685  1  0.020900  0.586800  0.162100  1.0
  C  C686  1  0.520900  0.162100  0.575300  1.0
  C  C687  1  0.976500  0.469400  0.651300  1.0
  C  C688  1  0.476500  0.651300  0.181900  1.0
  C  C689  1  0.976500  0.181900  0.530600  1.0
  C  C690  1  0.476500  0.530600  0.348700  1.0
  C  C691  1  0.976500  0.348700  0.818100  1.0
  C  C692  1  0.476500  0.818100  0.469400  1.0
  C  C693  1  0.023500  0.530600  0.348700  1.0
  C  C694  1  0.523500  0.348700  0.818100  1.0
  C  C695  1  0.023500  0.818100  0.469400  1.0
  C  C696  1  0.523500  0.469400  0.651300  1.0
  C  C697  1  0.023500  0.651300  0.181900  1.0
  C  C698  1  0.523500  0.181900  0.530600  1.0
  C  C699  1  0.933100  0.466800  0.692700  1.0
  C  C700  1  0.433100  0.692700  0.225900  1.0
  C  C701  1  0.933100  0.225900  0.533200  1.0
  C  C702  1  0.433100  0.533200  0.307300  1.0
  C  C703  1  0.933100  0.307300  0.774100  1.0
  C  C704  1  0.433100  0.774100  0.466800  1.0
  C  C705  1  0.066900  0.533200  0.307300  1.0
  C  C706  1  0.566900  0.307300  0.774100  1.0
  C  C707  1  0.066900  0.774100  0.466800  1.0
  C  C708  1  0.566900  0.466800  0.692700  1.0
  C  C709  1  0.066900  0.692700  0.225900  1.0
  C  C710  1  0.566900  0.225900  0.533200  1.0
  C  C711  1  0.022700  0.558400  0.658200  1.0
  C  C712  1  0.522700  0.658200  0.099800  1.0
  C  C713  1  0.022700  0.099800  0.441600  1.0
  C  C714  1  0.522700  0.441600  0.341800  1.0
  C  C715  1  0.022700  0.341800  0.900200  1.0
  C  C716  1  0.522700  0.900200  0.558400  1.0
  C  C717  1  0.977300  0.441600  0.341800  1.0
  C  C718  1  0.477300  0.341800  0.900200  1.0
  C  C719  1  0.977300  0.900200  0.558400  1.0
  C  C720  1  0.477300  0.558400  0.658200  1.0
  C  C721  1  0.977300  0.658200  0.099800  1.0
  C  C722  1  0.477300  0.099800  0.441600  1.0
  C  C723  1  0.078900  0.607800  0.685900  1.0
  C  C724  1  0.578900  0.685900  0.078100  1.0
  C  C725  1  0.078900  0.078100  0.392200  1.0
  C  C726  1  0.578900  0.392200  0.314100  1.0
  C  C727  1  0.078900  0.314100  0.921900  1.0
  C  C728  1  0.578900  0.921900  0.607800  1.0
  C  C729  1  0.921100  0.392200  0.314100  1.0
  C  C730  1  0.421100  0.314100  0.921900  1.0
  C  C731  1  0.921100  0.921900  0.607800  1.0
  C  C732  1  0.421100  0.607800  0.685900  1.0
  C  C733  1  0.921100  0.685900  0.078100  1.0
  C  C734  1  0.421100  0.078100  0.392200  1.0
  C  C735  1  0.092500  0.645000  0.664000  1.0
  C  C736  1  0.592500  0.664000  0.019000  1.0
  C  C737  1  0.092500  0.019000  0.355000  1.0
  C  C738  1  0.592500  0.355000  0.336000  1.0
  C  C739  1  0.092500  0.336000  0.981000  1.0
  C  C740  1  0.592500  0.981000  0.645000  1.0
  C  C741  1  0.907500  0.355000  0.336000  1.0
  C  C742  1  0.407500  0.336000  0.981000  1.0
  C  C743  1  0.907500  0.981000  0.645000  1.0
  C  C744  1  0.407500  0.645000  0.664000  1.0
  C  C745  1  0.907500  0.664000  0.019000  1.0
  C  C746  1  0.407500  0.019000  0.355000  1.0
  C  C747  1  0.141500  0.687600  0.688300  1.0
  C  C748  1  0.641500  0.688300  0.000700  1.0
  C  C749  1  0.141500  0.000700  0.312400  1.0
  C  C750  1  0.641500  0.312400  0.311700  1.0
  C  C751  1  0.141500  0.311700  0.999300  1.0
  C  C752  1  0.641500  0.999300  0.687600  1.0
  C  C753  1  0.858500  0.312400  0.311700  1.0
  C  C754  1  0.358500  0.311700  0.999300  1.0
  C  C755  1  0.858500  0.999300  0.687600  1.0
  C  C756  1  0.358500  0.687600  0.688300  1.0
  C  C757  1  0.858500  0.688300  0.000700  1.0
  C  C758  1  0.358500  0.000700  0.312400  1.0
  C  C759  1  0.162500  0.661400  0.766700  1.0
  C  C760  1  0.662500  0.766700  0.105300  1.0
  C  C761  1  0.162500  0.105300  0.338600  1.0
  C  C762  1  0.662500  0.338600  0.233300  1.0
  C  C763  1  0.162500  0.233300  0.894700  1.0
  C  C764  1  0.662500  0.894700  0.661400  1.0
  C  C765  1  0.837500  0.338600  0.233300  1.0
  C  C766  1  0.337500  0.233300  0.894700  1.0
  C  C767  1  0.837500  0.894700  0.661400  1.0
  C  C768  1  0.337500  0.661400  0.766700  1.0
  C  C769  1  0.837500  0.766700  0.105300  1.0
  C  C770  1  0.337500  0.105300  0.338600  1.0
  C  C771  1  0.111000  0.613000  0.735100  1.0
  C  C772  1  0.611000  0.735100  0.122100  1.0
  C  C773  1  0.111000  0.122100  0.387000  1.0
  C  C774  1  0.611000  0.387000  0.264900  1.0
  C  C775  1  0.111000  0.264900  0.877900  1.0
  C  C776  1  0.611000  0.877900  0.613000  1.0
  C  C777  1  0.889000  0.387000  0.264900  1.0
  C  C778  1  0.389000  0.264900  0.877900  1.0
  C  C779  1  0.889000  0.877900  0.613000  1.0
  C  C780  1  0.389000  0.613000  0.735100  1.0
  C  C781  1  0.889000  0.735100  0.122100  1.0
  C  C782  1  0.389000  0.122100  0.387000  1.0
  C  C783  1  0.029900  0.378900  0.484200  1.0
  C  C784  1  0.529900  0.484200  0.105300  1.0
  C  C785  1  0.029900  0.105300  0.621100  1.0
  C  C786  1  0.529900  0.621100  0.515800  1.0
  C  C787  1  0.029900  0.515800  0.894700  1.0
  C  C788  1  0.529900  0.894700  0.378900  1.0
  C  C789  1  0.970100  0.621100  0.515800  1.0
  C  C790  1  0.470100  0.515800  0.894700  1.0
  C  C791  1  0.970100  0.894700  0.378900  1.0
  C  C792  1  0.470100  0.378900  0.484200  1.0
  C  C793  1  0.970100  0.484200  0.105300  1.0
  C  C794  1  0.470100  0.105300  0.621100  1.0
  C  C795  1  0.101000  0.391400  0.467200  1.0
  C  C796  1  0.601000  0.467200  0.075800  1.0
  C  C797  1  0.101000  0.075800  0.608600  1.0
  C  C798  1  0.601000  0.608600  0.532800  1.0
  C  C799  1  0.101000  0.532800  0.924200  1.0
  C  C800  1  0.601000  0.924200  0.391400  1.0
  C  C801  1  0.899000  0.608600  0.532800  1.0
  C  C802  1  0.399000  0.532800  0.924200  1.0
  C  C803  1  0.899000  0.924200  0.391400  1.0
  C  C804  1  0.399000  0.391400  0.467200  1.0
  C  C805  1  0.899000  0.467200  0.075800  1.0
  C  C806  1  0.399000  0.075800  0.608600  1.0
  C  C807  1  0.114400  0.338800  0.401900  1.0
  C  C808  1  0.614400  0.401900  0.063100  1.0
  C  C809  1  0.114400  0.063100  0.661200  1.0
  C  C810  1  0.614400  0.661200  0.598100  1.0
  C  C811  1  0.114400  0.598100  0.936900  1.0
  C  C812  1  0.614400  0.936900  0.338800  1.0
  C  C813  1  0.885600  0.661200  0.598100  1.0
  C  C814  1  0.385600  0.598100  0.936900  1.0
  C  C815  1  0.885600  0.936900  0.338800  1.0
  C  C816  1  0.385600  0.338800  0.401900  1.0
  C  C817  1  0.885600  0.401900  0.063100  1.0
  C  C818  1  0.385600  0.063100  0.661200  1.0
  C  C819  1  0.250000  0.003700  0.056100  0.5
  O  O820  1  0.250000  0.003700  0.056100  0.5
  C  C821  1  0.750000  0.056100  0.052400  0.5
  O  O822  1  0.750000  0.056100  0.052400  0.5
  C  C823  1  0.250000  0.052400  0.996300  0.5
  O  O824  1  0.250000  0.052400  0.996300  0.5
  C  C825  1  0.750000  0.996300  0.943900  0.5
  O  O826  1  0.750000  0.996300  0.943900  0.5
  C  C827  1  0.250000  0.943900  0.947600  0.5
  O  O828  1  0.250000  0.943900  0.947600  0.5
  C  C829  1  0.750000  0.947600  0.003700  0.5
  O  O830  1  0.750000  0.947600  0.003700  0.5
  N  N831  1  0.250000  0.000000  0.000000  1
  N  N832  1  0.750000  0.000000  0.000000  1
  N  N833  1  0.309400  0.879700  0.787700  1.0
  N  N834  1  0.809400  0.787700  0.908000  1.0
  N  N835  1  0.309400  0.908000  0.120300  1.0
  N  N836  1  0.809400  0.120300  0.212300  1.0
  N  N837  1  0.309400  0.212300  0.092000  1.0
  N  N838  1  0.809400  0.092000  0.879700  1.0
  N  N839  1  0.690600  0.120300  0.212300  1.0
  N  N840  1  0.190600  0.212300  0.092000  1.0
  N  N841  1  0.690600  0.092000  0.879700  1.0
  N  N842  1  0.190600  0.879700  0.787700  1.0
  N  N843  1  0.690600  0.787700  0.908000  1.0
  N  N844  1  0.190600  0.908000  0.120300  1.0
  N  N845  1  0.366500  0.852000  0.842300  1.0
  N  N846  1  0.866500  0.842300  0.990300  1.0
  N  N847  1  0.366500  0.990300  0.148000  1.0
  N  N848  1  0.866500  0.148000  0.157700  1.0
  N  N849  1  0.366500  0.157700  0.009700  1.0
  N  N850  1  0.866500  0.009700  0.852000  1.0
  N  N851  1  0.633500  0.148000  0.157700  1.0
  N  N852  1  0.133500  0.157700  0.009700  1.0
  N  N853  1  0.633500  0.009700  0.852000  1.0
  N  N854  1  0.133500  0.852000  0.842300  1.0
  N  N855  1  0.633500  0.842300  0.990300  1.0
  N  N856  1  0.133500  0.990300  0.148000  1.0
  N  N857  1  0.175700  0.695700  0.739500  1.0
  N  N858  1  0.675700  0.739500  0.043800  1.0
  N  N859  1  0.175700  0.043800  0.304300  1.0
  N  N860  1  0.675700  0.304300  0.260500  1.0
  N  N861  1  0.175700  0.260500  0.956200  1.0
  N  N862  1  0.675700  0.956200  0.695700  1.0
  N  N863  1  0.824300  0.304300  0.260500  1.0
  N  N864  1  0.324300  0.260500  0.956200  1.0
  N  N865  1  0.824300  0.956200  0.695700  1.0
  N  N866  1  0.324300  0.695700  0.739500  1.0
  N  N867  1  0.824300  0.739500  0.043800  1.0
  N  N868  1  0.324300  0.043800  0.304300  1.0
  Cl  Cl869  1  0.250000  0.547200  0.570400  1
  Cl  Cl870  1  0.750000  0.570400  0.023200  1
  Cl  Cl871  1  0.250000  0.023200  0.452800  1
  Cl  Cl872  1  0.750000  0.452800  0.429600  1
  Cl  Cl873  1  0.250000  0.429600  0.976800  1
  Cl  Cl874  1  0.750000  0.976800  0.547200  1
  Cl  Cl875  1  0.383000  0.540000  0.512400  1
  Cl  Cl876  1  0.883000  0.512400  0.972400  1
  Cl  Cl877  1  0.383000  0.972400  0.460000  1
  Cl  Cl878  1  0.883000  0.460000  0.487600  1
  Cl  Cl879  1  0.383000  0.487600  0.027600  1
  Cl  Cl880  1  0.883000  0.027600  0.540000  1
  Cl  Cl881  1  0.617000  0.460000  0.487600  1
  Cl  Cl882  1  0.117000  0.487600  0.027600  1
  Cl  Cl883  1  0.617000  0.027600  0.540000  1
  Cl  Cl884  1  0.117000  0.540000  0.512400  1
  Cl  Cl885  1  0.617000  0.512400  0.972400  1
  Cl  Cl886  1  0.117000  0.972400  0.460000  1
  O  O887  1  0.024900  0.432000  0.553200  1.0
  O  O888  1  0.524900  0.553200  0.121200  1.0
  O  O889  1  0.024900  0.121200  0.568000  1.0
  O  O890  1  0.524900  0.568000  0.446800  1.0
  O  O891  1  0.024900  0.446800  0.878800  1.0
  O  O892  1  0.524900  0.878800  0.432000  1.0
  O  O893  1  0.975100  0.568000  0.446800  1.0
  O  O894  1  0.475100  0.446800  0.878800  1.0
  O  O895  1  0.975100  0.878800  0.432000  1.0
  O  O896  1  0.475100  0.432000  0.553200  1.0
  O  O897  1  0.975100  0.553200  0.121200  1.0
  O  O898  1  0.475100  0.121200  0.568000  1.0
  O  O899  1  0.024500  0.521600  0.675100  1.0
  O  O900  1  0.524500  0.675100  0.153500  1.0
  O  O901  1  0.024500  0.153500  0.478400  1.0
  O  O902  1  0.524500  0.478400  0.324900  1.0
  O  O903  1  0.024500  0.324900  0.846500  1.0
  O  O904  1  0.524500  0.846500  0.521600  1.0
  O  O905  1  0.975500  0.478400  0.324900  1.0
  O  O906  1  0.475500  0.324900  0.846500  1.0
  O  O907  1  0.975500  0.846500  0.521600  1.0
  O  O908  1  0.475500  0.521600  0.675100  1.0
  O  O909  1  0.975500  0.675100  0.153500  1.0
  O  O910  1  0.475500  0.153500  0.478400  1.0
  O  O911  1  0.981300  0.560900  0.621900  1.0
  O  O912  1  0.481300  0.621900  0.061000  1.0
  O  O913  1  0.981300  0.061000  0.439100  1.0
  O  O914  1  0.481300  0.439100  0.378100  1.0
  O  O915  1  0.981300  0.378100  0.939000  1.0
  O  O916  1  0.481300  0.939000  0.560900  1.0
  O  O917  1  0.018700  0.439100  0.378100  1.0
  O  O918  1  0.518700  0.378100  0.939000  1.0
  O  O919  1  0.018700  0.939000  0.560900  1.0
  O  O920  1  0.518700  0.560900  0.621900  1.0
  O  O921  1  0.018700  0.621900  0.061000  1.0
  O  O922  1  0.518700  0.061000  0.439100  1.0
  F  F923  1  0.750000  0.542400  0.793100  1
  F  F924  1  0.250000  0.793100  0.250700  1
  F  F925  1  0.750000  0.250700  0.457600  1
  F  F926  1  0.250000  0.457600  0.206900  1
  F  F927  1  0.750000  0.206900  0.749300  1
  F  F928  1  0.250000  0.749300  0.542400  1
  F  F929  1  0.750000  0.632800  0.886800  1
  F  F930  1  0.250000  0.886800  0.254000  1
  F  F931  1  0.750000  0.254000  0.367200  1
  F  F932  1  0.250000  0.367200  0.113200  1
  F  F933  1  0.750000  0.113200  0.746000  1
  F  F934  1  0.250000  0.746000  0.632800  1
  F  F935  1  0.250000  0.109500  0.852000  1
  F  F936  1  0.750000  0.852000  0.742500  1
  F  F937  1  0.250000  0.742500  0.890500  1
  F  F938  1  0.750000  0.890500  0.148000  1
  F  F939  1  0.250000  0.148000  0.257500  1
  F  F940  1  0.750000  0.257500  0.109500  1
  F  F941  1  0.250000  0.038800  0.864200  1
  F  F942  1  0.750000  0.864200  0.825400  1
  F  F943  1  0.250000  0.825400  0.961200  1
  F  F944  1  0.750000  0.961200  0.135800  1
  F  F945  1  0.250000  0.135800  0.174600  1
  F  F946  1  0.750000  0.174600  0.038800  1
  F  F947  1  0.250000  0.095400  0.768800  1
  F  F948  1  0.750000  0.768800  0.673400  1
  F  F949  1  0.250000  0.673400  0.904600  1
  F  F950  1  0.750000  0.904600  0.231200  1
  F  F951  1  0.250000  0.231200  0.326600  1
  F  F952  1  0.750000  0.326600  0.095400  1
  F  F953  1  0.286700  0.010400  0.753800  1
  F  F954  1  0.786700  0.753800  0.743400  1
  F  F955  1  0.286700  0.743400  0.989600  1
  F  F956  1  0.786700  0.989600  0.246200  1
  F  F957  1  0.286700  0.246200  0.256600  1
  F  F958  1  0.786700  0.256600  0.010400  1
  F  F959  1  0.713300  0.989600  0.246200  1
  F  F960  1  0.213300  0.246200  0.256600  1
  F  F961  1  0.713300  0.256600  0.010400  1
  F  F962  1  0.213300  0.010400  0.753800  1
  F  F963  1  0.713300  0.753800  0.743400  1
  F  F964  1  0.213300  0.743400  0.989600  1
  F  F965  1  0.423100  0.000000  0.000000  1
  F  F966  1  0.923100  0.000000  0.000000  1
  F  F967  1  0.576900  0.000000  0.000000  1
  F  F968  1  0.076900  0.000000  0.000000  1
  F  F969  1  0.517700  0.960100  0.940700  1
  F  F970  1  0.017700  0.940700  0.980600  1
  F  F971  1  0.517700  0.980600  0.039900  1
  F  F972  1  0.017700  0.039900  0.059300  1
  F  F973  1  0.517700  0.059300  0.019400  1
  F  F974  1  0.017700  0.019400  0.960100  1
  F  F975  1  0.482300  0.039900  0.059300  1
  F  F976  1  0.982300  0.059300  0.019400  1
  F  F977  1  0.482300  0.019400  0.960100  1
  F  F978  1  0.982300  0.960100  0.940700  1
  F  F979  1  0.482300  0.940700  0.980600  1
  F  F980  1  0.982300  0.980600  0.039900  1
  F  F981  1  0.696100  0.551100  0.881400  1.0
  F  F982  1  0.196100  0.881400  0.330300  1.0
  F  F983  1  0.696100  0.330300  0.448900  1.0
  F  F984  1  0.196100  0.448900  0.118600  1.0
  F  F985  1  0.696100  0.118600  0.669700  1.0
  F  F986  1  0.196100  0.669700  0.551100  1.0
  F  F987  1  0.303900  0.448900  0.118600  1.0
  F  F988  1  0.803900  0.118600  0.669700  1.0
  F  F989  1  0.303900  0.669700  0.551100  1.0
  F  F990  1  0.803900  0.551100  0.881400  1.0
  F  F991  1  0.303900  0.881400  0.330300  1.0
  F  F992  1  0.803900  0.330300  0.448900  1.0
  F  F993  1  0.307500  0.036500  0.790200  1.0
  F  F994  1  0.807500  0.790200  0.753700  1.0
  F  F995  1  0.307500  0.753700  0.963500  1.0
  F  F996  1  0.807500  0.963500  0.209800  1.0
  F  F997  1  0.307500  0.209800  0.246300  1.0
  F  F998  1  0.807500  0.246300  0.036500  1.0
  F  F999  1  0.692500  0.963500  0.209800  1.0
  F  F1000  1  0.192500  0.209800  0.246300  1.0
  F  F1001  1  0.692500  0.246300  0.036500  1.0
  F  F1002  1  0.192500  0.036500  0.790200  1.0
  F  F1003  1  0.692500  0.790200  0.753700  1.0
  F  F1004  1  0.192500  0.753700  0.963500  1.0
