
#######################################################################
#
#                 Cambridge Crystallographic Data Centre
#                                CCDC 
#
#######################################################################
#
# If this CIF has been generated from an entry in the Cambridge 
# Structural Database, then it will include bibliographic, chemical, 
# crystal, experimental, refinement or atomic coordinate data resulting 
# from the CCDC's data processing and validation procedures.
#
#######################################################################

data_GUSROD
_chemical_name_common            
"tris(1,1'-methylenebis(3-(naphthalen-2-ylmethyl)-imidazol-2-ylidene))-bis(tris(isonicotinoyl)cyclotriguaiacylene)-tri-palladium(ii) tris(iodine) hexakis(tetrafluoroborate) hydrate"
_chemical_formula_moiety         
'C171 H138 N18 O18 Pd3 6+,6(B1 F4 1-),3(I2),4.5(H2 O1)'
_chemical_name_systematic        
"tris(1,1'-methylenebis(3-(naphthalen-2-ylmethyl)-imidazol-2-ylidene))-bis(3,8,13-trimethoxy-10,15-dihydro-5H-tribenzo[a,d,g][9]annulene-2,7,12-triyl triisonicotinate)-tri-palladium(ii) tris(iodine) hexakis(tetrafluoroborate) hydrate"
_symmetry_cell_setting           hexagonal
_symmetry_space_group_name_H-M   'P 63/m'
_symmetry_Int_Tables_number      176
_space_group_name_Hall           '-P 6c'
loop_
_symmetry_equiv_pos_site_id
_symmetry_equiv_pos_as_xyz
1 x,y,z
2 x-y,x,1/2+z
3 -y,x-y,z
4 -x,-y,1/2+z
5 -x+y,-x,z
6 y,-x+y,1/2+z
7 -x,-y,-z
8 -x+y,-x,1/2-z
9 y,-x+y,-z
10 x,y,1/2-z
11 x-y,x,-z
12 -y,x-y,1/2-z
_cell_length_a                   24.7016(8)
_cell_length_b                   24.7016(8)
_cell_length_c                   20.3905(7)
_cell_angle_alpha                90
_cell_angle_beta                 90
_cell_angle_gamma                120
_cell_volume                     10774.8
_exptl_crystal_colour            brown
_exptl_crystal_description       needle
_cell_formula_units_Z            2
loop_
_atom_site_label
_atom_site_type_symbol
_atom_site_fract_x
_atom_site_fract_y
_atom_site_fract_z
Pd1 Pd 0.01723(9) 0.23771(9) 0.7500
O1 O 0.1100(11) 0.5549(9) 0.5043(14)
N1 N -0.0029(9) 0.1511(8) 0.8665(8)
C1 C -0.1222(13) 0.1214(14) 0.7500
H1 H -0.1283 0.1580 0.7500
H2 H -0.1636 0.0828 0.7500
O2 O 0.1586(9) 0.4764(7) 0.5179(8)
N2 N -0.0851(9) 0.1229(9) 0.8074(8)
C2 C -0.0255(11) 0.1674(9) 0.8139(11)
O3 O 0.0614(9) 0.4263(9) 0.4707(10)
N3 N 0.0485(10) 0.3054(7) 0.6757(9)
C3 C -0.1048(12) 0.0764(10) 0.8552(11)
H3 H -0.1453 0.0413 0.8613
C4 C -0.0545(15) 0.0923(11) 0.8897(13)
H4 H -0.0519 0.0687 0.9252
C5 C 0.0613(11) 0.1826(11) 0.8879(11)
H5 H 0.0880 0.2076 0.8508
H6 H 0.0728 0.1506 0.8986
C6 C 0.0767(14) 0.2269(12) 0.9487(13)
C7 C 0.1344(13) 0.2669(13) 0.9632(12)
H7 H 0.1676 0.2709 0.9364
C8 C 0.1468(14) 0.3053(10) 1.0211(15)
C9 C 0.2113(16) 0.3457(13) 1.0346(15)
H8 H 0.2437 0.3489 1.0068
C10 C 0.2229(15) 0.3798(14) 1.091(2)
H9 H 0.2652 0.4064 1.1040
C11 C 0.1773(18) 0.3777(11) 1.1303(14)
H10 H 0.1888 0.4021 1.1692
C12 C 0.1157(18) 0.3417(15) 1.1152(19)
H11 H 0.0841 0.3424 1.1411
C13 C 0.1002(15) 0.3010(13) 1.0558(14)
C14 C 0.0422(16) 0.2635(15) 1.0407(15)
H12 H 0.0099 0.2617 1.0676
C15 C 0.0273(11) 0.2261(11) 0.9855(13)
H13 H -0.0150 0.2004 0.9724
C16 C 0.2745(11) 0.6865(11) 0.3461(10)
H14 H 0.2967 0.6809 0.3086
H15 H 0.2430 0.6962 0.3283
C17 C 0.2416(10) 0.6260(11) 0.3859(12)
C18 C 0.2582(10) 0.5801(12) 0.3891(12)
C19 C 0.2303(11) 0.5313(11) 0.4310(12)
H16 H 0.2441 0.5017 0.4340
C20 C 0.1834(13) 0.5255(9) 0.4678(12)
C21 C 0.1595(13) 0.5673(12) 0.4691(14)
C22 C 0.1898(11) 0.6185(12) 0.4284(15)
H17 H 0.1773 0.6491 0.4277
C23 C 0.0975(16) 0.4342(12) 0.5118(15)
C24 C 0.0821(14) 0.3898(11) 0.5738(13)
C25 C 0.1296(12) 0.3886(11) 0.6102(13)
H18 H 0.1727 0.4158 0.6013
C26 C 0.1072(15) 0.3408(12) 0.6644(12)
H19 H 0.1368 0.3368 0.6905
C27 C 0.0071(11) 0.3121(12) 0.6400(12)
H20 H -0.0358 0.2870 0.6512
C28 C 0.0209(14) 0.3504(13) 0.5910(15)
H21 H -0.0116 0.3512 0.5670
C29 C 0.0770(18) 0.5893(18) 0.486(3)
H22 H 0.0411 0.5767 0.5154
H23 H 0.0623 0.5795 0.4407
H24 H 0.1058 0.6344 0.4904
O1B O 0.4451(9) 0.5551(14) 0.5043(14)
O2B O 0.5236(7) 0.6822(11) 0.5179(8)
O3B O 0.5737(9) 0.6351(13) 0.4707(10)
N3B N 0.6946(7) 0.7431(12) 0.6757(9)
C16B C 0.3135(11) 0.5880(16) 0.3461(10)
H14B H 0.3191 0.6158 0.3086
H15B H 0.3038 0.5468 0.3283
C17B C 0.3740(11) 0.6156(15) 0.3859(12)
C18B C 0.4199(12) 0.6781(16) 0.3891(12)
C19B C 0.4687(11) 0.6990(16) 0.4310(12)
H16B H 0.4983 0.7424 0.4340
C20B C 0.4745(9) 0.6579(16) 0.4678(12)
C21B C 0.4327(12) 0.5922(18) 0.4691(14)
C22B C 0.3815(12) 0.5713(16) 0.4284(15)
H17B H 0.3509 0.5282 0.4277
C23B C 0.5658(12) 0.6633(20) 0.5118(15)
C24B C 0.6102(11) 0.6923(18) 0.5738(13)
C25B C 0.6114(11) 0.7410(16) 0.6102(13)
H18B H 0.5842 0.7569 0.6013
C26B C 0.6592(12) 0.7664(19) 0.6644(12)
H19B H 0.6632 0.8000 0.6905
C27B C 0.6879(12) 0.6950(16) 0.6400(12)
H20B H 0.7130 0.6772 0.6512
C28B C 0.6496(13) 0.6705(19) 0.5910(15)
H21B H 0.6488 0.6372 0.5670
C29B C 0.4107(18) 0.4877(25) 0.486(3)
H22B H 0.4233 0.4644 0.5154
H23B H 0.4205 0.4828 0.4407
H24B H 0.3656 0.4714 0.4904
O1D O 0.4449(14) 0.8900(11) 0.5043(14)
O2D O 0.3178(11) 0.8414(9) 0.5179(8)
O3D O 0.3649(13) 0.9386(9) 0.4707(10)
N3D N 0.2569(12) 0.9515(10) 0.6757(9)
C16D C 0.4120(16) 0.7255(11) 0.3461(10)
H14D H 0.3842 0.7033 0.3086
H15D H 0.4532 0.7570 0.3283
C17D C 0.3844(15) 0.7584(10) 0.3859(12)
C18D C 0.3219(16) 0.7418(10) 0.3891(12)
C19D C 0.3010(16) 0.7697(11) 0.4310(12)
H16D H 0.2576 0.7559 0.4340
C20D C 0.3421(16) 0.8166(13) 0.4678(12)
C21D C 0.4078(18) 0.8405(13) 0.4691(14)
C22D C 0.4287(16) 0.8102(11) 0.4284(15)
H17D H 0.4718 0.8227 0.4277
C23D C 0.3367(20) 0.9025(16) 0.5118(15)
C24D C 0.3077(18) 0.9179(14) 0.5738(13)
C25D C 0.2590(16) 0.8704(12) 0.6102(13)
H18D H 0.2431 0.8273 0.6013
C26D C 0.2336(19) 0.8928(15) 0.6644(12)
H19D H 0.2000 0.8632 0.6905
C27D C 0.3050(16) 0.9929(11) 0.6400(12)
H20D H 0.3228 1.0358 0.6512
C28D C 0.3295(19) 0.9791(14) 0.5910(15)
H21D H 0.3628 1.0116 0.5670
C29D C 0.5123(25) 0.9230(18) 0.486(3)
H22D H 0.5356 0.9589 0.5154
H23D H 0.5172 0.9377 0.4407
H24D H 0.5286 0.8942 0.4904
N1I N -0.0029(9) 0.1511(8) 0.6335(8)
N2I N -0.0851(9) 0.1229(9) 0.6926(8)
C2I C -0.0255(11) 0.1674(9) 0.6861(11)
C3I C -0.1048(12) 0.0764(10) 0.6448(11)
H3I H -0.1453 0.0413 0.6387
C4I C -0.0545(15) 0.0923(11) 0.6103(13)
H4I H -0.0519 0.0687 0.5748
C5I C 0.0613(11) 0.1826(11) 0.6121(11)
H5I H 0.0880 0.2076 0.6492
H6I H 0.0728 0.1506 0.6014
C6I C 0.0767(14) 0.2269(12) 0.5513(13)
C7I C 0.1344(13) 0.2669(13) 0.5368(12)
H7I H 0.1676 0.2709 0.5636
C8I C 0.1468(14) 0.3053(10) 0.4789(15)
C9I C 0.2113(16) 0.3457(13) 0.4654(15)
H8I H 0.2437 0.3489 0.4932
C10I C 0.2229(15) 0.3798(14) 0.409(2)
H9I H 0.2652 0.4064 0.3960
C11I C 0.1773(18) 0.3777(11) 0.3697(14)
H10I H 0.1888 0.4021 0.3308
C12I C 0.1157(18) 0.3417(15) 0.3848(19)
H11I H 0.0841 0.3424 0.3589
C13I C 0.1002(15) 0.3010(13) 0.4442(14)
C14I C 0.0422(16) 0.2635(15) 0.4593(15)
H12I H 0.0099 0.2617 0.4324
C15I C 0.0273(11) 0.2261(11) 0.5145(13)
H13I H -0.0150 0.2004 0.5276
Pd1B Pd 0.76229(9) 0.77952(13) 0.7500
N1B N 0.8489(8) 0.8460(12) 0.8665(8)
C1B C 0.8786(14) 0.7564(19) 0.7500
H1B H 0.8420 0.7137 0.7500
H2B H 0.9172 0.7536 0.7500
N2B N 0.8771(9) 0.7920(13) 0.8074(8)
C2B C 0.8326(9) 0.8071(14) 0.8139(11)
C3B C 0.9236(10) 0.8188(16) 0.8552(11)
H3B H 0.9587 0.8134 0.8613
C4B C 0.9077(11) 0.8532(19) 0.8897(13)
H4B H 0.9313 0.8794 0.9252
C5B C 0.8174(11) 0.8787(16) 0.8879(11)
H5B H 0.7924 0.8804 0.8508
H6B H 0.8494 0.9222 0.8986
C6B C 0.7731(12) 0.8498(18) 0.9487(13)
C7B C 0.7331(13) 0.8675(18) 0.9632(12)
H7B H 0.7291 0.8967 0.9364
C8B C 0.6947(10) 0.8415(17) 1.0211(15)
C9B C 0.6543(13) 0.8656(21) 1.0346(15)
H8B H 0.6511 0.8948 1.0068
C10B C 0.6202(14) 0.8431(21) 1.091(2)
H9B H 0.5936 0.8588 1.1040
C11B C 0.6223(11) 0.7996(21) 1.1303(14)
H10B H 0.5979 0.7867 1.1692
C12B C 0.6583(15) 0.7740(23) 1.1152(19)
H11B H 0.6576 0.7417 1.1411
C13B C 0.6990(13) 0.7992(20) 1.0558(14)
C14B C 0.7365(15) 0.7787(22) 1.0407(15)
H12B H 0.7383 0.7482 1.0676
C15B C 0.7739(11) 0.8012(16) 0.9855(13)
H13B H 0.7996 0.7846 0.9724
N1K N 0.8489(8) 0.8460(12) 0.6335(8)
N2K N 0.8771(9) 0.7920(13) 0.6926(8)
C2K C 0.8326(9) 0.8071(14) 0.6861(11)
C3K C 0.9236(10) 0.8188(16) 0.6448(11)
H3K H 0.9587 0.8134 0.6387
C4K C 0.9077(11) 0.8532(19) 0.6103(13)
H4K H 0.9313 0.8794 0.5748
C5K C 0.8174(11) 0.8787(16) 0.6121(11)
H5K H 0.7924 0.8804 0.6492
H6K H 0.8494 0.9222 0.6014
C6K C 0.7731(12) 0.8498(18) 0.5513(13)
C7K C 0.7331(13) 0.8675(18) 0.5368(12)
H7K H 0.7291 0.8967 0.5636
C8K C 0.6947(10) 0.8415(17) 0.4789(15)
C9K C 0.6543(13) 0.8656(21) 0.4654(15)
H8K H 0.6511 0.8948 0.4932
C10K C 0.6202(14) 0.8431(21) 0.409(2)
H9K H 0.5936 0.8588 0.3960
C11K C 0.6223(11) 0.7996(21) 0.3697(14)
H10K H 0.5979 0.7867 0.3308
C12K C 0.6583(15) 0.7740(23) 0.3848(19)
H11K H 0.6576 0.7417 0.3589
C13K C 0.6990(13) 0.7992(20) 0.4442(14)
C14K C 0.7365(15) 0.7787(22) 0.4593(15)
H12K H 0.7383 0.7482 0.4324
C15K C 0.7739(11) 0.8012(16) 0.5145(13)
H13K H 0.7996 0.7846 0.5276
Pd1D Pd 0.22048(13) 0.98277(9) 0.7500
N1D N 0.1540(12) 1.0029(9) 0.8665(8)
C1D C 0.2436(19) 1.1222(13) 0.7500
H1D H 0.2863 1.1283 0.7500
H2D H 0.2464 1.1636 0.7500
N2D N 0.2080(13) 1.0851(9) 0.8074(8)
C2D C 0.1929(14) 1.0255(11) 0.8139(11)
C3D C 0.1812(16) 1.1048(12) 0.8552(11)
H3D H 0.1866 1.1453 0.8613
C4D C 0.1468(19) 1.0545(15) 0.8897(13)
H4D H 0.1206 1.0519 0.9252
C5D C 0.1213(16) 0.9387(11) 0.8879(11)
H5D H 0.1196 0.9120 0.8508
H6D H 0.0778 0.9272 0.8986
C6D C 0.1502(18) 0.9233(14) 0.9487(13)
C7D C 0.1325(18) 0.8656(13) 0.9632(12)
H7D H 0.1033 0.8324 0.9364
C8D C 0.1585(17) 0.8532(14) 1.0211(15)
C9D C 0.1344(21) 0.7887(16) 1.0346(15)
H8D H 0.1052 0.7563 1.0068
C10D C 0.1569(21) 0.7771(15) 1.091(2)
H9D H 0.1412 0.7348 1.1040
C11D C 0.2004(21) 0.8227(18) 1.1303(14)
H10D H 0.2133 0.8112 1.1692
C12D C 0.2260(23) 0.8843(18) 1.1152(19)
H11D H 0.2583 0.9159 1.1411
C13D C 0.2008(20) 0.8998(15) 1.0558(14)
C14D C 0.2213(22) 0.9578(16) 1.0407(15)
H12D H 0.2518 0.9901 1.0676
C15D C 0.1988(16) 0.9727(11) 0.9855(13)
H13D H 0.2154 1.0150 0.9724
N1G N 0.1540(12) 1.0029(9) 0.6335(8)
N2G N 0.2080(13) 1.0851(9) 0.6926(8)
C2G C 0.1929(14) 1.0255(11) 0.6861(11)
C3G C 0.1812(16) 1.1048(12) 0.6448(11)
H3G H 0.1866 1.1453 0.6387
C4G C 0.1468(19) 1.0545(15) 0.6103(13)
H4G H 0.1206 1.0519 0.5748
C5G C 0.1213(16) 0.9387(11) 0.6121(11)
H5G H 0.1196 0.9120 0.6492
H6G H 0.0778 0.9272 0.6014
C6G C 0.1502(18) 0.9233(14) 0.5513(13)
C7G C 0.1325(18) 0.8656(13) 0.5368(12)
H7G H 0.1033 0.8324 0.5636
C8G C 0.1585(17) 0.8532(14) 0.4789(15)
C9G C 0.1344(21) 0.7887(16) 0.4654(15)
H8G H 0.1052 0.7563 0.4932
C10G C 0.1569(21) 0.7771(15) 0.409(2)
H9G H 0.1412 0.7348 0.3960
C11G C 0.2004(21) 0.8227(18) 0.3697(14)
H10G H 0.2133 0.8112 0.3308
C12G C 0.2260(23) 0.8843(18) 0.3848(19)
H11G H 0.2583 0.9159 0.3589
C13G C 0.2008(20) 0.8998(15) 0.4442(14)
C14G C 0.2213(22) 0.9578(16) 0.4593(15)
H12G H 0.2518 0.9901 0.4324
C15G C 0.1988(16) 0.9727(11) 0.5145(13)
H13G H 0.2154 1.0150 0.5276
O1G O 0.4449(14) 0.8900(11) 0.9957(14)
O2G O 0.3178(11) 0.8414(9) 0.9821(8)
O3G O 0.3649(13) 0.9386(9) 1.0293(10)
N3G N 0.2569(12) 0.9515(10) 0.8243(9)
C16G C 0.4120(16) 0.7255(11) 1.1539(10)
H14G H 0.3842 0.7033 1.1914
H15G H 0.4532 0.7570 1.1717
C17G C 0.3844(15) 0.7584(10) 1.1141(12)
C18G C 0.3219(16) 0.7418(10) 1.1109(12)
C19G C 0.3010(16) 0.7697(11) 1.0690(12)
H16G H 0.2576 0.7559 1.0660
C20G C 0.3421(16) 0.8166(13) 1.0322(12)
C21G C 0.4078(18) 0.8405(13) 1.0309(14)
C22G C 0.4287(16) 0.8102(11) 1.0716(15)
H17G H 0.4718 0.8227 1.0723
C23G C 0.3367(20) 0.9025(16) 0.9882(15)
C24G C 0.3077(18) 0.9179(14) 0.9262(13)
C25G C 0.2590(16) 0.8704(12) 0.8898(13)
H18G H 0.2431 0.8273 0.8987
C26G C 0.2336(19) 0.8928(15) 0.8356(12)
H19G H 0.2000 0.8632 0.8095
C27G C 0.3050(16) 0.9929(11) 0.8600(12)
H20G H 0.3228 1.0358 0.8488
C28G C 0.3295(19) 0.9791(14) 0.9090(15)
H21G H 0.3628 1.0116 0.9330
C29G C 0.5123(25) 0.9230(18) 1.014(3)
H22G H 0.5356 0.9589 0.9846
H23G H 0.5172 0.9377 1.0593
H24G H 0.5286 0.8942 1.0096
O1I O 0.1100(11) 0.5549(9) 0.9957(14)
O2I O 0.1586(9) 0.4764(7) 0.9821(8)
O3I O 0.0614(9) 0.4263(9) 1.0293(10)
N3I N 0.0485(10) 0.3054(7) 0.8243(9)
C16I C 0.2745(11) 0.6865(11) 1.1539(10)
H14I H 0.2967 0.6809 1.1914
H15I H 0.2430 0.6962 1.1717
C17I C 0.2416(10) 0.6260(11) 1.1141(12)
C18I C 0.2582(10) 0.5801(12) 1.1109(12)
C19I C 0.2303(11) 0.5313(11) 1.0690(12)
H16I H 0.2441 0.5017 1.0660
C20I C 0.1834(13) 0.5255(9) 1.0322(12)
C21I C 0.1595(13) 0.5673(12) 1.0309(14)
C22I C 0.1898(11) 0.6185(12) 1.0716(15)
H17I H 0.1773 0.6491 1.0723
C23I C 0.0975(16) 0.4342(12) 0.9882(15)
C24I C 0.0821(14) 0.3898(11) 0.9262(13)
C25I C 0.1296(12) 0.3886(11) 0.8898(13)
H18I H 0.1727 0.4158 0.8987
C26I C 0.1072(15) 0.3408(12) 0.8356(12)
H19I H 0.1368 0.3368 0.8095
C27I C 0.0071(11) 0.3121(12) 0.8600(12)
H20I H -0.0358 0.2870 0.8488
C28I C 0.0209(14) 0.3504(13) 0.9090(15)
H21I H -0.0116 0.3512 0.9330
C29I C 0.0770(18) 0.5893(18) 1.014(3)
H22I H 0.0411 0.5767 0.9846
H23I H 0.0623 0.5795 1.0593
H24I H 0.1058 0.6344 1.0096
O1K O 0.4451(9) 0.5551(14) 0.9957(14)
O2K O 0.5236(7) 0.6822(11) 0.9821(8)
O3K O 0.5737(9) 0.6351(13) 1.0293(10)
N3K N 0.6946(7) 0.7431(12) 0.8243(9)
C16K C 0.3135(11) 0.5880(16) 1.1539(10)
H14K H 0.3191 0.6158 1.1914
H15K H 0.3038 0.5468 1.1717
C17K C 0.3740(11) 0.6156(15) 1.1141(12)
C18K C 0.4199(12) 0.6781(16) 1.1109(12)
C19K C 0.4687(11) 0.6990(16) 1.0690(12)
H16K H 0.4983 0.7424 1.0660
C20K C 0.4745(9) 0.6579(16) 1.0322(12)
C21K C 0.4327(12) 0.5922(18) 1.0309(14)
C22K C 0.3815(12) 0.5713(16) 1.0716(15)
H17K H 0.3509 0.5282 1.0723
C23K C 0.5658(12) 0.6633(20) 0.9882(15)
C24K C 0.6102(11) 0.6923(18) 0.9262(13)
C25K C 0.6114(11) 0.7410(16) 0.8898(13)
H18K H 0.5842 0.7569 0.8987
C26K C 0.6592(12) 0.7664(19) 0.8356(12)
H19K H 0.6632 0.8000 0.8095
C27K C 0.6879(12) 0.6950(16) 0.8600(12)
H20K H 0.7130 0.6772 0.8488
C28K C 0.6496(13) 0.6705(19) 0.9090(15)
H21K H 0.6488 0.6372 0.9330
C29K C 0.4107(18) 0.4877(25) 1.014(3)
H22K H 0.4233 0.4644 0.9846
H23K H 0.4205 0.4828 1.0593
H24K H 0.3656 0.4714 1.0096
I1 I 0.4748(10) 0.7879(10) 0.6080(11)
I2 I 0.5880(10) 0.8828(10) 0.6469(10)
B1 B -0.1131(18) 0.3198(17) 0.7500
F1 F -0.0986(10) 0.3482(11) 0.6915(10)
F2 F -0.0970(11) 0.2683(11) 0.7500
F3 F -0.1778(16) 0.2792(16) 0.7500
F1I F -0.0986(10) 0.3482(11) 0.8085(10)
B2 B 0.1883(17) 0.2411(17) 0.7500
F4 F 0.2167(10) 0.2428(10) 0.6925(12)
F5 F 0.1689(16) 0.2817(16) 0.7500
F6 F 0.1400(19) 0.1755(19) 0.7500
F4I F 0.2167(10) 0.2428(10) 0.8075(12)
O4 O 0.068(2) 0.464(2) 0.7500
O5 O 0.155(3) 0.513(3) 1.2500
O6? O 0.520(2) 0.791(2) 0.7500
F7? F 0.0000 0.0000 0.5728(17)
B3? B 0.0000 0.0000 0.5000
F8? F -0.0194(9) 0.0425(9) 0.4805(9)
I3? I 0.0396(3) 0.0688(4) 0.7500
I4? I 0.3333 0.6667 0.5545(7)
I5? I 0.4326(15) 0.7319(19) 0.6338(16)
loop_
_geom_bond_atom_site_label_1
_geom_bond_atom_site_label_2
_geom_bond_site_symmetry_1
_geom_bond_site_symmetry_2
Pd1 C2 1_555 1_555
O1 C21 1_555 1_555
N1 C2 1_555 1_555
C1 H1 1_555 1_555
H2 C1 1_555 1_555
O2 C20 1_555 1_555
N2 C1 1_555 1_555
C2 N2 1_555 1_555
O3 C23 1_555 1_555
N3 Pd1 1_555 1_555
C3 N2 1_555 1_555
H3 C3 1_555 1_555
C4 N1 1_555 1_555
H4 C4 1_555 1_555
C5 N1 1_555 1_555
H5 C5 1_555 1_555
H6 C5 1_555 1_555
C6 C5 1_555 1_555
C7 C6 1_555 1_555
H7 C7 1_555 1_555
C8 C7 1_555 1_555
C9 C8 1_555 1_555
H8 C9 1_555 1_555
C10 C9 1_555 1_555
H9 C10 1_555 1_555
C11 C10 1_555 1_555
H10 C11 1_555 1_555
C12 C11 1_555 1_555
H11 C12 1_555 1_555
C13 C8 1_555 1_555
C14 C13 1_555 1_555
H12 C14 1_555 1_555
C15 C6 1_555 1_555
H13 C15 1_555 1_555
C16 H14 1_555 1_555
H15 C16 1_555 1_555
C17 C16 1_555 1_555
C18 C17 1_555 1_555
C19 C18 1_555 1_555
H16 C19 1_555 1_555
C20 C19 1_555 1_555
C21 C20 1_555 1_555
C22 C17 1_555 1_555
H17 C22 1_555 1_555
C23 O2 1_555 1_555
C24 C23 1_555 1_555
C25 C24 1_555 1_555
H18 C25 1_555 1_555
C26 N3 1_555 1_555
H19 C26 1_555 1_555
C27 N3 1_555 1_555
H20 C27 1_555 1_555
C28 C24 1_555 1_555
H21 C28 1_555 1_555
C29 O1 1_555 1_555
H22 C29 1_555 1_555
H23 C29 1_555 1_555
H24 C29 1_555 1_555
I1 I2 1_555 1_555
B1 F1 1_555 1_555
F2 B1 1_555 1_555
F3 B1 1_555 1_555
B2 F4 1_555 1_555
F5 B2 1_555 1_555
F6 B2 1_555 1_555
O1B C21B 1_555 1_555
O2B C20B 1_555 1_555
O3B C23B 1_555 1_555
N3B C26B 1_555 1_555
C16B C18 1_555 1_555
H14B C16B 1_555 1_555
H15B C16B 1_555 1_555
C17B C16B 1_555 1_555
C18B C17B 1_555 1_555
C19B C18B 1_555 1_555
H16B C19B 1_555 1_555
C20B C19B 1_555 1_555
C21B C20B 1_555 1_555
C22B C17B 1_555 1_555
H17B C22B 1_555 1_555
C23B O2B 1_555 1_555
C24B C23B 1_555 1_555
C25B C24B 1_555 1_555
H18B C25B 1_555 1_555
C26B C25B 1_555 1_555
H19B C26B 1_555 1_555
C27B N3B 1_555 1_555
H20B C27B 1_555 1_555
C28B C24B 1_555 1_555
H21B C28B 1_555 1_555
C29B O1B 1_555 1_555
H22B C29B 1_555 1_555
H23B C29B 1_555 1_555
H24B C29B 1_555 1_555
O1D C21D 1_555 1_555
O2D C20D 1_555 1_555
O3D C23D 1_555 1_555
N3D C26D 1_555 1_555
C16D C18B 1_555 1_555
H14D C16D 1_555 1_555
H15D C16D 1_555 1_555
C17D C16D 1_555 1_555
C18D C16 1_555 1_555
C19D C18D 1_555 1_555
H16D C19D 1_555 1_555
C20D C19D 1_555 1_555
C21D C20D 1_555 1_555
C22D C17D 1_555 1_555
H17D C22D 1_555 1_555
C23D O2D 1_555 1_555
C24D C23D 1_555 1_555
C25D C24D 1_555 1_555
H18D C25D 1_555 1_555
C26D C25D 1_555 1_555
H19D C26D 1_555 1_555
C27D N3D 1_555 1_555
H20D C27D 1_555 1_555
C28D C24D 1_555 1_555
H21D C28D 1_555 1_555
C29D O1D 1_555 1_555
H22D C29D 1_555 1_555
H23D C29D 1_555 1_555
H24D C29D 1_555 1_555
N1I C2I 1_555 1_555
N2I C1 1_555 1_555
C2I Pd1 1_555 1_555
C3I N2I 1_555 1_555
H3I C3I 1_555 1_555
C4I N1I 1_555 1_555
H4I C4I 1_555 1_555
C5I N1I 1_555 1_555
H5I C5I 1_555 1_555
H6I C5I 1_555 1_555
C6I C5I 1_555 1_555
C7I C6I 1_555 1_555
H7I C7I 1_555 1_555
C8I C7I 1_555 1_555
C9I C8I 1_555 1_555
H8I C9I 1_555 1_555
C10I C9I 1_555 1_555
H9I C10I 1_555 1_555
C11I C10I 1_555 1_555
H10I C11I 1_555 1_555
C12I C11I 1_555 1_555
H11I C12I 1_555 1_555
C13I C8I 1_555 1_555
C14I C13I 1_555 1_555
H12I C14I 1_555 1_555
C15I C6I 1_555 1_555
H13I C15I 1_555 1_555
Pd1B N3B 1_555 1_555
N1B C2B 1_555 1_555
C1B H1B 1_555 1_555
H2B C1B 1_555 1_555
N2B C1B 1_555 1_555
C2B Pd1B 1_555 1_555
C3B N2B 1_555 1_555
H3B C3B 1_555 1_555
C4B N1B 1_555 1_555
H4B C4B 1_555 1_555
C5B N1B 1_555 1_555
H5B C5B 1_555 1_555
H6B C5B 1_555 1_555
C6B C5B 1_555 1_555
C7B C6B 1_555 1_555
H7B C7B 1_555 1_555
C8B C7B 1_555 1_555
C9B C8B 1_555 1_555
H8B C9B 1_555 1_555
C10B C9B 1_555 1_555
H9B C10B 1_555 1_555
C11B C10B 1_555 1_555
H10B C11B 1_555 1_555
C12B C11B 1_555 1_555
H11B C12B 1_555 1_555
C13B C8B 1_555 1_555
C14B C13B 1_555 1_555
H12B C14B 1_555 1_555
C15B C6B 1_555 1_555
H13B C15B 1_555 1_555
N1K C2K 1_555 1_555
N2K C1B 1_555 1_555
C2K Pd1B 1_555 1_555
C3K N2K 1_555 1_555
H3K C3K 1_555 1_555
C4K N1K 1_555 1_555
H4K C4K 1_555 1_555
C5K N1K 1_555 1_555
H5K C5K 1_555 1_555
H6K C5K 1_555 1_555
C6K C5K 1_555 1_555
C7K C6K 1_555 1_555
H7K C7K 1_555 1_555
C8K C7K 1_555 1_555
C9K C8K 1_555 1_555
H8K C9K 1_555 1_555
C10K C9K 1_555 1_555
H9K C10K 1_555 1_555
C11K C10K 1_555 1_555
H10K C11K 1_555 1_555
C12K C11K 1_555 1_555
H11K C12K 1_555 1_555
C13K C8K 1_555 1_555
C14K C13K 1_555 1_555
H12K C14K 1_555 1_555
C15K C6K 1_555 1_555
H13K C15K 1_555 1_555
Pd1D N3D 1_555 1_555
N1D C2D 1_555 1_555
C1D H1D 1_555 1_555
H2D C1D 1_555 1_555
N2D C1D 1_555 1_555
C2D Pd1D 1_555 1_555
C3D N2D 1_555 1_555
H3D C3D 1_555 1_555
C4D N1D 1_555 1_555
H4D C4D 1_555 1_555
C5D N1D 1_555 1_555
H5D C5D 1_555 1_555
H6D C5D 1_555 1_555
C6D C5D 1_555 1_555
C7D C6D 1_555 1_555
H7D C7D 1_555 1_555
C8D C7D 1_555 1_555
C9D C8D 1_555 1_555
H8D C9D 1_555 1_555
C10D C9D 1_555 1_555
H9D C10D 1_555 1_555
C11D C10D 1_555 1_555
H10D C11D 1_555 1_555
C12D C11D 1_555 1_555
H11D C12D 1_555 1_555
C13D C8D 1_555 1_555
C14D C13D 1_555 1_555
H12D C14D 1_555 1_555
C15D C6D 1_555 1_555
H13D C15D 1_555 1_555
N1G C2G 1_555 1_555
N2G C1D 1_555 1_555
C2G Pd1D 1_555 1_555
C3G N2G 1_555 1_555
H3G C3G 1_555 1_555
C4G N1G 1_555 1_555
H4G C4G 1_555 1_555
C5G N1G 1_555 1_555
H5G C5G 1_555 1_555
H6G C5G 1_555 1_555
C6G C5G 1_555 1_555
C7G C6G 1_555 1_555
H7G C7G 1_555 1_555
C8G C7G 1_555 1_555
C9G C8G 1_555 1_555
H8G C9G 1_555 1_555
C10G C9G 1_555 1_555
H9G C10G 1_555 1_555
C11G C10G 1_555 1_555
H10G C11G 1_555 1_555
C12G C11G 1_555 1_555
H11G C12G 1_555 1_555
C13G C8G 1_555 1_555
C14G C13G 1_555 1_555
H12G C14G 1_555 1_555
C15G C6G 1_555 1_555
H13G C15G 1_555 1_555
O1G C21G 1_555 1_555
O2G C20G 1_555 1_555
O3G C23G 1_555 1_555
N3G Pd1D 1_555 1_555
C16G H14G 1_555 1_555
H15G C16G 1_555 1_555
C17G C16G 1_555 1_555
C18G C17G 1_555 1_555
C19G C18G 1_555 1_555
H16G C19G 1_555 1_555
C20G C19G 1_555 1_555
C21G C20G 1_555 1_555
C22G C17G 1_555 1_555
H17G C22G 1_555 1_555
C23G O2G 1_555 1_555
C24G C23G 1_555 1_555
C25G C24G 1_555 1_555
H18G C25G 1_555 1_555
C26G N3G 1_555 1_555
H19G C26G 1_555 1_555
C27G N3G 1_555 1_555
H20G C27G 1_555 1_555
C28G C24G 1_555 1_555
H21G C28G 1_555 1_555
C29G O1G 1_555 1_555
H22G C29G 1_555 1_555
H23G C29G 1_555 1_555
H24G C29G 1_555 1_555
O1I C21I 1_555 1_555
O2I C20I 1_555 1_555
O3I C23I 1_555 1_555
N3I Pd1 1_555 1_555
C16I C18G 1_555 1_555
H14I C16I 1_555 1_555
H15I C16I 1_555 1_555
C17I C16I 1_555 1_555
C18I C17I 1_555 1_555
C19I C18I 1_555 1_555
H16I C19I 1_555 1_555
C20I C19I 1_555 1_555
C21I C20I 1_555 1_555
C22I C17I 1_555 1_555
H17I C22I 1_555 1_555
C23I O2I 1_555 1_555
C24I C23I 1_555 1_555
C25I C24I 1_555 1_555
H18I C25I 1_555 1_555
C26I N3I 1_555 1_555
H19I C26I 1_555 1_555
C27I N3I 1_555 1_555
H20I C27I 1_555 1_555
C28I C24I 1_555 1_555
H21I C28I 1_555 1_555
C29I O1I 1_555 1_555
H22I C29I 1_555 1_555
H23I C29I 1_555 1_555
H24I C29I 1_555 1_555
O1K C21K 1_555 1_555
O2K C20K 1_555 1_555
O3K C23K 1_555 1_555
N3K Pd1B 1_555 1_555
C16K C18I 1_555 1_555
H14K C16K 1_555 1_555
H15K C16K 1_555 1_555
C17K C16K 1_555 1_555
C18K C16G 1_555 1_555
C19K C18K 1_555 1_555
H16K C19K 1_555 1_555
C20K C19K 1_555 1_555
C21K C20K 1_555 1_555
C22K C17K 1_555 1_555
H17K C22K 1_555 1_555
C23K O2K 1_555 1_555
C24K C23K 1_555 1_555
C25K C24K 1_555 1_555
H18K C25K 1_555 1_555
C26K N3K 1_555 1_555
H19K C26K 1_555 1_555
C27K N3K 1_555 1_555
H20K C27K 1_555 1_555
C28K C24K 1_555 1_555
H21K C28K 1_555 1_555
C29K O1K 1_555 1_555
H22K C29K 1_555 1_555
H23K C29K 1_555 1_555
H24K C29K 1_555 1_555
F1I B1 1_555 1_555
F4I B2 1_555 1_555
C3 C4 1_555 1_555
C12 C13 1_555 1_555
C14 C15 1_555 1_555
C21 C22 1_555 1_555
C25 C26 1_555 1_555
C27 C28 1_555 1_555
C21B C22B 1_555 1_555
C27B C28B 1_555 1_555
C17D C18D 1_555 1_555
C21D C22D 1_555 1_555
C27D C28D 1_555 1_555
N2I C2I 1_555 1_555
C3I C4I 1_555 1_555
C12I C13I 1_555 1_555
C14I C15I 1_555 1_555
N2B C2B 1_555 1_555
C3B C4B 1_555 1_555
C12B C13B 1_555 1_555
C14B C15B 1_555 1_555
N2K C2K 1_555 1_555
C3K C4K 1_555 1_555
C12K C13K 1_555 1_555
C14K C15K 1_555 1_555
N2D C2D 1_555 1_555
C3D C4D 1_555 1_555
C12D C13D 1_555 1_555
C14D C15D 1_555 1_555
N2G C2G 1_555 1_555
C3G C4G 1_555 1_555
C12G C13G 1_555 1_555
C14G C15G 1_555 1_555
C21G C22G 1_555 1_555
C25G C26G 1_555 1_555
C27G C28G 1_555 1_555
C21I C22I 1_555 1_555
C25I C26I 1_555 1_555
C27I C28I 1_555 1_555
C17K C18K 1_555 1_555
C21K C22K 1_555 1_555
C25K C26K 1_555 1_555
C27K C28K 1_555 1_555

#END
