
#######################################################################
#
#                 Cambridge Crystallographic Data Centre
#                                CCDC 
#
#######################################################################
#
# If this CIF has been generated from an entry in the Cambridge 
# Structural Database, then it will include bibliographic, chemical, 
# crystal, experimental, refinement or atomic coordinate data resulting 
# from the CCDC's data processing and validation procedures.
#
#######################################################################

data_GUSRIX
_chemical_name_common            
"tris(1,1'-methylenebis(3-(naphthalen-2-ylmethyl)-imidazol-2-ylidene))-bis(tris(isonicotinoyl)cyclotriguaiacylene)-tri-palladium(ii) hexakis(tetrafluoroborate) nitromethane solvate"
_chemical_formula_moiety         
'C171 H138 N18 O18 Pd3 6+,8(C1 H3 N1 O2),6(B1 F4 1-)'
_chemical_name_systematic        
"tris(1,1'-methylenebis(3-(naphthalen-2-ylmethyl)-imidazol-2-ylidene))-bis(3,8,13-trimethoxy-10,15-dihydro-5H-tribenzo[a,d,g][9]annulene-2,7,12-triyl triisonicotinate)-tri-palladium(ii) hexakis(tetrafluoroborate) nitromethane solvate"
_symmetry_cell_setting           hexagonal
_symmetry_space_group_name_H-M   'P 63/m'
_symmetry_Int_Tables_number      176
_space_group_name_Hall           '-P 6c'
loop_
_symmetry_equiv_pos_site_id
_symmetry_equiv_pos_as_xyz
1 x,y,z
2 x-y,x,1/2+z
3 -y,x-y,z
4 -x,-y,1/2+z
5 -x+y,-x,z
6 y,-x+y,1/2+z
7 -x,-y,-z
8 -x+y,-x,1/2-z
9 y,-x+y,-z
10 x,y,1/2-z
11 x-y,x,-z
12 -y,x-y,1/2-z
_cell_length_a                   24.6185(14)
_cell_length_b                   24.6185(14)
_cell_length_c                   20.3337(12)
_cell_angle_alpha                90
_cell_angle_beta                 90
_cell_angle_gamma                120
_cell_volume                     10672.6
_exptl_crystal_colour            yellow
_exptl_crystal_description       needle
_cell_formula_units_Z            2
loop_
_atom_site_label
_atom_site_type_symbol
_atom_site_fract_x
_atom_site_fract_y
_atom_site_fract_z
Pd1 Pd 0.98082(5) 0.21958(5) 0.2500
O1 O 0.8859(7) 0.4451(7) 0.4923(8)
N1 N 1.0833(4) 0.2087(3) 0.3070(3)
C1 C 1.1174(8) 0.2414(7) 0.2500
H1 H 1.1590 0.2445 0.2500
H2 H 1.1238 0.2844 0.2500
O2 O 0.8412(6) 0.3193(5) 0.4815(6)
N2 N 1.0009(4) 0.1533(4) 0.3658(4)
C2 C 1.0243(5) 0.1938(4) 0.3134(4)
O3 O 0.9328(6) 0.3636(6) 0.5273(7)
N3 N 0.9461(5) 0.2541(4) 0.3240(4)
C3 C 1.1010(6) 0.1806(5) 0.3547(5)
H3 H 1.1411 0.1846 0.3607
C4 C 1.0488(7) 0.1462(5) 0.3908(6)
H4 H 1.0457 0.1211 0.4277
C5 C 0.9382(5) 0.1211(5) 0.3903(5)
H5 H 0.9281 0.0783 0.4033
H6 H 0.9096 0.1166 0.3538
C6 C 0.9240(6) 0.1506(5) 0.4478(4)
C7 C 0.8627(6) 0.1319(5) 0.4624(5)
H7 H 0.8299 0.1030 0.4347
C8 C 0.8487(5) 0.1563(5) 0.5201(6)
C9 C 0.7854(6) 0.1345(6) 0.5418(7)
H8 H 0.7514 0.1041 0.5164
C10 C 0.7738(7) 0.1557(6) 0.5959(8)
H9 H 0.7314 0.1398 0.6087
C11 C 0.8200(8) 0.1995(7) 0.6344(6)
H10 H 0.8089 0.2128 0.6735
C12 C 0.8834(6) 0.2258(6) 0.6182(5)
H11 H 0.9156 0.2575 0.6443
C13 C 0.8971(5) 0.2012(5) 0.5581(5)
C14 C 0.9596(6) 0.2221(6) 0.5392(7)
H12 H 0.9929 0.2534 0.5647
C15 C 0.9733(6) 0.1991(6) 0.4870(6)
H13 H 1.0159 0.2147 0.4751
C16 C 0.6877(5) 0.2733(6) 0.6532(6)
H14 H 0.6989 0.2420 0.6686
H15 H 0.6809 0.2931 0.6923
C17 C 0.7412(6) 0.3231(6) 0.6120(6)
C18 C 0.7588(6) 0.3875(6) 0.6137(6)
C19 C 0.8078(8) 0.4270(7) 0.5773(9)
H16 H 0.8247 0.4708 0.5834
C20 C 0.8343(10) 0.4071(7) 0.5320(10)
C21 C 0.8191(8) 0.3444(9) 0.5312(7)
C22 C 0.7746(6) 0.3061(6) 0.5673(7)
H17 H 0.7627 0.2630 0.5644
C23 C 0.8955(10) 0.3355(8) 0.4840(8)
C24 C 0.9156(9) 0.3067(7) 0.4238(8)
C25 C 0.8696(6) 0.2608(7) 0.3892(7)
H18 H 0.8272 0.2478 0.3999
C26 C 0.8836(7) 0.2293(6) 0.3336(6)
H19 H 0.8522 0.1960 0.3082
C27 C 0.9891(7) 0.3015(6) 0.3604(6)
H20 H 1.0319 0.3180 0.3488
C28 C 0.9765(11) 0.3274(8) 0.4121(7)
H21 H 1.0088 0.3586 0.4388
C29 C 0.9165(15) 0.5187(16) 0.5054(17)
H22 H 0.9520 0.5419 0.4754
H23 H 0.9312 0.5281 0.5509
H24 H 0.8850 0.5313 0.4977
O1B O 0.5549(7) 0.4408(10) 0.4923(8)
O2B O 0.6807(5) 0.5219(8) 0.4815(6)
O3B O 0.6364(6) 0.5692(8) 0.5273(7)
N3B N 0.7459(4) 0.6920(6) 0.3240(4)
C16B C 0.7267(6) 0.4144(8) 0.6532(6)
H14B H 0.7580 0.4569 0.6686
H15B H 0.7069 0.3878 0.6923
C17B C 0.6769(6) 0.4181(8) 0.6120(6)
C18B C 0.6125(6) 0.3713(8) 0.6137(6)
C19B C 0.5730(7) 0.3808(11) 0.5773(9)
H16B H 0.5292 0.3539 0.5834
C20B C 0.5929(7) 0.4272(12) 0.5320(10)
C21B C 0.6556(9) 0.4747(12) 0.5312(7)
C22B C 0.6939(6) 0.4685(8) 0.5673(7)
H17B H 0.7370 0.4997 0.5644
C23B C 0.6645(8) 0.5600(13) 0.4840(8)
C24B C 0.6933(7) 0.6089(11) 0.4238(8)
C25B C 0.7392(7) 0.6088(9) 0.3892(7)
H18B H 0.7522 0.5794 0.3999
C26B C 0.7707(6) 0.6543(9) 0.3336(6)
H19B H 0.8040 0.6562 0.3082
C27B C 0.6985(6) 0.6876(9) 0.3604(6)
H20B H 0.6820 0.7139 0.3488
C28B C 0.6726(8) 0.6491(14) 0.4121(7)
H21B H 0.6414 0.6502 0.4388
C29B C 0.4813(16) 0.3978(22) 0.5054(17)
H22B H 0.4581 0.4101 0.4754
H23B H 0.4719 0.4031 0.5509
H24B H 0.4687 0.3537 0.4977
O1D O 0.5592(10) 0.1141(7) 0.4923(8)
O2D O 0.4781(8) 0.1588(6) 0.4815(6)
O3D O 0.4308(8) 0.0672(6) 0.5273(7)
N3D N 0.3080(6) 0.0539(5) 0.3240(4)
C16D C 0.5856(8) 0.3123(5) 0.6532(6)
H14D H 0.5431 0.3011 0.6686
H15D H 0.6122 0.3191 0.6923
C17D C 0.5819(8) 0.2588(6) 0.6120(6)
C18D C 0.6287(8) 0.2412(6) 0.6137(6)
C19D C 0.6192(11) 0.1922(8) 0.5773(9)
H16D H 0.6461 0.1753 0.5834
C20D C 0.5728(12) 0.1657(10) 0.5320(10)
C21D C 0.5253(12) 0.1809(8) 0.5312(7)
C22D C 0.5315(8) 0.2254(6) 0.5673(7)
H17D H 0.5003 0.2373 0.5644
C23D C 0.4400(13) 0.1045(10) 0.4840(8)
C24D C 0.3911(11) 0.0844(9) 0.4238(8)
C25D C 0.3912(9) 0.1304(6) 0.3892(7)
H18D H 0.4206 0.1728 0.3999
C26D C 0.3457(9) 0.1164(7) 0.3336(6)
H19D H 0.3438 0.1478 0.3082
C27D C 0.3124(9) 0.0109(7) 0.3604(6)
H20D H 0.2861 -0.0319 0.3488
C28D C 0.3509(14) 0.0235(11) 0.4121(7)
H21D H 0.3498 -0.0088 0.4388
C29D C 0.6022(22) 0.0835(15) 0.5054(17)
H22D H 0.5899 0.0480 0.4754
H23D H 0.5969 0.0688 0.5509
H24D H 0.6463 0.1150 0.4977
N1I N 1.0833(4) 0.2087(3) 0.1930(3)
N2I N 1.0009(4) 0.1533(4) 0.1342(4)
C2I C 1.0243(5) 0.1938(4) 0.1866(4)
C3I C 1.1010(6) 0.1806(5) 0.1453(5)
H3I H 1.1411 0.1846 0.1393
C4I C 1.0488(7) 0.1462(5) 0.1092(6)
H4I H 1.0457 0.1211 0.0723
C5I C 0.9382(5) 0.1211(5) 0.1097(5)
H5I H 0.9281 0.0783 0.0967
H6I H 0.9096 0.1166 0.1462
C6I C 0.9240(6) 0.1506(5) 0.0522(4)
C7I C 0.8627(6) 0.1319(5) 0.0376(5)
H7I H 0.8299 0.1030 0.0653
C8I C 0.8487(5) 0.1563(5) -0.0201(6)
C9I C 0.7854(6) 0.1345(6) -0.0418(7)
H8I H 0.7514 0.1041 -0.0164
C10I C 0.7738(7) 0.1557(6) -0.0959(8)
H9I H 0.7314 0.1398 -0.1087
C11I C 0.8200(8) 0.1995(7) -0.1344(6)
H10I H 0.8089 0.2128 -0.1735
C12I C 0.8834(6) 0.2258(6) -0.1182(5)
H11I H 0.9156 0.2575 -0.1443
C13I C 0.8971(5) 0.2012(5) -0.0581(5)
C14I C 0.9596(6) 0.2221(6) -0.0392(7)
H12I H 0.9929 0.2534 -0.0647
C15I C 0.9733(6) 0.1991(6) 0.0130(6)
H13I H 1.0159 0.2147 0.0249
Pd1B Pd 0.78042(5) 0.76124(7) 0.2500
N1B N 0.7913(3) 0.8746(5) 0.3070(3)
C1B C 0.7586(7) 0.8760(11) 0.2500
H1B H 0.7555 0.9145 0.2500
H2B H 0.7156 0.8394 0.2500
N2B N 0.8467(4) 0.8476(6) 0.3658(4)
C2B C 0.8062(4) 0.8305(6) 0.3134(4)
C3B C 0.8194(5) 0.9204(8) 0.3547(5)
H3B H 0.8154 0.9565 0.3607
C4B C 0.8538(5) 0.9026(9) 0.3908(6)
H4B H 0.8789 0.9246 0.4277
C5B C 0.8789(5) 0.8171(7) 0.3903(5)
H5B H 0.9217 0.8498 0.4033
H6B H 0.8834 0.7930 0.3538
C6B C 0.8494(5) 0.7734(8) 0.4478(4)
C7B C 0.8681(5) 0.7308(8) 0.4624(5)
H7B H 0.8970 0.7269 0.4347
C8B C 0.8437(5) 0.6924(7) 0.5201(6)
C9B C 0.8655(6) 0.6509(8) 0.5418(7)
H8B H 0.8959 0.6473 0.5164
C10B C 0.8443(6) 0.6181(9) 0.5959(8)
H9B H 0.8602 0.5916 0.6087
C11B C 0.8005(7) 0.6205(11) 0.6344(6)
H10B H 0.7872 0.5961 0.6735
C12B C 0.7742(6) 0.6576(8) 0.6182(5)
H11B H 0.7425 0.6581 0.6443
C13B C 0.7988(5) 0.6959(7) 0.5581(5)
C14B C 0.7779(6) 0.7375(8) 0.5392(7)
H12B H 0.7466 0.7395 0.5647
C15B C 0.8009(6) 0.7742(8) 0.4870(6)
H13B H 0.7853 0.8012 0.4751
N1K N 0.7913(3) 0.8746(5) 0.1930(3)
N2K N 0.8467(4) 0.8476(6) 0.1342(4)
C2K C 0.8062(4) 0.8305(6) 0.1866(4)
C3K C 0.8194(5) 0.9204(8) 0.1453(5)
H3K H 0.8154 0.9565 0.1393
C4K C 0.8538(5) 0.9026(9) 0.1092(6)
H4K H 0.8789 0.9246 0.0723
C5K C 0.8789(5) 0.8171(7) 0.1097(5)
H5K H 0.9217 0.8498 0.0967
H6K H 0.8834 0.7930 0.1462
C6K C 0.8494(5) 0.7734(8) 0.0522(4)
C7K C 0.8681(5) 0.7308(8) 0.0376(5)
H7K H 0.8970 0.7269 0.0653
C8K C 0.8437(5) 0.6924(7) -0.0201(6)
C9K C 0.8655(6) 0.6509(8) -0.0418(7)
H8K H 0.8959 0.6473 -0.0164
C10K C 0.8443(6) 0.6181(9) -0.0959(8)
H9K H 0.8602 0.5916 -0.1087
C11K C 0.8005(7) 0.6205(11) -0.1344(6)
H10K H 0.7872 0.5961 -0.1735
C12K C 0.7742(6) 0.6576(8) -0.1182(5)
H11K H 0.7425 0.6581 -0.1443
C13K C 0.7988(5) 0.6959(7) -0.0581(5)
C14K C 0.7779(6) 0.7375(8) -0.0392(7)
H12K H 0.7466 0.7395 -0.0647
C15K C 0.8009(6) 0.7742(8) 0.0130(6)
H13K H 0.7853 0.8012 0.0249
Pd1D Pd 0.23876(7) 0.01918(5) 0.2500
N1D N 0.1254(5) -0.0833(4) 0.3070(3)
C1D C 0.1240(11) -0.1174(8) 0.2500
H1D H 0.0855 -0.1590 0.2500
H2D H 0.1606 -0.1238 0.2500
N2D N 0.1524(6) -0.0009(4) 0.3658(4)
C2D C 0.1695(6) -0.0243(5) 0.3134(4)
C3D C 0.0796(8) -0.1010(6) 0.3547(5)
H3D H 0.0435 -0.1411 0.3607
C4D C 0.0974(9) -0.0488(7) 0.3908(6)
H4D H 0.0754 -0.0457 0.4277
C5D C 0.1829(7) 0.0618(5) 0.3903(5)
H5D H 0.1502 0.0719 0.4033
H6D H 0.2070 0.0904 0.3538
C6D C 0.2266(8) 0.0760(6) 0.4478(4)
C7D C 0.2692(8) 0.1373(6) 0.4624(5)
H7D H 0.2731 0.1701 0.4347
C8D C 0.3076(7) 0.1513(5) 0.5201(6)
C9D C 0.3491(8) 0.2146(6) 0.5418(7)
H8D H 0.3527 0.2486 0.5164
C10D C 0.3819(9) 0.2262(7) 0.5959(8)
H9D H 0.4084 0.2686 0.6087
C11D C 0.3795(11) 0.1800(8) 0.6344(6)
H10D H 0.4039 0.1911 0.6735
C12D C 0.3424(8) 0.1166(6) 0.6182(5)
H11D H 0.3419 0.0844 0.6443
C13D C 0.3041(7) 0.1029(5) 0.5581(5)
C14D C 0.2625(8) 0.0404(6) 0.5392(7)
H12D H 0.2605 0.0071 0.5647
C15D C 0.2258(8) 0.0267(6) 0.4870(6)
H13D H 0.1988 -0.0159 0.4751
N1G N 0.1254(5) -0.0833(4) 0.1930(3)
N2G N 0.1524(6) -0.0009(4) 0.1342(4)
C2G C 0.1695(6) -0.0243(5) 0.1866(4)
C3G C 0.0796(8) -0.1010(6) 0.1453(5)
H3G H 0.0435 -0.1411 0.1393
C4G C 0.0974(9) -0.0488(7) 0.1092(6)
H4G H 0.0754 -0.0457 0.0723
C5G C 0.1829(7) 0.0618(5) 0.1097(5)
H5G H 0.1502 0.0719 0.0967
H6G H 0.2070 0.0904 0.1462
C6G C 0.2266(8) 0.0760(6) 0.0522(4)
C7G C 0.2692(8) 0.1373(6) 0.0376(5)
H7G H 0.2731 0.1701 0.0653
C8G C 0.3076(7) 0.1513(5) -0.0201(6)
C9G C 0.3491(8) 0.2146(6) -0.0418(7)
H8G H 0.3527 0.2486 -0.0164
C10G C 0.3819(9) 0.2262(7) -0.0959(8)
H9G H 0.4084 0.2686 -0.1087
C11G C 0.3795(11) 0.1800(8) -0.1344(6)
H10G H 0.4039 0.1911 -0.1735
C12G C 0.3424(8) 0.1166(6) -0.1182(5)
H11G H 0.3419 0.0844 -0.1443
C13G C 0.3041(7) 0.1029(5) -0.0581(5)
C14G C 0.2625(8) 0.0404(6) -0.0392(7)
H12G H 0.2605 0.0071 -0.0647
C15G C 0.2258(8) 0.0267(6) 0.0130(6)
H13G H 0.1988 -0.0159 0.0249
O1G O 0.5592(10) 0.1141(7) 0.0077(8)
O2G O 0.4781(8) 0.1588(6) 0.0185(6)
O3G O 0.4308(8) 0.0672(6) -0.0273(7)
N3G N 0.3080(6) 0.0539(5) 0.1760(4)
C16G C 0.5856(8) 0.3123(5) -0.1532(6)
H14G H 0.5431 0.3011 -0.1686
H15G H 0.6122 0.3191 -0.1923
C17G C 0.5819(8) 0.2588(6) -0.1120(6)
C18G C 0.6287(8) 0.2412(6) -0.1137(6)
C19G C 0.6192(11) 0.1922(8) -0.0773(9)
H16G H 0.6461 0.1753 -0.0834
C20G C 0.5728(12) 0.1657(10) -0.0320(10)
C21G C 0.5253(12) 0.1809(8) -0.0312(7)
C22G C 0.5315(8) 0.2254(6) -0.0673(7)
H17G H 0.5003 0.2373 -0.0644
C23G C 0.4400(13) 0.1045(10) 0.0160(8)
C24G C 0.3911(11) 0.0844(9) 0.0762(8)
C25G C 0.3912(9) 0.1304(6) 0.1108(7)
H18G H 0.4206 0.1728 0.1001
C26G C 0.3457(9) 0.1164(7) 0.1664(6)
H19G H 0.3438 0.1478 0.1918
C27G C 0.3124(9) 0.0109(7) 0.1396(6)
H20G H 0.2861 -0.0319 0.1512
C28G C 0.3509(14) 0.0235(11) 0.0879(7)
H21G H 0.3498 -0.0088 0.0612
C29G C 0.6022(22) 0.0835(15) -0.0054(17)
H22G H 0.5899 0.0480 0.0246
H23G H 0.5969 0.0688 -0.0509
H24G H 0.6463 0.1150 0.0023
O1I O 0.8859(7) 0.4451(7) 0.0077(8)
O2I O 0.8412(6) 0.3193(5) 0.0185(6)
O3I O 0.9328(6) 0.3636(6) -0.0273(7)
N3I N 0.9461(5) 0.2541(4) 0.1760(4)
C16I C 0.6877(5) 0.2733(6) -0.1532(6)
H14I H 0.6989 0.2420 -0.1686
H15I H 0.6809 0.2931 -0.1923
C17I C 0.7412(6) 0.3231(6) -0.1120(6)
C18I C 0.7588(6) 0.3875(6) -0.1137(6)
C19I C 0.8078(8) 0.4270(7) -0.0773(9)
H16I H 0.8247 0.4708 -0.0834
C20I C 0.8343(10) 0.4071(7) -0.0320(10)
C21I C 0.8191(8) 0.3444(9) -0.0312(7)
C22I C 0.7746(6) 0.3061(6) -0.0673(7)
H17I H 0.7627 0.2630 -0.0644
C23I C 0.8955(10) 0.3355(8) 0.0160(8)
C24I C 0.9156(9) 0.3067(7) 0.0762(8)
C25I C 0.8696(6) 0.2608(7) 0.1108(7)
H18I H 0.8272 0.2478 0.1001
C26I C 0.8836(7) 0.2293(6) 0.1664(6)
H19I H 0.8522 0.1960 0.1918
C27I C 0.9891(7) 0.3015(6) 0.1396(6)
H20I H 1.0319 0.3180 0.1512
C28I C 0.9765(11) 0.3274(8) 0.0879(7)
H21I H 1.0088 0.3586 0.0612
C29I C 0.9165(15) 0.5187(16) -0.0054(17)
H22I H 0.9520 0.5419 0.0246
H23I H 0.9312 0.5281 -0.0509
H24I H 0.8850 0.5313 0.0023
O1K O 0.5549(7) 0.4408(10) 0.0077(8)
O2K O 0.6807(5) 0.5219(8) 0.0185(6)
O3K O 0.6364(6) 0.5692(8) -0.0273(7)
N3K N 0.7459(4) 0.6920(6) 0.1760(4)
C16K C 0.7267(6) 0.4144(8) -0.1532(6)
H14K H 0.7580 0.4569 -0.1686
H15K H 0.7069 0.3878 -0.1923
C17K C 0.6769(6) 0.4181(8) -0.1120(6)
C18K C 0.6125(6) 0.3713(8) -0.1137(6)
C19K C 0.5730(7) 0.3808(11) -0.0773(9)
H16K H 0.5292 0.3539 -0.0834
C20K C 0.5929(7) 0.4272(12) -0.0320(10)
C21K C 0.6556(9) 0.4747(12) -0.0312(7)
C22K C 0.6939(6) 0.4685(8) -0.0673(7)
H17K H 0.7370 0.4997 -0.0644
C23K C 0.6645(8) 0.5600(13) 0.0160(8)
C24K C 0.6933(7) 0.6089(11) 0.0762(8)
C25K C 0.7392(7) 0.6088(9) 0.1108(7)
H18K H 0.7522 0.5794 0.1001
C26K C 0.7707(6) 0.6543(9) 0.1664(6)
H19K H 0.8040 0.6562 0.1918
C27K C 0.6985(6) 0.6876(9) 0.1396(6)
H20K H 0.6820 0.7139 0.1512
C28K C 0.6726(8) 0.6491(14) 0.0879(7)
H21K H 0.6414 0.6502 0.0612
C29K C 0.4813(16) 0.3978(22) -0.0054(17)
H22K H 0.4581 0.4101 0.0246
H23K H 0.4719 0.4031 -0.0509
H24K H 0.4687 0.3537 0.0023
B1 B 1.2367(12) 0.1861(13) 0.2500
F1 F 1.1678(6) 0.1357(7) 0.2500
F2 F 1.2657(6) 0.1570(6) 0.2500
F3 F 1.2438(4) 0.2198(5) 0.3057(5)
F3I F 1.2438(4) 0.2198(5) 0.1943(5)
B2 B 1.1161(8) 0.4310(6) 0.2500
F4 F 1.1636(11) 0.4657(8) 0.2500
F5 F 1.0938(6) 0.3721(6) 0.2500
F6 F 1.0906(7) 0.4464(5) 0.3029(7)
F6I F 1.0906(7) 0.4464(5) 0.1971(7)
O4 O 0.9100(16) 0.3389(14) 0.7500
N4 N 0.8662(16) 0.3510(15) 0.7500
O5 O 0.8130(11) 0.3165(10) 0.7500
C30 C 0.873(2) 0.412(2) 0.7500
H25 H 0.9174 0.4439 0.7500
H26 H 0.8527 0.4171 0.7894
H26I H 0.8527 0.4171 0.7106
loop_
_geom_bond_atom_site_label_1
_geom_bond_atom_site_label_2
_geom_bond_site_symmetry_1
_geom_bond_site_symmetry_2
Pd1 C2 1_555 1_555
O1 C20 1_555 1_555
N1 C1 1_555 1_555
C1 H1 1_555 1_555
H2 C1 1_555 1_555
O2 C21 1_555 1_555
N2 C2 1_555 1_555
C2 N1 1_555 1_555
O3 C23 1_555 1_555
N3 Pd1 1_555 1_555
C3 N1 1_555 1_555
H3 C3 1_555 1_555
C4 N2 1_555 1_555
H4 C4 1_555 1_555
C5 N2 1_555 1_555
H5 C5 1_555 1_555
H6 C5 1_555 1_555
C6 C5 1_555 1_555
C7 C6 1_555 1_555
H7 C7 1_555 1_555
C8 C7 1_555 1_555
C9 C8 1_555 1_555
H8 C9 1_555 1_555
C10 C9 1_555 1_555
H9 C10 1_555 1_555
C11 C10 1_555 1_555
H10 C11 1_555 1_555
C12 C11 1_555 1_555
H11 C12 1_555 1_555
C13 C8 1_555 1_555
C14 C13 1_555 1_555
H12 C14 1_555 1_555
C15 C6 1_555 1_555
H13 C15 1_555 1_555
C16 H14 1_555 1_555
H15 C16 1_555 1_555
C17 C16 1_555 1_555
C18 C17 1_555 1_555
C19 C18 1_555 1_555
H16 C19 1_555 1_555
C20 C19 1_555 1_555
C21 C20 1_555 1_555
C22 C17 1_555 1_555
H17 C22 1_555 1_555
C23 O2 1_555 1_555
C24 C23 1_555 1_555
C25 C24 1_555 1_555
H18 C25 1_555 1_555
C26 N3 1_555 1_555
H19 C26 1_555 1_555
C27 N3 1_555 1_555
H20 C27 1_555 1_555
C28 C24 1_555 1_555
H21 C28 1_555 1_555
C29 O1 1_555 1_555
H22 C29 1_555 1_555
H23 C29 1_555 1_555
H24 C29 1_555 1_555
B1 F1 1_555 1_555
F2 B1 1_555 1_555
F3 B1 1_555 1_555
B2 F4 1_555 1_555
F5 B2 1_555 1_555
F6 B2 1_555 1_555
O4 N4 1_555 1_555
N4 O5 1_555 1_555
C30 N4 1_555 1_555
H25 C30 1_555 1_555
H26 C30 1_555 1_555
O1B C20B 1_555 1_555
O2B C21B 1_555 1_555
O3B C23B 1_555 1_555
N3B C26B 1_555 1_555
C16B C18 1_555 1_555
H14B C16B 1_555 1_555
H15B C16B 1_555 1_555
C17B C16B 1_555 1_555
C18B C17B 1_555 1_555
C19B C18B 1_555 1_555
H16B C19B 1_555 1_555
C20B C19B 1_555 1_555
C21B C20B 1_555 1_555
C22B C17B 1_555 1_555
H17B C22B 1_555 1_555
C23B O2B 1_555 1_555
C24B C23B 1_555 1_555
C25B C24B 1_555 1_555
H18B C25B 1_555 1_555
C26B C25B 1_555 1_555
H19B C26B 1_555 1_555
C27B N3B 1_555 1_555
H20B C27B 1_555 1_555
C28B C24B 1_555 1_555
H21B C28B 1_555 1_555
C29B O1B 1_555 1_555
H22B C29B 1_555 1_555
H23B C29B 1_555 1_555
H24B C29B 1_555 1_555
O1D C20D 1_555 1_555
O2D C21D 1_555 1_555
O3D C23D 1_555 1_555
N3D C26D 1_555 1_555
C16D C18B 1_555 1_555
H14D C16D 1_555 1_555
H15D C16D 1_555 1_555
C17D C16D 1_555 1_555
C18D C16 1_555 1_555
C19D C18D 1_555 1_555
H16D C19D 1_555 1_555
C20D C19D 1_555 1_555
C21D C20D 1_555 1_555
C22D C17D 1_555 1_555
H17D C22D 1_555 1_555
C23D O2D 1_555 1_555
C24D C23D 1_555 1_555
C25D C24D 1_555 1_555
H18D C25D 1_555 1_555
C26D C25D 1_555 1_555
H19D C26D 1_555 1_555
C27D N3D 1_555 1_555
H20D C27D 1_555 1_555
C28D C24D 1_555 1_555
H21D C28D 1_555 1_555
C29D O1D 1_555 1_555
H22D C29D 1_555 1_555
H23D C29D 1_555 1_555
H24D C29D 1_555 1_555
N1I C1 1_555 1_555
N2I C2I 1_555 1_555
C2I Pd1 1_555 1_555
C3I N1I 1_555 1_555
H3I C3I 1_555 1_555
C4I N2I 1_555 1_555
H4I C4I 1_555 1_555
C5I N2I 1_555 1_555
H5I C5I 1_555 1_555
H6I C5I 1_555 1_555
C6I C5I 1_555 1_555
C7I C6I 1_555 1_555
H7I C7I 1_555 1_555
C8I C7I 1_555 1_555
C9I C8I 1_555 1_555
H8I C9I 1_555 1_555
C10I C9I 1_555 1_555
H9I C10I 1_555 1_555
C11I C10I 1_555 1_555
H10I C11I 1_555 1_555
C12I C11I 1_555 1_555
H11I C12I 1_555 1_555
C13I C8I 1_555 1_555
C14I C13I 1_555 1_555
H12I C14I 1_555 1_555
C15I C6I 1_555 1_555
H13I C15I 1_555 1_555
Pd1B N3B 1_555 1_555
N1B C1B 1_555 1_555
C1B H1B 1_555 1_555
H2B C1B 1_555 1_555
N2B C2B 1_555 1_555
C2B Pd1B 1_555 1_555
C3B N1B 1_555 1_555
H3B C3B 1_555 1_555
C4B N2B 1_555 1_555
H4B C4B 1_555 1_555
C5B N2B 1_555 1_555
H5B C5B 1_555 1_555
H6B C5B 1_555 1_555
C6B C5B 1_555 1_555
C7B C6B 1_555 1_555
H7B C7B 1_555 1_555
C8B C7B 1_555 1_555
C9B C8B 1_555 1_555
H8B C9B 1_555 1_555
C10B C9B 1_555 1_555
H9B C10B 1_555 1_555
C11B C10B 1_555 1_555
H10B C11B 1_555 1_555
C12B C11B 1_555 1_555
H11B C12B 1_555 1_555
C13B C8B 1_555 1_555
C14B C13B 1_555 1_555
H12B C14B 1_555 1_555
C15B C6B 1_555 1_555
H13B C15B 1_555 1_555
N1K C1B 1_555 1_555
N2K C2K 1_555 1_555
C2K Pd1B 1_555 1_555
C3K N1K 1_555 1_555
H3K C3K 1_555 1_555
C4K N2K 1_555 1_555
H4K C4K 1_555 1_555
C5K N2K 1_555 1_555
H5K C5K 1_555 1_555
H6K C5K 1_555 1_555
C6K C5K 1_555 1_555
C7K C6K 1_555 1_555
H7K C7K 1_555 1_555
C8K C7K 1_555 1_555
C9K C8K 1_555 1_555
H8K C9K 1_555 1_555
C10K C9K 1_555 1_555
H9K C10K 1_555 1_555
C11K C10K 1_555 1_555
H10K C11K 1_555 1_555
C12K C11K 1_555 1_555
H11K C12K 1_555 1_555
C13K C8K 1_555 1_555
C14K C13K 1_555 1_555
H12K C14K 1_555 1_555
C15K C6K 1_555 1_555
H13K C15K 1_555 1_555
Pd1D N3D 1_555 1_555
N1D C1D 1_555 1_555
C1D H1D 1_555 1_555
H2D C1D 1_555 1_555
N2D C2D 1_555 1_555
C2D Pd1D 1_555 1_555
C3D N1D 1_555 1_555
H3D C3D 1_555 1_555
C4D N2D 1_555 1_555
H4D C4D 1_555 1_555
C5D N2D 1_555 1_555
H5D C5D 1_555 1_555
H6D C5D 1_555 1_555
C6D C5D 1_555 1_555
C7D C6D 1_555 1_555
H7D C7D 1_555 1_555
C8D C7D 1_555 1_555
C9D C8D 1_555 1_555
H8D C9D 1_555 1_555
C10D C9D 1_555 1_555
H9D C10D 1_555 1_555
C11D C10D 1_555 1_555
H10D C11D 1_555 1_555
C12D C11D 1_555 1_555
H11D C12D 1_555 1_555
C13D C8D 1_555 1_555
C14D C13D 1_555 1_555
H12D C14D 1_555 1_555
C15D C6D 1_555 1_555
H13D C15D 1_555 1_555
N1G C1D 1_555 1_555
N2G C2G 1_555 1_555
C2G Pd1D 1_555 1_555
C3G N1G 1_555 1_555
H3G C3G 1_555 1_555
C4G N2G 1_555 1_555
H4G C4G 1_555 1_555
C5G N2G 1_555 1_555
H5G C5G 1_555 1_555
H6G C5G 1_555 1_555
C6G C5G 1_555 1_555
C7G C6G 1_555 1_555
H7G C7G 1_555 1_555
C8G C7G 1_555 1_555
C9G C8G 1_555 1_555
H8G C9G 1_555 1_555
C10G C9G 1_555 1_555
H9G C10G 1_555 1_555
C11G C10G 1_555 1_555
H10G C11G 1_555 1_555
C12G C11G 1_555 1_555
H11G C12G 1_555 1_555
C13G C8G 1_555 1_555
C14G C13G 1_555 1_555
H12G C14G 1_555 1_555
C15G C6G 1_555 1_555
H13G C15G 1_555 1_555
O1G C20G 1_555 1_555
O2G C21G 1_555 1_555
O3G C23G 1_555 1_555
N3G Pd1D 1_555 1_555
C16G H14G 1_555 1_555
H15G C16G 1_555 1_555
C17G C16G 1_555 1_555
C18G C17G 1_555 1_555
C19G C18G 1_555 1_555
H16G C19G 1_555 1_555
C20G C19G 1_555 1_555
C21G C20G 1_555 1_555
C22G C17G 1_555 1_555
H17G C22G 1_555 1_555
C23G O2G 1_555 1_555
C24G C23G 1_555 1_555
C25G C24G 1_555 1_555
H18G C25G 1_555 1_555
C26G N3G 1_555 1_555
H19G C26G 1_555 1_555
C27G N3G 1_555 1_555
H20G C27G 1_555 1_555
C28G C24G 1_555 1_555
H21G C28G 1_555 1_555
C29G O1G 1_555 1_555
H22G C29G 1_555 1_555
H23G C29G 1_555 1_555
H24G C29G 1_555 1_555
O1I C20I 1_555 1_555
O2I C21I 1_555 1_555
O3I C23I 1_555 1_555
N3I Pd1 1_555 1_555
C16I C18G 1_555 1_555
H14I C16I 1_555 1_555
H15I C16I 1_555 1_555
C17I C16I 1_555 1_555
C18I C17I 1_555 1_555
C19I C18I 1_555 1_555
H16I C19I 1_555 1_555
C20I C19I 1_555 1_555
C21I C20I 1_555 1_555
C22I C17I 1_555 1_555
H17I C22I 1_555 1_555
C23I O2I 1_555 1_555
C24I C23I 1_555 1_555
C25I C24I 1_555 1_555
H18I C25I 1_555 1_555
C26I N3I 1_555 1_555
H19I C26I 1_555 1_555
C27I N3I 1_555 1_555
H20I C27I 1_555 1_555
C28I C24I 1_555 1_555
H21I C28I 1_555 1_555
C29I O1I 1_555 1_555
H22I C29I 1_555 1_555
H23I C29I 1_555 1_555
H24I C29I 1_555 1_555
O1K C20K 1_555 1_555
O2K C21K 1_555 1_555
O3K C23K 1_555 1_555
N3K Pd1B 1_555 1_555
C16K C18I 1_555 1_555
H14K C16K 1_555 1_555
H15K C16K 1_555 1_555
C17K C16K 1_555 1_555
C18K C16G 1_555 1_555
C19K C18K 1_555 1_555
H16K C19K 1_555 1_555
C20K C19K 1_555 1_555
C21K C20K 1_555 1_555
C22K C17K 1_555 1_555
H17K C22K 1_555 1_555
C23K O2K 1_555 1_555
C24K C23K 1_555 1_555
C25K C24K 1_555 1_555
H18K C25K 1_555 1_555
C26K N3K 1_555 1_555
H19K C26K 1_555 1_555
C27K N3K 1_555 1_555
H20K C27K 1_555 1_555
C28K C24K 1_555 1_555
H21K C28K 1_555 1_555
C29K O1K 1_555 1_555
H22K C29K 1_555 1_555
H23K C29K 1_555 1_555
H24K C29K 1_555 1_555
F3I B1 1_555 1_555
F6I B2 1_555 1_555
H26I C30 1_555 1_555
C3 C4 1_555 1_555
C12 C13 1_555 1_555
C14 C15 1_555 1_555
C21 C22 1_555 1_555
C25 C26 1_555 1_555
C27 C28 1_555 1_555
C21B C22B 1_555 1_555
C27B C28B 1_555 1_555
C17D C18D 1_555 1_555
C21D C22D 1_555 1_555
C27D C28D 1_555 1_555
N1I C2I 1_555 1_555
C3I C4I 1_555 1_555
C12I C13I 1_555 1_555
C14I C15I 1_555 1_555
N1B C2B 1_555 1_555
C3B C4B 1_555 1_555
C12B C13B 1_555 1_555
C14B C15B 1_555 1_555
N1K C2K 1_555 1_555
C3K C4K 1_555 1_555
C12K C13K 1_555 1_555
C14K C15K 1_555 1_555
N1D C2D 1_555 1_555
C3D C4D 1_555 1_555
C12D C13D 1_555 1_555
C14D C15D 1_555 1_555
N1G C2G 1_555 1_555
C3G C4G 1_555 1_555
C12G C13G 1_555 1_555
C14G C15G 1_555 1_555
C21G C22G 1_555 1_555
C25G C26G 1_555 1_555
C27G C28G 1_555 1_555
C21I C22I 1_555 1_555
C25I C26I 1_555 1_555
C27I C28I 1_555 1_555
C17K C18K 1_555 1_555
C21K C22K 1_555 1_555
C25K C26K 1_555 1_555
C27K C28K 1_555 1_555

#END
