
#######################################################################
#
#                 Cambridge Crystallographic Data Centre
#                                CCDC 
#
#######################################################################
#
# If this CIF has been generated from an entry in the Cambridge 
# Structural Database, then it will include bibliographic, chemical, 
# crystal, experimental, refinement or atomic coordinate data resulting 
# from the CCDC's data processing and validation procedures.
#
#######################################################################

data_GUSRAP
_chemical_name_common            
"tris(1,1'-methylenebis(3-(naphthalen-2-ylmethyl)-imidazol-2-ylidene))-bis(tris(isonicotinoyl)tris(propyl)cyclotricatechylene)-tri-palladium(ii) hexakis(tetrafluoroborate) nitromethane solvate"
_chemical_formula_moiety         
'C183 H162 N18 O18 Pd3 6+,8(C1 H3 N1 O2),6(B1 F4 1-)'
_chemical_name_systematic        
"tris(1,1'-methylenebis(3-(naphthalen-2-ylmethyl)-imidazol-2-ylidene))-bis(3,8,13-tripropoxy-10,15-dihydro-5H-tribenzo[a,d,g][9]annulene-2,7,12-triyl triisonicotinate)-tri-palladium(ii) hexakis(tetrafluoroborate) nitromethane solvate"
_symmetry_cell_setting           hexagonal
_symmetry_space_group_name_H-M   'P 63/m'
_symmetry_Int_Tables_number      176
_space_group_name_Hall           '-P 6c'
loop_
_symmetry_equiv_pos_site_id
_symmetry_equiv_pos_as_xyz
1 x,y,z
2 x-y,x,1/2+z
3 -y,x-y,z
4 -x,-y,1/2+z
5 -x+y,-x,z
6 y,-x+y,1/2+z
7 -x,-y,-z
8 -x+y,-x,1/2-z
9 y,-x+y,-z
10 x,y,1/2-z
11 x-y,x,-z
12 -y,x-y,1/2-z
_cell_length_a                   24.6118(19)
_cell_length_b                   24.6118(19)
_cell_length_c                   20.272(3)
_cell_angle_alpha                90
_cell_angle_beta                 90
_cell_angle_gamma                120
_cell_volume                     10634.4
_exptl_crystal_colour            yellow
_exptl_crystal_description       needle
_cell_formula_units_Z            2
loop_
_atom_site_label
_atom_site_type_symbol
_atom_site_fract_x
_atom_site_fract_y
_atom_site_fract_z
Pd1 Pd 0.21856(6) 0.24038(6) 0.2500
O1 O 0.4481(7) 0.5657(7) 0.0146(7)
N1 N 0.1537(4) 0.1537(5) 0.1333(5)
C1 C 0.2458(7) 0.1281(8) 0.2500
H1 H 0.2492 0.0897 0.2500
H2 H 0.2886 0.1652 0.2500
O2 O 0.3199(17) 0.4816(16) 0.007(2)
N2 N 0.2105(4) 0.1292(5) 0.1926(4)
C2 C 0.1915(5) 0.1720(5) 0.1848(6)
O3 O 0.3710(11) 0.4363(10) -0.0234(12)
C3 C 0.1839(6) 0.0842(6) 0.1454(7)
H3 H 0.1898 0.0492 0.1398
C4 C 0.1470(5) 0.0988(7) 0.1076(6)
H4 H 0.1218 0.0757 0.0711
C5 C 0.1193(6) 0.1841(6) 0.1117(7)
H5 H 0.1167 0.2090 0.1487
H6 H 0.0760 0.1516 0.1000
C6 C 0.1493(6) 0.2273(6) 0.0525(6)
C7 C 0.1978(7) 0.2278(7) 0.0145(8)
H7 H 0.2134 0.2009 0.0269
C8 C 0.2233(6) 0.2660(7) -0.0400(7)
H8 H 0.2556 0.2651 -0.0647
C9 C 0.2010(6) 0.3060(6) -0.0582(7)
C10 C 0.2247(7) 0.3454(6) -0.1177(6)
H9 H 0.2576 0.3465 -0.1431
C11 C 0.1991(7) 0.3792(7) -0.1346(7)
H10 H 0.2131 0.4031 -0.1741
C12 C 0.1519(8) 0.3821(7) -0.0974(9)
H11 H 0.1359 0.4082 -0.1114
C13 C 0.1295(7) 0.3467(7) -0.0408(9)
H12 H 0.0982 0.3483 -0.0149
C14 C 0.1540(7) 0.3082(6) -0.0221(7)
C15 C 0.1290(6) 0.2663(7) 0.0365(7)
H13 H 0.0978 0.2676 0.0630
C16 C 0.4128(7) 0.6908(8) -0.1541(7)
H14 H 0.4548 0.7032 -0.1722
H15 H 0.3844 0.6834 -0.1918
C17 C 0.3890(8) 0.6302(7) -0.1160(6)
C18 C 0.3257(8) 0.5826(7) -0.1143(7)
C19 C 0.3078(7) 0.5332(7) -0.0730(9)
H16 H 0.2654 0.5001 -0.0734
C20 C 0.3467(11) 0.5301(8) -0.0333(9)
C21 C 0.4107(8) 0.5748(9) -0.0308(9)
C22 C 0.4301(8) 0.6246(8) -0.0745(9)
H17 H 0.4732 0.6558 -0.0758
C23 C 0.3360(15) 0.4364(17) 0.0156(16)
N3 N 0.2554(7) 0.3049(6) 0.1712(7)
C24 C 0.3067(7) 0.3105(7) 0.1364(9)
H18 H 0.3233 0.2840 0.1469
C25 C 0.3335(7) 0.3547(8) 0.0864(8)
H19 H 0.3685 0.3586 0.0627
C26 C 0.3092(8) 0.3934(7) 0.0712(7)
C27 C 0.2579(8) 0.3878(7) 0.1060(8)
H20 H 0.2413 0.4143 0.0955
C28 C 0.2311(6) 0.3436(7) 0.1560(7)
H21 H 0.1961 0.3397 0.1797
C29 C 0.5105(10) 0.6119(10) 0.0294(16)
H22 H 0.5115 0.6513 0.0420
H23 H 0.5366 0.6205 -0.0106
C30 C 0.5395(17) 0.5916(17) 0.0869(18)
H24 H 0.5101 0.5765 0.1247
H25 H 0.5453 0.5566 0.0717
C31 C 0.6041(17) 0.6474(17) 0.1099(17)
H26 H 0.6174 0.6356 0.1504
H27 H 0.5999 0.6843 0.1184
H28 H 0.6355 0.6572 0.0753
O1B O 0.4343(7) 0.8824(10) 0.0146(7)
O2B O 0.5184(16) 0.8383(23) 0.007(2)
O3B O 0.5637(10) 0.9347(15) -0.0234(12)
C16B C 0.3092(8) 0.7220(11) -0.1541(7)
H14B H 0.2968 0.7516 -0.1722
H15B H 0.3166 0.7010 -0.1918
C17B C 0.3698(7) 0.7588(11) -0.1160(6)
C18B C 0.4174(7) 0.7431(11) -0.1143(7)
C19B C 0.4668(7) 0.7746(10) -0.0730(9)
H16B H 0.4999 0.7653 -0.0734
C20B C 0.4699(8) 0.8166(14) -0.0333(9)
C21B C 0.4252(9) 0.8359(12) -0.0308(9)
C22B C 0.3754(8) 0.8055(11) -0.0745(9)
H17B H 0.3442 0.8174 -0.0758
C23B C 0.5636(17) 0.8996(23) 0.0156(16)
N3B N 0.6951(6) 0.9505(9) 0.1712(7)
C24B C 0.6895(7) 0.9962(10) 0.1364(9)
H18B H 0.7160 1.0393 0.1469
C25B C 0.6453(8) 0.9788(11) 0.0864(8)
H19B H 0.6414 1.0099 0.0627
C26B C 0.6066(7) 0.9158(11) 0.0712(7)
C27B C 0.6122(7) 0.8701(11) 0.1060(8)
H20B H 0.5857 0.8270 0.0955
C28B C 0.6564(7) 0.8875(9) 0.1560(7)
H21B H 0.6603 0.8564 0.1797
C29B C 0.3881(10) 0.8986(14) 0.0294(16)
H22B H 0.3487 0.8602 0.0420
H23B H 0.3795 0.9161 -0.0106
C30B C 0.4084(17) 0.9479(24) 0.0869(18)
H24B H 0.4235 0.9336 0.1247
H25B H 0.4434 0.9887 0.0717
C31B C 0.3526(17) 0.9567(24) 0.1099(17)
H26B H 0.3644 0.9818 0.1504
H27B H 0.3157 0.9156 0.1184
H28B H 0.3428 0.9783 0.0753
O1D O 0.1176(10) 0.5519(7) 0.0146(7)
O2D O 0.1617(23) 0.6801(17) 0.007(2)
O3D O 0.0653(15) 0.6290(11) -0.0234(12)
C16D C 0.2780(11) 0.5872(7) -0.1541(7)
H14D H 0.2484 0.5452 -0.1722
H15D H 0.2990 0.6156 -0.1918
C17D C 0.2412(11) 0.6110(8) -0.1160(6)
C18D C 0.2569(11) 0.6743(8) -0.1143(7)
C19D C 0.2254(10) 0.6922(7) -0.0730(9)
H16D H 0.2347 0.7346 -0.0734
C20D C 0.1834(14) 0.6533(11) -0.0333(9)
C21D C 0.1641(12) 0.5893(8) -0.0308(9)
C22D C 0.1945(11) 0.5699(8) -0.0745(9)
H17D H 0.1826 0.5268 -0.0758
C23D C 0.1004(23) 0.6640(15) 0.0156(16)
N3D N 0.0495(9) 0.7446(7) 0.1712(7)
C24D C 0.0038(10) 0.6933(7) 0.1364(9)
H18D H -0.0393 0.6767 0.1469
C25D C 0.0212(11) 0.6665(7) 0.0864(8)
H19D H -0.0099 0.6315 0.0627
C26D C 0.0842(11) 0.6908(8) 0.0712(7)
C27D C 0.1299(11) 0.7421(8) 0.1060(8)
H20D H 0.1730 0.7587 0.0955
C28D C 0.1125(9) 0.7689(6) 0.1560(7)
H21D H 0.1436 0.8039 0.1797
C29D C 0.1014(14) 0.4895(10) 0.0294(16)
H22D H 0.1398 0.4885 0.0420
H23D H 0.0839 0.4634 -0.0106
C30D C 0.0521(24) 0.4605(17) 0.0869(18)
H24D H 0.0664 0.4899 0.1247
H25D H 0.0113 0.4547 0.0717
C31D C 0.0433(24) 0.3959(17) 0.1099(17)
H26D H 0.0182 0.3826 0.1504
H27D H 0.0844 0.4001 0.1184
H28D H 0.0217 0.3645 0.0753
N1I N 0.1537(4) 0.1537(5) 0.3667(5)
N2I N 0.2105(4) 0.1292(5) 0.3074(4)
C2I C 0.1915(5) 0.1720(5) 0.3152(6)
C3I C 0.1839(6) 0.0842(6) 0.3546(7)
H3I H 0.1898 0.0492 0.3602
C4I C 0.1470(5) 0.0988(7) 0.3924(6)
H4I H 0.1218 0.0757 0.4289
C5I C 0.1193(6) 0.1841(6) 0.3883(7)
H5I H 0.1167 0.2090 0.3513
H6I H 0.0760 0.1516 0.4000
C6I C 0.1493(6) 0.2273(6) 0.4475(6)
C7I C 0.1978(7) 0.2278(7) 0.4855(8)
H7I H 0.2134 0.2009 0.4731
C8I C 0.2233(6) 0.2660(7) 0.5400(7)
H8I H 0.2556 0.2651 0.5647
C9I C 0.2010(6) 0.3060(6) 0.5582(7)
C10I C 0.2247(7) 0.3454(6) 0.6177(6)
H9I H 0.2576 0.3465 0.6431
C11I C 0.1991(7) 0.3792(7) 0.6346(7)
H10I H 0.2131 0.4031 0.6741
C12I C 0.1519(8) 0.3821(7) 0.5974(9)
H11I H 0.1359 0.4082 0.6114
C13I C 0.1295(7) 0.3467(7) 0.5408(9)
H12I H 0.0982 0.3483 0.5149
C14I C 0.1540(7) 0.3082(6) 0.5221(7)
C15I C 0.1290(6) 0.2663(7) 0.4635(7)
H13I H 0.0978 0.2676 0.4370
Pd1B Pd 0.75962(6) 0.97818(8) 0.2500
N1B N 0.8463(5) 1.0000(6) 0.1333(5)
C1B C 0.8719(8) 1.1177(11) 0.2500
H1B H 0.9103 1.1595 0.2500
H2B H 0.8348 1.1234 0.2500
N2B N 0.8708(5) 1.0813(6) 0.1926(4)
C2B C 0.8280(5) 1.0195(7) 0.1848(6)
C3B C 0.9158(6) 1.0997(8) 0.1454(7)
H3B H 0.9508 1.1406 0.1398
C4B C 0.9012(7) 1.0482(9) 0.1076(6)
H4B H 0.9243 1.0461 0.0711
C5B C 0.8159(6) 0.9352(8) 0.1117(7)
H5B H 0.7910 0.9077 0.1487
H6B H 0.8484 0.9244 0.1000
C6B C 0.7727(6) 0.9220(8) 0.0525(6)
C7B C 0.7722(7) 0.9700(10) 0.0145(8)
H7B H 0.7991 1.0125 0.0269
C8B C 0.7340(7) 0.9573(9) -0.0400(7)
H8B H 0.7349 0.9905 -0.0647
C9B C 0.6940(6) 0.8950(8) -0.0582(7)
C10B C 0.6546(6) 0.8793(9) -0.1177(6)
H9B H 0.6535 0.9111 -0.1431
C11B C 0.6208(7) 0.8199(10) -0.1346(7)
H10B H 0.5969 0.8100 -0.1741
C12B C 0.6179(7) 0.7698(11) -0.0974(9)
H11B H 0.5918 0.7277 -0.1114
C13B C 0.6533(7) 0.7828(10) -0.0408(9)
H12B H 0.6517 0.7499 -0.0149
C14B C 0.6918(6) 0.8458(9) -0.0221(7)
C15B C 0.7337(7) 0.8627(9) 0.0365(7)
H13B H 0.7324 0.8302 0.0630
N1K N 0.8463(5) 1.0000(6) 0.3667(5)
N2K N 0.8708(5) 1.0813(6) 0.3074(4)
C2K C 0.8280(5) 1.0195(7) 0.3152(6)
C3K C 0.9158(6) 1.0997(8) 0.3546(7)
H3K H 0.9508 1.1406 0.3602
C4K C 0.9012(7) 1.0482(9) 0.3924(6)
H4K H 0.9243 1.0461 0.4289
C5K C 0.8159(6) 0.9352(8) 0.3883(7)
H5K H 0.7910 0.9077 0.3513
H6K H 0.8484 0.9244 0.4000
C6K C 0.7727(6) 0.9220(8) 0.4475(6)
C7K C 0.7722(7) 0.9700(10) 0.4855(8)
H7K H 0.7991 1.0125 0.4731
C8K C 0.7340(7) 0.9573(9) 0.5400(7)
H8K H 0.7349 0.9905 0.5647
C9K C 0.6940(6) 0.8950(8) 0.5582(7)
C10K C 0.6546(6) 0.8793(9) 0.6177(6)
H9K H 0.6535 0.9111 0.6431
C11K C 0.6208(7) 0.8199(10) 0.6346(7)
H10K H 0.5969 0.8100 0.6741
C12K C 0.6179(7) 0.7698(11) 0.5974(9)
H11K H 0.5918 0.7277 0.6114
C13K C 0.6533(7) 0.7828(10) 0.5408(9)
H12K H 0.6517 0.7499 0.5149
C14K C 0.6918(6) 0.8458(9) 0.5221(7)
C15K C 0.7337(7) 0.8627(9) 0.4635(7)
H13K H 0.7324 0.8302 0.4370
Pd1D Pd 0.02182(8) 0.78144(6) 0.2500
N1D N 0.0000(6) 0.8463(4) 0.1333(5)
C1D C -0.1177(11) 0.7542(7) 0.2500
H1D H -0.1595 0.7508 0.2500
H2D H -0.1234 0.7114 0.2500
N2D N -0.0813(6) 0.7895(4) 0.1926(4)
C2D C -0.0195(7) 0.8085(5) 0.1848(6)
C3D C -0.0997(8) 0.8161(6) 0.1454(7)
H3D H -0.1406 0.8102 0.1398
C4D C -0.0482(9) 0.8530(5) 0.1076(6)
H4D H -0.0461 0.8782 0.0711
C5D C 0.0648(8) 0.8807(6) 0.1117(7)
H5D H 0.0923 0.8833 0.1487
H6D H 0.0756 0.9240 0.1000
C6D C 0.0780(8) 0.8507(6) 0.0525(6)
C7D C 0.0300(10) 0.8022(7) 0.0145(8)
H7D H -0.0125 0.7866 0.0269
C8D C 0.0427(9) 0.7767(6) -0.0400(7)
H8D H 0.0095 0.7444 -0.0647
C9D C 0.1050(8) 0.7990(6) -0.0582(7)
C10D C 0.1207(9) 0.7753(7) -0.1177(6)
H9D H 0.0889 0.7424 -0.1431
C11D C 0.1801(10) 0.8009(7) -0.1346(7)
H10D H 0.1900 0.7869 -0.1741
C12D C 0.2302(11) 0.8481(8) -0.0974(9)
H11D H 0.2723 0.8641 -0.1114
C13D C 0.2172(10) 0.8705(7) -0.0408(9)
H12D H 0.2501 0.9018 -0.0149
C14D C 0.1542(9) 0.8460(7) -0.0221(7)
C15D C 0.1373(9) 0.8710(6) 0.0365(7)
H13D H 0.1698 0.9022 0.0630
N1G N 0.0000(6) 0.8463(4) 0.3667(5)
N2G N -0.0813(6) 0.7895(4) 0.3074(4)
C2G C -0.0195(7) 0.8085(5) 0.3152(6)
C3G C -0.0997(8) 0.8161(6) 0.3546(7)
H3G H -0.1406 0.8102 0.3602
C4G C -0.0482(9) 0.8530(5) 0.3924(6)
H4G H -0.0461 0.8782 0.4289
C5G C 0.0648(8) 0.8807(6) 0.3883(7)
H5G H 0.0923 0.8833 0.3513
H6G H 0.0756 0.9240 0.4000
C6G C 0.0780(8) 0.8507(6) 0.4475(6)
C7G C 0.0300(10) 0.8022(7) 0.4855(8)
H7G H -0.0125 0.7866 0.4731
C8G C 0.0427(9) 0.7767(6) 0.5400(7)
H8G H 0.0095 0.7444 0.5647
C9G C 0.1050(8) 0.7990(6) 0.5582(7)
C10G C 0.1207(9) 0.7753(7) 0.6177(6)
H9G H 0.0889 0.7424 0.6431
C11G C 0.1801(10) 0.8009(7) 0.6346(7)
H10G H 0.1900 0.7869 0.6741
C12G C 0.2302(11) 0.8481(8) 0.5974(9)
H11G H 0.2723 0.8641 0.6114
C13G C 0.2172(10) 0.8705(7) 0.5408(9)
H12G H 0.2501 0.9018 0.5149
C14G C 0.1542(9) 0.8460(7) 0.5221(7)
C15G C 0.1373(9) 0.8710(6) 0.4635(7)
H13G H 0.1698 0.9022 0.4370
O1G O 0.1176(10) 0.5519(7) 0.4854(7)
O2G O 0.1617(23) 0.6801(17) 0.493(2)
O3G O 0.0653(15) 0.6290(11) 0.5234(12)
C16G C 0.2780(11) 0.5872(7) 0.6541(7)
H14G H 0.2484 0.5452 0.6722
H15G H 0.2990 0.6156 0.6918
C17G C 0.2412(11) 0.6110(8) 0.6160(6)
C18G C 0.2569(11) 0.6743(8) 0.6143(7)
C19G C 0.2254(10) 0.6922(7) 0.5730(9)
H16G H 0.2347 0.7346 0.5734
C20G C 0.1834(14) 0.6533(11) 0.5333(9)
C21G C 0.1641(12) 0.5893(8) 0.5308(9)
C22G C 0.1945(11) 0.5699(8) 0.5745(9)
H17G H 0.1826 0.5268 0.5758
C23G C 0.1004(23) 0.6640(15) 0.4844(16)
N3G N 0.0495(9) 0.7446(7) 0.3288(7)
C24G C 0.0038(10) 0.6933(7) 0.3636(9)
H18G H -0.0393 0.6767 0.3531
C25G C 0.0212(11) 0.6665(7) 0.4136(8)
H19G H -0.0099 0.6315 0.4373
C26G C 0.0842(11) 0.6908(8) 0.4288(7)
C27G C 0.1299(11) 0.7421(8) 0.3940(8)
H20G H 0.1730 0.7587 0.4045
C28G C 0.1125(9) 0.7689(6) 0.3440(7)
H21G H 0.1436 0.8039 0.3203
C29G C 0.1014(14) 0.4895(10) 0.4706(16)
H22G H 0.1398 0.4885 0.4580
H23G H 0.0839 0.4634 0.5106
C30G C 0.0521(24) 0.4605(17) 0.4131(18)
H24G H 0.0664 0.4899 0.3753
H25G H 0.0113 0.4547 0.4283
C31G C 0.0433(24) 0.3959(17) 0.3901(17)
H26G H 0.0182 0.3826 0.3496
H27G H 0.0844 0.4001 0.3816
H28G H 0.0217 0.3645 0.4247
O1I O 0.4481(7) 0.5657(7) 0.4854(7)
O2I O 0.3199(17) 0.4816(16) 0.493(2)
O3I O 0.3710(11) 0.4363(10) 0.5234(12)
C16I C 0.4128(7) 0.6908(8) 0.6541(7)
H14I H 0.4548 0.7032 0.6722
H15I H 0.3844 0.6834 0.6918
C17I C 0.3890(8) 0.6302(7) 0.6160(6)
C18I C 0.3257(8) 0.5826(7) 0.6143(7)
C19I C 0.3078(7) 0.5332(7) 0.5730(9)
H16I H 0.2654 0.5001 0.5734
C20I C 0.3467(11) 0.5301(8) 0.5333(9)
C21I C 0.4107(8) 0.5748(9) 0.5308(9)
C22I C 0.4301(8) 0.6246(8) 0.5745(9)
H17I H 0.4732 0.6558 0.5758
C23I C 0.3360(15) 0.4364(17) 0.4844(16)
N3I N 0.2554(7) 0.3049(6) 0.3288(7)
C24I C 0.3067(7) 0.3105(7) 0.3636(9)
H18I H 0.3233 0.2840 0.3531
C25I C 0.3335(7) 0.3547(8) 0.4136(8)
H19I H 0.3685 0.3586 0.4373
C26I C 0.3092(8) 0.3934(7) 0.4288(7)
C27I C 0.2579(8) 0.3878(7) 0.3940(8)
H20I H 0.2413 0.4143 0.4045
C28I C 0.2311(6) 0.3436(7) 0.3440(7)
H21I H 0.1961 0.3397 0.3203
C29I C 0.5105(10) 0.6119(10) 0.4706(16)
H22I H 0.5115 0.6513 0.4580
H23I H 0.5366 0.6205 0.5106
C30I C 0.5395(17) 0.5916(17) 0.4131(18)
H24I H 0.5101 0.5765 0.3753
H25I H 0.5453 0.5566 0.4283
C31I C 0.6041(17) 0.6474(17) 0.3901(17)
H26I H 0.6174 0.6356 0.3496
H27I H 0.5999 0.6843 0.3816
H28I H 0.6355 0.6572 0.4247
O1K O 0.4343(7) 0.8824(10) 0.4854(7)
O2K O 0.5184(16) 0.8383(23) 0.493(2)
O3K O 0.5637(10) 0.9347(15) 0.5234(12)
C16K C 0.3092(8) 0.7220(11) 0.6541(7)
H14K H 0.2968 0.7516 0.6722
H15K H 0.3166 0.7010 0.6918
C17K C 0.3698(7) 0.7588(11) 0.6160(6)
C18K C 0.4174(7) 0.7431(11) 0.6143(7)
C19K C 0.4668(7) 0.7746(10) 0.5730(9)
H16K H 0.4999 0.7653 0.5734
C20K C 0.4699(8) 0.8166(14) 0.5333(9)
C21K C 0.4252(9) 0.8359(12) 0.5308(9)
C22K C 0.3754(8) 0.8055(11) 0.5745(9)
H17K H 0.3442 0.8174 0.5758
C23K C 0.5636(17) 0.8996(23) 0.4844(16)
N3K N 0.6951(6) 0.9505(9) 0.3288(7)
C24K C 0.6895(7) 0.9962(10) 0.3636(9)
H18K H 0.7160 1.0393 0.3531
C25K C 0.6453(8) 0.9788(11) 0.4136(8)
H19K H 0.6414 1.0099 0.4373
C26K C 0.6066(7) 0.9158(11) 0.4288(7)
C27K C 0.6122(7) 0.8701(11) 0.3940(8)
H20K H 0.5857 0.8270 0.4045
C28K C 0.6564(7) 0.8875(9) 0.3440(7)
H21K H 0.6603 0.8564 0.3203
C29K C 0.3881(10) 0.8986(14) 0.4706(16)
H22K H 0.3487 0.8602 0.4580
H23K H 0.3795 0.9161 0.5106
C30K C 0.4084(17) 0.9479(24) 0.4131(18)
H24K H 0.4235 0.9336 0.3753
H25K H 0.4434 0.9887 0.4283
C31K C 0.3526(17) 0.9567(24) 0.3901(17)
H26K H 0.3644 0.9818 0.3496
H27K H 0.3157 0.9156 0.3816
H28K H 0.3428 0.9783 0.4247
B1 B 0.4312(15) 0.3268(16) 0.2500
F1 F 0.4458(6) 0.3630(6) 0.1934(7)
F2 F 0.3687(7) 0.2815(7) 0.2500
F3 F 0.4664(8) 0.3019(11) 0.2500
F1I F 0.4458(6) 0.3630(6) 0.3066(7)
B2 B 0.1897(14) -0.0443(13) 0.2500
F4 F 0.2198(7) -0.0234(8) 0.1957(6)
F5 F 0.1381(8) -0.0303(8) 0.2500
F6 F 0.1613(9) -0.1026(8) 0.2500
F4I F 0.2198(7) -0.0234(8) 0.3043(6)
O4 O 0.6861(13) 0.5045(13) 0.2500
O5 O 0.6526(12) 0.5676(14) 0.2500
N4 N 0.6397(17) 0.5154(18) 0.2500
C32 C 0.5780(18) 0.4611(17) 0.2500
H29 H 0.5814 0.4231 0.2500
H30 H 0.5553 0.4616 0.2105
H30I H 0.5553 0.4616 0.2895
O6? O 0.3371(16) 0.4744(18) 0.0153(18)
O7? O 0.2703(15) 0.5003(15) 0.0659(15)
C33? C 0.3054(17) 0.4739(16) 0.043(2)
N5? N 0.2456(7) 0.3147(6) 0.1858(8)
C34? C 0.2957(7) 0.3323(6) 0.1429(9)
H31? H 0.3199 0.3120 0.1449
C35? C 0.3105(6) 0.3797(6) 0.0970(7)
H32? H 0.3448 0.3917 0.0677
C36? C 0.2752(6) 0.4094(7) 0.0940(7)
C37? C 0.2251(6) 0.3918(8) 0.1369(10)
H33? H 0.2009 0.4121 0.1349
C38? C 0.2103(7) 0.3444(7) 0.1828(8)
H34? H 0.1760 0.3324 0.2121
N6? N 0.0000 0.0000 0.2500
C39? C 0.046(2) 0.057(2) 0.2500
H35? H 0.0292 0.0855 0.2500
H36? H 0.0714 0.0637 0.2105
O8? O 0.046(2) 0.057(2) 0.2500
F7? F 0.0602(6) 0.0428(6) -0.0170(6)
B3? B 0.0000 0.0000 0.0000
F8? F 0.0000 0.0000 0.0754(11)
loop_
_geom_bond_atom_site_label_1
_geom_bond_atom_site_label_2
_geom_bond_site_symmetry_1
_geom_bond_site_symmetry_2
Pd1 C2 1_555 1_555
O1 C21 1_555 1_555
N1 C2 1_555 1_555
C1 H1 1_555 1_555
H2 C1 1_555 1_555
O2 C20 1_555 1_555
N2 C1 1_555 1_555
C2 N2 1_555 1_555
O3 C23 1_555 1_555
C3 N2 1_555 1_555
H3 C3 1_555 1_555
C4 N1 1_555 1_555
H4 C4 1_555 1_555
C5 N1 1_555 1_555
H5 C5 1_555 1_555
H6 C5 1_555 1_555
C6 C5 1_555 1_555
C7 C6 1_555 1_555
H7 C7 1_555 1_555
C8 C7 1_555 1_555
H8 C8 1_555 1_555
C9 C8 1_555 1_555
C10 C9 1_555 1_555
H9 C10 1_555 1_555
C11 C10 1_555 1_555
H10 C11 1_555 1_555
C12 C11 1_555 1_555
H11 C12 1_555 1_555
C13 C12 1_555 1_555
H12 C13 1_555 1_555
C14 C9 1_555 1_555
C15 C6 1_555 1_555
H13 C15 1_555 1_555
C16 H14 1_555 1_555
H15 C16 1_555 1_555
C17 C16 1_555 1_555
C18 C17 1_555 1_555
C19 C18 1_555 1_555
H16 C19 1_555 1_555
C20 C19 1_555 1_555
C21 C20 1_555 1_555
C22 C17 1_555 1_555
H17 C22 1_555 1_555
C23 O2 1_555 1_555
N3 Pd1 1_555 1_555
C24 N3 1_555 1_555
H18 C24 1_555 1_555
C25 C24 1_555 1_555
H19 C25 1_555 1_555
C26 C23 1_555 1_555
C27 C26 1_555 1_555
H20 C27 1_555 1_555
C28 N3 1_555 1_555
H21 C28 1_555 1_555
C29 O1 1_555 1_555
H22 C29 1_555 1_555
H23 C29 1_555 1_555
C30 C29 1_555 1_555
H24 C30 1_555 1_555
H25 C30 1_555 1_555
C31 C30 1_555 1_555
H26 C31 1_555 1_555
H27 C31 1_555 1_555
H28 C31 1_555 1_555
B1 F1 1_555 1_555
F2 B1 1_555 1_555
F3 B1 1_555 1_555
B2 F4 1_555 1_555
F5 B2 1_555 1_555
F6 B2 1_555 1_555
O4 N4 1_555 1_555
O5 N4 1_555 1_555
N4 C32 1_555 1_555
C32 H29 1_555 1_555
H30 C32 1_555 1_555
O1B C21B 1_555 1_555
O2B C20B 1_555 1_555
O3B C23B 1_555 1_555
C16B H14B 1_555 1_555
H15B C16B 1_555 1_555
C17B C16B 1_555 1_555
C18B C16 1_555 1_555
C19B C18B 1_555 1_555
H16B C19B 1_555 1_555
C20B C19B 1_555 1_555
C21B C20B 1_555 1_555
C22B C17B 1_555 1_555
H17B C22B 1_555 1_555
C23B O2B 1_555 1_555
N3B C24B 1_555 1_555
C24B H18B 1_555 1_555
C25B C24B 1_555 1_555
H19B C25B 1_555 1_555
C26B C23B 1_555 1_555
C27B C26B 1_555 1_555
H20B C27B 1_555 1_555
C28B N3B 1_555 1_555
H21B C28B 1_555 1_555
C29B O1B 1_555 1_555
H22B C29B 1_555 1_555
H23B C29B 1_555 1_555
C30B C29B 1_555 1_555
H24B C30B 1_555 1_555
H25B C30B 1_555 1_555
C31B C30B 1_555 1_555
H26B C31B 1_555 1_555
H27B C31B 1_555 1_555
H28B C31B 1_555 1_555
O1D C21D 1_555 1_555
O2D C20D 1_555 1_555
O3D C23D 1_555 1_555
C16D C18 1_555 1_555
H14D C16D 1_555 1_555
H15D C16D 1_555 1_555
C17D C16D 1_555 1_555
C18D C16B 1_555 1_555
C19D C18D 1_555 1_555
H16D C19D 1_555 1_555
C20D C19D 1_555 1_555
C21D C20D 1_555 1_555
C22D C17D 1_555 1_555
H17D C22D 1_555 1_555
C23D O2D 1_555 1_555
N3D C24D 1_555 1_555
C24D H18D 1_555 1_555
C25D C24D 1_555 1_555
H19D C25D 1_555 1_555
C26D C23D 1_555 1_555
C27D C26D 1_555 1_555
H20D C27D 1_555 1_555
C28D N3D 1_555 1_555
H21D C28D 1_555 1_555
C29D O1D 1_555 1_555
H22D C29D 1_555 1_555
H23D C29D 1_555 1_555
C30D C29D 1_555 1_555
H24D C30D 1_555 1_555
H25D C30D 1_555 1_555
C31D C30D 1_555 1_555
H26D C31D 1_555 1_555
H27D C31D 1_555 1_555
H28D C31D 1_555 1_555
N1I C2I 1_555 1_555
N2I C1 1_555 1_555
C2I Pd1 1_555 1_555
C3I N2I 1_555 1_555
H3I C3I 1_555 1_555
C4I N1I 1_555 1_555
H4I C4I 1_555 1_555
C5I N1I 1_555 1_555
H5I C5I 1_555 1_555
H6I C5I 1_555 1_555
C6I C5I 1_555 1_555
C7I C6I 1_555 1_555
H7I C7I 1_555 1_555
C8I C7I 1_555 1_555
H8I C8I 1_555 1_555
C9I C8I 1_555 1_555
C10I C9I 1_555 1_555
H9I C10I 1_555 1_555
C11I C10I 1_555 1_555
H10I C11I 1_555 1_555
C12I C11I 1_555 1_555
H11I C12I 1_555 1_555
C13I C12I 1_555 1_555
H12I C13I 1_555 1_555
C14I C9I 1_555 1_555
C15I C6I 1_555 1_555
H13I C15I 1_555 1_555
Pd1B N3B 1_555 1_555
N1B C2B 1_555 1_555
C1B H1B 1_555 1_555
H2B C1B 1_555 1_555
N2B C1B 1_555 1_555
C2B Pd1B 1_555 1_555
C3B N2B 1_555 1_555
H3B C3B 1_555 1_555
C4B N1B 1_555 1_555
H4B C4B 1_555 1_555
C5B N1B 1_555 1_555
H5B C5B 1_555 1_555
H6B C5B 1_555 1_555
C6B C5B 1_555 1_555
C7B C6B 1_555 1_555
H7B C7B 1_555 1_555
C8B C7B 1_555 1_555
H8B C8B 1_555 1_555
C9B C8B 1_555 1_555
C10B C9B 1_555 1_555
H9B C10B 1_555 1_555
C11B C10B 1_555 1_555
H10B C11B 1_555 1_555
C12B C11B 1_555 1_555
H11B C12B 1_555 1_555
C13B C12B 1_555 1_555
H12B C13B 1_555 1_555
C14B C9B 1_555 1_555
C15B C6B 1_555 1_555
H13B C15B 1_555 1_555
N1K C2K 1_555 1_555
N2K C1B 1_555 1_555
C2K Pd1B 1_555 1_555
C3K N2K 1_555 1_555
H3K C3K 1_555 1_555
C4K N1K 1_555 1_555
H4K C4K 1_555 1_555
C5K N1K 1_555 1_555
H5K C5K 1_555 1_555
H6K C5K 1_555 1_555
C6K C5K 1_555 1_555
C7K C6K 1_555 1_555
H7K C7K 1_555 1_555
C8K C7K 1_555 1_555
H8K C8K 1_555 1_555
C9K C8K 1_555 1_555
C10K C9K 1_555 1_555
H9K C10K 1_555 1_555
C11K C10K 1_555 1_555
H10K C11K 1_555 1_555
C12K C11K 1_555 1_555
H11K C12K 1_555 1_555
C13K C12K 1_555 1_555
H12K C13K 1_555 1_555
C14K C9K 1_555 1_555
C15K C6K 1_555 1_555
H13K C15K 1_555 1_555
Pd1D N3D 1_555 1_555
N1D C2D 1_555 1_555
C1D H1D 1_555 1_555
H2D C1D 1_555 1_555
N2D C1D 1_555 1_555
C2D Pd1D 1_555 1_555
C3D N2D 1_555 1_555
H3D C3D 1_555 1_555
C4D N1D 1_555 1_555
H4D C4D 1_555 1_555
C5D N1D 1_555 1_555
H5D C5D 1_555 1_555
H6D C5D 1_555 1_555
C6D C5D 1_555 1_555
C7D C6D 1_555 1_555
H7D C7D 1_555 1_555
C8D C7D 1_555 1_555
H8D C8D 1_555 1_555
C9D C8D 1_555 1_555
C10D C9D 1_555 1_555
H9D C10D 1_555 1_555
C11D C10D 1_555 1_555
H10D C11D 1_555 1_555
C12D C11D 1_555 1_555
H11D C12D 1_555 1_555
C13D C12D 1_555 1_555
H12D C13D 1_555 1_555
C14D C9D 1_555 1_555
C15D C6D 1_555 1_555
H13D C15D 1_555 1_555
N1G C2G 1_555 1_555
N2G C1D 1_555 1_555
C2G Pd1D 1_555 1_555
C3G N2G 1_555 1_555
H3G C3G 1_555 1_555
C4G N1G 1_555 1_555
H4G C4G 1_555 1_555
C5G N1G 1_555 1_555
H5G C5G 1_555 1_555
H6G C5G 1_555 1_555
C6G C5G 1_555 1_555
C7G C6G 1_555 1_555
H7G C7G 1_555 1_555
C8G C7G 1_555 1_555
H8G C8G 1_555 1_555
C9G C8G 1_555 1_555
C10G C9G 1_555 1_555
H9G C10G 1_555 1_555
C11G C10G 1_555 1_555
H10G C11G 1_555 1_555
C12G C11G 1_555 1_555
H11G C12G 1_555 1_555
C13G C12G 1_555 1_555
H12G C13G 1_555 1_555
C14G C9G 1_555 1_555
C15G C6G 1_555 1_555
H13G C15G 1_555 1_555
O1G C21G 1_555 1_555
O2G C20G 1_555 1_555
O3G C23G 1_555 1_555
C16G H14G 1_555 1_555
H15G C16G 1_555 1_555
C17G C16G 1_555 1_555
C18G C17G 1_555 1_555
C19G C18G 1_555 1_555
H16G C19G 1_555 1_555
C20G C19G 1_555 1_555
C21G C20G 1_555 1_555
C22G C17G 1_555 1_555
H17G C22G 1_555 1_555
C23G O2G 1_555 1_555
N3G Pd1D 1_555 1_555
C24G N3G 1_555 1_555
H18G C24G 1_555 1_555
C25G C24G 1_555 1_555
H19G C25G 1_555 1_555
C26G C23G 1_555 1_555
C27G C26G 1_555 1_555
H20G C27G 1_555 1_555
C28G N3G 1_555 1_555
H21G C28G 1_555 1_555
C29G O1G 1_555 1_555
H22G C29G 1_555 1_555
H23G C29G 1_555 1_555
C30G C29G 1_555 1_555
H24G C30G 1_555 1_555
H25G C30G 1_555 1_555
C31G C30G 1_555 1_555
H26G C31G 1_555 1_555
H27G C31G 1_555 1_555
H28G C31G 1_555 1_555
O1I C21I 1_555 1_555
O2I C20I 1_555 1_555
O3I C23I 1_555 1_555
C16I H14I 1_555 1_555
H15I C16I 1_555 1_555
C17I C16I 1_555 1_555
C18I C16G 1_555 1_555
C19I C18I 1_555 1_555
H16I C19I 1_555 1_555
C20I C19I 1_555 1_555
C21I C20I 1_555 1_555
C22I C17I 1_555 1_555
H17I C22I 1_555 1_555
C23I O2I 1_555 1_555
N3I Pd1 1_555 1_555
C24I N3I 1_555 1_555
H18I C24I 1_555 1_555
C25I C24I 1_555 1_555
H19I C25I 1_555 1_555
C26I C23I 1_555 1_555
C27I C26I 1_555 1_555
H20I C27I 1_555 1_555
C28I N3I 1_555 1_555
H21I C28I 1_555 1_555
C29I O1I 1_555 1_555
H22I C29I 1_555 1_555
H23I C29I 1_555 1_555
C30I C29I 1_555 1_555
H24I C30I 1_555 1_555
H25I C30I 1_555 1_555
C31I C30I 1_555 1_555
H26I C31I 1_555 1_555
H27I C31I 1_555 1_555
H28I C31I 1_555 1_555
O1K C21K 1_555 1_555
O2K C20K 1_555 1_555
O3K C23K 1_555 1_555
C16K C18G 1_555 1_555
H14K C16K 1_555 1_555
H15K C16K 1_555 1_555
C17K C16K 1_555 1_555
C18K C16I 1_555 1_555
C19K C18K 1_555 1_555
H16K C19K 1_555 1_555
C20K C19K 1_555 1_555
C21K C20K 1_555 1_555
C22K C17K 1_555 1_555
H17K C22K 1_555 1_555
C23K O2K 1_555 1_555
N3K Pd1B 1_555 1_555
C24K N3K 1_555 1_555
H18K C24K 1_555 1_555
C25K C24K 1_555 1_555
H19K C25K 1_555 1_555
C26K C23K 1_555 1_555
C27K C26K 1_555 1_555
H20K C27K 1_555 1_555
C28K N3K 1_555 1_555
H21K C28K 1_555 1_555
C29K O1K 1_555 1_555
H22K C29K 1_555 1_555
H23K C29K 1_555 1_555
C30K C29K 1_555 1_555
H24K C30K 1_555 1_555
H25K C30K 1_555 1_555
C31K C30K 1_555 1_555
H26K C31K 1_555 1_555
H27K C31K 1_555 1_555
H28K C31K 1_555 1_555
F1I B1 1_555 1_555
F4I B2 1_555 1_555
H30I C32 1_555 1_555
C3 C4 1_555 1_555
C13 C14 1_555 1_555
C14 C15 1_555 1_555
C21 C22 1_555 1_555
C25 C26 1_555 1_555
C27 C28 1_555 1_555
C17B C18B 1_555 1_555
C21B C22B 1_555 1_555
C25B C26B 1_555 1_555
C27B C28B 1_555 1_555
C17D C18D 1_555 1_555
C21D C22D 1_555 1_555
C25D C26D 1_555 1_555
C27D C28D 1_555 1_555
N2I C2I 1_555 1_555
C3I C4I 1_555 1_555
C13I C14I 1_555 1_555
C14I C15I 1_555 1_555
N2B C2B 1_555 1_555
C3B C4B 1_555 1_555
C13B C14B 1_555 1_555
C14B C15B 1_555 1_555
N2K C2K 1_555 1_555
C3K C4K 1_555 1_555
C13K C14K 1_555 1_555
C14K C15K 1_555 1_555
N2D C2D 1_555 1_555
C3D C4D 1_555 1_555
C13D C14D 1_555 1_555
C14D C15D 1_555 1_555
N2G C2G 1_555 1_555
C3G C4G 1_555 1_555
C13G C14G 1_555 1_555
C14G C15G 1_555 1_555
C21G C22G 1_555 1_555
C25G C26G 1_555 1_555
C27G C28G 1_555 1_555
C17I C18I 1_555 1_555
C21I C22I 1_555 1_555
C25I C26I 1_555 1_555
C27I C28I 1_555 1_555
C17K C18K 1_555 1_555
C21K C22K 1_555 1_555
C25K C26K 1_555 1_555
C27K C28K 1_555 1_555

#END
