
#######################################################################
#
#                 Cambridge Crystallographic Data Centre
#                                CCDC 
#
#######################################################################
#
# If this CIF has been generated from an entry in the Cambridge 
# Structural Database, then it will include bibliographic, chemical, 
# crystal, experimental, refinement or atomic coordinate data resulting 
# from the CCDC's data processing and validation procedures.
#
#######################################################################

data_GUSSAQ
_chemical_name_common            
"bis(tris(2-methylisonicotinoyl)cyclotriguaiacylene)-tris(1,1'-methylenebis(3-(naphthalen-2-ylmethyl)-imidazol-2-ylidene))-tri-palladium(ii) hexakis(tetrafluoroborate) nitromethane solvate"
_chemical_formula_moiety         
'C177 H150 N18 O18 Pd3 6+,6(B1 F4 1-),8(C1 H3 N1 O2)'
_chemical_name_systematic        
"tris(1,1'-methylenebis(3-(naphthalen-2-ylmethyl)-imidazol-2-ylidene))-bis(3,8,13-trimethoxy-10,15-dihydro-5H-tribenzo[a,d,g][9]annulene-2,7,12-triyl tris(2-methylisonicotinate))-tri-palladium(ii) hexakis(tetrafluoroborate) nitromethane solvate"
_symmetry_cell_setting           hexagonal
_symmetry_space_group_name_H-M   'P 63/m'
_symmetry_Int_Tables_number      176
_space_group_name_Hall           '-P 6c'
loop_
_symmetry_equiv_pos_site_id
_symmetry_equiv_pos_as_xyz
1 x,y,z
2 x-y,x,1/2+z
3 -y,x-y,z
4 -x,-y,1/2+z
5 -x+y,-x,z
6 y,-x+y,1/2+z
7 -x,-y,-z
8 -x+y,-x,1/2-z
9 y,-x+y,-z
10 x,y,1/2-z
11 x-y,x,-z
12 -y,x-y,1/2-z
_cell_length_a                   25.2100(12)
_cell_length_b                   25.2100(12)
_cell_length_c                   20.5293(7)
_cell_angle_alpha                90
_cell_angle_beta                 90
_cell_angle_gamma                120
_cell_volume                     11299.3
_exptl_crystal_colour            yellow
_exptl_crystal_description       needle
_cell_formula_units_Z            2
loop_
_atom_site_label
_atom_site_type_symbol
_atom_site_fract_x
_atom_site_fract_y
_atom_site_fract_z
F1 F 0.7481(10) -0.0296(12) 0.2500
F2 F 0.8561(6) 0.0096(6) 0.2500
F3 F 0.7884(5) 0.0134(6) 0.3101(6)
B1 B 0.8035(12) 0.0189(13) 0.2500
F3I F 0.7884(5) 0.0134(6) 0.1899(6)
B2 B 1.1322(7) 0.4476(7) 0.2500
F4 F 1.1963(5) 0.4718(5) 0.2500
F5 F 1.1080(4) 0.3861(4) 0.2500
F6 F 1.1149(3) 0.4675(3) 0.3020(4)
F6I F 1.1149(3) 0.4675(3) 0.1980(4)
Pd1 Pd 0.95213(3) 0.19803(3) 0.2500
O1 O 0.8798(6) 0.4275(5) 0.4950(8)
N1 N 1.0594(3) 0.2026(3) 0.1923(3)
C1 C 1.0927(4) 0.2381(4) 0.2500
H1 H 1.0948 0.2783 0.2500
H2 H 1.1350 0.2450 0.2500
O2 O 0.8381(3) 0.3099(3) 0.4921(3)
N2 N 0.9833(3) 0.1428(2) 0.1342(3)
C2 C 0.9999(3) 0.1801(3) 0.1864(3)
O3 O 0.7478(3) 0.2470(5) 0.4422(4)
N3 N 0.9055(3) 0.2199(2) 0.3216(2)
C3 C 1.0831(4) 0.1795(4) 0.1456(4)
H3 H 1.1239 0.1874 0.1413
C4 C 1.0350(5) 0.1440(4) 0.1089(4)
H4 H 1.0358 0.1227 0.0710
C5 C 0.9233(4) 0.1070(3) 0.1087(4)
H5 H 0.8931 0.0999 0.1433
H6 H 0.9172 0.0667 0.0949
C6 C 0.9113(4) 0.1385(3) 0.0493(4)
C7 C 0.9597(4) 0.1840(4) 0.0111(4)
H7 H 1.0007 0.1968 0.0233
C8 C 0.9501(4) 0.2091(4) -0.0404(5)
H8 H 0.9837 0.2394 -0.0647
C9 C 0.8901(5) 0.1908(4) -0.0590(4)
C10 C 0.8736(7) 0.2133(6) -0.1199(5)
H9 H 0.9058 0.2421 -0.1469
C11 C 0.8198(7) 0.1958(6) -0.1362(6)
H10 H 0.8117 0.2110 -0.1750
C12 C 0.7668(6) 0.1498(5) -0.0938(7)
H11 H 0.7255 0.1358 -0.1060
C13 C 0.7794(5) 0.1300(5) -0.0402(7)
H12 H 0.7466 0.1028 -0.0129
C14 C 0.8386(4) 0.1473(4) -0.0222(5)
C15 C 0.8552(4) 0.1228(3) 0.0340(4)
H13 H 0.8232 0.0937 0.0608
C16 C 0.7277(4) 0.4091(4) 0.6582(4)
H14 H 0.7056 0.3817 0.6952
H15 H 0.7598 0.4490 0.6756
C17 C 0.7358(4) 0.3178(4) 0.6139(4)
C18 C 0.7573(4) 0.3793(5) 0.6131(4)
C19 C 0.8043(5) 0.4165(4) 0.5707(6)
H16 H 0.8174 0.4589 0.5685
C20 C 0.8314(6) 0.3939(6) 0.5331(6)
C21 C 0.8089(5) 0.3320(5) 0.5341(5)
C22 C 0.7631(5) 0.2958(4) 0.5736(4)
H17 H 0.7490 0.2531 0.5737
C23 C 0.8022(6) 0.2707(6) 0.4477(4)
C24 C 0.8397(4) 0.2506(5) 0.4057(4)
C25 C 0.9029(4) 0.2851(4) 0.4022(4)
H18 H 0.9243 0.3194 0.4302
C26 C 0.9354(4) 0.2704(3) 0.3583(4)
C27 C 0.8450(3) 0.1840(4) 0.3273(4)
H19 H 0.8249 0.1469 0.3032
C28 C 0.8111(4) 0.1993(4) 0.3671(4)
H20 H 0.7678 0.1744 0.3681
C29 C 1.0023(4) 0.3084(4) 0.3539(4)
H21 H 1.0176 0.2920 0.3201
H22 H 1.0206 0.3082 0.3959
H23 H 1.0133 0.3505 0.3427
C30 C 0.9106(11) 0.4979(11) 0.5166(15)
H24 H 0.9459 0.5229 0.4885
H25 H 0.9242 0.5021 0.5620
H26 H 0.8806 0.5116 0.5124
O1B O 0.5725(5) 0.4523(8) 0.4950(8)
O2B O 0.6901(3) 0.5282(4) 0.4921(3)
O3B O 0.7530(5) 0.5008(6) 0.4422(4)
N3B N 0.7801(2) 0.6856(4) 0.3216(2)
C16B C 0.5909(4) 0.3186(6) 0.6582(4)
H14B H 0.6183 0.3239 0.6952
H15B H 0.5510 0.3108 0.6756
C17B C 0.6822(4) 0.4180(6) 0.6139(4)
C18B C 0.6207(5) 0.3780(6) 0.6131(4)
C19B C 0.5835(4) 0.3878(6) 0.5707(6)
H16B H 0.5411 0.3585 0.5685
C20B C 0.6061(6) 0.4375(8) 0.5331(6)
C21B C 0.6680(5) 0.4769(7) 0.5341(5)
C22B C 0.7042(4) 0.4673(6) 0.5736(4)
H17B H 0.7469 0.4959 0.5737
C23B C 0.7293(6) 0.5315(8) 0.4477(4)
C24B C 0.7494(5) 0.5891(6) 0.4057(4)
C25B C 0.7149(4) 0.6178(6) 0.4022(4)
H18B H 0.6806 0.6049 0.4302
C26B C 0.7296(3) 0.6650(5) 0.3583(4)
C27B C 0.8160(4) 0.6610(5) 0.3273(4)
H19B H 0.8531 0.6780 0.3032
C28B C 0.8007(4) 0.6118(6) 0.3671(4)
H20B H 0.8256 0.5934 0.3681
C29B C 0.6916(4) 0.6939(6) 0.3539(4)
H21B H 0.7080 0.7256 0.3201
H22B H 0.6918 0.7124 0.3959
H23B H 0.6495 0.6628 0.3427
C30B C 0.5021(11) 0.4127(16) 0.5166(15)
H24B H 0.4771 0.4230 0.4885
H25B H 0.4979 0.4221 0.5620
H26B H 0.4884 0.3690 0.5124
O1D O 0.5477(8) 0.1202(6) 0.4950(8)
O2D O 0.4718(4) 0.1619(3) 0.4921(3)
O3D O 0.4992(6) 0.2522(3) 0.4422(4)
N3D N 0.3144(4) 0.0945(3) 0.3216(2)
C16D C 0.6814(6) 0.2723(4) 0.6582(4)
H14D H 0.6761 0.2944 0.6952
H15D H 0.6892 0.2402 0.6756
C17D C 0.5820(6) 0.2642(4) 0.6139(4)
C18D C 0.6220(6) 0.2427(4) 0.6131(4)
C19D C 0.6122(6) 0.1957(5) 0.5707(6)
H16D H 0.6415 0.1826 0.5685
C20D C 0.5625(8) 0.1686(6) 0.5331(6)
C21D C 0.5231(7) 0.1911(5) 0.5341(5)
C22D C 0.5327(6) 0.2369(5) 0.5736(4)
H17D H 0.5041 0.2510 0.5737
C23D C 0.4685(8) 0.1978(6) 0.4477(4)
C24D C 0.4109(6) 0.1603(4) 0.4057(4)
C25D C 0.3822(6) 0.0971(4) 0.4022(4)
H18D H 0.3951 0.0757 0.4302
C26D C 0.3350(5) 0.0646(4) 0.3583(4)
C27D C 0.3390(5) 0.1550(3) 0.3273(4)
H19D H 0.3220 0.1751 0.3032
C28D C 0.3882(6) 0.1889(4) 0.3671(4)
H20D H 0.4066 0.2322 0.3681
C29D C 0.3061(6) -0.0023(4) 0.3539(4)
H21D H 0.2744 -0.0176 0.3201
H22D H 0.2876 -0.0206 0.3959
H23D H 0.3372 -0.0133 0.3427
C30D C 0.5873(16) 0.0894(11) 0.5166(15)
H24D H 0.5770 0.0541 0.4885
H25D H 0.5779 0.0758 0.5620
H26D H 0.6310 0.1194 0.5124
N1I N 1.0594(3) 0.2026(3) 0.3077(3)
N2I N 0.9833(3) 0.1428(2) 0.3658(3)
C2I C 0.9999(3) 0.1801(3) 0.3136(3)
C3I C 1.0831(4) 0.1795(4) 0.3544(4)
H3I H 1.1239 0.1874 0.3587
C4I C 1.0350(5) 0.1440(4) 0.3911(4)
H4I H 1.0358 0.1227 0.4290
C5I C 0.9233(4) 0.1070(3) 0.3913(4)
H5I H 0.8931 0.0999 0.3567
H6I H 0.9172 0.0667 0.4051
C6I C 0.9113(4) 0.1385(3) 0.4507(4)
C7I C 0.9597(4) 0.1840(4) 0.4889(4)
H7I H 1.0007 0.1968 0.4767
C8I C 0.9501(4) 0.2091(4) 0.5404(5)
H8I H 0.9837 0.2394 0.5647
C9I C 0.8901(5) 0.1908(4) 0.5590(4)
C10I C 0.8736(7) 0.2133(6) 0.6199(5)
H9I H 0.9058 0.2421 0.6469
C11I C 0.8198(7) 0.1958(6) 0.6362(6)
H10I H 0.8117 0.2110 0.6750
C12I C 0.7668(6) 0.1498(5) 0.5938(7)
H11I H 0.7255 0.1358 0.6060
C13I C 0.7794(5) 0.1300(5) 0.5402(7)
H12I H 0.7466 0.1028 0.5129
C14I C 0.8386(4) 0.1473(4) 0.5222(5)
C15I C 0.8552(4) 0.1228(3) 0.4660(4)
H13I H 0.8232 0.0937 0.4392
Pd1B Pd 0.80197(3) 0.75410(4) 0.2500
N1B N 0.7974(3) 0.8568(4) 0.1923(3)
C1B C 0.7619(4) 0.8546(6) 0.2500
H1B H 0.7217 0.8165 0.2500
H2B H 0.7550 0.8900 0.2500
N2B N 0.8572(2) 0.8405(4) 0.1342(3)
C2B C 0.8199(3) 0.8198(4) 0.1864(3)
C3B C 0.8205(4) 0.9036(6) 0.1456(4)
H3B H 0.8126 0.9365 0.1413
C4B C 0.8560(4) 0.8910(6) 0.1089(4)
H4B H 0.8773 0.9131 0.0710
C5B C 0.8930(3) 0.8163(5) 0.1087(4)
H5B H 0.9001 0.7932 0.1433
H6B H 0.9333 0.8505 0.0949
C6B C 0.8615(3) 0.7728(5) 0.0493(4)
C7B C 0.8160(4) 0.7757(6) 0.0111(4)
H7B H 0.8032 0.8039 0.0233
C8B C 0.7909(4) 0.7410(6) -0.0404(5)
H8B H 0.7606 0.7443 -0.0647
C9B C 0.8092(4) 0.6993(6) -0.0590(4)
C10B C 0.7867(6) 0.6603(9) -0.1199(5)
H9B H 0.7579 0.6637 -0.1469
C11B C 0.8042(6) 0.6240(9) -0.1362(6)
H10B H 0.7890 0.6007 -0.1750
C12B C 0.8502(5) 0.6170(8) -0.0938(7)
H11B H 0.8642 0.5897 -0.1060
C13B C 0.8700(5) 0.6494(7) -0.0402(7)
H12B H 0.8972 0.6438 -0.0129
C14B C 0.8527(4) 0.6913(6) -0.0222(5)
C15B C 0.8772(3) 0.7324(5) 0.0340(4)
H13B H 0.9063 0.7295 0.0608
N1K N 0.7974(3) 0.8568(4) 0.3077(3)
N2K N 0.8572(2) 0.8405(4) 0.3658(3)
C2K C 0.8199(3) 0.8198(4) 0.3136(3)
C3K C 0.8205(4) 0.9036(6) 0.3544(4)
H3K H 0.8126 0.9365 0.3587
C4K C 0.8560(4) 0.8910(6) 0.3911(4)
H4K H 0.8773 0.9131 0.4290
C5K C 0.8930(3) 0.8163(5) 0.3913(4)
H5K H 0.9001 0.7932 0.3567
H6K H 0.9333 0.8505 0.4051
C6K C 0.8615(3) 0.7728(5) 0.4507(4)
C7K C 0.8160(4) 0.7757(6) 0.4889(4)
H7K H 0.8032 0.8039 0.4767
C8K C 0.7909(4) 0.7410(6) 0.5404(5)
H8K H 0.7606 0.7443 0.5647
C9K C 0.8092(4) 0.6993(6) 0.5590(4)
C10K C 0.7867(6) 0.6603(9) 0.6199(5)
H9K H 0.7579 0.6637 0.6469
C11K C 0.8042(6) 0.6240(9) 0.6362(6)
H10K H 0.7890 0.6007 0.6750
C12K C 0.8502(5) 0.6170(8) 0.5938(7)
H11K H 0.8642 0.5897 0.6060
C13K C 0.8700(5) 0.6494(7) 0.5402(7)
H12K H 0.8972 0.6438 0.5129
C14K C 0.8527(4) 0.6913(6) 0.5222(5)
C15K C 0.8772(3) 0.7324(5) 0.4660(4)
H13K H 0.9063 0.7295 0.4392
Pd1D Pd 0.24590(4) 0.04787(3) 0.2500
N1D N 0.1432(4) -0.0594(3) 0.1923(3)
C1D C 0.1454(6) -0.0927(4) 0.2500
H1D H 0.1835 -0.0948 0.2500
H2D H 0.1100 -0.1350 0.2500
N2D N 0.1595(4) 0.0167(3) 0.1342(3)
C2D C 0.1802(4) 0.0001(3) 0.1864(3)
C3D C 0.0964(6) -0.0831(4) 0.1456(4)
H3D H 0.0635 -0.1239 0.1413
C4D C 0.1090(6) -0.0350(5) 0.1089(4)
H4D H 0.0869 -0.0358 0.0710
C5D C 0.1837(5) 0.0767(4) 0.1087(4)
H5D H 0.2068 0.1069 0.1433
H6D H 0.1495 0.0828 0.0949
C6D C 0.2272(5) 0.0887(4) 0.0493(4)
C7D C 0.2243(6) 0.0403(4) 0.0111(4)
H7D H 0.1961 -0.0007 0.0233
C8D C 0.2590(6) 0.0499(4) -0.0404(5)
H8D H 0.2557 0.0163 -0.0647
C9D C 0.3007(6) 0.1099(5) -0.0590(4)
C10D C 0.3397(9) 0.1264(7) -0.1199(5)
H9D H 0.3363 0.0942 -0.1469
C11D C 0.3760(9) 0.1802(7) -0.1362(6)
H10D H 0.3993 0.1883 -0.1750
C12D C 0.3830(8) 0.2332(6) -0.0938(7)
H11D H 0.4103 0.2745 -0.1060
C13D C 0.3506(7) 0.2206(5) -0.0402(7)
H12D H 0.3562 0.2534 -0.0129
C14D C 0.3087(6) 0.1614(4) -0.0222(5)
C15D C 0.2676(5) 0.1448(4) 0.0340(4)
H13D H 0.2705 0.1768 0.0608
N1G N 0.1432(4) -0.0594(3) 0.3077(3)
N2G N 0.1595(4) 0.0167(3) 0.3658(3)
C2G C 0.1802(4) 0.0001(3) 0.3136(3)
C3G C 0.0964(6) -0.0831(4) 0.3544(4)
H3G H 0.0635 -0.1239 0.3587
C4G C 0.1090(6) -0.0350(5) 0.3911(4)
H4G H 0.0869 -0.0358 0.4290
C5G C 0.1837(5) 0.0767(4) 0.3913(4)
H5G H 0.2068 0.1069 0.3567
H6G H 0.1495 0.0828 0.4051
C6G C 0.2272(5) 0.0887(4) 0.4507(4)
C7G C 0.2243(6) 0.0403(4) 0.4889(4)
H7G H 0.1961 -0.0007 0.4767
C8G C 0.2590(6) 0.0499(4) 0.5404(5)
H8G H 0.2557 0.0163 0.5647
C9G C 0.3007(6) 0.1099(5) 0.5590(4)
C10G C 0.3397(9) 0.1264(7) 0.6199(5)
H9G H 0.3363 0.0942 0.6469
C11G C 0.3760(9) 0.1802(7) 0.6362(6)
H10G H 0.3993 0.1883 0.6750
C12G C 0.3830(8) 0.2332(6) 0.5938(7)
H11G H 0.4103 0.2745 0.6060
C13G C 0.3506(7) 0.2206(5) 0.5402(7)
H12G H 0.3562 0.2534 0.5129
C14G C 0.3087(6) 0.1614(4) 0.5222(5)
C15G C 0.2676(5) 0.1448(4) 0.4660(4)
H13G H 0.2705 0.1768 0.4392
O1G O 0.5477(8) 0.1202(6) 0.0050(8)
O2G O 0.4718(4) 0.1619(3) 0.0079(3)
O3G O 0.4992(6) 0.2522(3) 0.0578(4)
N3G N 0.3144(4) 0.0945(3) 0.1784(2)
C16G C 0.6814(6) 0.2723(4) -0.1582(4)
H14G H 0.6761 0.2944 -0.1952
H15G H 0.6892 0.2402 -0.1756
C17G C 0.5820(6) 0.2642(4) -0.1139(4)
C18G C 0.6220(6) 0.2427(4) -0.1131(4)
C19G C 0.6122(6) 0.1957(5) -0.0707(6)
H16G H 0.6415 0.1826 -0.0685
C20G C 0.5625(8) 0.1686(6) -0.0331(6)
C21G C 0.5231(7) 0.1911(5) -0.0341(5)
C22G C 0.5327(6) 0.2369(5) -0.0736(4)
H17G H 0.5041 0.2510 -0.0737
C23G C 0.4685(8) 0.1978(6) 0.0523(4)
C24G C 0.4109(6) 0.1603(4) 0.0943(4)
C25G C 0.3822(6) 0.0971(4) 0.0978(4)
H18G H 0.3951 0.0757 0.0698
C26G C 0.3350(5) 0.0646(4) 0.1417(4)
C27G C 0.3390(5) 0.1550(3) 0.1727(4)
H19G H 0.3220 0.1751 0.1968
C28G C 0.3882(6) 0.1889(4) 0.1329(4)
H20G H 0.4066 0.2322 0.1319
C29G C 0.3061(6) -0.0023(4) 0.1461(4)
H21G H 0.2744 -0.0176 0.1799
H22G H 0.2876 -0.0206 0.1041
H23G H 0.3372 -0.0133 0.1573
C30G C 0.5873(16) 0.0894(11) -0.0166(15)
H24G H 0.5770 0.0541 0.0115
H25G H 0.5779 0.0758 -0.0620
H26G H 0.6310 0.1194 -0.0124
O1I O 0.8798(6) 0.4275(5) 0.0050(8)
O2I O 0.8381(3) 0.3099(3) 0.0079(3)
O3I O 0.7478(3) 0.2470(5) 0.0578(4)
N3I N 0.9055(3) 0.2199(2) 0.1784(2)
C16I C 0.7277(4) 0.4091(4) -0.1582(4)
H14I H 0.7056 0.3817 -0.1952
H15I H 0.7598 0.4490 -0.1756
C17I C 0.7358(4) 0.3178(4) -0.1139(4)
C18I C 0.7573(4) 0.3793(5) -0.1131(4)
C19I C 0.8043(5) 0.4165(4) -0.0707(6)
H16I H 0.8174 0.4589 -0.0685
C20I C 0.8314(6) 0.3939(6) -0.0331(6)
C21I C 0.8089(5) 0.3320(5) -0.0341(5)
C22I C 0.7631(5) 0.2958(4) -0.0736(4)
H17I H 0.7490 0.2531 -0.0737
C23I C 0.8022(6) 0.2707(6) 0.0523(4)
C24I C 0.8397(4) 0.2506(5) 0.0943(4)
C25I C 0.9029(4) 0.2851(4) 0.0978(4)
H18I H 0.9243 0.3194 0.0698
C26I C 0.9354(4) 0.2704(3) 0.1417(4)
C27I C 0.8450(3) 0.1840(4) 0.1727(4)
H19I H 0.8249 0.1469 0.1968
C28I C 0.8111(4) 0.1993(4) 0.1329(4)
H20I H 0.7678 0.1744 0.1319
C29I C 1.0023(4) 0.3084(4) 0.1461(4)
H21I H 1.0176 0.2920 0.1799
H22I H 1.0206 0.3082 0.1041
H23I H 1.0133 0.3505 0.1573
C30I C 0.9106(11) 0.4979(11) -0.0166(15)
H24I H 0.9459 0.5229 0.0115
H25I H 0.9242 0.5021 -0.0620
H26I H 0.8806 0.5116 -0.0124
O1K O 0.5725(5) 0.4523(8) 0.0050(8)
O2K O 0.6901(3) 0.5282(4) 0.0079(3)
O3K O 0.7530(5) 0.5008(6) 0.0578(4)
N3K N 0.7801(2) 0.6856(4) 0.1784(2)
C16K C 0.5909(4) 0.3186(6) -0.1582(4)
H14K H 0.6183 0.3239 -0.1952
H15K H 0.5510 0.3108 -0.1756
C17K C 0.6822(4) 0.4180(6) -0.1139(4)
C18K C 0.6207(5) 0.3780(6) -0.1131(4)
C19K C 0.5835(4) 0.3878(6) -0.0707(6)
H16K H 0.5411 0.3585 -0.0685
C20K C 0.6061(6) 0.4375(8) -0.0331(6)
C21K C 0.6680(5) 0.4769(7) -0.0341(5)
C22K C 0.7042(4) 0.4673(6) -0.0736(4)
H17K H 0.7469 0.4959 -0.0737
C23K C 0.7293(6) 0.5315(8) 0.0523(4)
C24K C 0.7494(5) 0.5891(6) 0.0943(4)
C25K C 0.7149(4) 0.6178(6) 0.0978(4)
H18K H 0.6806 0.6049 0.0698
C26K C 0.7296(3) 0.6650(5) 0.1417(4)
C27K C 0.8160(4) 0.6610(5) 0.1727(4)
H19K H 0.8531 0.6780 0.1968
C28K C 0.8007(4) 0.6118(6) 0.1329(4)
H20K H 0.8256 0.5934 0.1319
C29K C 0.6916(4) 0.6939(6) 0.1461(4)
H21K H 0.7080 0.7256 0.1799
H22K H 0.6918 0.7124 0.1041
H23K H 0.6495 0.6628 0.1573
C30K C 0.5021(11) 0.4127(16) -0.0166(15)
H24K H 0.4771 0.4230 0.0115
H25K H 0.4979 0.4221 -0.0620
H26K H 0.4884 0.3690 -0.0124
loop_
_geom_bond_atom_site_label_1
_geom_bond_atom_site_label_2
_geom_bond_site_symmetry_1
_geom_bond_site_symmetry_2
Pd1 C2 1_555 1_555
O1 C20 1_555 1_555
N1 C1 1_555 1_555
C1 H1 1_555 1_555
H2 C1 1_555 1_555
O2 C21 1_555 1_555
N2 C2 1_555 1_555
C2 N1 1_555 1_555
O3 C23 1_555 1_555
N3 Pd1 1_555 1_555
C3 N1 1_555 1_555
H3 C3 1_555 1_555
C4 N2 1_555 1_555
H4 C4 1_555 1_555
C5 N2 1_555 1_555
H5 C5 1_555 1_555
H6 C5 1_555 1_555
C6 C5 1_555 1_555
C7 C6 1_555 1_555
H7 C7 1_555 1_555
C8 C7 1_555 1_555
H8 C8 1_555 1_555
C9 C8 1_555 1_555
C10 C9 1_555 1_555
H9 C10 1_555 1_555
C11 C10 1_555 1_555
H10 C11 1_555 1_555
C12 C11 1_555 1_555
H11 C12 1_555 1_555
C13 C12 1_555 1_555
H12 C13 1_555 1_555
C14 C9 1_555 1_555
C15 C6 1_555 1_555
H13 C15 1_555 1_555
C16 H14 1_555 1_555
H15 C16 1_555 1_555
C17 C18 1_555 1_555
C18 C16 1_555 1_555
C19 C18 1_555 1_555
H16 C19 1_555 1_555
C20 C19 1_555 1_555
C21 C20 1_555 1_555
C22 C17 1_555 1_555
H17 C22 1_555 1_555
C23 O2 1_555 1_555
C24 C23 1_555 1_555
C25 C24 1_555 1_555
H18 C25 1_555 1_555
C26 N3 1_555 1_555
C27 N3 1_555 1_555
H19 C27 1_555 1_555
C28 C24 1_555 1_555
H20 C28 1_555 1_555
C29 C26 1_555 1_555
H21 C29 1_555 1_555
H22 C29 1_555 1_555
H23 C29 1_555 1_555
C30 O1 1_555 1_555
H24 C30 1_555 1_555
H25 C30 1_555 1_555
H26 C30 1_555 1_555
F1 B1 1_555 1_555
F2 B1 1_555 1_555
F3 B1 1_555 1_555
B1 F3I 1_555 1_555
B2 F4 1_555 1_555
F5 B2 1_555 1_555
F6 B2 1_555 1_555
O1B C20B 1_555 1_555
O2B C21B 1_555 1_555
O3B C23B 1_555 1_555
N3B C26B 1_555 1_555
C16B H14B 1_555 1_555
H15B C16B 1_555 1_555
C17B C16 1_555 1_555
C18B C16B 1_555 1_555
C19B C18B 1_555 1_555
H16B C19B 1_555 1_555
C20B C19B 1_555 1_555
C21B C20B 1_555 1_555
C22B C17B 1_555 1_555
H17B C22B 1_555 1_555
C23B O2B 1_555 1_555
C24B C23B 1_555 1_555
C25B C24B 1_555 1_555
H18B C25B 1_555 1_555
C26B C25B 1_555 1_555
C27B N3B 1_555 1_555
H19B C27B 1_555 1_555
C28B C24B 1_555 1_555
H20B C28B 1_555 1_555
C29B C26B 1_555 1_555
H21B C29B 1_555 1_555
H22B C29B 1_555 1_555
H23B C29B 1_555 1_555
C30B O1B 1_555 1_555
H24B C30B 1_555 1_555
H25B C30B 1_555 1_555
H26B C30B 1_555 1_555
O1D C20D 1_555 1_555
O2D C21D 1_555 1_555
O3D C23D 1_555 1_555
N3D C26D 1_555 1_555
C16D C17 1_555 1_555
H14D C16D 1_555 1_555
H15D C16D 1_555 1_555
C17D C16B 1_555 1_555
C18D C16D 1_555 1_555
C19D C18D 1_555 1_555
H16D C19D 1_555 1_555
C20D C19D 1_555 1_555
C21D C20D 1_555 1_555
C22D C17D 1_555 1_555
H17D C22D 1_555 1_555
C23D O2D 1_555 1_555
C24D C23D 1_555 1_555
C25D C24D 1_555 1_555
H18D C25D 1_555 1_555
C26D C25D 1_555 1_555
C27D N3D 1_555 1_555
H19D C27D 1_555 1_555
C28D C24D 1_555 1_555
H20D C28D 1_555 1_555
C29D C26D 1_555 1_555
H21D C29D 1_555 1_555
H22D C29D 1_555 1_555
H23D C29D 1_555 1_555
C30D O1D 1_555 1_555
H24D C30D 1_555 1_555
H25D C30D 1_555 1_555
H26D C30D 1_555 1_555
N1I C1 1_555 1_555
N2I C2I 1_555 1_555
C2I Pd1 1_555 1_555
C3I N1I 1_555 1_555
H3I C3I 1_555 1_555
C4I N2I 1_555 1_555
H4I C4I 1_555 1_555
C5I N2I 1_555 1_555
H5I C5I 1_555 1_555
H6I C5I 1_555 1_555
C6I C5I 1_555 1_555
C7I C6I 1_555 1_555
H7I C7I 1_555 1_555
C8I C7I 1_555 1_555
H8I C8I 1_555 1_555
C9I C8I 1_555 1_555
C10I C9I 1_555 1_555
H9I C10I 1_555 1_555
C11I C10I 1_555 1_555
H10I C11I 1_555 1_555
C12I C11I 1_555 1_555
H11I C12I 1_555 1_555
C13I C12I 1_555 1_555
H12I C13I 1_555 1_555
C14I C9I 1_555 1_555
C15I C6I 1_555 1_555
H13I C15I 1_555 1_555
Pd1B N3B 1_555 1_555
N1B C1B 1_555 1_555
C1B H1B 1_555 1_555
H2B C1B 1_555 1_555
N2B C2B 1_555 1_555
C2B Pd1B 1_555 1_555
C3B N1B 1_555 1_555
H3B C3B 1_555 1_555
C4B N2B 1_555 1_555
H4B C4B 1_555 1_555
C5B N2B 1_555 1_555
H5B C5B 1_555 1_555
H6B C5B 1_555 1_555
C6B C5B 1_555 1_555
C7B C6B 1_555 1_555
H7B C7B 1_555 1_555
C8B C7B 1_555 1_555
H8B C8B 1_555 1_555
C9B C8B 1_555 1_555
C10B C9B 1_555 1_555
H9B C10B 1_555 1_555
C11B C10B 1_555 1_555
H10B C11B 1_555 1_555
C12B C11B 1_555 1_555
H11B C12B 1_555 1_555
C13B C12B 1_555 1_555
H12B C13B 1_555 1_555
C14B C9B 1_555 1_555
C15B C6B 1_555 1_555
H13B C15B 1_555 1_555
N1K C1B 1_555 1_555
N2K C2K 1_555 1_555
C2K Pd1B 1_555 1_555
C3K N1K 1_555 1_555
H3K C3K 1_555 1_555
C4K N2K 1_555 1_555
H4K C4K 1_555 1_555
C5K N2K 1_555 1_555
H5K C5K 1_555 1_555
H6K C5K 1_555 1_555
C6K C5K 1_555 1_555
C7K C6K 1_555 1_555
H7K C7K 1_555 1_555
C8K C7K 1_555 1_555
H8K C8K 1_555 1_555
C9K C8K 1_555 1_555
C10K C9K 1_555 1_555
H9K C10K 1_555 1_555
C11K C10K 1_555 1_555
H10K C11K 1_555 1_555
C12K C11K 1_555 1_555
H11K C12K 1_555 1_555
C13K C12K 1_555 1_555
H12K C13K 1_555 1_555
C14K C9K 1_555 1_555
C15K C6K 1_555 1_555
H13K C15K 1_555 1_555
Pd1D N3D 1_555 1_555
N1D C1D 1_555 1_555
C1D H1D 1_555 1_555
H2D C1D 1_555 1_555
N2D C2D 1_555 1_555
C2D Pd1D 1_555 1_555
C3D N1D 1_555 1_555
H3D C3D 1_555 1_555
C4D N2D 1_555 1_555
H4D C4D 1_555 1_555
C5D N2D 1_555 1_555
H5D C5D 1_555 1_555
H6D C5D 1_555 1_555
C6D C5D 1_555 1_555
C7D C6D 1_555 1_555
H7D C7D 1_555 1_555
C8D C7D 1_555 1_555
H8D C8D 1_555 1_555
C9D C8D 1_555 1_555
C10D C9D 1_555 1_555
H9D C10D 1_555 1_555
C11D C10D 1_555 1_555
H10D C11D 1_555 1_555
C12D C11D 1_555 1_555
H11D C12D 1_555 1_555
C13D C12D 1_555 1_555
H12D C13D 1_555 1_555
C14D C9D 1_555 1_555
C15D C6D 1_555 1_555
H13D C15D 1_555 1_555
N1G C1D 1_555 1_555
N2G C2G 1_555 1_555
C2G Pd1D 1_555 1_555
C3G N1G 1_555 1_555
H3G C3G 1_555 1_555
C4G N2G 1_555 1_555
H4G C4G 1_555 1_555
C5G N2G 1_555 1_555
H5G C5G 1_555 1_555
H6G C5G 1_555 1_555
C6G C5G 1_555 1_555
C7G C6G 1_555 1_555
H7G C7G 1_555 1_555
C8G C7G 1_555 1_555
H8G C8G 1_555 1_555
C9G C8G 1_555 1_555
C10G C9G 1_555 1_555
H9G C10G 1_555 1_555
C11G C10G 1_555 1_555
H10G C11G 1_555 1_555
C12G C11G 1_555 1_555
H11G C12G 1_555 1_555
C13G C12G 1_555 1_555
H12G C13G 1_555 1_555
C14G C9G 1_555 1_555
C15G C6G 1_555 1_555
H13G C15G 1_555 1_555
O1G C20G 1_555 1_555
O2G C21G 1_555 1_555
O3G C23G 1_555 1_555
N3G Pd1D 1_555 1_555
C16G H14G 1_555 1_555
H15G C16G 1_555 1_555
C17G C18G 1_555 1_555
C18G C16G 1_555 1_555
C19G C18G 1_555 1_555
H16G C19G 1_555 1_555
C20G C19G 1_555 1_555
C21G C20G 1_555 1_555
C22G C17G 1_555 1_555
H17G C22G 1_555 1_555
C23G O2G 1_555 1_555
C24G C23G 1_555 1_555
C25G C24G 1_555 1_555
H18G C25G 1_555 1_555
C26G N3G 1_555 1_555
C27G N3G 1_555 1_555
H19G C27G 1_555 1_555
C28G C24G 1_555 1_555
H20G C28G 1_555 1_555
C29G C26G 1_555 1_555
H21G C29G 1_555 1_555
H22G C29G 1_555 1_555
H23G C29G 1_555 1_555
C30G O1G 1_555 1_555
H24G C30G 1_555 1_555
H25G C30G 1_555 1_555
H26G C30G 1_555 1_555
O1I C20I 1_555 1_555
O2I C21I 1_555 1_555
O3I C23I 1_555 1_555
N3I Pd1 1_555 1_555
C16I H14I 1_555 1_555
H15I C16I 1_555 1_555
C17I C16G 1_555 1_555
C18I C16I 1_555 1_555
C19I C18I 1_555 1_555
H16I C19I 1_555 1_555
C20I C19I 1_555 1_555
C21I C20I 1_555 1_555
C22I C17I 1_555 1_555
H17I C22I 1_555 1_555
C23I O2I 1_555 1_555
C24I C23I 1_555 1_555
C25I C24I 1_555 1_555
H18I C25I 1_555 1_555
C26I N3I 1_555 1_555
C27I N3I 1_555 1_555
H19I C27I 1_555 1_555
C28I C24I 1_555 1_555
H20I C28I 1_555 1_555
C29I C26I 1_555 1_555
H21I C29I 1_555 1_555
H22I C29I 1_555 1_555
H23I C29I 1_555 1_555
C30I O1I 1_555 1_555
H24I C30I 1_555 1_555
H25I C30I 1_555 1_555
H26I C30I 1_555 1_555
O1K C20K 1_555 1_555
O2K C21K 1_555 1_555
O3K C23K 1_555 1_555
N3K Pd1B 1_555 1_555
C16K C17G 1_555 1_555
H14K C16K 1_555 1_555
H15K C16K 1_555 1_555
C17K C16I 1_555 1_555
C18K C16K 1_555 1_555
C19K C18K 1_555 1_555
H16K C19K 1_555 1_555
C20K C19K 1_555 1_555
C21K C20K 1_555 1_555
C22K C17K 1_555 1_555
H17K C22K 1_555 1_555
C23K O2K 1_555 1_555
C24K C23K 1_555 1_555
C25K C24K 1_555 1_555
H18K C25K 1_555 1_555
C26K N3K 1_555 1_555
C27K N3K 1_555 1_555
H19K C27K 1_555 1_555
C28K C24K 1_555 1_555
H20K C28K 1_555 1_555
C29K C26K 1_555 1_555
H21K C29K 1_555 1_555
H22K C29K 1_555 1_555
H23K C29K 1_555 1_555
C30K O1K 1_555 1_555
H24K C30K 1_555 1_555
H25K C30K 1_555 1_555
H26K C30K 1_555 1_555
F6I B2 1_555 1_555
C3 C4 1_555 1_555
C13 C14 1_555 1_555
C14 C15 1_555 1_555
C21 C22 1_555 1_555
C25 C26 1_555 1_555
C27 C28 1_555 1_555
C17B C18B 1_555 1_555
C21B C22B 1_555 1_555
C27B C28B 1_555 1_555
C17D C18D 1_555 1_555
C21D C22D 1_555 1_555
C27D C28D 1_555 1_555
N1I C2I 1_555 1_555
C3I C4I 1_555 1_555
C13I C14I 1_555 1_555
C14I C15I 1_555 1_555
N1B C2B 1_555 1_555
C3B C4B 1_555 1_555
C13B C14B 1_555 1_555
C14B C15B 1_555 1_555
N1K C2K 1_555 1_555
C3K C4K 1_555 1_555
C13K C14K 1_555 1_555
C14K C15K 1_555 1_555
N1D C2D 1_555 1_555
C3D C4D 1_555 1_555
C13D C14D 1_555 1_555
C14D C15D 1_555 1_555
N1G C2G 1_555 1_555
C3G C4G 1_555 1_555
C13G C14G 1_555 1_555
C14G C15G 1_555 1_555
C21G C22G 1_555 1_555
C25G C26G 1_555 1_555
C27G C28G 1_555 1_555
C17I C18I 1_555 1_555
C21I C22I 1_555 1_555
C25I C26I 1_555 1_555
C27I C28I 1_555 1_555
C17K C18K 1_555 1_555
C21K C22K 1_555 1_555
C25K C26K 1_555 1_555
C27K C28K 1_555 1_555

#END
