
#######################################################################
#
#                 Cambridge Crystallographic Data Centre
#                                CCDC 
#
#######################################################################
#
# If this CIF has been generated from an entry in the Cambridge 
# Structural Database, then it will include bibliographic, chemical, 
# crystal, experimental, refinement or atomic coordinate data resulting 
# from the CCDC's data processing and validation procedures.
#
#######################################################################

data_GUWNUH
_chemical_formula_moiety         
'C66 H48 N12 Pd3 6+,6(N1 O3 1-),2(C4 H10 O1),C1 H4 O1,7.5(H2 O1)'
_chemical_name_systematic        
"tris((\m~2~-4,7-Phananthroline)-(2,2'-bipyridyl)-palladium(ii)) hexanitrate diethyl ether methanol solvate hydrate"
_symmetry_cell_setting           monoclinic
_symmetry_space_group_name_H-M   'C 2/c'
_symmetry_Int_Tables_number      15
_space_group_name_Hall           '-C 2yn'
loop_
_symmetry_equiv_pos_site_id
_symmetry_equiv_pos_as_xyz
1 x,y,z
2 1/2+x,1/2+y,z
3 -x,y,1/2-z
4 1/2-x,1/2+y,1/2-z
5 -x,-y,-z
6 1/2-x,1/2-y,-z
7 x,-y,1/2+z
8 1/2+x,1/2-y,1/2+z
_cell_length_a                   39.366(8)
_cell_length_b                   24.887(5)
_cell_length_c                   18.217(4)
_cell_angle_alpha                90
_cell_angle_beta                 106.69(3)
_cell_angle_gamma                90
_cell_volume                     17095.4
_cell_formula_units_Z            8
loop_
_atom_site_label
_atom_site_type_symbol
_atom_site_fract_x
_atom_site_fract_y
_atom_site_fract_z
Pd1 Pd 0.16411(2) 0.09039(3) 0.76446(5)
Pd2 Pd 0.02505(2) 0.25704(4) 0.47839(5)
Pd3 Pd 0.17716(2) 0.39964(3) 0.76729(5)
N1 N 0.1655(2) 0.0960(4) 0.8755(5)
N2 N 0.1194(3) 0.0496(4) 0.7624(6)
N3 N 0.1593(2) 0.0837(3) 0.6516(5)
N4 N 0.0537(3) 0.2010(4) 0.4432(5)
N5 N -0.0068(3) 0.2068(4) 0.5141(6)
N6 N -0.0045(2) 0.3114(4) 0.5132(5)
N7 N 0.0553(2) 0.3114(3) 0.4436(5)
N8 N 0.1710(2) 0.4089(3) 0.6528(5)
N9 N 0.1352(3) 0.4462(4) 0.7694(6)
N10 N 0.1802(2) 0.3940(4) 0.8805(5)
N11 N 0.2201(2) 0.3524(4) 0.7734(5)
N12 N 0.2110(2) 0.1289(4) 0.7747(5)
C1 C 0.1917(4) 0.1241(5) 0.9301(7)
H1 H 0.2102 0.1415 0.9176
C2 C 0.1884(4) 0.1247(6) 1.0074(8)
H2 H 0.2049 0.1433 1.0457
C3 C 0.1607(4) 0.0973(6) 1.0245(8)
H3 H 0.1590 0.0970 1.0744
C4 C 0.1367(4) 0.0718(5) 0.9696(8)
H4 H 0.1183 0.0541 0.9819
C5 C 0.1382(3) 0.0706(5) 0.8932(8)
C6 C 0.1132(4) 0.0447(5) 0.8297(8)
C7 C 0.0831(4) 0.0160(6) 0.8364(9)
H5 H 0.0786 0.0125 0.8836
C8 C 0.0608(4) -0.0064(7) 0.7716(10)
H6 H 0.0408 -0.0252 0.7747
C9 C 0.0677(4) -0.0013(6) 0.7022(9)
H7 H 0.0526 -0.0163 0.6580
C10 C 0.0974(4) 0.0267(5) 0.7001(8)
H8 H 0.1025 0.0300 0.6535
C11 C 0.1795(3) 0.0492(4) 0.6269(7)
H9 H 0.1953 0.0280 0.6629
C12 C 0.1782(3) 0.0434(5) 0.5513(7)
H10 H 0.1935 0.0196 0.5373
C13 C 0.1538(3) 0.0732(5) 0.4954(7)
H11 H 0.1529 0.0696 0.4441
C14 C 0.1307(3) 0.1086(4) 0.5168(7)
C15 C 0.1348(3) 0.1136(4) 0.5989(6)
C16 C 0.1124(3) 0.1506(4) 0.6224(6)
H12 H 0.1154 0.1559 0.6745
C17 C 0.0867(3) 0.1783(4) 0.5705(6)
H13 H 0.0727 0.2022 0.5883
C18 C 0.0805(3) 0.1724(4) 0.4919(7)
C19 C 0.1031(3) 0.1376(5) 0.4644(6)
C20 C 0.0962(4) 0.1345(5) 0.3834(8)
H14 H 0.1110 0.1140 0.3627
C21 C 0.0683(4) 0.1611(5) 0.3362(7)
H15 H 0.0635 0.1582 0.2833
C22 C 0.0473(4) 0.1924(6) 0.3675(7)
H16 H 0.0274 0.2085 0.3345
C23 C -0.0039(4) 0.1539(5) 0.5149(8)
H17 H 0.0138 0.1386 0.4970
C24 C -0.0250(5) 0.1212(7) 0.5402(9)
H18 H -0.0219 0.0841 0.5415
C25 C -0.0526(5) 0.1456(8) 0.5650(11)
H19 H -0.0684 0.1239 0.5810
C26 C -0.0565(5) 0.2026(8) 0.5657(10)
H20 H -0.0740 0.2190 0.5829
C27 C -0.0313(4) 0.2334(6) 0.5380(7)
C28 C -0.0304(3) 0.2885(6) 0.5384(7)
C29 C -0.0557(4) 0.3213(7) 0.5605(10)
H21 H -0.0745 0.3065 0.5750
C30 C -0.0505(4) 0.3763(7) 0.5590(11)
H22 H -0.0663 0.3989 0.5733
C31 C -0.0227(4) 0.3992(6) 0.5371(9)
H23 H -0.0191 0.4361 0.5383
C32 C -0.0003(3) 0.3636(5) 0.5129(7)
H24 H 0.0180 0.3776 0.4961
C33 C 0.0484(3) 0.3207(5) 0.3696(6)
H25 H 0.0275 0.3071 0.3368
C34 C 0.0713(3) 0.3504(5) 0.3380(6)
H26 H 0.0659 0.3550 0.2852
C35 C 0.1011(3) 0.3721(5) 0.3846(6)
H27 H 0.1163 0.3915 0.3640
C36 C 0.1092(3) 0.3654(4) 0.4658(6)
C37 C 0.0845(3) 0.3336(5) 0.4923(7)
C38 C 0.0914(3) 0.3253(4) 0.5726(6)
H28 H 0.0767 0.3029 0.5905
C39 C 0.1197(3) 0.3501(4) 0.6242(6)
H29 H 0.1230 0.3450 0.6763
C40 C 0.1437(3) 0.3829(4) 0.6001(6)
C41 C 0.1383(3) 0.3910(4) 0.5197(6)
C42 C 0.1632(3) 0.4249(5) 0.4981(7)
H30 H 0.1613 0.4310 0.4467
C43 C 0.1895(3) 0.4479(5) 0.5543(7)
H31 H 0.2063 0.4690 0.5409
C44 C 0.1921(3) 0.4410(4) 0.6298(7)
H32 H 0.2094 0.4598 0.6662
C45 C 0.1123(4) 0.4710(5) 0.7063(7)
H33 H 0.1160 0.4676 0.6584
C46 C 0.0838(4) 0.5010(5) 0.7143(8)
H34 H 0.0679 0.5166 0.6717
C47 C 0.0795(4) 0.5073(6) 0.7852(8)
H35 H 0.0613 0.5287 0.7916
C48 C 0.1014(4) 0.4828(5) 0.8456(7)
H36 H 0.0976 0.4863 0.8934
C49 C 0.1310(3) 0.4508(5) 0.8376(6)
C50 C 0.1546(3) 0.4227(4) 0.8996(6)
C51 C 0.1526(3) 0.4202(5) 0.9739(7)
H37 H 0.1342 0.4380 0.9865
C52 C 0.1762(3) 0.3930(5) 1.0281(7)
H38 H 0.1755 0.3938 1.0786
C53 C 0.2033(3) 0.3619(6) 1.0069(7)
H39 H 0.2197 0.3410 1.0424
C54 C 0.2034(3) 0.3652(5) 0.9312(7)
H40 H 0.2205 0.3462 0.9157
C55 C 0.2502(3) 0.3766(5) 0.7773(6)
H41 H 0.2512 0.4140 0.7777
C56 C 0.2819(3) 0.3462(6) 0.7809(7)
H42 H 0.3031 0.3638 0.7835
C57 C 0.2805(3) 0.2941(5) 0.7804(7)
H43 H 0.3011 0.2746 0.7840
C58 C 0.2491(3) 0.2663(4) 0.7747(6)
C59 C 0.2194(3) 0.2969(4) 0.7721(6)
C60 C 0.1873(3) 0.2718(4) 0.7709(6)
H44 H 0.1675 0.2925 0.7697
C61 C 0.1852(3) 0.2171(5) 0.7714(6)
H45 H 0.1639 0.2007 0.7703
C62 C 0.2151(3) 0.1852(4) 0.7734(6)
C63 C 0.2467(3) 0.2079(4) 0.7753(6)
C64 C 0.2758(3) 0.1750(5) 0.7784(6)
H46 H 0.2978 0.1897 0.7800
C65 C 0.2711(3) 0.1206(5) 0.7788(7)
H47 H 0.2901 0.0981 0.7804
C66 C 0.2384(3) 0.0982(5) 0.7769(6)
H48 H 0.2360 0.0610 0.7772
N13 N 0.0507(3) 0.0233(5) 0.4887(7)
O1 O 0.0748(3) -0.0081(4) 0.5174(6)
O2 O 0.0288(3) 0.0225(5) 0.4269(7)
O3 O 0.0470(3) 0.0640(6) 0.5329(8)
N14 N 0.2288(3) 0.5031(5) 0.3656(8)
O4 O 0.2526(2) 0.5339(4) 0.4097(6)
O5 O 0.2245(2) 0.4971(4) 0.2932(6)
O6 O 0.2045(3) 0.4786(4) 0.3887(6)
N15 N 0.3219(4) 0.4528(6) 0.6900(10)
O7 O 0.3103(3) 0.4747(5) 0.6217(8)
O8 O 0.3473(4) 0.4163(6) 0.7076(8)
O9 O 0.3003(3) 0.4697(5) 0.7300(7)
N16 N 0.0655(3) 0.4785(4) 0.5015(6)
O10 O 0.0932(2) 0.5047(4) 0.5246(5)
O11 O 0.0494(3) 0.4731(4) 0.4321(6)
O12 O 0.0538(3) 0.4524(5) 0.5454(7)
O13 O 0.1613(3) 0.4096(5) 0.2999(7)
O14 O 0.1109(9) 0.8809(15) -0.360(2)
O15 O 0.1243(4) 0.5988(7) -0.3617(10)
O16 O 0.2459(3) 1.0326(4) -0.0712(6)
O17 O -0.0042(3) 0.0978(5) 0.3273(7)
O18 O 0.0060(2) 0.4237(4) 0.1765(5)
N17 N 0.0505(8) 0.2126(14) 0.1701(18)
O19 O 0.0297(3) 0.2589(4) 0.1900(6)
O20 O 0.0684(5) 0.2557(7) 0.1417(11)
O21 O 0.0560(4) 0.1632(6) 0.1502(9)
O22 O 0.1067(6) 0.2675(10) -0.1847(14)
C67 C 0.1094(5) 0.3273(8) -0.1950(11)
O23 O 0.2145(4) 0.6966(6) 0.0100(8)
C68 C 0.1752(6) 0.7577(8) 0.0437(14)
H49 H 0.1702 0.7784 0.0837
H50 H 0.1559 0.7337 0.0220
H51 H 0.1784 0.7814 0.0046
C69 C 0.2060(6) 0.7282(9) 0.0736(13)
H52 H 0.2028 0.7037 0.1126
H53 H 0.2255 0.7522 0.0972
C70 C 0.2507(6) 0.6636(10) 0.0416(14)
H54 H 0.2700 0.6865 0.0698
H55 H 0.2480 0.6338 0.0738
C71 C 0.2561(7) 0.6447(12) -0.0315(15)
H56 H 0.2775 0.6238 -0.0208
H57 H 0.2580 0.6751 -0.0625
H58 H 0.2363 0.6229 -0.0584
O24 O 0.2500 0.2500 1.0000
N18 N 0.1376(10) 0.7509(13) -0.398(3)
O25 O 0.1436(5) 0.7493(7) -0.3083(13)
O26 O 0.1423(6) 0.7501(8) -0.4629(15)
O27 O 0.1344(5) 0.6994(8) -0.3833(11)
O28 O 0.1013(5) 0.1860(9) -0.2011(12)
loop_
_geom_bond_atom_site_label_1
_geom_bond_atom_site_label_2
_geom_bond_site_symmetry_1
_geom_bond_site_symmetry_2
Pd1 N1 1_555 1_555
Pd2 N4 1_555 1_555
Pd3 N8 1_555 1_555
N1 C1 1_555 1_555
N2 Pd1 1_555 1_555
N3 Pd1 1_555 1_555
N4 C18 1_555 1_555
N5 Pd2 1_555 1_555
N6 Pd2 1_555 1_555
N7 Pd2 1_555 1_555
N8 C40 1_555 1_555
N9 Pd3 1_555 1_555
N10 Pd3 1_555 1_555
N11 Pd3 1_555 1_555
N12 Pd1 1_555 1_555
C1 H1 1_555 1_555
C2 C1 1_555 1_555
H2 C2 1_555 1_555
C3 C2 1_555 1_555
H3 C3 1_555 1_555
C4 C3 1_555 1_555
H4 C4 1_555 1_555
C5 N1 1_555 1_555
C6 N2 1_555 1_555
C7 C6 1_555 1_555
H5 C7 1_555 1_555
C8 C7 1_555 1_555
H6 C8 1_555 1_555
C9 C8 1_555 1_555
H7 C9 1_555 1_555
C10 N2 1_555 1_555
H8 C10 1_555 1_555
C11 N3 1_555 1_555
H9 C11 1_555 1_555
C12 C11 1_555 1_555
H10 C12 1_555 1_555
C13 C12 1_555 1_555
H11 C13 1_555 1_555
C14 C13 1_555 1_555
C15 N3 1_555 1_555
C16 C15 1_555 1_555
H12 C16 1_555 1_555
C17 C16 1_555 1_555
H13 C17 1_555 1_555
C18 C17 1_555 1_555
C19 C14 1_555 1_555
C20 C19 1_555 1_555
H14 C20 1_555 1_555
C21 C20 1_555 1_555
H15 C21 1_555 1_555
C22 N4 1_555 1_555
H16 C22 1_555 1_555
C23 N5 1_555 1_555
H17 C23 1_555 1_555
C24 C23 1_555 1_555
H18 C24 1_555 1_555
C25 C24 1_555 1_555
H19 C25 1_555 1_555
C26 C25 1_555 1_555
H20 C26 1_555 1_555
C27 N5 1_555 1_555
C28 N6 1_555 1_555
C29 C28 1_555 1_555
H21 C29 1_555 1_555
C30 C29 1_555 1_555
H22 C30 1_555 1_555
C31 C30 1_555 1_555
H23 C31 1_555 1_555
C32 N6 1_555 1_555
H24 C32 1_555 1_555
C33 N7 1_555 1_555
H25 C33 1_555 1_555
C34 C33 1_555 1_555
H26 C34 1_555 1_555
C35 C34 1_555 1_555
H27 C35 1_555 1_555
C36 C35 1_555 1_555
C37 N7 1_555 1_555
C38 C37 1_555 1_555
H28 C38 1_555 1_555
C39 C38 1_555 1_555
H29 C39 1_555 1_555
C40 C39 1_555 1_555
C41 C36 1_555 1_555
C42 C41 1_555 1_555
H30 C42 1_555 1_555
C43 C42 1_555 1_555
H31 C43 1_555 1_555
C44 N8 1_555 1_555
H32 C44 1_555 1_555
C45 N9 1_555 1_555
H33 C45 1_555 1_555
C46 C45 1_555 1_555
H34 C46 1_555 1_555
C47 C46 1_555 1_555
H35 C47 1_555 1_555
C48 C47 1_555 1_555
H36 C48 1_555 1_555
C49 N9 1_555 1_555
C50 N10 1_555 1_555
C51 C50 1_555 1_555
H37 C51 1_555 1_555
C52 C51 1_555 1_555
H38 C52 1_555 1_555
C53 C52 1_555 1_555
H39 C53 1_555 1_555
C54 N10 1_555 1_555
H40 C54 1_555 1_555
C55 N11 1_555 1_555
H41 C55 1_555 1_555
C56 C55 1_555 1_555
H42 C56 1_555 1_555
C57 C56 1_555 1_555
H43 C57 1_555 1_555
C58 C57 1_555 1_555
C59 N11 1_555 1_555
C60 C59 1_555 1_555
H44 C60 1_555 1_555
C61 C60 1_555 1_555
H45 C61 1_555 1_555
C62 N12 1_555 1_555
C63 C58 1_555 1_555
C64 C63 1_555 1_555
H46 C64 1_555 1_555
C65 C64 1_555 1_555
H47 C65 1_555 1_555
C66 N12 1_555 1_555
H48 C66 1_555 1_555
N13 O1 1_555 1_555
O2 N13 1_555 1_555
O3 N13 1_555 1_555
N14 O4 1_555 1_555
O5 N14 1_555 1_555
O6 N14 1_555 1_555
N15 O7 1_555 1_555
O8 N15 1_555 1_555
O9 N15 1_555 1_555
N16 O10 1_555 1_555
O11 N16 1_555 1_555
O12 N16 1_555 1_555
N17 O19 1_555 1_555
O20 N17 1_555 1_555
O21 N17 1_555 1_555
O22 C67 1_555 1_555
O23 C69 1_555 1_555
C68 H49 1_555 1_555
H50 C68 1_555 1_555
H51 C68 1_555 1_555
C69 C68 1_555 1_555
H52 C69 1_555 1_555
H53 C69 1_555 1_555
C70 O23 1_555 1_555
H54 C70 1_555 1_555
H55 C70 1_555 1_555
C71 C70 1_555 1_555
H56 C71 1_555 1_555
H57 C71 1_555 1_555
H58 C71 1_555 1_555
N18 O25 1_555 1_555
O26 N18 1_555 1_555
O27 N18 1_555 1_555
C4 C5 1_555 1_555
C5 C6 1_555 1_555
C9 C10 1_555 1_555
C14 C15 1_555 1_555
C18 C19 1_555 1_555
C21 C22 1_555 1_555
C26 C27 1_555 1_555
C27 C28 1_555 1_555
C31 C32 1_555 1_555
C36 C37 1_555 1_555
C40 C41 1_555 1_555
C43 C44 1_555 1_555
C48 C49 1_555 1_555
C49 C50 1_555 1_555
C53 C54 1_555 1_555
C58 C59 1_555 1_555
C61 C62 1_555 1_555
C62 C63 1_555 1_555
C65 C66 1_555 1_555

#END
