
#######################################################################
#
#                 Cambridge Crystallographic Data Centre
#                                CCDC 
#
#######################################################################
#
# If this CIF has been generated from an entry in the Cambridge 
# Structural Database, then it will include bibliographic, chemical, 
# crystal, experimental, refinement or atomic coordinate data resulting 
# from the CCDC's data processing and validation procedures.
#
#######################################################################

data_GUWNOB
_chemical_formula_moiety         'C42 H48 N12 Pd3 6+,6(N1 O3 1-),2(H2 O1)'
_chemical_name_systematic        
'tris((\m~2~-4,7-Phenanthroline)-(ethylenediamine)-palladium(ii)) nitrate clathrate pentanitrate dihydrate'
_symmetry_cell_setting           orthorhombic
_symmetry_space_group_name_H-M   'P m n 21'
_symmetry_Int_Tables_number      31
_space_group_name_Hall           'P 2ac -2'
loop_
_symmetry_equiv_pos_site_id
_symmetry_equiv_pos_as_xyz
1 x,y,z
2 1/2-x,-y,1/2+z
3 1/2+x,-y,1/2+z
4 -x,y,z
_cell_length_a                   21.8807(4)
_cell_length_b                   14.7319(3)
_cell_length_c                   23.2315(2)
_cell_angle_alpha                90
_cell_angle_beta                 90
_cell_angle_gamma                90
_cell_volume                     7488.54
_cell_formula_units_Z            4
loop_
_atom_site_label
_atom_site_type_symbol
_atom_site_fract_x
_atom_site_fract_y
_atom_site_fract_z
Pd1 Pd 0.17555(10) 0.80716(12) 0.47975(12)
Pd2 Pd 0.0000 0.35915(18) 0.48750(19)
N1 N 0.0637(10) 0.3281(14) 0.4261(9)
H1 H 0.0839 0.2778 0.4372
H2 H 0.0910 0.3737 0.4240
C1 C 0.041(2) 0.316(4) 0.378(2)
H3 H 0.0554 0.2591 0.3637
H4 H 0.0554 0.3628 0.3526
N5 N 0.1675(12) 0.8951(15) 0.4158(12)
H17 H 0.1295 0.8923 0.4010
H18 H 0.1739 0.9518 0.4289
C5 C 0.217(3) 0.871(2) 0.366(3)
H19 H 0.2036 0.8914 0.3287
H20 H 0.2566 0.8984 0.3746
C6 C 0.2213(18) 0.774(2) 0.3681(15)
H21 H 0.2545 0.7541 0.3436
H22 H 0.1837 0.7483 0.3530
N6 N 0.2308(12) 0.7409(14) 0.4238(10)
H23 H 0.2701 0.7491 0.4339
H24 H 0.2228 0.6810 0.4249
N7 N 0.1255(11) 0.8916(17) 0.5347(15)
C7 C 0.1566(19) 0.945(2) 0.5742(18)
H25 H 0.1985 0.9377 0.5785
C8 C 0.1283(16) 1.005(2) 0.6051(15)
H26 H 0.1511 1.0439 0.6281
C9 C 0.0649(17) 1.0126(17) 0.6051(16)
H27 H 0.0443 1.0547 0.6277
C10 C 0.0363(16) 0.956(3) 0.5707(18)
C11 C 0.0660(11) 0.8950(15) 0.5347(14)
C12 C 0.0321(10) 0.8378(17) 0.4992(15)
H28 H 0.0526 0.7984 0.4746
N9 N 0.1922(17) 0.7149(15) 0.5452(15)
C13 C 0.2362(16) 0.739(2) 0.5848(17)
H29 H 0.2550 0.7954 0.5851
C14 C 0.2504(14) 0.6679(19) 0.6261(12)
H30 H 0.2823 0.6794 0.6514
C15 C 0.2249(13) 0.5951(18) 0.6308(11)
H31 H 0.2375 0.5553 0.6595
C16 C 0.1741(14) 0.568(3) 0.5919(19)
C17 C 0.1451(13) 0.4828(17) 0.5902(14)
C18 C 0.1548(13) 0.416(2) 0.6326(17)
H32 H 0.1805 0.4245 0.6641
C19 C 0.121(2) 0.334(2) 0.622(2)
H33 H 0.1292 0.2843 0.6454
C20 C 0.0800(14) 0.326(3) 0.582(3)
H34 H 0.0587 0.2712 0.5803
N10 N 0.0666(11) 0.3890(18) 0.5448(13)
C21 C 0.1004(11) 0.4632(16) 0.5482(15)
C22 C 0.0861(14) 0.5376(19) 0.5041(17)
H35 H 0.0557 0.5281 0.4768
C23 C 0.1167(14) 0.6151(13) 0.5045(16)
H36 H 0.1088 0.6579 0.4760
C24 C 0.1631(12) 0.6354(15) 0.5492(15)
C10C C -0.0363(16) 0.956(3) 0.5707(18)
C9C C -0.0649(17) 1.0126(17) 0.6051(16)
C8C C -0.1283(16) 1.005(2) 0.6051(15)
C7C C -0.1566(19) 0.945(2) 0.5742(18)
N7C N -0.1255(11) 0.8916(17) 0.5347(15)
Pd1C Pd -0.17555(10) 0.80716(12) 0.47975(12)
N5C N -0.1675(12) 0.8951(15) 0.4158(12)
H17C H -0.1295 0.8923 0.4010
H18C H -0.1739 0.9518 0.4289
C5C C -0.217(3) 0.871(2) 0.366(3)
H19C H -0.2036 0.8914 0.3287
H20C H -0.2566 0.8984 0.3746
C6C C -0.2213(18) 0.774(2) 0.3681(15)
H21C H -0.2545 0.7541 0.3436
H22C H -0.1837 0.7483 0.3530
N6C N -0.2308(12) 0.7409(14) 0.4238(10)
N9C N -0.1922(17) 0.7149(15) 0.5452(15)
C13C C -0.2362(16) 0.739(2) 0.5848(17)
H29C H -0.2550 0.7954 0.5851
C14C C -0.2504(14) 0.6679(19) 0.6261(12)
H30C H -0.2823 0.6794 0.6514
C15C C -0.2249(13) 0.5951(18) 0.6308(11)
H31C H -0.2375 0.5553 0.6595
C16C C -0.1741(14) 0.568(3) 0.5919(19)
C17C C -0.1451(13) 0.4828(17) 0.5902(14)
C18C C -0.1548(13) 0.416(2) 0.6326(17)
H32C H -0.1805 0.4245 0.6641
C19C C -0.121(2) 0.334(2) 0.622(2)
H33C H -0.1292 0.2843 0.6454
C20C C -0.0800(14) 0.326(3) 0.582(3)
H34C H -0.0587 0.2712 0.5803
N10C N -0.0666(11) 0.3890(18) 0.5448(13)
C1C C -0.041(2) 0.316(4) 0.378(2)
N1C N -0.0637(10) 0.3281(14) 0.4261(9)
H1C H -0.0839 0.2778 0.4372
H2C H -0.0910 0.3737 0.4240
H3C H -0.0554 0.2591 0.3637
H4C H -0.0554 0.3628 0.3526
C21C C -0.1004(11) 0.4632(16) 0.5482(15)
C22C C -0.0861(14) 0.5376(19) 0.5041(17)
H35C H -0.0557 0.5281 0.4768
C23C C -0.1167(14) 0.6151(13) 0.5045(16)
H36C H -0.1088 0.6579 0.4760
C24C C -0.1631(12) 0.6354(15) 0.5492(15)
H23C H -0.2701 0.7491 0.4339
H24C H -0.2228 0.6810 0.4249
C11C C -0.0660(11) 0.8950(15) 0.5347(14)
C12C C -0.0321(10) 0.8378(17) 0.4992(15)
H28C H -0.0526 0.7984 0.4746
H25C H -0.1985 0.9377 0.5785
H26C H -0.1511 1.0439 0.6281
H27C H -0.0443 1.0547 0.6277
Pd3 Pd 0.32447(10) 0.19029(12) 0.46544(12)
Pd4 Pd 0.5000 0.63861(18) 0.4573(2)
N2 N 0.446(2) 0.6825(19) 0.525(3)
H5 H 0.4231 0.6357 0.5382
H6 H 0.4197 0.7261 0.5130
C2 C 0.4806(16) 0.708(5) 0.569(2)
H7 H 0.4684 0.6763 0.6029
H8 H 0.4684 0.7702 0.5741
N3 N 0.2754(13) 0.2634(18) 0.522(2)
H9 H 0.2909 0.3200 0.5233
H10 H 0.2368 0.2677 0.5089
C3 C 0.273(3) 0.222(7) 0.589(3)
H11 H 0.3025 0.2527 0.6138
H12 H 0.2328 0.2264 0.6054
C4 C 0.292(2) 0.1239(17) 0.5766(17)
H13 H 0.2572 0.0921 0.5613
H14 H 0.3020 0.0963 0.6128
N4 N 0.3403(16) 0.1065(19) 0.5350(18)
H15 H 0.3397 0.0480 0.5239
H16 H 0.3771 0.1187 0.5506
N8 N 0.3715(12) 0.1108(14) 0.4130(14)
C25 C 0.3418(13) 0.058(2) 0.3780(17)
H37 H 0.2994 0.0616 0.3799
C26 C 0.3659(19) -0.007(3) 0.336(3)
H38 H 0.3421 -0.0449 0.3135
C27 C 0.4314(18) -0.005(3) 0.336(2)
H39 H 0.4508 -0.0394 0.3076
C28 C 0.4690(12) 0.0451(16) 0.3727(17)
C29 C 0.4348(17) 0.1062(19) 0.4091(17)
C30 C 0.4726(12) 0.1630(16) 0.4537(19)
H40 H 0.4519 0.1977 0.4809
N11 N 0.3101(9) 0.2857(15) 0.4004(14)
C31 C 0.258(4) 0.251(5) 0.377(4)
H41 H 0.2310 0.2051 0.3882
C32 C 0.259(3) 0.299(4) 0.342(4)
H42 H 0.2413 0.2714 0.3096
C33 C 0.282(2) 0.409(6) 0.322(4)
H43 H 0.2669 0.4446 0.2920
C34 C 0.3230(13) 0.4286(18) 0.3585(14)
C35 C 0.3586(17) 0.512(2) 0.3560(18)
C36 C 0.3370(19) 0.5871(19) 0.3160(19)
H44 H 0.3026 0.5805 0.2929
C37 C 0.371(2) 0.665(4) 0.3157(16)
H45 H 0.3626 0.7106 0.2890
C38 C 0.4236(15) 0.6790(15) 0.3591(14)
H46 H 0.4469 0.7318 0.3595
N12 N 0.4337(11) 0.6139(14) 0.3947(12)
C39 C 0.4050(15) 0.528(2) 0.3984(16)
C40 C 0.4156(12) 0.4633(15) 0.4385(13)
H47 H 0.4450 0.4731 0.4668
C41 C 0.3830(12) 0.382(2) 0.4378(15)
H48 H 0.3917 0.3406 0.4668
C42 C 0.3383(15) 0.357(3) 0.3976(18)
C28C C 0.5310(12) 0.0451(16) 0.3727(17)
C27C C 0.5686(18) -0.005(3) 0.336(2)
C26C C 0.6341(19) -0.007(3) 0.336(3)
C25C C 0.6582(13) 0.058(2) 0.3780(17)
N8C N 0.6285(12) 0.1108(14) 0.4130(14)
Pd3C Pd 0.67553(10) 0.19029(12) 0.46544(12)
N3C N 0.7246(13) 0.2634(18) 0.522(2)
H9C H 0.7091 0.3200 0.5233
H10C H 0.7632 0.2677 0.5089
C3C C 0.727(3) 0.222(7) 0.589(3)
H11C H 0.6975 0.2527 0.6138
H12C H 0.7672 0.2264 0.6054
C4C C 0.708(2) 0.1239(17) 0.5766(17)
H13C H 0.7428 0.0921 0.5613
H14C H 0.6980 0.0963 0.6128
N4C N 0.6597(16) 0.1065(19) 0.5350(18)
N11C N 0.6899(9) 0.2857(15) 0.4004(14)
C31C C 0.742(4) 0.251(5) 0.377(4)
H41C H 0.7690 0.2051 0.3882
C32C C 0.741(3) 0.299(4) 0.342(4)
C42C C 0.6617(15) 0.357(3) 0.3976(18)
C34C C 0.6770(13) 0.4286(18) 0.3585(14)
C33C C 0.718(2) 0.409(6) 0.322(4)
H42C H 0.7587 0.2714 0.3096
H43C H 0.7331 0.4446 0.2920
C35C C 0.6414(17) 0.512(2) 0.3560(18)
C36C C 0.6630(19) 0.5871(19) 0.3160(19)
H44C H 0.6974 0.5805 0.2929
C37C C 0.629(2) 0.665(4) 0.3157(16)
H45C H 0.6374 0.7106 0.2890
C38C C 0.5764(15) 0.6790(15) 0.3591(14)
H46C H 0.5531 0.7318 0.3595
N12C N 0.5663(11) 0.6139(14) 0.3947(12)
C2C C 0.5194(16) 0.708(5) 0.569(2)
N2C N 0.554(2) 0.6825(19) 0.525(3)
H5C H 0.5769 0.6357 0.5382
H6C H 0.5803 0.7261 0.5130
H7C H 0.5316 0.6763 0.6029
H8C H 0.5316 0.7702 0.5741
C39C C 0.5950(15) 0.528(2) 0.3984(16)
C40C C 0.5844(12) 0.4633(15) 0.4385(13)
H47C H 0.5550 0.4731 0.4668
C41C C 0.6170(12) 0.382(2) 0.4378(15)
H48C H 0.6083 0.3406 0.4668
H15C H 0.6603 0.0480 0.5239
H16C H 0.6229 0.1187 0.5506
C29C C 0.5652(17) 0.1062(19) 0.4091(17)
C30C C 0.5274(12) 0.1630(16) 0.4537(19)
H40C H 0.5481 0.1977 0.4809
H37C H 0.7006 0.0616 0.3799
H38C H 0.6579 -0.0449 0.3135
H39C H 0.5492 -0.0394 0.3076
O1 O 0.5000 0.831(2) 0.4452(17)
O2 O 0.282(2) 0.414(3) 0.718(3)
O3 O 0.0000 0.1560(18) 0.5196(13)
N13 N 0.3483(12) 0.8861(16) 0.4764(16)
O4 O 0.2993(12) 0.9175(13) 0.488(2)
O5 O 0.3947(10) 0.9161(12) 0.487(2)
O6 O 0.3469(11) 0.8007(16) 0.467(2)
N14 N 0.1521(13) 0.1235(19) 0.4636(18)
O7 O 0.2013(11) 0.0851(13) 0.4538(14)
O8 O 0.1033(11) 0.0741(15) 0.4603(15)
O9 O 0.1487(10) 0.2010(15) 0.485(2)
N16 N 0.0000 0.649(6) 0.400(4)
O13 O 0.0000 0.562(5) 0.388(2)
O14 O 0.045(2) 0.687(3) 0.3849(16)
O14C O -0.045(2) 0.687(3) 0.3849(16)
N17 N 0.235(2) 0.527(3) 0.440(2)
O15 O 0.2032(17) 0.554(2) 0.3954(17)
O16 O 0.296(3) 0.562(5) 0.493(4)
O17 O 0.202(2) 0.434(3) 0.451(2)
N15? N 0.0000 1.188(4) 0.724(5)
O10? O 0.0000 1.247(9) 0.766(6)
O11? O 0.0000 1.194(3) 0.6708(19)
O12? O 0.0000 1.021(10) 0.742(10)
loop_
_geom_bond_atom_site_label_1
_geom_bond_atom_site_label_2
_geom_bond_site_symmetry_1
_geom_bond_site_symmetry_2
Pd1 N5 1_555 1_555
Pd2 N1 1_555 1_555
N1 H1 1_555 1_555
H2 N1 1_555 1_555
C1 N1 1_555 1_555
H3 C1 1_555 1_555
H4 C1 1_555 1_555
Pd3 N3 1_555 1_555
Pd4 N2 1_555 1_555
N2 H5 1_555 1_555
H6 N2 1_555 1_555
C2 N2 1_555 1_555
H7 C2 1_555 1_555
H8 C2 1_555 1_555
N3 H9 1_555 1_555
H10 N3 1_555 1_555
C3 N3 1_555 1_555
H11 C3 1_555 1_555
H12 C3 1_555 1_555
C4 C3 1_555 1_555
H13 C4 1_555 1_555
H14 C4 1_555 1_555
N4 Pd3 1_555 1_555
H15 N4 1_555 1_555
H16 N4 1_555 1_555
N5 H17 1_555 1_555
H18 N5 1_555 1_555
C5 N5 1_555 1_555
H19 C5 1_555 1_555
H20 C5 1_555 1_555
C6 C5 1_555 1_555
H21 C6 1_555 1_555
H22 C6 1_555 1_555
N6 Pd1 1_555 1_555
H23 N6 1_555 1_555
H24 N6 1_555 1_555
N7 Pd1 1_555 1_555
N8 Pd3 1_555 1_555
C7 N7 1_555 1_555
H25 C7 1_555 1_555
C8 C7 1_555 1_555
H26 C8 1_555 1_555
C9 C8 1_555 1_555
H27 C9 1_555 1_555
C10 C9 1_555 1_555
C11 N7 1_555 1_555
C12 C11 1_555 1_555
H28 C12 1_555 1_555
N9 Pd1 1_555 1_555
C13 N9 1_555 1_555
H29 C13 1_555 1_555
C14 C13 1_555 1_555
H30 C14 1_555 1_555
C15 C14 1_555 1_555
H31 C15 1_555 1_555
C16 C15 1_555 1_555
C17 C16 1_555 1_555
C18 C17 1_555 1_555
H32 C18 1_555 1_555
C19 C18 1_555 1_555
H33 C19 1_555 1_555
C20 C19 1_555 1_555
H34 C20 1_555 1_555
N10 Pd2 1_555 1_555
C21 C17 1_555 1_555
C22 C21 1_555 1_555
H35 C22 1_555 1_555
C23 C22 1_555 1_555
H36 C23 1_555 1_555
C24 N9 1_555 1_555
C25 N8 1_555 1_555
H37 C25 1_555 1_555
C26 C25 1_555 1_555
H38 C26 1_555 1_555
C27 C26 1_555 1_555
H39 C27 1_555 1_555
C28 C27 1_555 1_555
C29 N8 1_555 1_555
C30 C29 1_555 1_555
H40 C30 1_555 1_555
N11 Pd3 1_555 1_555
C31 N11 1_555 1_555
H41 C31 1_555 1_555
C32 C31 1_555 1_555
H42 C32 1_555 1_555
C33 C32 1_555 1_555
H43 C33 1_555 1_555
C34 C33 1_555 1_555
C35 C34 1_555 1_555
C36 C35 1_555 1_555
H44 C36 1_555 1_555
C37 C36 1_555 1_555
H45 C37 1_555 1_555
C38 C37 1_555 1_555
H46 C38 1_555 1_555
N12 Pd4 1_555 1_555
C39 C35 1_555 1_555
C40 C39 1_555 1_555
H47 C40 1_555 1_555
C41 C40 1_555 1_555
H48 C41 1_555 1_555
C42 N11 1_555 1_555
N13 O4 1_555 1_555
O5 N13 1_555 1_555
O6 N13 1_555 1_555
N14 O7 1_555 1_555
O8 N14 1_555 1_555
O9 N14 1_555 1_555
N16 O13 1_555 1_555
O14 N16 1_555 1_555
N17 O15 1_555 1_555
O16 N17 1_555 1_555
O17 N17 1_555 1_555
C10C C10 1_555 1_555
C9C C10C 1_555 1_555
C8C C9C 1_555 1_555
C7C C8C 1_555 1_555
N7C C7C 1_555 1_555
Pd1C N7C 1_555 1_555
N5C Pd1C 1_555 1_555
H17C N5C 1_555 1_555
H18C N5C 1_555 1_555
C5C N5C 1_555 1_555
H19C C5C 1_555 1_555
H20C C5C 1_555 1_555
C6C C5C 1_555 1_555
H21C C6C 1_555 1_555
H22C C6C 1_555 1_555
N6C Pd1C 1_555 1_555
N9C Pd1C 1_555 1_555
C13C N9C 1_555 1_555
H29C C13C 1_555 1_555
C14C C13C 1_555 1_555
H30C C14C 1_555 1_555
C15C C14C 1_555 1_555
H31C C15C 1_555 1_555
C16C C15C 1_555 1_555
C17C C16C 1_555 1_555
C18C C17C 1_555 1_555
H32C C18C 1_555 1_555
C19C C18C 1_555 1_555
H33C C19C 1_555 1_555
C20C C19C 1_555 1_555
H34C C20C 1_555 1_555
N10C Pd2 1_555 1_555
C1C C1 1_555 1_555
N1C Pd2 1_555 1_555
H1C N1C 1_555 1_555
H2C N1C 1_555 1_555
H3C C1C 1_555 1_555
H4C C1C 1_555 1_555
C21C C17C 1_555 1_555
C22C C21C 1_555 1_555
H35C C22C 1_555 1_555
C23C C22C 1_555 1_555
H36C C23C 1_555 1_555
C24C N9C 1_555 1_555
H23C N6C 1_555 1_555
H24C N6C 1_555 1_555
C11C C10C 1_555 1_555
C12C C12 1_555 1_555
H28C C12C 1_555 1_555
H25C C7C 1_555 1_555
H26C C8C 1_555 1_555
H27C C9C 1_555 1_555
C28C C28 1_555 1_555
C27C C28C 1_555 1_555
C26C C27C 1_555 1_555
C25C C26C 1_555 1_555
N8C C25C 1_555 1_555
Pd3C N8C 1_555 1_555
N3C Pd3C 1_555 1_555
H9C N3C 1_555 1_555
H10C N3C 1_555 1_555
C3C N3C 1_555 1_555
H11C C3C 1_555 1_555
H12C C3C 1_555 1_555
C4C C3C 1_555 1_555
H13C C4C 1_555 1_555
H14C C4C 1_555 1_555
N4C Pd3C 1_555 1_555
N11C Pd3C 1_555 1_555
C31C N11C 1_555 1_555
H41C C31C 1_555 1_555
C32C C31C 1_555 1_555
C42C N11C 1_555 1_555
C34C C42C 1_555 1_555
C33C C32C 1_555 1_555
H42C C32C 1_555 1_555
H43C C33C 1_555 1_555
C35C C34C 1_555 1_555
C36C C35C 1_555 1_555
H44C C36C 1_555 1_555
C37C C36C 1_555 1_555
H45C C37C 1_555 1_555
C38C C37C 1_555 1_555
H46C C38C 1_555 1_555
N12C Pd4 1_555 1_555
C2C C2 1_555 1_555
N2C Pd4 1_555 1_555
H5C N2C 1_555 1_555
H6C N2C 1_555 1_555
H7C C2C 1_555 1_555
H8C C2C 1_555 1_555
C39C C35C 1_555 1_555
C40C C39C 1_555 1_555
H47C C40C 1_555 1_555
C41C C42C 1_555 1_555
H48C C41C 1_555 1_555
H15C N4C 1_555 1_555
H16C N4C 1_555 1_555
C29C C28C 1_555 1_555
C30C C30 1_555 1_555
H40C C30C 1_555 1_555
H37C C25C 1_555 1_555
H38C C26C 1_555 1_555
H39C C27C 1_555 1_555
O14C N16 1_555 1_555
C4 N4 1_555 1_555
C6 N6 1_555 1_555
C10 C11 1_555 1_555
C16 C24 1_555 1_555
C20 N10 1_555 1_555
N10 C21 1_555 1_555
C23 C24 1_555 1_555
C28 C29 1_555 1_555
C34 C42 1_555 1_555
C38 N12 1_555 1_555
N12 C39 1_555 1_555
C41 C42 1_555 1_555
N7C C11C 1_555 1_555
C6C N6C 1_555 1_555
C16C C24C 1_555 1_555
C20C N10C 1_555 1_555
N10C C21C 1_555 1_555
C1C N1C 1_555 1_555
C23C C24C 1_555 1_555
C11C C12C 1_555 1_555
N8C C29C 1_555 1_555
C4C N4C 1_555 1_555
C34C C33C 1_555 1_555
C38C N12C 1_555 1_555
N12C C39C 1_555 1_555
C2C N2C 1_555 1_555
C40C C41C 1_555 1_555
C29C C30C 1_555 1_555

#END
