
#######################################################################
#
#                 Cambridge Crystallographic Data Centre
#                                CCDC 
#
#######################################################################
#
# If this CIF has been generated from an entry in the Cambridge 
# Structural Database, then it will include bibliographic, chemical, 
# crystal, experimental, refinement or atomic coordinate data resulting 
# from the CCDC's data processing and validation procedures.
#
#######################################################################

data_HABJEB
_chemical_formula_moiety         
'C288 H240 Co8 N72 16+,18(C1 H3 N1 O2),16(B1 F4 1-),H2 O1'
_chemical_name_systematic        
"dodecakis(\m~2~-2,2'-(1,3-phenylenebis(methylene-1H-pyrazole-1,3-diyl))dipyridine)-octa-cobalt(ii) hexadecakis(tetrafluoroborate) monohydrate"
_symmetry_cell_setting           triclinic
_symmetry_space_group_name_H-M   'P -1'
_symmetry_Int_Tables_number      2
_space_group_name_Hall           '-P 1'
loop_
_symmetry_equiv_pos_site_id
_symmetry_equiv_pos_as_xyz
1 x,y,z
2 -x,-y,-z
_cell_length_a                   22.870(3)
_cell_length_b                   23.585(3)
_cell_length_c                   25.043(3)
_cell_angle_alpha                113.727(6)
_cell_angle_beta                 109.603(7)
_cell_angle_gamma                101.195(6)
_cell_volume                     10767.6
_exptl_crystal_colour            orange
_exptl_crystal_description       block
_cell_formula_units_Z            1
loop_
_atom_site_label
_atom_site_type_symbol
_atom_site_fract_x
_atom_site_fract_y
_atom_site_fract_z
Co1 Co 0.19501(3) 0.13200(3) 0.29809(3)
Co2 Co -0.31069(3) 0.06580(3) 0.19210(3)
Co3 Co 0.30614(4) 0.36624(4) 0.79829(3)
Co4 Co 0.18362(3) -0.28482(3) 0.34650(3)
N1 N 0.2068(2) 0.0405(2) 0.24325(19)
C1 C 0.1648(3) 0.0066(3) 0.1783(2)
C2 C 0.1713(3) -0.0477(3) 0.1332(3)
H1 H 0.1409 -0.0711 0.0876
C3 C 0.2232(3) -0.0660(3) 0.1573(3)
H2 H 0.2299 -0.1017 0.1278
C4 C 0.2660(3) -0.0329(3) 0.2243(3)
H3 H 0.3011 -0.0462 0.2415
C5 C 0.2554(2) 0.0211(3) 0.2655(3)
H4 H 0.2845 0.0446 0.3114
N2 N 0.0532(2) 0.0919(2) 0.1744(2)
N3 N 0.10584(19) 0.0793(2) 0.2056(2)
C6 C 0.1097(2) 0.0286(3) 0.1574(2)
C7 C 0.0595(3) 0.0087(3) 0.0956(3)
H5 H 0.0517 -0.0251 0.0541
C8 C 0.0243(3) 0.0485(3) 0.1079(3)
H6 H -0.0141 0.0466 0.0757
C9 C 0.0235(3) 0.1301(3) 0.2108(3)
H7 H -0.0019 0.1481 0.1856
H8 H 0.0597 0.1687 0.2531
N4 N -0.3830(2) 0.0044(2) 0.2026(2)
C10 C -0.3571(3) -0.0159(3) 0.2456(3)
C11 C -0.3982(3) -0.0584(3) 0.2556(3)
H9 H -0.3790 -0.0709 0.2870
C12 C -0.4667(3) -0.0820(3) 0.2195(3)
H10 H -0.4955 -0.1117 0.2250
C13 C -0.4930(3) -0.0621(3) 0.1753(3)
H11 H -0.5402 -0.0767 0.1503
C14 C -0.4482(3) -0.0197(3) 0.1684(3)
H12 H -0.4663 -0.0075 0.1364
N5 N -0.1843(2) 0.0756(2) 0.3133(2)
N6 N -0.2481(2) 0.05302(19) 0.26901(19)
C15 C -0.2832(2) 0.0141(2) 0.2841(2)
C16 C -0.2408(3) 0.0109(3) 0.3370(3)
H13 H -0.2530 -0.0133 0.3566
C17 C -0.1777(3) 0.0506(2) 0.3541(2)
H14 H -0.1368 0.0589 0.3884
C18 C -0.1280(2) 0.1214(2) 0.3152(2)
H15 H -0.0924 0.1507 0.3613
H16 H -0.1443 0.1503 0.2994
C19 C -0.0227(2) 0.0895(2) 0.2241(2)
C20 C -0.0552(2) 0.1196(3) 0.2589(2)
H17 H -0.0481 0.1653 0.2731
C21 C -0.0980(2) 0.0839(2) 0.2733(2)
C22 C -0.1095(2) 0.0161(2) 0.2518(2)
H18 H -0.1383 -0.0088 0.2613
C23 C -0.0777(2) -0.0145(3) 0.2158(3)
H19 H -0.0854 -0.0605 0.2005
C24 C -0.0352(2) 0.0220(3) 0.2026(2)
H20 H -0.0141 0.0005 0.1784
N7 N 0.2477(2) 0.1725(2) 0.2566(2)
C25 C 0.3162(3) 0.1936(3) 0.2883(3)
C26 C 0.3560(3) 0.2139(3) 0.2638(3)
H21 H 0.4033 0.2274 0.2862
C27 C 0.3263(3) 0.2143(3) 0.2055(3)
H22 H 0.3530 0.2268 0.1870
C28 C 0.2580(3) 0.1965(3) 0.1750(3)
H23 H 0.2372 0.1984 0.1363
C29 C 0.2196(3) 0.1756(3) 0.2017(3)
H24 H 0.1723 0.1632 0.1806
N8 N 0.3377(2) 0.1774(2) 0.4267(2)
N9 N 0.2987(2) 0.1740(2) 0.3702(2)
C30 C 0.3426(3) 0.1920(3) 0.3494(3)
C31 C 0.4083(3) 0.2070(3) 0.3924(3)
H25 H 0.4479 0.2209 0.3888
C32 C 0.4029(3) 0.1970(3) 0.4413(3)
H26 H 0.4388 0.2029 0.4786
C33 C 0.3089(3) 0.1695(3) 0.4686(3)
H27 H 0.3376 0.1562 0.4971
H28 H 0.2640 0.1328 0.4405
N10 N 0.2852(2) 0.4520(2) 0.8477(2)
C34 C 0.2419(3) 0.4664(3) 0.8079(3)
C35 C 0.2228(4) 0.5197(3) 0.8335(4)
H29 H 0.1923 0.5297 0.8055
C36 C 0.2500(4) 0.5580(4) 0.9019(4)
H30 H 0.2387 0.5953 0.9209
C37 C 0.2924(4) 0.5424(4) 0.9415(4)
H31 H 0.3098 0.5673 0.9879
C38 C 0.3095(3) 0.4896(3) 0.9125(3)
H32 H 0.3402 0.4793 0.9401
N11 N 0.2008(2) 0.3359(2) 0.6514(2)
N12 N 0.2330(2) 0.3683(2) 0.7179(2)
C39 C 0.2165(3) 0.4226(3) 0.7382(3)
C40 C 0.1752(3) 0.4256(3) 0.6840(3)
H33 H 0.1574 0.4589 0.6844
C41 C 0.1663(3) 0.3679(3) 0.6295(3)
H34 H 0.1402 0.3542 0.5847
C42 C 0.2075(3) 0.2749(3) 0.6108(3)
H35 H 0.1626 0.2427 0.5741
H36 H 0.2233 0.2545 0.6376
C43 C 0.3022(3) 0.2327(3) 0.5118(2)
C44 C 0.2592(3) 0.2281(3) 0.5389(2)
H37 H 0.2320 0.1850 0.5274
C45 C 0.2543(3) 0.2847(3) 0.5828(2)
C46 C 0.2940(3) 0.3485(3) 0.5987(3)
H38 H 0.2915 0.3878 0.6280
C47 C 0.3374(3) 0.3530(3) 0.5704(3)
H39 H 0.3647 0.3958 0.5813
C48 C 0.3408(3) 0.2969(3) 0.5277(3)
H40 H 0.3696 0.3011 0.5085
N13 N 0.1898(2) 0.2249(2) 0.3556(2)
C49 C 0.1564(2) 0.2226(3) 0.3909(2)
C50 C 0.1560(3) 0.2815(3) 0.4373(3)
H41 H 0.1323 0.2793 0.4616
C51 C 0.1910(3) 0.3427(3) 0.4470(3)
H42 H 0.1918 0.3831 0.4781
C52 C 0.2250(3) 0.3440(3) 0.4101(3)
H43 H 0.2490 0.3854 0.4158
C53 C 0.2234(3) 0.2856(3) 0.3661(3)
H44 H 0.2469 0.2874 0.3415
N14 N 0.0951(2) 0.0496(2) 0.33195(19)
N15 N 0.13748(19) 0.10588(19) 0.34185(18)
C54 C 0.1222(2) 0.1562(2) 0.3777(2)
C55 C 0.0732(3) 0.1330(3) 0.3921(2)
H45 H 0.0547 0.1584 0.4171
C56 C 0.0567(2) 0.0646(3) 0.3620(2)
H46 H 0.0239 0.0335 0.3625
C57 C 0.0984(2) -0.0159(2) 0.2987(2)
H47 H 0.1060 -0.0206 0.2608
H48 H 0.0548 -0.0514 0.2817
N16 N 0.2529(2) -0.2829(2) 0.4303(2)
C58 C 0.3164(3) -0.2396(3) 0.4584(3)
C59 C 0.3704(3) -0.2367(3) 0.5074(3)
H49 H 0.4146 -0.2056 0.5254
C60 C 0.3571(3) -0.2821(3) 0.5298(3)
H50 H 0.3924 -0.2834 0.5622
C61 C 0.2915(3) -0.3241(3) 0.5031(3)
H51 H 0.2809 -0.3531 0.5189
C62 C 0.2401(3) -0.3243(3) 0.4525(3)
H52 H 0.1953 -0.3545 0.4338
N17 N 0.2967(2) -0.1533(2) 0.3698(2)
N18 N 0.2727(2) -0.19930(19) 0.3843(2)
C63 C 0.3268(3) -0.1932(3) 0.4328(2)
C64 C 0.3845(3) -0.1434(3) 0.4507(3)
H53 H 0.4287 -0.1298 0.4835
C65 C 0.3635(3) -0.1174(3) 0.4098(3)
H54 H 0.3908 -0.0814 0.4098
C66 C 0.2528(3) -0.1383(3) 0.3242(3)
H55 H 0.2138 -0.1801 0.2885
H56 H 0.2776 -0.1222 0.3041
C67 C 0.1536(2) -0.0254(2) 0.3438(2)
C68 C 0.1772(2) -0.0749(2) 0.3161(2)
H57 H 0.1589 -0.1012 0.2698
C69 C 0.2273(2) -0.0856(2) 0.3568(2)
C70 C 0.2550(3) -0.0463(2) 0.4253(2)
H58 H 0.2902 -0.0525 0.4530
C71 C 0.2305(3) 0.0016(2) 0.4524(2)
H59 H 0.2477 0.0270 0.4987
C72 C 0.1805(3) 0.0123(3) 0.4111(2)
H60 H 0.1650 0.0460 0.4298
N19 N -0.3837(2) 0.0749(2) 0.1153(2)
C73 C -0.3942(3) 0.0345(3) 0.0543(3)
C74 C -0.4268(3) 0.0430(3) 0.0023(3)
H61 H -0.4320 0.0145 -0.0401
C75 C -0.4521(3) 0.0937(3) 0.0125(3)
H62 H -0.4747 0.1005 -0.0226
C76 C -0.4432(3) 0.1339(3) 0.0753(3)
H63 H -0.4609 0.1680 0.0839
C77 C -0.4079(3) 0.1237(3) 0.1258(3)
H64 H -0.4008 0.1521 0.1690
N20 N -0.3144(2) -0.0732(2) 0.0786(2)
N21 N -0.3335(2) -0.0216(2) 0.0996(2)
C78 C -0.3682(2) -0.0190(3) 0.0468(3)
C79 C -0.3735(3) -0.0713(3) -0.0099(3)
H65 H -0.3965 -0.0812 -0.0539
C80 C -0.3383(3) -0.1050(3) 0.0120(3)
H66 H -0.3319 -0.1431 -0.0141
C81 C -0.2759(3) -0.0923(3) 0.1230(3)
H67 H -0.2411 -0.0510 0.1640
H68 H -0.2526 -0.1182 0.1026
N22 N 0.3827(2) 0.4211(2) 0.7855(2)
C82 C 0.4059(3) 0.3831(3) 0.7477(3)
C83 C 0.4537(4) 0.4111(4) 0.7342(4)
H69 H 0.4717 0.3839 0.7101
C84 C 0.4755(5) 0.4785(4) 0.7555(5)
H70 H 0.5066 0.4978 0.7442
C85 C 0.4507(5) 0.5187(4) 0.7944(6)
H71 H 0.4644 0.5654 0.8098
C86 C 0.4063(4) 0.4878(3) 0.8092(4)
H72 H 0.3914 0.5147 0.8374
N23 N 0.3145(2) 0.2220(2) 0.7121(2)
N24 N 0.3333(2) 0.2897(2) 0.7426(2)
C87 C 0.3779(3) 0.3111(3) 0.7235(3)
C88 C 0.3874(3) 0.2579(3) 0.6819(3)
H73 H 0.4159 0.2598 0.6619
C89 C 0.3472(3) 0.2019(3) 0.6756(3)
H74 H 0.3429 0.1572 0.6503
C90 C 0.2744(3) 0.1817(3) 0.7275(3)
H75 H 0.2495 0.1357 0.6891
H76 H 0.2409 0.2005 0.7353
C91 C -0.3168(3) -0.1330(3) 0.1404(3)
C92 C -0.2822(3) -0.1402(2) 0.1945(3)
H77 H -0.2347 -0.1181 0.2188
C93 C 0.3153(3) 0.1783(3) 0.7873(3)
C94 C 0.3856(3) 0.2112(3) 0.8229(3)
H78 H 0.4093 0.2372 0.8104
C95 C 0.4198(3) 0.2050(3) 0.8764(3)
H79 H 0.4672 0.2278 0.9012
C96 C -0.3857(3) -0.1658(3) 0.1054(3)
H80 H -0.4101 -0.1618 0.0690
N25 N -0.2330(2) 0.1245(2) 0.1844(2)
C97 C -0.2135(3) 0.1911(3) 0.2203(3)
C98 C -0.1653(3) 0.2354(3) 0.2189(3)
H81 H -0.1525 0.2825 0.2445
C99 C -0.1361(3) 0.2097(3) 0.1794(3)
H82 H -0.1018 0.2391 0.1787
C100 C -0.1569(3) 0.1412(3) 0.1408(3)
H83 H -0.1389 0.1228 0.1118
C101 C -0.2047(3) 0.1003(3) 0.1456(2)
H84 H -0.2181 0.0531 0.1204
N26 N -0.3177(2) 0.2003(2) 0.2984(2)
N27 N -0.2918(2) 0.1657(2) 0.2598(2)
C102 C -0.2464(3) 0.2141(3) 0.2616(2)
C103 C -0.2429(3) 0.2773(3) 0.3013(3)
H85 H -0.2147 0.3192 0.3111
C104 C -0.2891(3) 0.2659(3) 0.3231(3)
H86 H -0.2990 0.2993 0.3514
C105 C -0.3676(3) 0.1641(3) 0.3098(3)
H87 H -0.4008 0.1230 0.2678
H88 H -0.3917 0.1925 0.3250
N28 N 0.11774(19) -0.28159(19) 0.26521(19)
C106 C 0.0849(2) -0.2395(2) 0.2795(2)
C107 C 0.0392(3) -0.2347(3) 0.2312(2)
H89 H 0.0169 -0.2050 0.2421
C108 C 0.0256(3) -0.2735(3) 0.1665(3)
H90 H -0.0060 -0.2706 0.1326
C109 C 0.0582(3) -0.3160(3) 0.1519(3)
H91 H 0.0495 -0.3429 0.1078
C110 C 0.1033(3) -0.3191(3) 0.2016(3)
H92 H 0.1254 -0.3490 0.1911
N29 N 0.1396(2) -0.1852(2) 0.44795(19)
N30 N 0.1362(2) -0.22312(19) 0.38861(19)
C111 C 0.1055(3) -0.1442(3) 0.4447(3)
H93 H 0.1002 -0.1138 0.4799
C112 C 0.0802(2) -0.1541(2) 0.3824(2)
H94 H 0.0552 -0.1320 0.3659
C113 C 0.0995(2) -0.2046(2) 0.3482(2)
C114 C 0.1667(2) -0.1977(2) 0.5019(2)
H95 H 0.1572 -0.2462 0.4831
H96 H 0.1424 -0.1863 0.5283
C115 C 0.2403(2) -0.1600(2) 0.5468(2)
C116 C 0.2682(3) -0.1769(3) 0.5958(2)
H97 H 0.2404 -0.2101 0.5985
C117 C -0.3360(3) 0.1445(3) 0.3607(2)
C118 C -0.3779(3) 0.0961(3) 0.3642(3)
H98 H -0.4246 0.0751 0.3350
C119 C -0.3499(3) 0.0788(3) 0.4114(3)
H99 H -0.3776 0.0448 0.4134
C120 C 0.2820(3) -0.1108(2) 0.5445(2)
H100 H 0.2639 -0.0989 0.5124
N31 N 0.3775(2) 0.3747(2) 0.8867(2)
C121 C 0.3504(3) 0.3430(3) 0.9119(3)
C122 C 0.3885(4) 0.3406(4) 0.9669(3)
H101 H 0.3676 0.3186 0.9841
C123 C 0.4584(4) 0.3717(4) 0.9961(3)
H102 H 0.4862 0.3696 1.0327
C124 C 0.4865(4) 0.4052(4) 0.9713(3)
H103 H 0.5337 0.4281 0.9915
C125 C 0.4448(3) 0.4050(3) 0.9165(3)
H104 H 0.4646 0.4274 0.8990
N32 N 0.1793(2) 0.2723(2) 0.7970(2)
N33 N 0.2434(2) 0.3096(2) 0.8208(2)
C126 C 0.2766(3) 0.3085(3) 0.8763(3)
C127 C 0.2306(3) 0.2684(3) 0.8853(3)
H105 H 0.2404 0.2589 0.9200
C128 C 0.1702(3) 0.2465(3) 0.8348(3)
H106 H 0.1288 0.2183 0.8268
C129 C 0.1263(3) 0.2672(3) 0.7401(3)
H107 H 0.0884 0.2237 0.7168
H108 H 0.1442 0.2680 0.7093
N34 N 0.2234(2) -0.3516(2) 0.2933(2)
C130 C 0.1953(3) -0.4163(3) 0.2742(3)
C131 C 0.2186(3) -0.4643(3) 0.2456(3)
H109 H 0.1967 -0.5098 0.2320
C132 C 0.2736(3) -0.4449(3) 0.2373(3)
H110 H 0.2915 -0.4765 0.2192
C133 C 0.3033(3) -0.3775(3) 0.2559(3)
H111 H 0.3407 -0.3628 0.2494
C134 C 0.2766(3) -0.3333(3) 0.2839(3)
H112 H 0.2969 -0.2876 0.2972
N35 N 0.0653(2) -0.4116(2) 0.3206(2)
N36 N 0.1156(2) -0.3835(2) 0.3122(2)
C135 C 0.1368(3) -0.4326(3) 0.2867(3)
C136 C 0.0991(4) -0.4923(3) 0.2783(3)
H113 H 0.1040 -0.5342 0.2616
C137 C 0.0531(4) -0.4769(3) 0.2999(3)
H114 H 0.0189 -0.5069 0.3001
C138 C 0.0211(3) -0.3773(3) 0.3367(3)
H115 H 0.0490 -0.3309 0.3736
H116 H -0.0054 -0.4006 0.3512
C139 C 0.1001(3) 0.3234(3) 0.7584(3)
C140 C 0.0542(3) 0.3265(3) 0.7074(3)
H117 H 0.0418 0.2953 0.6631
C141 C -0.0263(3) -0.3755(3) 0.2790(3)
C142 C -0.0438(3) -0.4198(3) 0.2144(3)
H118 H -0.0246 -0.4526 0.2044
C143 C -0.0897(3) -0.4159(4) 0.1639(3)
H119 H -0.1016 -0.4465 0.1196
C144 C 0.1182(3) 0.3689(3) 0.8234(3)
H120 H 0.1499 0.3675 0.8584
Co1A Co -0.19501(3) -0.13200(3) 0.70191(3)
Co2A Co 0.31069(3) -0.06580(3) 0.80790(3)
Co3A Co -0.30614(4) -0.36624(4) 0.20171(3)
Co4A Co -0.18362(3) 0.28482(3) 0.65350(3)
N1A N -0.2068(2) -0.0405(2) 0.75675(19)
C1A C -0.1648(3) -0.0066(3) 0.8217(2)
C2A C -0.1713(3) 0.0477(3) 0.8668(3)
H1A H -0.1409 0.0711 0.9124
C3A C -0.2232(3) 0.0660(3) 0.8427(3)
H2A H -0.2299 0.1017 0.8722
C4A C -0.2660(3) 0.0329(3) 0.7757(3)
H3A H -0.3011 0.0462 0.7585
C5A C -0.2554(2) -0.0211(3) 0.7345(3)
H4A H -0.2845 -0.0446 0.6886
N2A N -0.0532(2) -0.0919(2) 0.8256(2)
N3A N -0.10584(19) -0.0793(2) 0.7944(2)
C6A C -0.1097(2) -0.0286(3) 0.8426(2)
C7A C -0.0595(3) -0.0087(3) 0.9044(3)
H5A H -0.0517 0.0251 0.9459
C8A C -0.0243(3) -0.0485(3) 0.8921(3)
H6A H 0.0141 -0.0466 0.9243
C9A C -0.0235(3) -0.1301(3) 0.7892(3)
H7A H 0.0019 -0.1481 0.8144
H8A H -0.0597 -0.1687 0.7469
N4A N 0.3830(2) -0.0044(2) 0.7974(2)
C10A C 0.3571(3) 0.0159(3) 0.7544(3)
C11A C 0.3982(3) 0.0584(3) 0.7444(3)
H9A H 0.3790 0.0709 0.7130
C12A C 0.4667(3) 0.0820(3) 0.7805(3)
H10A H 0.4955 0.1117 0.7750
C13A C 0.4930(3) 0.0621(3) 0.8247(3)
H11A H 0.5402 0.0767 0.8497
C14A C 0.4482(3) 0.0197(3) 0.8316(3)
H12A H 0.4663 0.0075 0.8636
N5A N 0.1843(2) -0.0756(2) 0.6867(2)
N6A N 0.2481(2) -0.05302(19) 0.73099(19)
C15A C 0.2832(2) -0.0141(2) 0.7159(2)
C16A C 0.2408(3) -0.0109(3) 0.6630(3)
H13A H 0.2530 0.0133 0.6434
C17A C 0.1777(3) -0.0506(2) 0.6459(2)
H14A H 0.1368 -0.0589 0.6116
C18A C 0.1280(2) -0.1214(2) 0.6848(2)
H15A H 0.0924 -0.1507 0.6387
H16A H 0.1443 -0.1503 0.7006
C19A C 0.0227(2) -0.0895(2) 0.7759(2)
C20A C 0.0552(2) -0.1196(3) 0.7411(2)
H17A H 0.0481 -0.1653 0.7269
C21A C 0.0980(2) -0.0839(2) 0.7267(2)
C22A C 0.1095(2) -0.0161(2) 0.7482(2)
H18A H 0.1383 0.0088 0.7387
C23A C 0.0777(2) 0.0145(3) 0.7842(3)
H19A H 0.0854 0.0605 0.7995
C24A C 0.0352(2) -0.0220(3) 0.7974(2)
H20A H 0.0141 -0.0005 0.8216
N7A N -0.2477(2) -0.1725(2) 0.7434(2)
C25A C -0.3162(3) -0.1936(3) 0.7117(3)
C26A C -0.3560(3) -0.2139(3) 0.7362(3)
H21A H -0.4033 -0.2274 0.7138
C27A C -0.3263(3) -0.2143(3) 0.7945(3)
H22A H -0.3530 -0.2268 0.8130
C28A C -0.2580(3) -0.1965(3) 0.8250(3)
H23A H -0.2372 -0.1984 0.8637
C29A C -0.2196(3) -0.1756(3) 0.7983(3)
H24A H -0.1723 -0.1632 0.8194
N8A N -0.3377(2) -0.1774(2) 0.5733(2)
N9A N -0.2987(2) -0.1740(2) 0.6298(2)
C30A C -0.3426(3) -0.1920(3) 0.6506(3)
C31A C -0.4083(3) -0.2070(3) 0.6076(3)
H25A H -0.4479 -0.2209 0.6112
C32A C -0.4029(3) -0.1970(3) 0.5587(3)
H26A H -0.4388 -0.2029 0.5214
C33A C -0.3089(3) -0.1695(3) 0.5314(3)
H27A H -0.3376 -0.1562 0.5029
H28A H -0.2640 -0.1328 0.5595
N10A N -0.2852(2) -0.4520(2) 0.1523(2)
C34A C -0.2419(3) -0.4664(3) 0.1921(3)
C35A C -0.2228(4) -0.5197(3) 0.1665(4)
H29A H -0.1923 -0.5297 0.1945
C36A C -0.2500(4) -0.5580(4) 0.0981(4)
H30A H -0.2387 -0.5953 0.0791
C37A C -0.2924(4) -0.5424(4) 0.0585(4)
H31A H -0.3098 -0.5673 0.0121
C38A C -0.3095(3) -0.4896(3) 0.0875(3)
H32A H -0.3402 -0.4793 0.0599
N11A N -0.2008(2) -0.3359(2) 0.3486(2)
N12A N -0.2330(2) -0.3683(2) 0.2821(2)
C39A C -0.2165(3) -0.4226(3) 0.2618(3)
C40A C -0.1752(3) -0.4256(3) 0.3160(3)
H33A H -0.1574 -0.4589 0.3156
C41A C -0.1663(3) -0.3679(3) 0.3705(3)
H34A H -0.1402 -0.3542 0.4153
C42A C -0.2075(3) -0.2749(3) 0.3892(3)
H35A H -0.1626 -0.2427 0.4259
H36A H -0.2233 -0.2545 0.3624
C43A C -0.3022(3) -0.2327(3) 0.4882(2)
C44A C -0.2592(3) -0.2281(3) 0.4611(2)
H37A H -0.2320 -0.1850 0.4726
C45A C -0.2543(3) -0.2847(3) 0.4172(2)
C46A C -0.2940(3) -0.3485(3) 0.4013(3)
H38A H -0.2915 -0.3878 0.3720
C47A C -0.3374(3) -0.3530(3) 0.4296(3)
H39A H -0.3647 -0.3958 0.4187
C48A C -0.3408(3) -0.2969(3) 0.4723(3)
H40A H -0.3696 -0.3011 0.4915
N13A N -0.1898(2) -0.2249(2) 0.6444(2)
C49A C -0.1564(2) -0.2226(3) 0.6091(2)
C50A C -0.1560(3) -0.2815(3) 0.5627(3)
H41A H -0.1323 -0.2793 0.5384
C51A C -0.1910(3) -0.3427(3) 0.5530(3)
H42A H -0.1918 -0.3831 0.5219
C52A C -0.2250(3) -0.3440(3) 0.5899(3)
H43A H -0.2490 -0.3854 0.5842
C53A C -0.2234(3) -0.2856(3) 0.6339(3)
H44A H -0.2469 -0.2874 0.6585
N14A N -0.0951(2) -0.0496(2) 0.66805(19)
N15A N -0.13748(19) -0.10588(19) 0.65815(18)
C54A C -0.1222(2) -0.1562(2) 0.6223(2)
C55A C -0.0732(3) -0.1330(3) 0.6079(2)
H45A H -0.0547 -0.1584 0.5829
C56A C -0.0567(2) -0.0646(3) 0.6380(2)
H46A H -0.0239 -0.0335 0.6375
C57A C -0.0984(2) 0.0159(2) 0.7013(2)
H47A H -0.1060 0.0206 0.7392
H48A H -0.0548 0.0514 0.7183
N16A N -0.2529(2) 0.2829(2) 0.5697(2)
C58A C -0.3164(3) 0.2396(3) 0.5416(3)
C59A C -0.3704(3) 0.2367(3) 0.4926(3)
H49A H -0.4146 0.2056 0.4746
C60A C -0.3571(3) 0.2821(3) 0.4702(3)
H50A H -0.3924 0.2834 0.4378
C61A C -0.2915(3) 0.3241(3) 0.4969(3)
H51A H -0.2809 0.3531 0.4811
C62A C -0.2401(3) 0.3243(3) 0.5475(3)
H52A H -0.1953 0.3545 0.5662
N17A N -0.2967(2) 0.1533(2) 0.6302(2)
N18A N -0.2727(2) 0.19930(19) 0.6157(2)
C63A C -0.3268(3) 0.1932(3) 0.5672(2)
C64A C -0.3845(3) 0.1434(3) 0.5493(3)
H53A H -0.4287 0.1298 0.5165
C65A C -0.3635(3) 0.1174(3) 0.5902(3)
H54A H -0.3908 0.0814 0.5902
C66A C -0.2528(3) 0.1383(3) 0.6758(3)
H55A H -0.2138 0.1801 0.7115
H56A H -0.2776 0.1222 0.6959
C67A C -0.1536(2) 0.0254(2) 0.6562(2)
C68A C -0.1772(2) 0.0749(2) 0.6839(2)
H57A H -0.1589 0.1012 0.7302
C69A C -0.2273(2) 0.0856(2) 0.6432(2)
C70A C -0.2550(3) 0.0463(2) 0.5747(2)
H58A H -0.2902 0.0525 0.5470
C71A C -0.2305(3) -0.0016(2) 0.5476(2)
H59A H -0.2477 -0.0270 0.5013
C72A C -0.1805(3) -0.0123(3) 0.5889(2)
H60A H -0.1650 -0.0460 0.5702
N19A N 0.3837(2) -0.0749(2) 0.8847(2)
C73A C 0.3942(3) -0.0345(3) 0.9457(3)
C74A C 0.4268(3) -0.0430(3) 0.9977(3)
H61A H 0.4320 -0.0145 1.0401
C75A C 0.4521(3) -0.0937(3) 0.9875(3)
H62A H 0.4747 -0.1005 1.0226
C76A C 0.4432(3) -0.1339(3) 0.9247(3)
H63A H 0.4609 -0.1680 0.9161
C77A C 0.4079(3) -0.1237(3) 0.8742(3)
H64A H 0.4008 -0.1521 0.8310
N20A N 0.3144(2) 0.0732(2) 0.9214(2)
N21A N 0.3335(2) 0.0216(2) 0.9004(2)
C78A C 0.3682(2) 0.0190(3) 0.9532(3)
C79A C 0.3735(3) 0.0713(3) 1.0099(3)
H65A H 0.3965 0.0812 1.0539
C80A C 0.3383(3) 0.1050(3) 0.9880(3)
H66A H 0.3319 0.1431 1.0141
C81A C 0.2759(3) 0.0923(3) 0.8770(3)
H67A H 0.2411 0.0510 0.8360
H68A H 0.2526 0.1182 0.8974
N22A N -0.3827(2) -0.4211(2) 0.2145(2)
C82A C -0.4059(3) -0.3831(3) 0.2523(3)
C83A C -0.4537(4) -0.4111(4) 0.2658(4)
H69A H -0.4717 -0.3839 0.2899
C84A C -0.4755(5) -0.4785(4) 0.2445(5)
H70A H -0.5066 -0.4978 0.2558
C85A C -0.4507(5) -0.5187(4) 0.2056(6)
H71A H -0.4644 -0.5654 0.1902
C86A C -0.4063(4) -0.4878(3) 0.1908(4)
H72A H -0.3914 -0.5147 0.1626
N23A N -0.3145(2) -0.2220(2) 0.2879(2)
N24A N -0.3333(2) -0.2897(2) 0.2574(2)
C87A C -0.3779(3) -0.3111(3) 0.2765(3)
C88A C -0.3874(3) -0.2579(3) 0.3181(3)
H73A H -0.4159 -0.2598 0.3381
C89A C -0.3472(3) -0.2019(3) 0.3244(3)
H74A H -0.3429 -0.1572 0.3497
C90A C -0.2744(3) -0.1817(3) 0.2725(3)
H75A H -0.2495 -0.1357 0.3109
H76A H -0.2409 -0.2005 0.2647
C91A C 0.3168(3) 0.1330(3) 0.8596(3)
C92A C 0.2822(3) 0.1402(2) 0.8055(3)
H77A H 0.2347 0.1181 0.7812
C93A C -0.3153(3) -0.1783(3) 0.2127(3)
C94A C -0.3856(3) -0.2112(3) 0.1771(3)
H78A H -0.4093 -0.2372 0.1896
C95A C -0.4198(3) -0.2050(3) 0.1236(3)
H79A H -0.4672 -0.2278 0.0988
C96A C 0.3857(3) 0.1658(3) 0.8946(3)
H80A H 0.4101 0.1618 0.9310
N25A N 0.2330(2) -0.1245(2) 0.8156(2)
C97A C 0.2135(3) -0.1911(3) 0.7797(3)
C98A C 0.1653(3) -0.2354(3) 0.7811(3)
H81A H 0.1525 -0.2825 0.7555
C99A C 0.1361(3) -0.2097(3) 0.8206(3)
H82A H 0.1018 -0.2391 0.8213
C100A C 0.1569(3) -0.1412(3) 0.8592(3)
H83A H 0.1389 -0.1228 0.8882
C101A C 0.2047(3) -0.1003(3) 0.8544(2)
H84A H 0.2181 -0.0531 0.8796
N26A N 0.3177(2) -0.2003(2) 0.7016(2)
N27A N 0.2918(2) -0.1657(2) 0.7402(2)
C102A C 0.2464(3) -0.2141(3) 0.7384(2)
C103A C 0.2429(3) -0.2773(3) 0.6987(3)
H85A H 0.2147 -0.3192 0.6889
C104A C 0.2891(3) -0.2659(3) 0.6769(3)
H86A H 0.2990 -0.2993 0.6486
C105A C 0.3676(3) -0.1641(3) 0.6902(3)
H87A H 0.4008 -0.1230 0.7322
H88A H 0.3917 -0.1925 0.6750
N28A N -0.11774(19) 0.28159(19) 0.73479(19)
C106A C -0.0849(2) 0.2395(2) 0.7205(2)
C107A C -0.0392(3) 0.2347(3) 0.7688(2)
H89A H -0.0169 0.2050 0.7579
C108A C -0.0256(3) 0.2735(3) 0.8335(3)
H90A H 0.0060 0.2706 0.8674
C109A C -0.0582(3) 0.3160(3) 0.8481(3)
H91A H -0.0495 0.3429 0.8922
C110A C -0.1033(3) 0.3191(3) 0.7984(3)
H92A H -0.1254 0.3490 0.8089
N29A N -0.1396(2) 0.1852(2) 0.55205(19)
N30A N -0.1362(2) 0.22312(19) 0.61139(19)
C111A C -0.1055(3) 0.1442(3) 0.5553(3)
H93A H -0.1002 0.1138 0.5201
C112A C -0.0802(2) 0.1541(2) 0.6176(2)
H94A H -0.0552 0.1320 0.6341
C113A C -0.0995(2) 0.2046(2) 0.6518(2)
C114A C -0.1667(2) 0.1977(2) 0.4981(2)
H95A H -0.1572 0.2462 0.5169
H96A H -0.1424 0.1863 0.4717
C115A C -0.2403(2) 0.1600(2) 0.4532(2)
C116A C -0.2682(3) 0.1769(3) 0.4042(2)
H97A H -0.2404 0.2101 0.4015
C117A C 0.3360(3) -0.1445(3) 0.6393(2)
C118A C 0.3779(3) -0.0961(3) 0.6358(3)
H98A H 0.4246 -0.0751 0.6650
C119A C 0.3499(3) -0.0788(3) 0.5886(3)
H99A H 0.3776 -0.0448 0.5866
C120A C -0.2820(3) 0.1108(2) 0.4555(2)
H100A H -0.2639 0.0989 0.4876
N31A N -0.3775(2) -0.3747(2) 0.1133(2)
C121A C -0.3504(3) -0.3430(3) 0.0881(3)
C122A C -0.3885(4) -0.3406(4) 0.0331(3)
H101A H -0.3676 -0.3186 0.0159
C123A C -0.4584(4) -0.3717(4) 0.0039(3)
H102A H -0.4862 -0.3696 -0.0327
C124A C -0.4865(4) -0.4052(4) 0.0287(3)
H103A H -0.5337 -0.4281 0.0085
C125A C -0.4448(3) -0.4050(3) 0.0835(3)
H104A H -0.4646 -0.4274 0.1010
N32A N -0.1793(2) -0.2723(2) 0.2030(2)
N33A N -0.2434(2) -0.3096(2) 0.1792(2)
C126A C -0.2766(3) -0.3085(3) 0.1237(3)
C127A C -0.2306(3) -0.2684(3) 0.1147(3)
H105A H -0.2404 -0.2589 0.0800
C128A C -0.1702(3) -0.2465(3) 0.1652(3)
H106A H -0.1288 -0.2183 0.1732
C129A C -0.1263(3) -0.2672(3) 0.2599(3)
H107A H -0.0884 -0.2237 0.2832
H108A H -0.1442 -0.2680 0.2907
N34A N -0.2234(2) 0.3516(2) 0.7067(2)
C130A C -0.1953(3) 0.4163(3) 0.7258(3)
C131A C -0.2186(3) 0.4643(3) 0.7544(3)
H109A H -0.1967 0.5098 0.7680
C132A C -0.2736(3) 0.4449(3) 0.7627(3)
H110A H -0.2915 0.4765 0.7808
C133A C -0.3033(3) 0.3775(3) 0.7441(3)
H111A H -0.3407 0.3628 0.7506
C134A C -0.2766(3) 0.3333(3) 0.7161(3)
H112A H -0.2969 0.2876 0.7028
N35A N -0.0653(2) 0.4116(2) 0.6794(2)
N36A N -0.1156(2) 0.3835(2) 0.6878(2)
C135A C -0.1368(3) 0.4326(3) 0.7133(3)
C136A C -0.0991(4) 0.4923(3) 0.7217(3)
H113A H -0.1040 0.5342 0.7384
C137A C -0.0531(4) 0.4769(3) 0.7001(3)
H114A H -0.0189 0.5069 0.6999
C138A C -0.0211(3) 0.3773(3) 0.6633(3)
H115A H -0.0490 0.3309 0.6264
H116A H 0.0054 0.4006 0.6488
C139A C -0.1001(3) -0.3234(3) 0.2416(3)
C140A C -0.0542(3) -0.3265(3) 0.2926(3)
H117A H -0.0418 -0.2953 0.3369
C141A C 0.0263(3) 0.3755(3) 0.7210(3)
C142A C 0.0438(3) 0.4198(3) 0.7856(3)
H118A H 0.0246 0.4526 0.7956
C143A C 0.0897(3) 0.4159(4) 0.8361(3)
H119A H 0.1016 0.4465 0.8804
C144A C -0.1182(3) -0.3689(3) 0.1766(3)
H120A H -0.1499 -0.3675 0.1416
B1 B 0.0108(4) 0.2233(4) 0.5162(3)
F1 F 0.05428(17) 0.21749(17) 0.56819(17)
F2 F -0.01816(16) 0.26779(17) 0.54229(16)
F3 F 0.04968(16) 0.25148(16) 0.49374(16)
F4 F -0.03734(17) 0.16207(17) 0.46651(16)
B2 B 0.4728(4) 0.7431(4) 0.3766(4)
F5 F 0.54055(18) 0.7883(2) 0.41060(19)
F6 F 0.45119(18) 0.7402(2) 0.42027(19)
F7 F 0.43260(18) 0.7626(2) 0.33782(19)
F8 F 0.47011(19) 0.6806(2) 0.3343(2)
B3 B 0.2732(2) 0.24768(19) 0.0477(2)
F9 F 0.3160(2) 0.2288(2) 0.0847(2)
F10 F 0.2254(2) 0.2592(3) 0.0678(3)
F11 F 0.2396(3) 0.1992(3) -0.01805(18)
F12 F 0.3076(3) 0.3059(2) 0.0523(3)
B4 B 0.9373(4) 0.1601(4) 0.0507(4)
F13 F 0.91251(18) 0.09464(18) 0.03765(17)
F14 F 0.97807(19) 0.20341(18) 0.11780(17)
F15 F 0.88286(19) 0.17793(18) 0.02952(18)
F16 F 0.97278(19) 0.16333(18) 0.01619(18)
B5 B 0.5416(2) 0.2771(2) 0.3051(2)
F17 F 0.6040(2) 0.3250(3) 0.3548(2)
F18 F 0.5158(3) 0.2368(3) 0.3260(3)
F19 F 0.5480(3) 0.2381(3) 0.2504(2)
F20 F 0.4990(3) 0.3084(3) 0.2893(3)
B6 B 0.9271(6) 0.9153(6) 0.3374(7)
F21 F 0.9750(2) 0.9072(2) 0.3213(3)
F22 F 0.8678(3) 0.8910(3) 0.2815(3)
F23 F 0.9097(3) 0.8795(2) 0.3649(3)
F24 F 0.9406(2) 0.9836(2) 0.3778(3)
B7 B 0.9053(2) 0.4336(2) 0.3167(2)
F25 F 0.9248(4) 0.4060(4) 0.2690(3)
F26 F 0.9187(4) 0.4069(4) 0.3573(3)
F27 F 0.8367(2) 0.4185(4) 0.2870(4)
F28 F 0.9389(4) 0.5021(2) 0.3530(3)
O1 O 0.1639(3) 0.0265(3) -0.0556(2)
O2 O 0.1356(2) 0.0688(2) 0.0201(2)
N37 N 0.1709(3) 0.0443(3) -0.0008(2)
C145 C 0.2227(3) 0.0328(4) 0.0421(3)
H121 H 0.2231 0.0497 0.0850
H122 H 0.2667 0.0563 0.0478
H123 H 0.2132 -0.0154 0.0222
O3 O 0.5346(3) 0.8721(3) 0.3275(3)
O4 O 0.6310(2) 0.9317(2) 0.4090(2)
N38 N 0.5718(3) 0.9073(2) 0.3872(3)
C146 C 0.5424(4) 0.9254(4) 0.4335(4)
H124 H 0.4936 0.9011 0.4092
H125 H 0.5529 0.9737 0.4551
H126 H 0.5614 0.9132 0.4667
O5 O 0.3106(7) 0.9297(6) 0.0630(7)
O6 O 0.3709(6) 0.8740(7) 0.0481(7)
N39 N 0.3128(6) 0.8793(6) 0.0350(6)
C147 C 0.2590(6) 0.8181(6) -0.0025(7)
H127 H 0.2746 0.7821 -0.0199
H128 H 0.2248 0.8177 -0.0390
H129 H 0.2397 0.8112 0.0250
O7 O 0.4807(6) 0.2375(5) 0.0564(5)
O8 O 0.4789(9) 0.2685(7) 0.1501(6)
N40 N 0.4730(6) 0.2767(5) 0.1012(5)
C148 C 0.4656(10) 0.3341(7) 0.1031(8)
H130 H 0.4628 0.3609 0.1433
H131 H 0.4244 0.3218 0.0647
H132 H 0.5043 0.3603 0.1029
O9 O 0.1469(4) 0.2874(4) 0.2293(4)
O10 O 0.1242(4) 0.3651(4) 0.2118(4)
N41 N 0.1315(4) 0.3110(3) 0.1922(3)
C149 C 0.1224(5) 0.2732(4) 0.1274(4)
H133 H 0.1102 0.2967 0.1035
H134 H 0.0866 0.2291 0.1048
H135 H 0.1643 0.2677 0.1291
O11 O 0.8300(4) 0.9783(3) 0.4374(3)
O12 O 0.8180(3) 0.8868(3) 0.4381(4)
N42 N 0.8514(4) 0.9419(3) 0.4553(3)
C150 C 0.9230(4) 0.9731(4) 0.5031(4)
H136 H 0.9360 0.9412 0.5152
H137 H 0.9307 1.0131 0.5424
H138 H 0.9498 0.9859 0.4835
O13 O 0.8868(3) 0.3456(2) 0.5020(3)
O14 O 0.8795(2) 0.2661(3) 0.4151(3)
N43 N 0.9094(3) 0.3224(3) 0.4645(3)
C151 C 0.9781(4) 0.3630(4) 0.4803(4)
H139 H 0.9898 0.3382 0.4461
H140 H 1.0108 0.3720 0.5228
H141 H 0.9788 0.4055 0.4823
O15 O 0.9469(3) 0.8335(4) 0.1452(4)
O16 O 1.0309(3) 0.8763(3) 0.1366(3)
N44 N 0.9697(4) 0.8502(3) 0.1150(3)
C152 C 0.9244(3) 0.8505(3) 0.0560(3)
H142 H 0.9511 0.8666 0.0378
H143 H 0.9009 0.8802 0.0688
H144 H 0.8914 0.8049 0.0228
O17 O 0.0215(8) 0.2747(6) 0.2978(7)
O18 O 0.0548(7) 0.3583(6) 0.3961(6)
N45 N 0.0425(5) 0.3311(5) 0.3369(5)
C153 C 0.0812(10) 0.3799(8) 0.3270(9)
H145 H 0.0964 0.4252 0.3639
H146 H 0.0529 0.3770 0.2860
H147 H 0.1203 0.3701 0.3246
O19 O 0.0890(3) 0.58384(18) 0.8937(3)
O20 O 0.1674(2) 0.6739(4) 0.9233(7)
N46 N 0.10633(18) 0.6359(3) 0.8928(3)
C154 C 0.0578(3) 0.6525(5) 0.8568(6)
H148 H 0.0799 0.6951 0.8608
H149 H 0.0253 0.6568 0.8740
H150 H 0.0346 0.6171 0.8104
O21 O -0.4664(4) -0.0716(4) -0.1637(4)
O22 O -0.3793(4) -0.0952(4) -0.1540(4)
N47 N -0.4242(4) -0.0792(4) -0.1813(4)
C155 C -0.4276(5) -0.0717(5) -0.2382(5)
H151 H -0.3906 -0.0800 -0.2471
H152 H -0.4239 -0.0261 -0.2282
H153 H -0.4705 -0.1039 -0.2770
O23 O 1.0220(4) 0.2798(5) 0.9834(5)
O24 O 0.9861(5) 0.3182(5) 1.0545(5)
N48 N 0.9747(6) 0.2843(6) 0.9949(6)
C156 C 0.9082(4) 0.2431(5) 0.9437(5)
H154 H 0.8762 0.2515 0.9610
H155 H 0.9023 0.1959 0.9265
H156 H 0.9001 0.2535 0.9084
O25 O 0.6056(5) 0.0447(5) 0.6690(5)
B8? B 0.5563(2) -0.0182(2) 0.6291(2)
F29? F 0.5290(3) -0.0301(3) 0.5656(2)
F30? F 0.5483(4) -0.0783(3) 0.6280(3)
F31? F 0.5239(3) 0.0140(3) 0.6614(3)
F32? F 0.6237(2) 0.0216(3) 0.6615(3)
C157? C 0.8085(7) 0.8973(9) 0.4323(11)
F33? F 0.2742(8) 0.3096(5) 0.0860(4)
F34? F 0.2904(7) 0.2514(9) 0.0010(6)
F35? F 0.2076(2) 0.2026(6) 0.0146(8)
F36? F 0.9410(4) 0.3964(4) 0.2953(5)
F37? F 0.8627(4) 0.3994(4) 0.3309(5)
F38? F 0.8693(5) 0.4451(5) 0.2684(4)
F39? F 0.9502(4) 0.4943(3) 0.3727(3)
H157? H 0.8079 0.8558 0.4327
H158? H 0.7834 0.8867 0.3869
H159? H 0.7878 0.9193 0.4586
N49? N 0.8740(8) 0.9394(7) 0.4584(7)
O26? O 0.8815(7) 0.9944(6) 0.4608(7)
O27? O 0.9253(8) 0.9324(9) 0.4899(9)
loop_
_geom_bond_atom_site_label_1
_geom_bond_atom_site_label_2
_geom_bond_site_symmetry_1
_geom_bond_site_symmetry_2
Co1 N1 1_555 1_555
Co2 N4 1_555 1_555
Co3 N10 1_555 1_555
Co4 N16 1_555 1_555
N1 C1 1_555 1_555
C1 C2 1_555 1_555
C2 H1 1_555 1_555
C3 C2 1_555 1_555
H2 C3 1_555 1_555
C4 C3 1_555 1_555
H3 C4 1_555 1_555
C5 N1 1_555 1_555
H4 C5 1_555 1_555
N2 N3 1_555 1_555
N3 Co1 1_555 1_555
C6 C1 1_555 1_555
C7 C6 1_555 1_555
H5 C7 1_555 1_555
C8 N2 1_555 1_555
H6 C8 1_555 1_555
C9 N2 1_555 1_555
H7 C9 1_555 1_555
H8 C9 1_555 1_555
N4 C10 1_555 1_555
C10 C11 1_555 1_555
C11 H9 1_555 1_555
C12 C11 1_555 1_555
H10 C12 1_555 1_555
C13 C12 1_555 1_555
H11 C13 1_555 1_555
C14 N4 1_555 1_555
H12 C14 1_555 1_555
N5 N6 1_555 1_555
N6 Co2 1_555 1_555
C15 C10 1_555 1_555
C16 C15 1_555 1_555
H13 C16 1_555 1_555
C17 N5 1_555 1_555
H14 C17 1_555 1_555
C18 N5 1_555 1_555
H15 C18 1_555 1_555
H16 C18 1_555 1_555
C19 C9 1_555 1_555
C20 C19 1_555 1_555
H17 C20 1_555 1_555
C21 C18 1_555 1_555
C22 C21 1_555 1_555
H18 C22 1_555 1_555
C23 C22 1_555 1_555
H19 C23 1_555 1_555
C24 C19 1_555 1_555
H20 C24 1_555 1_555
N7 Co1 1_555 1_555
C25 N7 1_555 1_555
C26 C25 1_555 1_555
H21 C26 1_555 1_555
C27 C26 1_555 1_555
H22 C27 1_555 1_555
C28 C27 1_555 1_555
H23 C28 1_555 1_555
C29 N7 1_555 1_555
H24 C29 1_555 1_555
N8 N9 1_555 1_555
N9 Co1 1_555 1_555
C30 C25 1_555 1_555
C31 C30 1_555 1_555
H25 C31 1_555 1_555
C32 N8 1_555 1_555
H26 C32 1_555 1_555
C33 N8 1_555 1_555
H27 C33 1_555 1_555
H28 C33 1_555 1_555
N10 C34 1_555 1_555
C34 C35 1_555 1_555
C35 H29 1_555 1_555
C36 C35 1_555 1_555
H30 C36 1_555 1_555
C37 C36 1_555 1_555
H31 C37 1_555 1_555
C38 N10 1_555 1_555
H32 C38 1_555 1_555
N11 N12 1_555 1_555
N12 Co3 1_555 1_555
C39 C34 1_555 1_555
C40 C39 1_555 1_555
H33 C40 1_555 1_555
C41 N11 1_555 1_555
H34 C41 1_555 1_555
C42 N11 1_555 1_555
H35 C42 1_555 1_555
H36 C42 1_555 1_555
C43 C33 1_555 1_555
C44 C43 1_555 1_555
H37 C44 1_555 1_555
C45 C42 1_555 1_555
C46 C45 1_555 1_555
H38 C46 1_555 1_555
C47 C46 1_555 1_555
H39 C47 1_555 1_555
C48 C43 1_555 1_555
H40 C48 1_555 1_555
N13 Co1 1_555 1_555
C49 N13 1_555 1_555
C50 C49 1_555 1_555
H41 C50 1_555 1_555
C51 C50 1_555 1_555
H42 C51 1_555 1_555
C52 C51 1_555 1_555
H43 C52 1_555 1_555
C53 N13 1_555 1_555
H44 C53 1_555 1_555
N14 N15 1_555 1_555
N15 Co1 1_555 1_555
C54 C49 1_555 1_555
C55 C54 1_555 1_555
H45 C55 1_555 1_555
C56 N14 1_555 1_555
H46 C56 1_555 1_555
C57 N14 1_555 1_555
H47 C57 1_555 1_555
H48 C57 1_555 1_555
N16 C58 1_555 1_555
C58 C59 1_555 1_555
C59 H49 1_555 1_555
C60 C59 1_555 1_555
H50 C60 1_555 1_555
C61 C60 1_555 1_555
H51 C61 1_555 1_555
C62 N16 1_555 1_555
H52 C62 1_555 1_555
N17 N18 1_555 1_555
N18 Co4 1_555 1_555
C63 C58 1_555 1_555
C64 C63 1_555 1_555
H53 C64 1_555 1_555
C65 N17 1_555 1_555
H54 C65 1_555 1_555
C66 N17 1_555 1_555
H55 C66 1_555 1_555
H56 C66 1_555 1_555
C67 C57 1_555 1_555
C68 C67 1_555 1_555
H57 C68 1_555 1_555
C69 C66 1_555 1_555
C70 C69 1_555 1_555
H58 C70 1_555 1_555
C71 C70 1_555 1_555
H59 C71 1_555 1_555
C72 C67 1_555 1_555
H60 C72 1_555 1_555
N19 Co2 1_555 1_555
C73 N19 1_555 1_555
C74 C73 1_555 1_555
H61 C74 1_555 1_555
C75 C74 1_555 1_555
H62 C75 1_555 1_555
C76 C75 1_555 1_555
H63 C76 1_555 1_555
C77 N19 1_555 1_555
H64 C77 1_555 1_555
N20 N21 1_555 1_555
N21 Co2 1_555 1_555
C78 C73 1_555 1_555
C79 C78 1_555 1_555
H65 C79 1_555 1_555
C80 N20 1_555 1_555
H66 C80 1_555 1_555
C81 N20 1_555 1_555
H67 C81 1_555 1_555
H68 C81 1_555 1_555
N22 Co3 1_555 1_555
C82 N22 1_555 1_555
C83 C82 1_555 1_555
H69 C83 1_555 1_555
C84 C83 1_555 1_555
H70 C84 1_555 1_555
C85 C84 1_555 1_555
H71 C85 1_555 1_555
C86 N22 1_555 1_555
H72 C86 1_555 1_555
N23 N24 1_555 1_555
N24 Co3 1_555 1_555
C87 C82 1_555 1_555
C88 C87 1_555 1_555
H73 C88 1_555 1_555
C89 N23 1_555 1_555
H74 C89 1_555 1_555
C90 N23 1_555 1_555
H75 C90 1_555 1_555
H76 C90 1_555 1_555
C91 C81 1_555 1_555
C92 C91 1_555 1_555
H77 C92 1_555 1_555
C93 C90 1_555 1_555
C94 C93 1_555 1_555
H78 C94 1_555 1_555
C95 C94 1_555 1_555
H79 C95 1_555 1_555
C96 C91 1_555 1_555
H80 C96 1_555 1_555
N25 Co2 1_555 1_555
C97 N25 1_555 1_555
C98 C97 1_555 1_555
H81 C98 1_555 1_555
C99 C98 1_555 1_555
H82 C99 1_555 1_555
C100 C99 1_555 1_555
H83 C100 1_555 1_555
C101 N25 1_555 1_555
H84 C101 1_555 1_555
N26 N27 1_555 1_555
N27 Co2 1_555 1_555
C102 C97 1_555 1_555
C103 C102 1_555 1_555
H85 C103 1_555 1_555
C104 N26 1_555 1_555
H86 C104 1_555 1_555
C105 N26 1_555 1_555
H87 C105 1_555 1_555
H88 C105 1_555 1_555
N28 Co4 1_555 1_555
C106 N28 1_555 1_555
C107 C106 1_555 1_555
H89 C107 1_555 1_555
C108 C107 1_555 1_555
H90 C108 1_555 1_555
C109 C108 1_555 1_555
H91 C109 1_555 1_555
C110 N28 1_555 1_555
H92 C110 1_555 1_555
N29 N30 1_555 1_555
N30 Co4 1_555 1_555
C111 N29 1_555 1_555
H93 C111 1_555 1_555
C112 C111 1_555 1_555
H94 C112 1_555 1_555
C113 C106 1_555 1_555
C114 N29 1_555 1_555
H95 C114 1_555 1_555
H96 C114 1_555 1_555
C115 C114 1_555 1_555
C116 C115 1_555 1_555
H97 C116 1_555 1_555
C117 C105 1_555 1_555
C118 C117 1_555 1_555
H98 C118 1_555 1_555
C119 C118 1_555 1_555
H99 C119 1_555 1_555
C120 C115 1_555 1_555
H100 C120 1_555 1_555
N31 Co3 1_555 1_555
C121 N31 1_555 1_555
C122 C121 1_555 1_555
H101 C122 1_555 1_555
C123 C122 1_555 1_555
H102 C123 1_555 1_555
C124 C123 1_555 1_555
H103 C124 1_555 1_555
C125 N31 1_555 1_555
H104 C125 1_555 1_555
N32 N33 1_555 1_555
N33 Co3 1_555 1_555
C126 C121 1_555 1_555
C127 C126 1_555 1_555
H105 C127 1_555 1_555
C128 N32 1_555 1_555
H106 C128 1_555 1_555
C129 N32 1_555 1_555
H107 C129 1_555 1_555
H108 C129 1_555 1_555
N34 Co4 1_555 1_555
C130 N34 1_555 1_555
C131 C130 1_555 1_555
H109 C131 1_555 1_555
C132 C131 1_555 1_555
H110 C132 1_555 1_555
C133 C132 1_555 1_555
H111 C133 1_555 1_555
C134 N34 1_555 1_555
H112 C134 1_555 1_555
N35 N36 1_555 1_555
N36 Co4 1_555 1_555
C135 C130 1_555 1_555
C136 C135 1_555 1_555
H113 C136 1_555 1_555
C137 N35 1_555 1_555
H114 C137 1_555 1_555
C138 N35 1_555 1_555
H115 C138 1_555 1_555
H116 C138 1_555 1_555
C139 C129 1_555 1_555
C140 C139 1_555 1_555
H117 C140 1_555 1_555
C141 C138 1_555 1_555
C142 C141 1_555 1_555
H118 C142 1_555 1_555
C143 C142 1_555 1_555
H119 C143 1_555 1_555
C144 C139 1_555 1_555
H120 C144 1_555 1_555
B1 F1 1_555 1_555
F2 B1 1_555 1_555
F3 B1 1_555 1_555
F4 B1 1_555 1_555
B2 F5 1_555 1_555
F6 B2 1_555 1_555
F7 B2 1_555 1_555
F8 B2 1_555 1_555
B3 F9 1_555 1_555
F10 B3 1_555 1_555
F11 B3 1_555 1_555
F12 B3 1_555 1_555
B4 F13 1_555 1_555
F14 B4 1_555 1_555
F15 B4 1_555 1_555
F16 B4 1_555 1_555
B5 F17 1_555 1_555
F18 B5 1_555 1_555
F19 B5 1_555 1_555
F20 B5 1_555 1_555
B6 F21 1_555 1_555
F22 B6 1_555 1_555
F23 B6 1_555 1_555
F24 B6 1_555 1_555
B7 F25 1_555 1_555
F26 B7 1_555 1_555
F27 B7 1_555 1_555
F28 B7 1_555 1_555
O1 N37 1_555 1_555
O2 N37 1_555 1_555
N37 C145 1_555 1_555
C145 H121 1_555 1_555
H122 C145 1_555 1_555
H123 C145 1_555 1_555
O3 N38 1_555 1_555
O4 N38 1_555 1_555
N38 C146 1_555 1_555
C146 H124 1_555 1_555
H125 C146 1_555 1_555
H126 C146 1_555 1_555
O5 N39 1_555 1_555
O6 N39 1_555 1_555
N39 C147 1_555 1_555
C147 H127 1_555 1_555
H128 C147 1_555 1_555
H129 C147 1_555 1_555
O7 N40 1_555 1_555
O8 N40 1_555 1_555
N40 C148 1_555 1_555
C148 H130 1_555 1_555
H131 C148 1_555 1_555
H132 C148 1_555 1_555
O9 N41 1_555 1_555
O10 N41 1_555 1_555
N41 C149 1_555 1_555
C149 H133 1_555 1_555
H134 C149 1_555 1_555
H135 C149 1_555 1_555
O11 N42 1_555 1_555
O12 N42 1_555 1_555
N42 C150 1_555 1_555
C150 H136 1_555 1_555
H137 C150 1_555 1_555
H138 C150 1_555 1_555
O13 N43 1_555 1_555
O14 N43 1_555 1_555
N43 C151 1_555 1_555
C151 H139 1_555 1_555
H140 C151 1_555 1_555
H141 C151 1_555 1_555
O15 N44 1_555 1_555
O16 N44 1_555 1_555
N44 C152 1_555 1_555
C152 H142 1_555 1_555
H143 C152 1_555 1_555
H144 C152 1_555 1_555
O17 N45 1_555 1_555
O18 N45 1_555 1_555
N45 C153 1_555 1_555
C153 H145 1_555 1_555
H146 C153 1_555 1_555
H147 C153 1_555 1_555
O19 N46 1_555 1_555
O20 N46 1_555 1_555
N46 C154 1_555 1_555
C154 H148 1_555 1_555
H149 C154 1_555 1_555
H150 C154 1_555 1_555
O21 N47 1_555 1_555
O22 N47 1_555 1_555
N47 C155 1_555 1_555
C155 H151 1_555 1_555
H152 C155 1_555 1_555
H153 C155 1_555 1_555
O23 N48 1_555 1_555
O24 N48 1_555 1_555
N48 C156 1_555 1_555
C156 H154 1_555 1_555
H155 C156 1_555 1_555
H156 C156 1_555 1_555
Co1A N1A 1_555 1_555
Co2A N4A 1_555 1_555
Co3A N10A 1_555 1_555
Co4A N16A 1_555 1_555
N1A C1A 1_555 1_555
C1A C2A 1_555 1_555
C2A H1A 1_555 1_555
C3A C2A 1_555 1_555
H2A C3A 1_555 1_555
C4A C3A 1_555 1_555
H3A C4A 1_555 1_555
C5A N1A 1_555 1_555
H4A C5A 1_555 1_555
N2A N3A 1_555 1_555
N3A Co1A 1_555 1_555
C6A C1A 1_555 1_555
C7A C6A 1_555 1_555
H5A C7A 1_555 1_555
C8A N2A 1_555 1_555
H6A C8A 1_555 1_555
C9A N2A 1_555 1_555
H7A C9A 1_555 1_555
H8A C9A 1_555 1_555
N4A C10A 1_555 1_555
C10A C11A 1_555 1_555
C11A H9A 1_555 1_555
C12A C11A 1_555 1_555
H10A C12A 1_555 1_555
C13A C12A 1_555 1_555
H11A C13A 1_555 1_555
C14A N4A 1_555 1_555
H12A C14A 1_555 1_555
N5A N6A 1_555 1_555
N6A Co2A 1_555 1_555
C15A C10A 1_555 1_555
C16A C15A 1_555 1_555
H13A C16A 1_555 1_555
C17A N5A 1_555 1_555
H14A C17A 1_555 1_555
C18A N5A 1_555 1_555
H15A C18A 1_555 1_555
H16A C18A 1_555 1_555
C19A C9A 1_555 1_555
C20A C19A 1_555 1_555
H17A C20A 1_555 1_555
C21A C18A 1_555 1_555
C22A C21A 1_555 1_555
H18A C22A 1_555 1_555
C23A C22A 1_555 1_555
H19A C23A 1_555 1_555
C24A C19A 1_555 1_555
H20A C24A 1_555 1_555
N7A Co1A 1_555 1_555
C25A N7A 1_555 1_555
C26A C25A 1_555 1_555
H21A C26A 1_555 1_555
C27A C26A 1_555 1_555
H22A C27A 1_555 1_555
C28A C27A 1_555 1_555
H23A C28A 1_555 1_555
C29A N7A 1_555 1_555
H24A C29A 1_555 1_555
N8A N9A 1_555 1_555
N9A Co1A 1_555 1_555
C30A C25A 1_555 1_555
C31A C30A 1_555 1_555
H25A C31A 1_555 1_555
C32A N8A 1_555 1_555
H26A C32A 1_555 1_555
C33A N8A 1_555 1_555
H27A C33A 1_555 1_555
H28A C33A 1_555 1_555
N10A C34A 1_555 1_555
C34A C35A 1_555 1_555
C35A H29A 1_555 1_555
C36A C35A 1_555 1_555
H30A C36A 1_555 1_555
C37A C36A 1_555 1_555
H31A C37A 1_555 1_555
C38A N10A 1_555 1_555
H32A C38A 1_555 1_555
N11A N12A 1_555 1_555
N12A Co3A 1_555 1_555
C39A C34A 1_555 1_555
C40A C39A 1_555 1_555
H33A C40A 1_555 1_555
C41A N11A 1_555 1_555
H34A C41A 1_555 1_555
C42A N11A 1_555 1_555
H35A C42A 1_555 1_555
H36A C42A 1_555 1_555
C43A C33A 1_555 1_555
C44A C43A 1_555 1_555
H37A C44A 1_555 1_555
C45A C42A 1_555 1_555
C46A C45A 1_555 1_555
H38A C46A 1_555 1_555
C47A C46A 1_555 1_555
H39A C47A 1_555 1_555
C48A C43A 1_555 1_555
H40A C48A 1_555 1_555
N13A Co1A 1_555 1_555
C49A N13A 1_555 1_555
C50A C49A 1_555 1_555
H41A C50A 1_555 1_555
C51A C50A 1_555 1_555
H42A C51A 1_555 1_555
C52A C51A 1_555 1_555
H43A C52A 1_555 1_555
C53A N13A 1_555 1_555
H44A C53A 1_555 1_555
N14A N15A 1_555 1_555
N15A Co1A 1_555 1_555
C54A C49A 1_555 1_555
C55A C54A 1_555 1_555
H45A C55A 1_555 1_555
C56A N14A 1_555 1_555
H46A C56A 1_555 1_555
C57A N14A 1_555 1_555
H47A C57A 1_555 1_555
H48A C57A 1_555 1_555
N16A C58A 1_555 1_555
C58A C59A 1_555 1_555
C59A H49A 1_555 1_555
C60A C59A 1_555 1_555
H50A C60A 1_555 1_555
C61A C60A 1_555 1_555
H51A C61A 1_555 1_555
C62A N16A 1_555 1_555
H52A C62A 1_555 1_555
N17A N18A 1_555 1_555
N18A Co4A 1_555 1_555
C63A C58A 1_555 1_555
C64A C63A 1_555 1_555
H53A C64A 1_555 1_555
C65A N17A 1_555 1_555
H54A C65A 1_555 1_555
C66A N17A 1_555 1_555
H55A C66A 1_555 1_555
H56A C66A 1_555 1_555
C67A C57A 1_555 1_555
C68A C67A 1_555 1_555
H57A C68A 1_555 1_555
C69A C66A 1_555 1_555
C70A C69A 1_555 1_555
H58A C70A 1_555 1_555
C71A C70A 1_555 1_555
H59A C71A 1_555 1_555
C72A C67A 1_555 1_555
H60A C72A 1_555 1_555
N19A Co2A 1_555 1_555
C73A N19A 1_555 1_555
C74A C73A 1_555 1_555
H61A C74A 1_555 1_555
C75A C74A 1_555 1_555
H62A C75A 1_555 1_555
C76A C75A 1_555 1_555
H63A C76A 1_555 1_555
C77A N19A 1_555 1_555
H64A C77A 1_555 1_555
N20A N21A 1_555 1_555
N21A Co2A 1_555 1_555
C78A C73A 1_555 1_555
C79A C78A 1_555 1_555
H65A C79A 1_555 1_555
C80A N20A 1_555 1_555
H66A C80A 1_555 1_555
C81A N20A 1_555 1_555
H67A C81A 1_555 1_555
H68A C81A 1_555 1_555
N22A Co3A 1_555 1_555
C82A N22A 1_555 1_555
C83A C82A 1_555 1_555
H69A C83A 1_555 1_555
C84A C83A 1_555 1_555
H70A C84A 1_555 1_555
C85A C84A 1_555 1_555
H71A C85A 1_555 1_555
C86A N22A 1_555 1_555
H72A C86A 1_555 1_555
N23A N24A 1_555 1_555
N24A Co3A 1_555 1_555
C87A C82A 1_555 1_555
C88A C87A 1_555 1_555
H73A C88A 1_555 1_555
C89A N23A 1_555 1_555
H74A C89A 1_555 1_555
C90A N23A 1_555 1_555
H75A C90A 1_555 1_555
H76A C90A 1_555 1_555
C91A C81A 1_555 1_555
C92A C93 1_555 1_555
H77A C92A 1_555 1_555
C93A C92 1_555 1_555
C94A C93A 1_555 1_555
H78A C94A 1_555 1_555
C95A C96 1_555 1_555
H79A C95A 1_555 1_555
C96A C95 1_555 1_555
H80A C96A 1_555 1_555
N25A Co2A 1_555 1_555
C97A N25A 1_555 1_555
C98A C97A 1_555 1_555
H81A C98A 1_555 1_555
C99A C98A 1_555 1_555
H82A C99A 1_555 1_555
C100A C99A 1_555 1_555
H83A C100A 1_555 1_555
C101A N25A 1_555 1_555
H84A C101A 1_555 1_555
N26A N27A 1_555 1_555
N27A Co2A 1_555 1_555
C102A C97A 1_555 1_555
C103A C102A 1_555 1_555
H85A C103A 1_555 1_555
C104A N26A 1_555 1_555
H86A C104A 1_555 1_555
C105A N26A 1_555 1_555
H87A C105A 1_555 1_555
H88A C105A 1_555 1_555
N28A Co4A 1_555 1_555
C106A N28A 1_555 1_555
C107A C106A 1_555 1_555
H89A C107A 1_555 1_555
C108A C107A 1_555 1_555
H90A C108A 1_555 1_555
C109A C108A 1_555 1_555
H91A C109A 1_555 1_555
C110A N28A 1_555 1_555
H92A C110A 1_555 1_555
N29A N30A 1_555 1_555
N30A Co4A 1_555 1_555
C111A N29A 1_555 1_555
H93A C111A 1_555 1_555
C112A C111A 1_555 1_555
H94A C112A 1_555 1_555
C113A C106A 1_555 1_555
C114A N29A 1_555 1_555
H95A C114A 1_555 1_555
H96A C114A 1_555 1_555
C115A C114A 1_555 1_555
C116A C117 1_555 1_555
H97A C116A 1_555 1_555
C117A C116 1_555 1_555
C118A C117A 1_555 1_555
H98A C118A 1_555 1_555
C119A C120 1_555 1_555
H99A C119A 1_555 1_555
C120A C119 1_555 1_555
H100A C120A 1_555 1_555
N31A Co3A 1_555 1_555
C121A N31A 1_555 1_555
C122A C121A 1_555 1_555
H101A C122A 1_555 1_555
C123A C122A 1_555 1_555
H102A C123A 1_555 1_555
C124A C123A 1_555 1_555
H103A C124A 1_555 1_555
C125A N31A 1_555 1_555
H104A C125A 1_555 1_555
N32A N33A 1_555 1_555
N33A Co3A 1_555 1_555
C126A C121A 1_555 1_555
C127A C126A 1_555 1_555
H105A C127A 1_555 1_555
C128A N32A 1_555 1_555
H106A C128A 1_555 1_555
C129A N32A 1_555 1_555
H107A C129A 1_555 1_555
H108A C129A 1_555 1_555
N34A Co4A 1_555 1_555
C130A N34A 1_555 1_555
C131A C130A 1_555 1_555
H109A C131A 1_555 1_555
C132A C131A 1_555 1_555
H110A C132A 1_555 1_555
C133A C132A 1_555 1_555
H111A C133A 1_555 1_555
C134A N34A 1_555 1_555
H112A C134A 1_555 1_555
N35A N36A 1_555 1_555
N36A Co4A 1_555 1_555
C135A C130A 1_555 1_555
C136A C135A 1_555 1_555
H113A C136A 1_555 1_555
C137A N35A 1_555 1_555
H114A C137A 1_555 1_555
C138A N35A 1_555 1_555
H115A C138A 1_555 1_555
H116A C138A 1_555 1_555
C139A C129A 1_555 1_555
C140A C141 1_555 1_555
H117A C140A 1_555 1_555
C141A C140 1_555 1_555
C142A C141A 1_555 1_555
H118A C142A 1_555 1_555
C143A C144 1_555 1_555
H119A C143A 1_555 1_555
C144A C143 1_555 1_555
H120A C144A 1_555 1_555
C4 C5 1_555 1_555
N3 C6 1_555 1_555
C7 C8 1_555 1_555
C13 C14 1_555 1_555
N6 C15 1_555 1_555
C16 C17 1_555 1_555
C20 C21 1_555 1_555
C23 C24 1_555 1_555
C28 C29 1_555 1_555
N9 C30 1_555 1_555
C31 C32 1_555 1_555
C37 C38 1_555 1_555
N12 C39 1_555 1_555
C40 C41 1_555 1_555
C44 C45 1_555 1_555
C47 C48 1_555 1_555
C52 C53 1_555 1_555
N15 C54 1_555 1_555
C55 C56 1_555 1_555
C61 C62 1_555 1_555
N18 C63 1_555 1_555
C64 C65 1_555 1_555
C68 C69 1_555 1_555
C71 C72 1_555 1_555
C76 C77 1_555 1_555
N21 C78 1_555 1_555
C79 C80 1_555 1_555
C85 C86 1_555 1_555
N24 C87 1_555 1_555
C88 C89 1_555 1_555
C100 C101 1_555 1_555
N27 C102 1_555 1_555
C103 C104 1_555 1_555
C109 C110 1_555 1_555
N30 C113 1_555 1_555
C112 C113 1_555 1_555
C124 C125 1_555 1_555
N33 C126 1_555 1_555
C127 C128 1_555 1_555
C133 C134 1_555 1_555
N36 C135 1_555 1_555
C136 C137 1_555 1_555
C4A C5A 1_555 1_555
N3A C6A 1_555 1_555
C7A C8A 1_555 1_555
C13A C14A 1_555 1_555
N6A C15A 1_555 1_555
C16A C17A 1_555 1_555
C20A C21A 1_555 1_555
C23A C24A 1_555 1_555
C28A C29A 1_555 1_555
N9A C30A 1_555 1_555
C31A C32A 1_555 1_555
C37A C38A 1_555 1_555
N12A C39A 1_555 1_555
C40A C41A 1_555 1_555
C44A C45A 1_555 1_555
C47A C48A 1_555 1_555
C52A C53A 1_555 1_555
N15A C54A 1_555 1_555
C55A C56A 1_555 1_555
C61A C62A 1_555 1_555
N18A C63A 1_555 1_555
C64A C65A 1_555 1_555
C68A C69A 1_555 1_555
C71A C72A 1_555 1_555
C76A C77A 1_555 1_555
N21A C78A 1_555 1_555
C79A C80A 1_555 1_555
C85A C86A 1_555 1_555
N24A C87A 1_555 1_555
C88A C89A 1_555 1_555
C90A C93A 1_555 1_555
C91A C92A 1_555 1_555
C91A C96A 1_555 1_555
C94A C95A 1_555 1_555
C100A C101A 1_555 1_555
N27A C102A 1_555 1_555
C103A C104A 1_555 1_555
C105A C117A 1_555 1_555
C109A C110A 1_555 1_555
N30A C113A 1_555 1_555
C112A C113A 1_555 1_555
C115A C116A 1_555 1_555
C115A C120A 1_555 1_555
C118A C119A 1_555 1_555
C124A C125A 1_555 1_555
N33A C126A 1_555 1_555
C127A C128A 1_555 1_555
C133A C134A 1_555 1_555
N36A C135A 1_555 1_555
C136A C137A 1_555 1_555
C138A C141A 1_555 1_555
C139A C140A 1_555 1_555
C139A C144A 1_555 1_555
C142A C143A 1_555 1_555

#END
