# generated using pymatgen
data_Co4B8H159C157N49(O9F13)3
_symmetry_space_group_name_H-M   'P 1'
_cell_length_a   22.87000000
_cell_length_b   23.58500000
_cell_length_c   25.04300000
_cell_angle_alpha   113.72700000
_cell_angle_beta   109.60300000
_cell_angle_gamma   101.19500000
_symmetry_Int_Tables_number   1
_chemical_formula_structural   Co4B8H159C157N49(O9F13)3
_chemical_formula_sum   'Co8 B16 H318 C314 N98 O54 F78'
_cell_volume   10767.57065751
_cell_formula_units_Z   2
loop_
 _symmetry_equiv_pos_site_id
 _symmetry_equiv_pos_as_xyz
  1  'x, y, z'
loop_
 _atom_site_type_symbol
 _atom_site_label
 _atom_site_symmetry_multiplicity
 _atom_site_fract_x
 _atom_site_fract_y
 _atom_site_fract_z
 _atom_site_occupancy
  Co  Co1  1  0.195010  0.132000  0.298090  1.0
  Co  Co2  1  0.804990  0.868000  0.701910  1.0
  Co  Co3  1  0.689310  0.065800  0.192100  1.0
  Co  Co4  1  0.310690  0.934200  0.807900  1.0
  Co  Co5  1  0.306140  0.366240  0.798290  1.0
  Co  Co6  1  0.693860  0.633760  0.201710  1.0
  Co  Co7  1  0.183620  0.715180  0.346500  1.0
  Co  Co8  1  0.816380  0.284820  0.653500  1.0
  B  B9  1  0.010800  0.223300  0.516200  1
  B  B10  1  0.989200  0.776700  0.483800  1
  B  B11  1  0.472800  0.743100  0.376600  1
  B  B12  1  0.527200  0.256900  0.623400  1
  B  B13  1  0.273200  0.247680  0.047700  1
  B  B14  1  0.726800  0.752320  0.952300  1
  B  B15  1  0.937300  0.160100  0.050700  1
  B  B16  1  0.062700  0.839900  0.949300  1
  B  B17  1  0.541600  0.277100  0.305100  1
  B  B18  1  0.458400  0.722900  0.694900  1
  B  B19  1  0.927100  0.915300  0.337400  1
  B  B20  1  0.072900  0.084700  0.662600  1
  B  B21  1  0.905300  0.433600  0.316700  1
  B  B22  1  0.094700  0.566400  0.683300  1
  B  B23  1  0.556300  0.981800  0.629100  1
  B  B24  1  0.443700  0.018200  0.370900  1
  H  H25  1  0.223100  0.049700  0.085000  1
  H  H26  1  0.776900  0.950300  0.915000  1
  H  H27  1  0.266700  0.056300  0.047800  1
  H  H28  1  0.733300  0.943700  0.952200  1
  H  H29  1  0.213200  0.984600  0.022200  1
  H  H30  1  0.786800  0.015400  0.977800  1
  H  H31  1  0.493600  0.901100  0.409200  1
  H  H32  1  0.506400  0.098900  0.590800  1
  H  H33  1  0.552900  0.973700  0.455100  1
  H  H34  1  0.447100  0.026300  0.544900  1
  H  H35  1  0.561400  0.913200  0.466700  1
  H  H36  1  0.438600  0.086800  0.533300  1
  H  H37  1  0.274600  0.782100  0.980100  1
  H  H38  1  0.725400  0.217900  0.019900  1
  H  H39  1  0.224800  0.817700  0.961000  1
  H  H40  1  0.775200  0.182300  0.039000  1
  H  H41  1  0.239700  0.811200  0.025000  1
  H  H42  1  0.760300  0.188800  0.975000  1
  H  H43  1  0.462800  0.360900  0.143300  1
  H  H44  1  0.537200  0.639100  0.856700  1
  H  H45  1  0.424400  0.321800  0.064700  1
  H  H46  1  0.575600  0.678200  0.935300  1
  H  H47  1  0.504300  0.360300  0.102900  1
  H  H48  1  0.495700  0.639700  0.897100  1
  H  H49  1  0.110200  0.296700  0.103500  1
  H  H50  1  0.889800  0.703300  0.896500  1
  H  H51  1  0.086600  0.229100  0.104800  1
  H  H52  1  0.913400  0.770900  0.895200  1
  H  H53  1  0.164300  0.267700  0.129100  1
  H  H54  1  0.835700  0.732300  0.870900  1
  H  H55  1  0.936000  0.941200  0.515200  1
  H  H56  1  0.064000  0.058800  0.484800  1
  H  H57  1  0.930700  0.013100  0.542400  1
  H  H58  1  0.069300  0.986900  0.457600  1
  H  H59  1  0.949800  0.985900  0.483500  1
  H  H60  1  0.050200  0.014100  0.516500  1
  H  H61  1  0.989800  0.338200  0.446100  1
  H  H62  1  0.010200  0.661800  0.553900  1
  H  H63  1  0.010800  0.372000  0.522800  1
  H  H64  1  0.989200  0.628000  0.477200  1
  H  H65  1  0.978800  0.405500  0.482300  1
  H  H66  1  0.021200  0.594500  0.517700  1
  H  H67  1  0.951100  0.866600  0.037800  1
  H  H68  1  0.048900  0.133400  0.962200  1
  H  H69  1  0.900900  0.880200  0.068800  1
  H  H70  1  0.099100  0.119800  0.931200  1
  H  H71  1  0.891400  0.804900  0.022800  1
  H  H72  1  0.108600  0.195100  0.977200  1
  H  H73  1  0.096400  0.425200  0.363900  1
  H  H74  1  0.903600  0.574800  0.636100  1
  H  H75  1  0.052900  0.377000  0.286000  1
  H  H76  1  0.947100  0.623000  0.714000  1
  H  H77  1  0.120300  0.370100  0.324600  1
  H  H78  1  0.879700  0.629900  0.675400  1
  H  H79  1  0.079900  0.695100  0.860800  1
  H  H80  1  0.920100  0.304900  0.139200  1
  H  H81  1  0.025300  0.656800  0.874000  1
  H  H82  1  0.974700  0.343200  0.126000  1
  H  H83  1  0.034600  0.617100  0.810400  1
  H  H84  1  0.965400  0.382900  0.189600  1
  H  H85  1  0.609400  0.920000  0.752900  1
  H  H86  1  0.390600  0.080000  0.247100  1
  H  H87  1  0.576100  0.973900  0.771800  1
  H  H88  1  0.423900  0.026100  0.228200  1
  H  H89  1  0.529500  0.896100  0.723000  1
  H  H90  1  0.470500  0.103900  0.277000  1
  H  H91  1  0.876200  0.251500  0.961000  1
  H  H92  1  0.123800  0.748500  0.039000  1
  H  H93  1  0.902300  0.195900  0.926500  1
  H  H94  1  0.097700  0.804100  0.073500  1
  H  H95  1  0.900100  0.253500  0.908400  1
  H  H96  1  0.099900  0.746500  0.091600  1
  H  H97  1  0.807900  0.855800  0.432700  1
  H  H98  1  0.192100  0.144200  0.567300  1
  H  H99  1  0.783400  0.886700  0.386900  1
  H  H100  1  0.216600  0.113300  0.613100  1
  H  H101  1  0.787800  0.919300  0.458600  1
  H  H102  1  0.212200  0.080700  0.541400  1
  H  H103  1  0.140900  0.928900  0.087600  1.0
  H  H104  1  0.859100  0.071100  0.912400  1.0
  H  H105  1  0.229900  0.898300  0.127800  1.0
  H  H106  1  0.770100  0.101700  0.872200  1.0
  H  H107  1  0.301100  0.953800  0.241500  1.0
  H  H108  1  0.698900  0.046200  0.758500  1.0
  H  H109  1  0.284500  0.044600  0.311400  1.0
  H  H110  1  0.715500  0.955400  0.688600  1.0
  H  H111  1  0.051700  0.974900  0.054100  1.0
  H  H112  1  0.948300  0.025100  0.945900  1.0
  H  H113  1  0.985900  0.046600  0.075700  1.0
  H  H114  1  0.014100  0.953400  0.924300  1.0
  H  H115  1  0.998100  0.148100  0.185600  1.0
  H  H116  1  0.001900  0.851900  0.814400  1.0
  H  H117  1  0.059700  0.168700  0.253100  1.0
  H  H118  1  0.940300  0.831300  0.746900  1.0
  H  H119  1  0.621000  0.929100  0.287000  1.0
  H  H120  1  0.379000  0.070900  0.713000  1.0
  H  H121  1  0.504500  0.888300  0.225000  1.0
  H  H122  1  0.495500  0.111700  0.775000  1.0
  H  H123  1  0.459800  0.923300  0.150300  1.0
  H  H124  1  0.540200  0.076700  0.849700  1.0
  H  H125  1  0.533700  0.992500  0.136400  1.0
  H  H126  1  0.466300  0.007500  0.863600  1.0
  H  H127  1  0.747000  0.986700  0.356600  1.0
  H  H128  1  0.253000  0.013300  0.643400  1.0
  H  H129  1  0.863200  0.058900  0.388400  1.0
  H  H130  1  0.136800  0.941100  0.611600  1.0
  H  H131  1  0.907600  0.150700  0.361300  1.0
  H  H132  1  0.092400  0.849300  0.638700  1.0
  H  H133  1  0.855700  0.150300  0.299400  1.0
  H  H134  1  0.144300  0.849700  0.700600  1.0
  H  H135  1  0.951900  0.165300  0.273100  1.0
  H  H136  1  0.048100  0.834700  0.726900  1.0
  H  H137  1  0.861700  0.991200  0.261300  1.0
  H  H138  1  0.138300  0.008800  0.738700  1.0
  H  H139  1  0.914600  0.939500  0.200500  1.0
  H  H140  1  0.085400  0.060500  0.799500  1.0
  H  H141  1  0.985900  0.000500  0.178400  1.0
  H  H142  1  0.014100  0.999500  0.821600  1.0
  H  H143  1  0.403300  0.227400  0.286200  1.0
  H  H144  1  0.596700  0.772600  0.713800  1.0
  H  H145  1  0.353000  0.226800  0.187000  1.0
  H  H146  1  0.647000  0.773200  0.813000  1.0
  H  H147  1  0.237200  0.198400  0.136300  1.0
  H  H148  1  0.762800  0.801600  0.863700  1.0
  H  H149  1  0.172300  0.163200  0.180600  1.0
  H  H150  1  0.827700  0.836800  0.819400  1.0
  H  H151  1  0.447900  0.220900  0.388800  1.0
  H  H152  1  0.552100  0.779100  0.611200  1.0
  H  H153  1  0.438800  0.202900  0.478600  1.0
  H  H154  1  0.561200  0.797100  0.521400  1.0
  H  H155  1  0.337600  0.156200  0.497100  1.0
  H  H156  1  0.662400  0.843800  0.502900  1.0
  H  H157  1  0.264000  0.132800  0.440500  1.0
  H  H158  1  0.736000  0.867200  0.559500  1.0
  H  H159  1  0.192300  0.529700  0.805500  1.0
  H  H160  1  0.807700  0.470300  0.194500  1.0
  H  H161  1  0.238700  0.595300  0.920900  1.0
  H  H162  1  0.761300  0.404700  0.079100  1.0
  H  H163  1  0.309800  0.567300  0.987900  1.0
  H  H164  1  0.690200  0.432700  0.012100  1.0
  H  H165  1  0.340200  0.479300  0.940100  1.0
  H  H166  1  0.659800  0.520700  0.059900  1.0
  H  H167  1  0.157400  0.458900  0.684400  1.0
  H  H168  1  0.842600  0.541100  0.315600  1.0
  H  H169  1  0.140200  0.354200  0.584700  1.0
  H  H170  1  0.859800  0.645800  0.415300  1.0
  H  H171  1  0.162600  0.242700  0.574100  1.0
  H  H172  1  0.837400  0.757300  0.425900  1.0
  H  H173  1  0.223300  0.254500  0.637600  1.0
  H  H174  1  0.776700  0.745500  0.362400  1.0
  H  H175  1  0.232000  0.185000  0.527400  1.0
  H  H176  1  0.768000  0.815000  0.472600  1.0
  H  H177  1  0.291500  0.387800  0.628000  1.0
  H  H178  1  0.708500  0.612200  0.372000  1.0
  H  H179  1  0.364700  0.395800  0.581300  1.0
  H  H180  1  0.635300  0.604200  0.418700  1.0
  H  H181  1  0.369600  0.301100  0.508500  1.0
  H  H182  1  0.630400  0.698900  0.491500  1.0
  H  H183  1  0.132300  0.279300  0.461600  1.0
  H  H184  1  0.867700  0.720700  0.538400  1.0
  H  H185  1  0.191800  0.383100  0.478100  1.0
  H  H186  1  0.808200  0.616900  0.521900  1.0
  H  H187  1  0.249000  0.385400  0.415800  1.0
  H  H188  1  0.751000  0.614600  0.584200  1.0
  H  H189  1  0.246900  0.287400  0.341500  1.0
  H  H190  1  0.753100  0.712600  0.658500  1.0
  H  H191  1  0.054700  0.158400  0.417100  1.0
  H  H192  1  0.945300  0.841600  0.582900  1.0
  H  H193  1  0.023900  0.033500  0.362500  1.0
  H  H194  1  0.976100  0.966500  0.637500  1.0
  H  H195  1  0.106000  0.979400  0.260800  1.0
  H  H196  1  0.894000  0.020600  0.739200  1.0
  H  H197  1  0.054800  0.948600  0.281700  1.0
  H  H198  1  0.945200  0.051400  0.718300  1.0
  H  H199  1  0.414600  0.794400  0.525400  1.0
  H  H200  1  0.585400  0.205600  0.474600  1.0
  H  H201  1  0.392400  0.716600  0.562200  1.0
  H  H202  1  0.607600  0.283400  0.437800  1.0
  H  H203  1  0.280900  0.646900  0.518900  1.0
  H  H204  1  0.719100  0.353100  0.481100  1.0
  H  H205  1  0.195300  0.645500  0.433800  1.0
  H  H206  1  0.804700  0.354500  0.566200  1.0
  H  H207  1  0.428700  0.870200  0.483500  1.0
  H  H208  1  0.571300  0.129800  0.516500  1.0
  H  H209  1  0.390800  0.918600  0.409800  1.0
  H  H210  1  0.609200  0.081400  0.590200  1.0
  H  H211  1  0.213800  0.819900  0.288500  1.0
  H  H212  1  0.786200  0.180100  0.711500  1.0
  H  H213  1  0.277600  0.877800  0.304100  1.0
  H  H214  1  0.722400  0.122200  0.695900  1.0
  H  H215  1  0.158900  0.898800  0.269800  1.0
  H  H216  1  0.841100  0.101200  0.730200  1.0
  H  H217  1  0.290200  0.947500  0.453000  1.0
  H  H218  1  0.709800  0.052500  0.547000  1.0
  H  H219  1  0.247700  0.027000  0.498700  1.0
  H  H220  1  0.752300  0.973000  0.501300  1.0
  H  H221  1  0.165000  0.046000  0.429800  1.0
  H  H222  1  0.835000  0.954000  0.570200  1.0
  H  H223  1  0.568000  0.014500  0.959900  1.0
  H  H224  1  0.432000  0.985500  0.040100  1.0
  H  H225  1  0.525300  0.100500  0.977400  1.0
  H  H226  1  0.474700  0.899500  0.022600  1.0
  H  H227  1  0.539100  0.168000  0.083900  1.0
  H  H228  1  0.460900  0.832000  0.916100  1.0
  H  H229  1  0.599200  0.152100  0.169000  1.0
  H  H230  1  0.400800  0.847900  0.831000  1.0
  H  H231  1  0.603500  0.918800  0.946100  1.0
  H  H232  1  0.396500  0.081200  0.053900  1.0
  H  H233  1  0.668100  0.856900  0.985900  1.0
  H  H234  1  0.331900  0.143100  0.014100  1.0
  H  H235  1  0.758900  0.949000  0.164000  1.0
  H  H236  1  0.241100  0.051000  0.836000  1.0
  H  H237  1  0.747400  0.881800  0.102600  1.0
  H  H238  1  0.252600  0.118200  0.897400  1.0
  H  H239  1  0.471700  0.383900  0.710100  1.0
  H  H240  1  0.528300  0.616100  0.289900  1.0
  H  H241  1  0.506600  0.497800  0.744200  1.0
  H  H242  1  0.493400  0.502200  0.255800  1.0
  H  H243  1  0.464400  0.565400  0.809800  1.0
  H  H244  1  0.535600  0.434600  0.190200  1.0
  H  H245  1  0.391400  0.514700  0.837400  1.0
  H  H246  1  0.608600  0.485300  0.162600  1.0
  H  H247  1  0.415900  0.259800  0.661900  1.0
  H  H248  1  0.584100  0.740200  0.338100  1.0
  H  H249  1  0.342900  0.157200  0.650300  1.0
  H  H250  1  0.657100  0.842800  0.349700  1.0
  H  H251  1  0.249500  0.135700  0.689100  1.0
  H  H252  1  0.750500  0.864300  0.310900  1.0
  H  H253  1  0.240900  0.200500  0.735300  1.0
  H  H254  1  0.759100  0.799500  0.264700  1.0
  H  H255  1  0.765300  0.881900  0.218800  1.0
  H  H256  1  0.234700  0.118100  0.781200  1.0
  H  H257  1  0.409300  0.237200  0.810400  1.0
  H  H258  1  0.590700  0.762800  0.189600  1.0
  H  H259  1  0.467200  0.227800  0.901200  1.0
  H  H260  1  0.532800  0.772200  0.098800  1.0
  H  H261  1  0.589900  0.838200  0.069000  1.0
  H  H262  1  0.410100  0.161800  0.931000  1.0
  H  H263  1  0.847500  0.282500  0.244500  1.0
  H  H264  1  0.152500  0.717500  0.755500  1.0
  H  H265  1  0.898200  0.239100  0.178700  1.0
  H  H266  1  0.101800  0.760900  0.821300  1.0
  H  H267  1  0.861100  0.122800  0.111800  1.0
  H  H268  1  0.138900  0.877200  0.888200  1.0
  H  H269  1  0.781900  0.053100  0.120400  1.0
  H  H270  1  0.218100  0.946900  0.879600  1.0
  H  H271  1  0.785300  0.319200  0.311100  1.0
  H  H272  1  0.214700  0.680800  0.688900  1.0
  H  H273  1  0.701000  0.299300  0.351400  1.0
  H  H274  1  0.299000  0.700700  0.648600  1.0
  H  H275  1  0.599200  0.123000  0.267800  1.0
  H  H276  1  0.400800  0.877000  0.732200  1.0
  H  H277  1  0.608300  0.192500  0.325000  1.0
  H  H278  1  0.391700  0.807500  0.675000  1.0
  H  H279  1  0.016900  0.795000  0.242100  1.0
  H  H280  1  0.983100  0.205000  0.757900  1.0
  H  H281  1  0.994000  0.729400  0.132600  1.0
  H  H282  1  0.006000  0.270600  0.867400  1.0
  H  H283  1  0.049500  0.657100  0.107800  1.0
  H  H284  1  0.950500  0.342900  0.892200  1.0
  H  H285  1  0.125400  0.651000  0.191100  1.0
  H  H286  1  0.874600  0.349000  0.808900  1.0
  H  H287  1  0.100200  0.886200  0.479900  1.0
  H  H288  1  0.899800  0.113800  0.520100  1.0
  H  H289  1  0.055200  0.868000  0.365900  1.0
  H  H290  1  0.944800  0.132000  0.634100  1.0
  H  H291  1  0.157200  0.753800  0.483100  1.0
  H  H292  1  0.842800  0.246200  0.516900  1.0
  H  H293  1  0.142400  0.813700  0.528300  1.0
  H  H294  1  0.857600  0.186300  0.471700  1.0
  H  H295  1  0.240400  0.789900  0.598500  1.0
  H  H296  1  0.759600  0.210100  0.401500  1.0
  H  H297  1  0.575400  0.075100  0.335000  1.0
  H  H298  1  0.424600  0.924900  0.665000  1.0
  H  H299  1  0.622400  0.044800  0.413400  1.0
  H  H300  1  0.377600  0.955200  0.586600  1.0
  H  H301  1  0.263900  0.901100  0.512400  1.0
  H  H302  1  0.736100  0.098900  0.487600  1.0
  H  H303  1  0.367600  0.318600  0.984100  1.0
  H  H304  1  0.632400  0.681400  0.015900  1.0
  H  H305  1  0.486200  0.369600  0.032700  1.0
  H  H306  1  0.513800  0.630400  0.967300  1.0
  H  H307  1  0.533700  0.428100  0.991500  1.0
  H  H308  1  0.466300  0.571900  0.008500  1.0
  H  H309  1  0.464600  0.427400  0.899000  1.0
  H  H310  1  0.535400  0.572600  0.101000  1.0
  H  H311  1  0.240400  0.258900  0.920000  1.0
  H  H312  1  0.759600  0.741100  0.080000  1.0
  H  H313  1  0.128800  0.218300  0.826800  1.0
  H  H314  1  0.871200  0.781700  0.173200  1.0
  H  H315  1  0.088400  0.223700  0.716800  1.0
  H  H316  1  0.911600  0.776300  0.283200  1.0
  H  H317  1  0.144200  0.268000  0.709300  1.0
  H  H318  1  0.855800  0.732000  0.290700  1.0
  H  H319  1  0.196700  0.490200  0.232000  1.0
  H  H320  1  0.803300  0.509800  0.768000  1.0
  H  H321  1  0.291500  0.523500  0.219200  1.0
  H  H322  1  0.708500  0.476500  0.780800  1.0
  H  H323  1  0.340700  0.637200  0.249400  1.0
  H  H324  1  0.659300  0.362800  0.750600  1.0
  H  H325  1  0.296900  0.712400  0.297200  1.0
  H  H326  1  0.703100  0.287600  0.702800  1.0
  H  H327  1  0.104000  0.465800  0.261600  1.0
  H  H328  1  0.896000  0.534200  0.738400  1.0
  H  H329  1  0.018900  0.493100  0.300100  1.0
  H  H330  1  0.981100  0.506900  0.699900  1.0
  H  H331  1  0.049000  0.669100  0.373600  1.0
  H  H332  1  0.951000  0.330900  0.626400  1.0
  H  H333  1  0.994600  0.599400  0.351200  1.0
  H  H334  1  0.005400  0.400600  0.648800  1.0
  H  H335  1  0.041800  0.295300  0.663100  1.0
  H  H336  1  0.958200  0.704700  0.336900  1.0
  H  H337  1  0.975400  0.547400  0.204400  1.0
  H  H338  1  0.024600  0.452600  0.795600  1.0
  H  H339  1  0.898400  0.553500  0.119600  1.0
  H  H340  1  0.101600  0.446500  0.880400  1.0
  H  H341  1  0.149900  0.367500  0.858400  1.0
  H  H342  1  0.850100  0.632500  0.141600  1.0
  C  C343  1  0.222700  0.032800  0.042100  1
  C  C344  1  0.777300  0.967200  0.957900  1
  C  C345  1  0.542400  0.925400  0.433500  1
  C  C346  1  0.457600  0.074600  0.566500  1
  C  C347  1  0.259000  0.818100  0.997500  1
  C  C348  1  0.741000  0.181900  0.002500  1
  C  C349  1  0.465600  0.334100  0.103100  1
  C  C350  1  0.534400  0.665900  0.896900  1
  C  C351  1  0.122400  0.273200  0.127400  1
  C  C352  1  0.877600  0.726800  0.872600  1
  C  C353  1  0.923000  0.973100  0.503100  1
  C  C354  1  0.077000  0.026900  0.496900  1
  C  C355  1  0.978100  0.363000  0.480300  1
  C  C356  1  0.021900  0.637000  0.519700  1
  C  C357  1  0.924400  0.850500  0.056000  1
  C  C358  1  0.075600  0.149500  0.944000  1
  C  C359  1  0.081200  0.379900  0.327000  1
  C  C360  1  0.918800  0.620100  0.673000  1
  C  C361  1  0.057800  0.652500  0.856800  1
  C  C362  1  0.942200  0.347500  0.143200  1
  C  C363  1  0.572400  0.928300  0.761800  1
  C  C364  1  0.427600  0.071700  0.238200  1
  C  C365  1  0.908200  0.243100  0.943700  1
  C  C366  1  0.091800  0.756900  0.056300  1
  C  C367  1  0.808500  0.897300  0.432300  1
  C  C368  1  0.191500  0.102700  0.567700  1
  C  C369  1  0.164800  0.006600  0.178300  1.0
  C  C370  1  0.835200  0.993400  0.821700  1.0
  C  C371  1  0.171300  0.952300  0.133200  1.0
  C  C372  1  0.828700  0.047700  0.866800  1.0
  C  C373  1  0.223200  0.934000  0.157300  1.0
  C  C374  1  0.776800  0.066000  0.842700  1.0
  C  C375  1  0.266000  0.967100  0.224300  1.0
  C  C376  1  0.734000  0.032900  0.775700  1.0
  C  C377  1  0.255400  0.021100  0.265500  1.0
  C  C378  1  0.744600  0.978900  0.734500  1.0
  C  C379  1  0.109700  0.028600  0.157400  1.0
  C  C380  1  0.890300  0.971400  0.842600  1.0
  C  C381  1  0.059500  0.008700  0.095600  1.0
  C  C382  1  0.940500  0.991300  0.904400  1.0
  C  C383  1  0.024300  0.048500  0.107900  1.0
  C  C384  1  0.975700  0.951500  0.892100  1.0
  C  C385  1  0.023500  0.130100  0.210800  1.0
  C  C386  1  0.976500  0.869900  0.789200  1.0
  C  C387  1  0.642900  0.984100  0.245600  1.0
  C  C388  1  0.357100  0.015900  0.754400  1.0
  C  C389  1  0.601800  0.941600  0.255600  1.0
  C  C390  1  0.398200  0.058400  0.744400  1.0
  C  C391  1  0.533300  0.918000  0.219500  1.0
  C  C392  1  0.466700  0.082000  0.780500  1.0
  C  C393  1  0.507000  0.937900  0.175300  1.0
  C  C394  1  0.493000  0.062100  0.824700  1.0
  C  C395  1  0.551800  0.980300  0.168400  1.0
  C  C396  1  0.448200  0.019700  0.831600  1.0
  C  C397  1  0.716800  0.014100  0.284100  1.0
  C  C398  1  0.283200  0.985900  0.715900  1.0
  C  C399  1  0.759200  0.010900  0.337000  1.0
  C  C400  1  0.240800  0.989100  0.663000  1.0
  C  C401  1  0.822300  0.050600  0.354100  1.0
  C  C402  1  0.177700  0.949400  0.645900  1.0
  C  C403  1  0.872000  0.121400  0.315200  1.0
  C  C404  1  0.128000  0.878600  0.684800  1.0
  C  C405  1  0.977300  0.089500  0.224100  1.0
  C  C406  1  0.022700  0.910500  0.775900  1.0
  C  C407  1  0.944800  0.119600  0.258900  1.0
  C  C408  1  0.055200  0.880400  0.741100  1.0
  C  C409  1  0.902000  0.083900  0.273300  1.0
  C  C410  1  0.098000  0.916100  0.726700  1.0
  C  C411  1  0.890500  0.016100  0.251800  1.0
  C  C412  1  0.109500  0.983900  0.748200  1.0
  C  C413  1  0.922300  0.985500  0.215800  1.0
  C  C414  1  0.077700  0.014500  0.784200  1.0
  C  C415  1  0.964800  0.022000  0.202600  1.0
  C  C416  1  0.035200  0.978000  0.797400  1.0
  C  C417  1  0.316200  0.193600  0.288300  1.0
  C  C418  1  0.683800  0.806400  0.711700  1.0
  C  C419  1  0.356000  0.213900  0.263800  1.0
  C  C420  1  0.644000  0.786100  0.736200  1.0
  C  C421  1  0.326300  0.214300  0.205500  1.0
  C  C422  1  0.673700  0.785700  0.794500  1.0
  C  C423  1  0.258000  0.196500  0.175000  1.0
  C  C424  1  0.742000  0.803500  0.825000  1.0
  C  C425  1  0.219600  0.175600  0.201700  1.0
  C  C426  1  0.780400  0.824400  0.798300  1.0
  C  C427  1  0.342600  0.192000  0.349400  1.0
  C  C428  1  0.657400  0.808000  0.650600  1.0
  C  C429  1  0.408300  0.207000  0.392400  1.0
  C  C430  1  0.591700  0.793000  0.607600  1.0
  C  C431  1  0.402900  0.197000  0.441300  1.0
  C  C432  1  0.597100  0.803000  0.558700  1.0
  C  C433  1  0.308900  0.169500  0.468600  1.0
  C  C434  1  0.691100  0.830500  0.531400  1.0
  C  C435  1  0.241900  0.466400  0.807900  1.0
  C  C436  1  0.758100  0.533600  0.192100  1.0
  C  C437  1  0.222800  0.519700  0.833500  1.0
  C  C438  1  0.777200  0.480300  0.166500  1.0
  C  C439  1  0.250000  0.558000  0.901900  1.0
  C  C440  1  0.750000  0.442000  0.098100  1.0
  C  C441  1  0.292400  0.542400  0.941500  1.0
  C  C442  1  0.707600  0.457600  0.058500  1.0
  C  C443  1  0.309500  0.489600  0.912500  1.0
  C  C444  1  0.690500  0.510400  0.087500  1.0
  C  C445  1  0.216500  0.422600  0.738200  1.0
  C  C446  1  0.783500  0.577400  0.261800  1.0
  C  C447  1  0.175200  0.425600  0.684000  1.0
  C  C448  1  0.824800  0.574400  0.316000  1.0
  C  C449  1  0.166300  0.367900  0.629500  1.0
  C  C450  1  0.833700  0.632100  0.370500  1.0
  C  C451  1  0.207500  0.274900  0.610800  1.0
  C  C452  1  0.792500  0.725100  0.389200  1.0
  C  C453  1  0.302200  0.232700  0.511800  1.0
  C  C454  1  0.697800  0.767300  0.488200  1.0
  C  C455  1  0.259200  0.228100  0.538900  1.0
  C  C456  1  0.740800  0.771900  0.461100  1.0
  C  C457  1  0.254300  0.284700  0.582800  1.0
  C  C458  1  0.745700  0.715300  0.417200  1.0
  C  C459  1  0.294000  0.348500  0.598700  1.0
  C  C460  1  0.706000  0.651500  0.401300  1.0
  C  C461  1  0.337400  0.353000  0.570400  1.0
  C  C462  1  0.662600  0.647000  0.429600  1.0
  C  C463  1  0.340800  0.296900  0.527700  1.0
  C  C464  1  0.659200  0.703100  0.472300  1.0
  C  C465  1  0.156400  0.222600  0.390900  1.0
  C  C466  1  0.843600  0.777400  0.609100  1.0
  C  C467  1  0.156000  0.281500  0.437300  1.0
  C  C468  1  0.844000  0.718500  0.562700  1.0
  C  C469  1  0.191000  0.342700  0.447000  1.0
  C  C470  1  0.809000  0.657300  0.553000  1.0
  C  C471  1  0.225000  0.344000  0.410100  1.0
  C  C472  1  0.775000  0.656000  0.589900  1.0
  C  C473  1  0.223400  0.285600  0.366100  1.0
  C  C474  1  0.776600  0.714400  0.633900  1.0
  C  C475  1  0.122200  0.156200  0.377700  1.0
  C  C476  1  0.877800  0.843800  0.622300  1.0
  C  C477  1  0.073200  0.133000  0.392100  1.0
  C  C478  1  0.926800  0.867000  0.607900  1.0
  C  C479  1  0.056700  0.064600  0.362000  1.0
  C  C480  1  0.943300  0.935400  0.638000  1.0
  C  C481  1  0.098400  0.984100  0.298700  1.0
  C  C482  1  0.901600  0.015900  0.701300  1.0
  C  C483  1  0.316400  0.760400  0.458400  1.0
  C  C484  1  0.683600  0.239600  0.541600  1.0
  C  C485  1  0.370400  0.763300  0.507400  1.0
  C  C486  1  0.629600  0.236700  0.492600  1.0
  C  C487  1  0.357100  0.717900  0.529800  1.0
  C  C488  1  0.642900  0.282100  0.470200  1.0
  C  C489  1  0.291500  0.675900  0.503100  1.0
  C  C490  1  0.708500  0.324100  0.496900  1.0
  C  C491  1  0.240100  0.675700  0.452500  1.0
  C  C492  1  0.759900  0.324300  0.547500  1.0
  C  C493  1  0.326800  0.806800  0.432800  1.0
  C  C494  1  0.673200  0.193200  0.567200  1.0
  C  C495  1  0.384500  0.856600  0.450700  1.0
  C  C496  1  0.615500  0.143400  0.549300  1.0
  C  C497  1  0.363500  0.882600  0.409800  1.0
  C  C498  1  0.636500  0.117400  0.590200  1.0
  C  C499  1  0.252800  0.861700  0.324200  1.0
  C  C500  1  0.747200  0.138300  0.675800  1.0
  C  C501  1  0.153600  0.974600  0.343800  1.0
  C  C502  1  0.846400  0.025400  0.656200  1.0
  C  C503  1  0.177200  0.925100  0.316100  1.0
  C  C504  1  0.822800  0.074900  0.683900  1.0
  C  C505  1  0.227300  0.914400  0.356800  1.0
  C  C506  1  0.772700  0.085600  0.643200  1.0
  C  C507  1  0.255000  0.953700  0.425300  1.0
  C  C508  1  0.745000  0.046300  0.574700  1.0
  C  C509  1  0.230500  0.001600  0.452400  1.0
  C  C510  1  0.769500  0.998400  0.547600  1.0
  C  C511  1  0.180500  0.012300  0.411100  1.0
  C  C512  1  0.819500  0.987700  0.588900  1.0
  C  C513  1  0.605800  0.034500  0.054300  1.0
  C  C514  1  0.394200  0.965500  0.945700  1.0
  C  C515  1  0.573200  0.043000  0.002300  1.0
  C  C516  1  0.426800  0.957000  0.997700  1.0
  C  C517  1  0.547900  0.093700  0.012500  1.0
  C  C518  1  0.452100  0.906300  0.987500  1.0
  C  C519  1  0.556800  0.133900  0.075300  1.0
  C  C520  1  0.443200  0.866100  0.924700  1.0
  C  C521  1  0.592100  0.123700  0.125800  1.0
  C  C522  1  0.407900  0.876300  0.874200  1.0
  C  C523  1  0.631800  0.981000  0.046800  1.0
  C  C524  1  0.368200  0.019000  0.953200  1.0
  C  C525  1  0.626500  0.928700  0.990100  1.0
  C  C526  1  0.373500  0.071300  0.009900  1.0
  C  C527  1  0.661700  0.895000  0.012000  1.0
  C  C528  1  0.338300  0.105000  0.988000  1.0
  C  C529  1  0.724100  0.907700  0.123000  1.0
  C  C530  1  0.275900  0.092300  0.877000  1.0
  C  C531  1  0.405900  0.383100  0.747700  1.0
  C  C532  1  0.594100  0.616900  0.252300  1.0
  C  C533  1  0.453700  0.411100  0.734200  1.0
  C  C534  1  0.546300  0.588900  0.265800  1.0
  C  C535  1  0.475500  0.478500  0.755500  1.0
  C  C536  1  0.524500  0.521500  0.244500  1.0
  C  C537  1  0.450700  0.518700  0.794400  1.0
  C  C538  1  0.549300  0.481300  0.205600  1.0
  C  C539  1  0.406300  0.487800  0.809200  1.0
  C  C540  1  0.593700  0.512200  0.190800  1.0
  C  C541  1  0.377900  0.311100  0.723500  1.0
  C  C542  1  0.622100  0.688900  0.276500  1.0
  C  C543  1  0.387400  0.257900  0.681900  1.0
  C  C544  1  0.612600  0.742100  0.318100  1.0
  C  C545  1  0.347200  0.201900  0.675600  1.0
  C  C546  1  0.652800  0.798100  0.324400  1.0
  C  C547  1  0.274400  0.181700  0.727500  1.0
  C  C548  1  0.725600  0.818300  0.272500  1.0
  C  C549  1  0.683200  0.867000  0.140400  1.0
  C  C550  1  0.316800  0.133000  0.859600  1.0
  C  C551  1  0.717800  0.859800  0.194500  1.0
  C  C552  1  0.282200  0.140200  0.805500  1.0
  C  C553  1  0.315300  0.178300  0.787300  1.0
  C  C554  1  0.684700  0.821700  0.212700  1.0
  C  C555  1  0.385600  0.211200  0.822900  1.0
  C  C556  1  0.614400  0.788800  0.177100  1.0
  C  C557  1  0.419800  0.205000  0.876400  1.0
  C  C558  1  0.580200  0.795000  0.123600  1.0
  C  C559  1  0.614300  0.834200  0.105400  1.0
  C  C560  1  0.385700  0.165800  0.894600  1.0
  C  C561  1  0.786500  0.191100  0.220300  1.0
  C  C562  1  0.213500  0.808900  0.779700  1.0
  C  C563  1  0.834700  0.235400  0.218900  1.0
  C  C564  1  0.165300  0.764600  0.781100  1.0
  C  C565  1  0.863900  0.209700  0.179400  1.0
  C  C566  1  0.136100  0.790300  0.820600  1.0
  C  C567  1  0.843100  0.141200  0.140800  1.0
  C  C568  1  0.156900  0.858800  0.859200  1.0
  C  C569  1  0.795300  0.100300  0.145600  1.0
  C  C570  1  0.204700  0.899700  0.854400  1.0
  C  C571  1  0.753600  0.214100  0.261600  1.0
  C  C572  1  0.246400  0.785900  0.738400  1.0
  C  C573  1  0.757100  0.277300  0.301300  1.0
  C  C574  1  0.242900  0.722700  0.698700  1.0
  C  C575  1  0.710900  0.265900  0.323100  1.0
  C  C576  1  0.289100  0.734100  0.676900  1.0
  C  C577  1  0.632400  0.164100  0.309800  1.0
  C  C578  1  0.367600  0.835900  0.690200  1.0
  C  C579  1  0.084900  0.760500  0.279500  1.0
  C  C580  1  0.915100  0.239500  0.720500  1.0
  C  C581  1  0.039200  0.765300  0.231200  1.0
  C  C582  1  0.960800  0.234700  0.768800  1.0
  C  C583  1  0.025600  0.726500  0.166500  1.0
  C  C584  1  0.974400  0.273500  0.833500  1.0
  C  C585  1  0.058200  0.684000  0.151900  1.0
  C  C586  1  0.941800  0.316000  0.848100  1.0
  C  C587  1  0.103300  0.680900  0.201600  1.0
  C  C588  1  0.896700  0.319100  0.798400  1.0
  C  C589  1  0.105500  0.855800  0.444700  1.0
  C  C590  1  0.894500  0.144200  0.555300  1.0
  C  C591  1  0.080200  0.845900  0.382400  1.0
  C  C592  1  0.919800  0.154100  0.617600  1.0
  C  C593  1  0.099500  0.795400  0.348200  1.0
  C  C594  1  0.900500  0.204600  0.651800  1.0
  C  C595  1  0.166700  0.802300  0.501900  1.0
  C  C596  1  0.833300  0.197700  0.498100  1.0
  C  C597  1  0.240300  0.840000  0.546800  1.0
  C  C598  1  0.759700  0.160000  0.453200  1.0
  C  C599  1  0.268200  0.823100  0.595800  1.0
  C  C600  1  0.731800  0.176900  0.404200  1.0
  C  C601  1  0.664000  0.144500  0.360700  1.0
  C  C602  1  0.336000  0.855500  0.639300  1.0
  C  C603  1  0.622100  0.096100  0.364200  1.0
  C  C604  1  0.377900  0.903900  0.635800  1.0
  C  C605  1  0.650100  0.078800  0.411400  1.0
  C  C606  1  0.349900  0.921200  0.588600  1.0
  C  C607  1  0.282000  0.889200  0.544500  1.0
  C  C608  1  0.718000  0.110800  0.455500  1.0
  C  C609  1  0.350400  0.343000  0.911900  1.0
  C  C610  1  0.649600  0.657000  0.088100  1.0
  C  C611  1  0.388500  0.340600  0.966900  1.0
  C  C612  1  0.611500  0.659400  0.033100  1.0
  C  C613  1  0.458400  0.371700  0.996100  1.0
  C  C614  1  0.541600  0.628300  0.003900  1.0
  C  C615  1  0.486500  0.405200  0.971300  1.0
  C  C616  1  0.513500  0.594800  0.028700  1.0
  C  C617  1  0.444800  0.405000  0.916500  1.0
  C  C618  1  0.555200  0.595000  0.083500  1.0
  C  C619  1  0.276600  0.308500  0.876300  1.0
  C  C620  1  0.723400  0.691500  0.123700  1.0
  C  C621  1  0.230600  0.268400  0.885300  1.0
  C  C622  1  0.769400  0.731600  0.114700  1.0
  C  C623  1  0.170200  0.246500  0.834800  1.0
  C  C624  1  0.829800  0.753500  0.165200  1.0
  C  C625  1  0.126300  0.267200  0.740100  1.0
  C  C626  1  0.873700  0.732800  0.259900  1.0
  C  C627  1  0.195300  0.583700  0.274200  1.0
  C  C628  1  0.804700  0.416300  0.725800  1.0
  C  C629  1  0.218600  0.535700  0.245600  1.0
  C  C630  1  0.781400  0.464300  0.754400  1.0
  C  C631  1  0.273600  0.555100  0.237300  1.0
  C  C632  1  0.726400  0.444900  0.762700  1.0
  C  C633  1  0.303300  0.622500  0.255900  1.0
  C  C634  1  0.696700  0.377500  0.744100  1.0
  C  C635  1  0.276600  0.666700  0.283900  1.0
  C  C636  1  0.723400  0.333300  0.716100  1.0
  C  C637  1  0.136800  0.567400  0.286700  1.0
  C  C638  1  0.863200  0.432600  0.713300  1.0
  C  C639  1  0.099100  0.507700  0.278300  1.0
  C  C640  1  0.900900  0.492300  0.721700  1.0
  C  C641  1  0.053100  0.523100  0.299900  1.0
  C  C642  1  0.946900  0.476900  0.700100  1.0
  C  C643  1  0.021100  0.622700  0.336700  1.0
  C  C644  1  0.978900  0.377300  0.663300  1.0
  C  C645  1  0.100100  0.323400  0.758400  1.0
  C  C646  1  0.899900  0.676600  0.241600  1.0
  C  C647  1  0.054200  0.326500  0.707400  1.0
  C  C648  1  0.945800  0.673500  0.292600  1.0
  C  C649  1  0.973700  0.624500  0.279000  1.0
  C  C650  1  0.026300  0.375500  0.721000  1.0
  C  C651  1  0.956200  0.580200  0.214400  1.0
  C  C652  1  0.043800  0.419800  0.785600  1.0
  C  C653  1  0.910300  0.584100  0.163900  1.0
  C  C654  1  0.089700  0.415900  0.836100  1.0
  C  C655  1  0.118200  0.368900  0.823400  1.0
  C  C656  1  0.881800  0.631100  0.176600  1.0
  N  N657  1  0.170900  0.044300  0.999200  1
  N  N658  1  0.829100  0.955700  0.000800  1
  N  N659  1  0.571800  0.907300  0.387200  1
  N  N660  1  0.428200  0.092700  0.612800  1
  N  N661  1  0.312800  0.879300  0.035000  1
  N  N662  1  0.687200  0.120700  0.965000  1
  N  N663  1  0.473000  0.276700  0.101200  1
  N  N664  1  0.527000  0.723300  0.898800  1
  N  N665  1  0.131500  0.311000  0.192200  1
  N  N666  1  0.868500  0.689000  0.807800  1
  N  N667  1  0.851400  0.941900  0.455300  1
  N  N668  1  0.148600  0.058100  0.544700  1
  N  N669  1  0.909400  0.322400  0.464500  1
  N  N670  1  0.090600  0.677600  0.535500  1
  N  N671  1  0.969700  0.850200  0.115000  1
  N  N672  1  0.030300  0.149800  0.885000  1
  N  N673  1  0.042500  0.331100  0.336900  1
  N  N674  1  0.957500  0.668900  0.663100  1
  N  N675  1  0.106330  0.635900  0.892800  1
  N  N676  1  0.893670  0.364100  0.107200  1
  N  N677  1  0.575800  0.920800  0.818700  1
  N  N678  1  0.424200  0.079200  0.181300  1
  N  N679  1  0.974700  0.284300  0.994900  1
  N  N680  1  0.025300  0.715700  0.005100  1
  N  N681  1  0.874000  0.939400  0.458400  1
  N  N682  1  0.126000  0.060600  0.541600  1
  N  N683  1  0.206800  0.040500  0.243250  1.0
  N  N684  1  0.793200  0.959500  0.756750  1.0
  N  N685  1  0.053200  0.091900  0.174400  1.0
  N  N686  1  0.946800  0.908100  0.825600  1.0
  N  N687  1  0.105840  0.079300  0.205600  1.0
  N  N688  1  0.894160  0.920700  0.794400  1.0
  N  N689  1  0.617000  0.004400  0.202600  1.0
  N  N690  1  0.383000  0.995600  0.797400  1.0
  N  N691  1  0.815700  0.075600  0.313300  1.0
  N  N692  1  0.184300  0.924400  0.686700  1.0
  N  N693  1  0.751900  0.053020  0.269010  1.0
  N  N694  1  0.248100  0.946980  0.730990  1.0
  N  N695  1  0.247700  0.172500  0.256600  1.0
  N  N696  1  0.752300  0.827500  0.743400  1.0
  N  N697  1  0.337700  0.177400  0.426700  1.0
  N  N698  1  0.662300  0.822600  0.573300  1.0
  N  N699  1  0.298700  0.174000  0.370200  1.0
  N  N700  1  0.701300  0.826000  0.629800  1.0
  N  N701  1  0.285200  0.452000  0.847700  1.0
  N  N702  1  0.714800  0.548000  0.152300  1.0
  N  N703  1  0.200800  0.335900  0.651400  1.0
  N  N704  1  0.799200  0.664100  0.348600  1.0
  N  N705  1  0.233000  0.368300  0.717900  1.0
  N  N706  1  0.767000  0.631700  0.282100  1.0
  N  N707  1  0.189800  0.224900  0.355600  1.0
  N  N708  1  0.810200  0.775100  0.644400  1.0
  N  N709  1  0.095100  0.049600  0.331950  1.0
  N  N710  1  0.904900  0.950400  0.668050  1.0
  N  N711  1  0.137480  0.105880  0.341850  1.0
  N  N712  1  0.862520  0.894120  0.658150  1.0
  N  N713  1  0.252900  0.717100  0.430300  1.0
  N  N714  1  0.747100  0.282900  0.569700  1.0
  N  N715  1  0.296700  0.846700  0.369800  1.0
  N  N716  1  0.703300  0.153300  0.630200  1.0
  N  N717  1  0.272700  0.800700  0.384300  1.0
  N  N718  1  0.727300  0.199300  0.615700  1.0
  N  N719  1  0.616300  0.074900  0.115300  1.0
  N  N720  1  0.383700  0.925100  0.884700  1.0
  N  N721  1  0.685600  0.926800  0.078600  1.0
  N  N722  1  0.314400  0.073200  0.921400  1.0
  N  N723  1  0.666500  0.978400  0.099600  1.0
  N  N724  1  0.333500  0.021600  0.900400  1.0
  N  N725  1  0.382700  0.421100  0.785500  1.0
  N  N726  1  0.617300  0.578900  0.214500  1.0
  N  N727  1  0.314500  0.222000  0.712100  1.0
  N  N728  1  0.685500  0.778000  0.287900  1.0
  N  N729  1  0.333333  0.289700  0.742600  1.0
  N  N730  1  0.666667  0.710300  0.257400  1.0
  N  N731  1  0.767000  0.124500  0.184400  1.0
  N  N732  1  0.233000  0.875500  0.815600  1.0
  N  N733  1  0.682300  0.200300  0.298400  1.0
  N  N734  1  0.317700  0.799700  0.701600  1.0
  N  N735  1  0.708200  0.165700  0.259800  1.0
  N  N736  1  0.291800  0.834300  0.740200  1.0
  N  N737  1  0.117740  0.718410  0.265210  1.0
  N  N738  1  0.882260  0.281590  0.734790  1.0
  N  N739  1  0.139600  0.814800  0.447950  1.0
  N  N740  1  0.860400  0.185200  0.552050  1.0
  N  N741  1  0.136200  0.776880  0.388610  1.0
  N  N742  1  0.863800  0.223120  0.611390  1.0
  N  N743  1  0.377500  0.374700  0.886700  1.0
  N  N744  1  0.622500  0.625300  0.113300  1.0
  N  N745  1  0.179300  0.272300  0.797000  1.0
  N  N746  1  0.820700  0.727700  0.203000  1.0
  N  N747  1  0.243400  0.309600  0.820800  1.0
  N  N748  1  0.756600  0.690400  0.179200  1.0
  N  N749  1  0.223400  0.648400  0.293300  1.0
  N  N750  1  0.776600  0.351600  0.706700  1.0
  N  N751  1  0.065300  0.588400  0.320600  1.0
  N  N752  1  0.934700  0.411600  0.679400  1.0
  N  N753  1  0.115600  0.616500  0.312200  1.0
  N  N754  1  0.884400  0.383500  0.687800  1.0
  O  O755  1  0.163900  0.026500  0.944400  1
  O  O756  1  0.836100  0.973500  0.055600  1
  O  O757  1  0.135600  0.068800  0.020100  1
  O  O758  1  0.864400  0.931200  0.979900  1
  O  O759  1  0.534600  0.872100  0.327500  1
  O  O760  1  0.465400  0.127900  0.672500  1
  O  O761  1  0.631000  0.931700  0.409000  1
  O  O762  1  0.369000  0.068300  0.591000  1
  O  O763  1  0.310600  0.929700  0.063000  1
  O  O764  1  0.689400  0.070300  0.937000  1
  O  O765  1  0.370900  0.874000  0.048100  1
  O  O766  1  0.629100  0.126000  0.951900  1
  O  O767  1  0.480700  0.237500  0.056400  1
  O  O768  1  0.519300  0.762500  0.943600  1
  O  O769  1  0.478900  0.268500  0.150100  1
  O  O770  1  0.521100  0.731500  0.849900  1
  O  O771  1  0.146900  0.287400  0.229300  1
  O  O772  1  0.853100  0.712600  0.770700  1
  O  O773  1  0.124200  0.365100  0.211800  1
  O  O774  1  0.875800  0.634900  0.788200  1
  O  O775  1  0.830000  0.978300  0.437400  1
  O  O776  1  0.170000  0.021700  0.562600  1
  O  O777  1  0.818000  0.886800  0.438100  1
  O  O778  1  0.182000  0.113200  0.561900  1
  O  O779  1  0.886800  0.345600  0.502000  1
  O  O780  1  0.113200  0.654400  0.498000  1
  O  O781  1  0.879500  0.266100  0.415100  1
  O  O782  1  0.120500  0.733900  0.584900  1
  O  O783  1  0.946900  0.833500  0.145200  1
  O  O784  1  0.053100  0.166500  0.854800  1
  O  O785  1  0.030900  0.876300  0.136600  1
  O  O786  1  0.969100  0.123700  0.863400  1
  O  O787  1  0.021500  0.274700  0.297800  1
  O  O788  1  0.978500  0.725300  0.702200  1
  O  O789  1  0.054800  0.358300  0.396100  1
  O  O790  1  0.945200  0.641700  0.603900  1
  O  O791  1  0.089000  0.583840  0.893700  1
  O  O792  1  0.911000  0.416160  0.106300  1
  O  O793  1  0.167400  0.673900  0.923300  1
  O  O794  1  0.832600  0.326100  0.076700  1
  O  O795  1  0.533600  0.928400  0.836300  1
  O  O796  1  0.466400  0.071600  0.163700  1
  O  O797  1  0.620700  0.904800  0.846000  1
  O  O798  1  0.379300  0.095200  0.154000  1
  O  O799  1  0.022000  0.279800  0.983400  1
  O  O800  1  0.978000  0.720200  0.016600  1
  O  O801  1  0.986100  0.318200  0.054500  1
  O  O802  1  0.013900  0.681800  0.945500  1
  O  O803  1  0.605600  0.044700  0.669000  1
  O  O804  1  0.394400  0.955300  0.331000  1
  O  O805  1  0.881500  0.994400  0.460800  1
  O  O806  1  0.118500  0.005600  0.539200  1
  O  O807  1  0.925300  0.932400  0.489900  1
  O  O808  1  0.074700  0.067600  0.510100  1
  F  F809  1  0.054280  0.217490  0.568190  1
  F  F810  1  0.945720  0.782510  0.431810  1
  F  F811  1  0.981840  0.267790  0.542290  1
  F  F812  1  0.018160  0.732210  0.457710  1
  F  F813  1  0.049680  0.251480  0.493740  1
  F  F814  1  0.950320  0.748520  0.506260  1
  F  F815  1  0.962660  0.162070  0.466510  1
  F  F816  1  0.037340  0.837930  0.533490  1
  F  F817  1  0.540550  0.788300  0.410600  1
  F  F818  1  0.459450  0.211700  0.589400  1
  F  F819  1  0.451190  0.740200  0.420270  1
  F  F820  1  0.548810  0.259800  0.579730  1
  F  F821  1  0.432600  0.762600  0.337820  1
  F  F822  1  0.567400  0.237400  0.662180  1
  F  F823  1  0.470110  0.680600  0.334300  1
  F  F824  1  0.529890  0.319400  0.665700  1
  F  F825  1  0.316000  0.228800  0.084700  1
  F  F826  1  0.684000  0.771200  0.915300  1
  F  F827  1  0.225400  0.259200  0.067800  1
  F  F828  1  0.774600  0.740800  0.932200  1
  F  F829  1  0.239600  0.199200  0.981950  1
  F  F830  1  0.760400  0.800800  0.018050  1
  F  F831  1  0.307600  0.305900  0.052300  1
  F  F832  1  0.692400  0.694100  0.947700  1
  F  F833  1  0.912510  0.094640  0.037650  1
  F  F834  1  0.087490  0.905360  0.962350  1
  F  F835  1  0.978070  0.203410  0.117800  1
  F  F836  1  0.021930  0.796590  0.882200  1
  F  F837  1  0.882860  0.177930  0.029520  1
  F  F838  1  0.117140  0.822070  0.970480  1
  F  F839  1  0.972780  0.163330  0.016190  1
  F  F840  1  0.027220  0.836670  0.983810  1
  F  F841  1  0.604000  0.325000  0.354800  1
  F  F842  1  0.396000  0.675000  0.645200  1
  F  F843  1  0.515800  0.236800  0.326000  1
  F  F844  1  0.484200  0.763200  0.674000  1
  F  F845  1  0.548000  0.238100  0.250400  1
  F  F846  1  0.452000  0.761900  0.749600  1
  F  F847  1  0.499000  0.308400  0.289300  1
  F  F848  1  0.501000  0.691600  0.710700  1
  F  F849  1  0.975000  0.907200  0.321300  1
  F  F850  1  0.025000  0.092800  0.678700  1
  F  F851  1  0.867800  0.891000  0.281500  1
  F  F852  1  0.132200  0.109000  0.718500  1
  F  F853  1  0.909700  0.879500  0.364900  1
  F  F854  1  0.090300  0.120500  0.635100  1
  F  F855  1  0.940600  0.983600  0.377800  1
  F  F856  1  0.059400  0.016400  0.622200  1
  F  F857  1  0.924800  0.406000  0.269000  1
  F  F858  1  0.075200  0.594000  0.731000  1
  F  F859  1  0.918700  0.406900  0.357300  1
  F  F860  1  0.081300  0.593100  0.642700  1
  F  F861  1  0.836700  0.418500  0.287000  1
  F  F862  1  0.163300  0.581500  0.713000  1
  F  F863  1  0.938900  0.502100  0.353000  1
  F  F864  1  0.061100  0.497900  0.647000  1
  F  F865  1  0.529000  0.969900  0.565600  1
  F  F866  1  0.471000  0.030100  0.434400  1
  F  F867  1  0.548300  0.921700  0.628000  1
  F  F868  1  0.451700  0.078300  0.372000  1
  F  F869  1  0.523900  0.014000  0.661400  1
  F  F870  1  0.476100  0.986000  0.338600  1
  F  F871  1  0.623700  0.021600  0.661500  1
  F  F872  1  0.376300  0.978400  0.338500  1
  F  F873  1  0.274200  0.309600  0.086000  1
  F  F874  1  0.725800  0.690400  0.914000  1
  F  F875  1  0.290400  0.251400  0.001000  1
  F  F876  1  0.709600  0.748600  0.999000  1
  F  F877  1  0.207600  0.202600  0.014600  1
  F  F878  1  0.792400  0.797400  0.985400  1
  F  F879  1  0.941000  0.396400  0.295300  1
  F  F880  1  0.059000  0.603600  0.704700  1
  F  F881  1  0.862700  0.399400  0.330900  1
  F  F882  1  0.137300  0.600600  0.669100  1
  F  F883  1  0.869300  0.445100  0.268400  1
  F  F884  1  0.130700  0.554900  0.731600  1
  F  F885  1  0.950200  0.494300  0.372700  1
  F  F886  1  0.049800  0.505700  0.627300  1
