# generated using pymatgen
data_Co8B31H228C276(N21F32)4
_symmetry_space_group_name_H-M   'P 1'
_cell_length_a   19.59000000
_cell_length_b   21.19430000
_cell_length_c   42.65800000
_cell_angle_alpha   90.00000000
_cell_angle_beta   90.00000000
_cell_angle_gamma   113.09900000
_symmetry_Int_Tables_number   1
_chemical_formula_structural   Co8B31H228C276(N21F32)4
_chemical_formula_sum   'Co16 B62 H456 C552 N168 F256'
_cell_volume   16291.48945378
_cell_formula_units_Z   2
loop_
 _symmetry_equiv_pos_site_id
 _symmetry_equiv_pos_as_xyz
  1  'x, y, z'
loop_
 _atom_site_type_symbol
 _atom_site_label
 _atom_site_symmetry_multiplicity
 _atom_site_fract_x
 _atom_site_fract_y
 _atom_site_fract_z
 _atom_site_occupancy
  Co  Co1  1  0.600730  0.365840  0.675410  1.0
  Co  Co2  1  0.899270  0.134160  0.175410  1.0
  Co  Co3  1  0.399270  0.634160  0.324590  1.0
  Co  Co4  1  0.100730  0.865840  0.824590  1.0
  Co  Co5  1  0.603190  0.230520  0.452510  1.0
  Co  Co6  1  0.896810  0.269480  0.952510  1.0
  Co  Co7  1  0.396810  0.769480  0.547490  1.0
  Co  Co8  1  0.103190  0.730520  0.047490  1.0
  Co  Co9  1  0.075390  0.321190  0.653340  1.0
  Co  Co10  1  0.424610  0.178810  0.153340  1.0
  Co  Co11  1  0.924610  0.678810  0.346660  1.0
  Co  Co12  1  0.575390  0.821190  0.846660  1.0
  Co  Co13  1  0.904520  0.801840  0.572220  1.0
  Co  Co14  1  0.595480  0.698160  0.072220  1.0
  Co  Co15  1  0.095480  0.198160  0.427780  1.0
  Co  Co16  1  0.404520  0.301840  0.927780  1.0
  B  B17  1  0.332300  0.420400  0.484500  1
  B  B18  1  0.167700  0.079600  0.984500  1
  B  B19  1  0.667700  0.579600  0.515500  1
  B  B20  1  0.832300  0.920400  0.015500  1
  B  B21  1  0.963000  0.424000  0.325700  1
  B  B22  1  0.537000  0.076000  0.825700  1
  B  B23  1  0.037000  0.576000  0.674300  1
  B  B24  1  0.463000  0.924000  0.174300  1
  B  B25  1  0.700400  0.902600  0.428500  1
  B  B26  1  0.799600  0.597400  0.928500  1
  B  B27  1  0.299600  0.097400  0.571500  1
  B  B28  1  0.200400  0.402600  0.071500  1
  B  B29  1  0.271500  0.862800  0.445400  1
  B  B30  1  0.228500  0.637200  0.945400  1
  B  B31  1  0.728500  0.137200  0.554600  1
  B  B32  1  0.771500  0.362800  0.054600  1
  B  B33  1  0.520100  0.689900  0.650500  1
  B  B34  1  0.979900  0.810100  0.150500  1
  B  B35  1  0.479900  0.310100  0.349500  1
  B  B36  1  0.020100  0.189900  0.849500  1
  B  B37  1  0.163000  0.360800  0.236200  1
  B  B38  1  0.337000  0.139200  0.736200  1
  B  B39  1  0.837000  0.639200  0.763800  1
  B  B40  1  0.663000  0.860800  0.263800  1
  B  B41  1  0.310700  0.001000  0.319100  1
  B  B42  1  0.189300  0.499000  0.819100  1
  B  B43  1  0.689300  0.999000  0.680900  1
  B  B44  1  0.810700  0.501000  0.180900  1
  B  B45  1  0.536700  0.013700  0.305600  1
  B  B46  1  0.963300  0.486300  0.805600  1
  B  B47  1  0.463300  0.986300  0.694400  1
  B  B48  1  0.036700  0.513700  0.194400  1
  B  B49  1  0.163400  0.092100  0.251400  1
  B  B50  1  0.336600  0.407900  0.751400  1
  B  B51  1  0.836600  0.907900  0.748600  1
  B  B52  1  0.663400  0.592100  0.248600  1
  B  B53  1  0.898000  0.940800  0.366000  1
  B  B54  1  0.602000  0.559200  0.866000  1
  B  B55  1  0.102000  0.059200  0.634000  1
  B  B56  1  0.398000  0.440800  0.134000  1
  B  B57  1  0.000000  0.500000  0.500000  1
  B  B58  1  0.500000  0.000000  0.000000  1
  B  B59  1  0.412300  0.968400  0.313900  1
  B  B60  1  0.087700  0.531600  0.813900  1
  B  B61  1  0.587700  0.031600  0.686100  1
  B  B62  1  0.912300  0.468400  0.186100  1
  B  B63  1  0.067600  0.026100  0.313500  1
  B  B64  1  0.432400  0.473900  0.813500  1
  B  B65  1  0.932400  0.973900  0.686500  1
  B  B66  1  0.567600  0.526100  0.186500  1
  B  B67  1  0.008900  0.976100  0.333600  1
  B  B68  1  0.491100  0.523900  0.833600  1
  B  B69  1  0.991100  0.023900  0.666400  1
  B  B70  1  0.508900  0.476100  0.166400  1
  B  B71  1  0.519700  0.698200  0.662900  1
  B  B72  1  0.980300  0.801800  0.162900  1
  B  B73  1  0.480300  0.301800  0.337100  1
  B  B74  1  0.019700  0.198200  0.837100  1
  B  B75  1  0.161500  0.354700  0.238700  1
  B  B76  1  0.338500  0.145300  0.738700  1
  B  B77  1  0.838500  0.645300  0.761300  1
  B  B78  1  0.661500  0.854700  0.261300  1
  H  H79  1  0.553000  0.578600  0.695400  1.0
  H  H80  1  0.947000  0.921400  0.195400  1.0
  H  H81  1  0.447000  0.421400  0.304600  1.0
  H  H82  1  0.053000  0.078600  0.804600  1.0
  H  H83  1  0.553300  0.576200  0.750600  1.0
  H  H84  1  0.946700  0.923800  0.250600  1.0
  H  H85  1  0.446700  0.423800  0.249400  1.0
  H  H86  1  0.053300  0.076200  0.749400  1.0
  H  H87  1  0.578700  0.491200  0.776400  1.0
  H  H88  1  0.921300  0.008800  0.276400  1.0
  H  H89  1  0.421300  0.508800  0.223600  1.0
  H  H90  1  0.078700  0.991200  0.723600  1.0
  H  H91  1  0.600900  0.409300  0.747600  1.0
  H  H92  1  0.899100  0.090700  0.247600  1.0
  H  H93  1  0.399100  0.590700  0.252400  1.0
  H  H94  1  0.100900  0.909300  0.752400  1.0
  H  H95  1  0.536200  0.559100  0.636600  1.0
  H  H96  1  0.963800  0.940900  0.136600  1.0
  H  H97  1  0.463800  0.440900  0.363400  1.0
  H  H98  1  0.036200  0.059100  0.863400  1.0
  H  H99  1  0.562800  0.515700  0.584300  1.0
  H  H100  1  0.937200  0.984300  0.084300  1.0
  H  H101  1  0.437200  0.484300  0.415700  1.0
  H  H102  1  0.062800  0.015700  0.915700  1.0
  H  H103  1  0.651000  0.448300  0.571800  1.0
  H  H104  1  0.849000  0.051700  0.071800  1.0
  H  H105  1  0.349000  0.551700  0.428200  1.0
  H  H106  1  0.151000  0.948300  0.928200  1.0
  H  H107  1  0.664800  0.404800  0.599900  1.0
  H  H108  1  0.835200  0.095200  0.099900  1.0
  H  H109  1  0.335200  0.595200  0.400100  1.0
  H  H110  1  0.164800  0.904800  0.900100  1.0
  H  H111  1  0.385200  0.005900  0.441200  1.0
  H  H112  1  0.114800  0.494100  0.941200  1.0
  H  H113  1  0.614800  0.994100  0.558800  1.0
  H  H114  1  0.885200  0.505900  0.058800  1.0
  H  H115  1  0.361700  0.008400  0.388300  1.0
  H  H116  1  0.138300  0.491600  0.888300  1.0
  H  H117  1  0.638300  0.991600  0.611700  1.0
  H  H118  1  0.861700  0.508400  0.111700  1.0
  H  H119  1  0.429200  0.108800  0.359600  1.0
  H  H120  1  0.070800  0.391200  0.859600  1.0
  H  H121  1  0.570800  0.891200  0.640400  1.0
  H  H122  1  0.929200  0.608800  0.140400  1.0
  H  H123  1  0.518500  0.200800  0.385200  1.0
  H  H124  1  0.981500  0.299200  0.885200  1.0
  H  H125  1  0.481500  0.799200  0.614800  1.0
  H  H126  1  0.018500  0.700800  0.114800  1.0
  H  H127  1  0.412100  0.012500  0.499200  1.0
  H  H128  1  0.087900  0.487500  0.999200  1.0
  H  H129  1  0.587900  0.987500  0.500800  1.0
  H  H130  1  0.912100  0.512500  0.000800  1.0
  H  H131  1  0.480900  0.070200  0.547500  1.0
  H  H132  1  0.019100  0.429800  0.047500  1.0
  H  H133  1  0.519100  0.929800  0.452500  1.0
  H  H134  1  0.980900  0.570200  0.952500  1.0
  H  H135  1  0.600900  0.184100  0.558100  1.0
  H  H136  1  0.899100  0.315900  0.058100  1.0
  H  H137  1  0.399100  0.815900  0.441900  1.0
  H  H138  1  0.100900  0.684100  0.941900  1.0
  H  H139  1  0.633600  0.231800  0.528200  1.0
  H  H140  1  0.866400  0.268200  0.028200  1.0
  H  H141  1  0.366400  0.768200  0.471800  1.0
  H  H142  1  0.133600  0.731800  0.971800  1.0
  H  H143  1  0.476900  0.373100  0.581700  1.0
  H  H144  1  0.023100  0.126900  0.081700  1.0
  H  H145  1  0.523100  0.626900  0.418300  1.0
  H  H146  1  0.976900  0.873100  0.918300  1.0
  H  H147  1  0.396700  0.272700  0.557600  1.0
  H  H148  1  0.103300  0.227300  0.057600  1.0
  H  H149  1  0.603300  0.727300  0.442400  1.0
  H  H150  1  0.896700  0.772700  0.942400  1.0
  H  H151  1  0.445800  0.195200  0.536900  1.0
  H  H152  1  0.054200  0.304800  0.036900  1.0
  H  H153  1  0.554200  0.804800  0.463100  1.0
  H  H154  1  0.945800  0.695200  0.963100  1.0
  H  H155  1  0.716300  0.294200  0.766600  1.0
  H  H156  1  0.783700  0.205800  0.266600  1.0
  H  H157  1  0.283700  0.705800  0.233400  1.0
  H  H158  1  0.216300  0.794200  0.733400  1.0
  H  H159  1  0.615900  0.197000  0.781600  1.0
  H  H160  1  0.884100  0.303000  0.281600  1.0
  H  H161  1  0.384100  0.803000  0.218400  1.0
  H  H162  1  0.115900  0.697000  0.718400  1.0
  H  H163  1  0.503300  0.163600  0.753500  1.0
  H  H164  1  0.996700  0.336400  0.253500  1.0
  H  H165  1  0.496700  0.836400  0.246500  1.0
  H  H166  1  0.003300  0.663600  0.746500  1.0
  H  H167  1  0.496800  0.230400  0.711600  1.0
  H  H168  1  0.003200  0.269600  0.211600  1.0
  H  H169  1  0.503200  0.769600  0.288400  1.0
  H  H170  1  0.996800  0.730400  0.788400  1.0
  H  H171  1  0.811600  0.411800  0.749600  1.0
  H  H172  1  0.688400  0.088200  0.249600  1.0
  H  H173  1  0.188400  0.588200  0.250400  1.0
  H  H174  1  0.311600  0.911800  0.750400  1.0
  H  H175  1  0.873200  0.506000  0.710900  1.0
  H  H176  1  0.626800  0.994000  0.210900  1.0
  H  H177  1  0.126800  0.494000  0.289100  1.0
  H  H178  1  0.373200  0.006000  0.789100  1.0
  H  H179  1  0.845300  0.511300  0.649600  1.0
  H  H180  1  0.654700  0.988700  0.149600  1.0
  H  H181  1  0.154700  0.488700  0.350400  1.0
  H  H182  1  0.345300  0.011300  0.850400  1.0
  H  H183  1  0.763500  0.463500  0.638200  1.0
  H  H184  1  0.736500  0.036500  0.138200  1.0
  H  H185  1  0.236500  0.536500  0.361800  1.0
  H  H186  1  0.263500  0.963500  0.861800  1.0
  H  H187  1  0.756500  0.946100  0.586500  1.0
  H  H188  1  0.743500  0.553900  0.086500  1.0
  H  H189  1  0.243500  0.053900  0.413500  1.0
  H  H190  1  0.256500  0.446100  0.913500  1.0
  H  H191  1  0.853600  0.056200  0.585200  1.0
  H  H192  1  0.646400  0.443800  0.085200  1.0
  H  H193  1  0.146400  0.943800  0.414800  1.0
  H  H194  1  0.353600  0.556200  0.914800  1.0
  H  H195  1  0.976400  0.064700  0.585300  1.0
  H  H196  1  0.523600  0.435300  0.085300  1.0
  H  H197  1  0.023600  0.935300  0.414700  1.0
  H  H198  1  0.476400  0.564700  0.914700  1.0
  H  H199  1  0.998900  0.963700  0.582800  1.0
  H  H200  1  0.501100  0.536300  0.082800  1.0
  H  H201  1  0.001100  0.036300  0.417200  1.0
  H  H202  1  0.498900  0.463700  0.917200  1.0
  H  H203  1  0.660700  0.826100  0.590800  1.0
  H  H204  1  0.839300  0.673900  0.090800  1.0
  H  H205  1  0.339300  0.173900  0.409200  1.0
  H  H206  1  0.160700  0.326100  0.909200  1.0
  H  H207  1  0.618200  0.698700  0.595700  1.0
  H  H208  1  0.881800  0.801300  0.095700  1.0
  H  H209  1  0.381800  0.301300  0.404300  1.0
  H  H210  1  0.118200  0.198700  0.904300  1.0
  H  H211  1  0.684700  0.611800  0.582900  1.0
  H  H212  1  0.815300  0.888200  0.082900  1.0
  H  H213  1  0.315300  0.388200  0.417100  1.0
  H  H214  1  0.184700  0.111800  0.917100  1.0
  H  H215  1  0.772400  0.647200  0.577100  1.0
  H  H216  1  0.727600  0.852800  0.077100  1.0
  H  H217  1  0.227600  0.352800  0.422900  1.0
  H  H218  1  0.272400  0.147200  0.922900  1.0
  H  H219  1  0.771000  0.573600  0.702500  1.0
  H  H220  1  0.729000  0.926400  0.202500  1.0
  H  H221  1  0.229000  0.426400  0.297500  1.0
  H  H222  1  0.271000  0.073600  0.797500  1.0
  H  H223  1  0.754200  0.677200  0.696700  1.0
  H  H224  1  0.745800  0.822800  0.196700  1.0
  H  H225  1  0.245800  0.322800  0.303300  1.0
  H  H226  1  0.254200  0.177200  0.803300  1.0
  H  H227  1  0.731700  0.712200  0.647400  1.0
  H  H228  1  0.768300  0.787800  0.147400  1.0
  H  H229  1  0.268300  0.287800  0.352600  1.0
  H  H230  1  0.231700  0.212200  0.852600  1.0
  H  H231  1  0.381200  0.179900  0.626700  1.0
  H  H232  1  0.118800  0.320100  0.126700  1.0
  H  H233  1  0.618800  0.820100  0.373300  1.0
  H  H234  1  0.881200  0.679900  0.873300  1.0
  H  H235  1  0.287200  0.212000  0.643000  1.0
  H  H236  1  0.212800  0.288000  0.143000  1.0
  H  H237  1  0.712800  0.788000  0.357000  1.0
  H  H238  1  0.787200  0.712000  0.857000  1.0
  H  H239  1  0.320200  0.312700  0.675000  1.0
  H  H240  1  0.179800  0.187300  0.175000  1.0
  H  H241  1  0.679800  0.687300  0.325000  1.0
  H  H242  1  0.820200  0.812700  0.825000  1.0
  H  H243  1  0.442500  0.373200  0.687700  1.0
  H  H244  1  0.057500  0.126800  0.187700  1.0
  H  H245  1  0.557500  0.626800  0.312300  1.0
  H  H246  1  0.942500  0.873200  0.812300  1.0
  H  H247  1  0.487300  0.141000  0.619300  1.0
  H  H248  1  0.012700  0.359000  0.119300  1.0
  H  H249  1  0.512700  0.859000  0.380700  1.0
  H  H250  1  0.987300  0.641000  0.880700  1.0
  H  H251  1  0.621600  0.162200  0.613200  1.0
  H  H252  1  0.878400  0.337800  0.113200  1.0
  H  H253  1  0.378400  0.837800  0.386800  1.0
  H  H254  1  0.121600  0.662200  0.886800  1.0
  H  H255  1  0.740300  0.280700  0.611500  1.0
  H  H256  1  0.759700  0.219300  0.111500  1.0
  H  H257  1  0.259700  0.719300  0.388500  1.0
  H  H258  1  0.240300  0.780700  0.888500  1.0
  H  H259  1  0.731700  0.344600  0.628400  1.0
  H  H260  1  0.768300  0.155400  0.128400  1.0
  H  H261  1  0.268300  0.655400  0.371600  1.0
  H  H262  1  0.231700  0.844600  0.871600  1.0
  H  H263  1  0.135300  0.271100  0.762900  1.0
  H  H264  1  0.364700  0.228900  0.262900  1.0
  H  H265  1  0.864700  0.728900  0.237100  1.0
  H  H266  1  0.635300  0.771100  0.737100  1.0
  H  H267  1  0.193800  0.196600  0.750900  1.0
  H  H268  1  0.306200  0.303400  0.250900  1.0
  H  H269  1  0.806200  0.803400  0.249100  1.0
  H  H270  1  0.693800  0.696600  0.749100  1.0
  H  H271  1  0.203200  0.167000  0.698700  1.0
  H  H272  1  0.296800  0.333000  0.198700  1.0
  H  H273  1  0.796800  0.833000  0.301300  1.0
  H  H274  1  0.703200  0.667000  0.801300  1.0
  H  H275  1  0.154300  0.211800  0.658500  1.0
  H  H276  1  0.345700  0.288200  0.158500  1.0
  H  H277  1  0.845700  0.788200  0.341500  1.0
  H  H278  1  0.654300  0.711800  0.841500  1.0
  H  H279  1  0.071500  0.355900  0.769700  1.0
  H  H280  1  0.428500  0.144100  0.269700  1.0
  H  H281  1  0.928500  0.644100  0.230300  1.0
  H  H282  1  0.571500  0.855900  0.730300  1.0
  H  H283  1  0.988800  0.413300  0.751900  1.0
  H  H284  1  0.511200  0.086700  0.251900  1.0
  H  H285  1  0.011200  0.586700  0.248100  1.0
  H  H286  1  0.488800  0.913300  0.748100  1.0
  H  H287  1  0.937300  0.432200  0.696000  1.0
  H  H288  1  0.562700  0.067800  0.196000  1.0
  H  H289  1  0.062700  0.567800  0.304000  1.0
  H  H290  1  0.437300  0.932200  0.804000  1.0
  H  H291  1  0.967200  0.404000  0.666400  1.0
  H  H292  1  0.532800  0.096000  0.166400  1.0
  H  H293  1  0.032800  0.596000  0.333600  1.0
  H  H294  1  0.467200  0.904000  0.833600  1.0
  H  H295  1  0.687100  0.195900  0.676000  1.0
  H  H296  1  0.812900  0.304100  0.176000  1.0
  H  H297  1  0.312900  0.804100  0.324000  1.0
  H  H298  1  0.187100  0.695900  0.824000  1.0
  H  H299  1  0.764800  0.187000  0.716200  1.0
  H  H300  1  0.735200  0.313000  0.216200  1.0
  H  H301  1  0.235200  0.813000  0.283800  1.0
  H  H302  1  0.264800  0.687000  0.783800  1.0
  H  H303  1  0.882300  0.274800  0.722900  1.0
  H  H304  1  0.617700  0.225200  0.222900  1.0
  H  H305  1  0.117700  0.725200  0.277100  1.0
  H  H306  1  0.382300  0.774800  0.777100  1.0
  H  H307  1  0.710700  0.132400  0.369500  1.0
  H  H308  1  0.789300  0.367600  0.869500  1.0
  H  H309  1  0.289300  0.867600  0.630500  1.0
  H  H310  1  0.210700  0.632400  0.130500  1.0
  H  H311  1  0.699600  0.031700  0.395400  1.0
  H  H312  1  0.800400  0.468300  0.895400  1.0
  H  H313  1  0.300400  0.968300  0.604600  1.0
  H  H314  1  0.199600  0.531700  0.104600  1.0
  H  H315  1  0.670400  0.018700  0.448600  1.0
  H  H316  1  0.829600  0.481300  0.948600  1.0
  H  H317  1  0.329600  0.981300  0.551400  1.0
  H  H318  1  0.170400  0.518700  0.051400  1.0
  H  H319  1  0.639300  0.101400  0.473400  1.0
  H  H320  1  0.860700  0.398600  0.973400  1.0
  H  H321  1  0.360700  0.898600  0.526600  1.0
  H  H322  1  0.139300  0.601400  0.026600  1.0
  H  H323  1  0.713200  0.242400  0.344900  1.0
  H  H324  1  0.786800  0.257600  0.844900  1.0
  H  H325  1  0.286800  0.757600  0.655100  1.0
  H  H326  1  0.213200  0.742400  0.155100  1.0
  H  H327  1  0.696800  0.353200  0.344800  1.0
  H  H328  1  0.803200  0.146800  0.844800  1.0
  H  H329  1  0.303200  0.646800  0.655200  1.0
  H  H330  1  0.196800  0.853200  0.155200  1.0
  H  H331  1  0.622400  0.404000  0.382800  1.0
  H  H332  1  0.877600  0.096000  0.882800  1.0
  H  H333  1  0.377600  0.596000  0.617200  1.0
  H  H334  1  0.122400  0.904000  0.117200  1.0
  H  H335  1  0.608000  0.373000  0.417500  1.0
  H  H336  1  0.892000  0.127000  0.917500  1.0
  H  H337  1  0.392000  0.627000  0.582500  1.0
  H  H338  1  0.108000  0.873000  0.082500  1.0
  H  H339  1  0.823000  0.206900  0.605700  1.0
  H  H340  1  0.677000  0.293100  0.105700  1.0
  H  H341  1  0.177000  0.793100  0.394300  1.0
  H  H342  1  0.323000  0.706900  0.894300  1.0
  H  H343  1  0.782700  0.102800  0.634000  1.0
  H  H344  1  0.717300  0.397200  0.134000  1.0
  H  H345  1  0.217300  0.897200  0.366000  1.0
  H  H346  1  0.282700  0.602800  0.866000  1.0
  H  H347  1  0.864700  0.084800  0.669700  1.0
  H  H348  1  0.635300  0.415200  0.169700  1.0
  H  H349  1  0.135300  0.915200  0.330300  1.0
  H  H350  1  0.364700  0.584800  0.830300  1.0
  H  H351  1  0.982700  0.168400  0.675300  1.0
  H  H352  1  0.517300  0.331600  0.175300  1.0
  H  H353  1  0.017300  0.831600  0.324700  1.0
  H  H354  1  0.482700  0.668400  0.824700  1.0
  H  H355  1  0.882700  0.317300  0.574300  1.0
  H  H356  1  0.617300  0.182700  0.074300  1.0
  H  H357  1  0.117300  0.682700  0.425700  1.0
  H  H358  1  0.382700  0.817300  0.925700  1.0
  H  H359  1  0.971000  0.438100  0.568300  1.0
  H  H360  1  0.529000  0.061900  0.068300  1.0
  H  H361  1  0.029000  0.561900  0.431700  1.0
  H  H362  1  0.471000  0.938100  0.931700  1.0
  H  H363  1  0.079600  0.520900  0.601900  1.0
  H  H364  1  0.420400  0.979100  0.101900  1.0
  H  H365  1  0.920400  0.479100  0.398100  1.0
  H  H366  1  0.579600  0.020900  0.898100  1.0
  H  H367  1  0.102500  0.488400  0.631900  1.0
  H  H368  1  0.397500  0.011600  0.131900  1.0
  H  H369  1  0.897500  0.511600  0.368100  1.0
  H  H370  1  0.602500  0.988400  0.868100  1.0
  H  H371  1  0.657500  0.483800  0.442900  1.0
  H  H372  1  0.842500  0.016200  0.942900  1.0
  H  H373  1  0.342500  0.516200  0.557100  1.0
  H  H374  1  0.157500  0.983800  0.057100  1.0
  H  H375  1  0.761200  0.580400  0.457100  1.0
  H  H376  1  0.738800  0.919600  0.957100  1.0
  H  H377  1  0.238800  0.419600  0.542900  1.0
  H  H378  1  0.261200  0.080400  0.042900  1.0
  H  H379  1  0.877000  0.596000  0.435300  1.0
  H  H380  1  0.623000  0.904000  0.935300  1.0
  H  H381  1  0.123000  0.404000  0.564700  1.0
  H  H382  1  0.377000  0.096000  0.064700  1.0
  H  H383  1  0.609800  0.438600  0.510100  1.0
  H  H384  1  0.890200  0.061400  0.010100  1.0
  H  H385  1  0.390200  0.561400  0.489900  1.0
  H  H386  1  0.109800  0.938600  0.989900  1.0
  H  H387  1  0.485300  0.423000  0.501400  1.0
  H  H388  1  0.014700  0.077000  0.001400  1.0
  H  H389  1  0.514700  0.577000  0.498600  1.0
  H  H390  1  0.985300  0.923000  0.998600  1.0
  H  H391  1  0.408600  0.331300  0.470200  1.0
  H  H392  1  0.091400  0.168700  0.970200  1.0
  H  H393  1  0.591400  0.668700  0.529800  1.0
  H  H394  1  0.908600  0.831300  0.029800  1.0
  H  H395  1  0.455700  0.256000  0.450000  1.0
  H  H396  1  0.044300  0.244000  0.950000  1.0
  H  H397  1  0.544300  0.744000  0.550000  1.0
  H  H398  1  0.955700  0.756000  0.050000  1.0
  H  H399  1  0.742200  0.447400  0.511700  1.0
  H  H400  1  0.757800  0.052600  0.011700  1.0
  H  H401  1  0.257800  0.552600  0.488300  1.0
  H  H402  1  0.242200  0.947400  0.988300  1.0
  H  H403  1  0.840800  0.399400  0.510000  1.0
  H  H404  1  0.659200  0.100600  0.010000  1.0
  H  H405  1  0.159200  0.600600  0.490000  1.0
  H  H406  1  0.340800  0.899400  0.990000  1.0
  H  H407  1  0.838400  0.278600  0.499100  1.0
  H  H408  1  0.661600  0.221400  0.999100  1.0
  H  H409  1  0.161600  0.721400  0.500900  1.0
  H  H410  1  0.338400  0.778600  0.000900  1.0
  H  H411  1  0.760300  0.221000  0.489000  1.0
  H  H412  1  0.739700  0.279000  0.989000  1.0
  H  H413  1  0.239700  0.779000  0.511000  1.0
  H  H414  1  0.260300  0.721000  0.011000  1.0
  H  H415  1  0.974300  0.939900  0.474100  1.0
  H  H416  1  0.525700  0.560100  0.974100  1.0
  H  H417  1  0.025700  0.060100  0.525900  1.0
  H  H418  1  0.474300  0.439900  0.025900  1.0
  H  H419  1  0.856200  0.913800  0.453700  1.0
  H  H420  1  0.643800  0.586200  0.953700  1.0
  H  H421  1  0.143800  0.086200  0.546300  1.0
  H  H422  1  0.356200  0.413800  0.046300  1.0
  H  H423  1  0.755200  0.827900  0.477400  1.0
  H  H424  1  0.744800  0.672100  0.977400  1.0
  H  H425  1  0.244800  0.172100  0.522600  1.0
  H  H426  1  0.255200  0.327900  0.022600  1.0
  H  H427  1  0.772600  0.774400  0.522400  1.0
  H  H428  1  0.727400  0.725600  0.022400  1.0
  H  H429  1  0.227400  0.225600  0.477600  1.0
  H  H430  1  0.272600  0.274400  0.977600  1.0
  H  H431  1  0.100400  0.957500  0.498000  1.0
  H  H432  1  0.399600  0.542500  0.998000  1.0
  H  H433  1  0.899600  0.042500  0.502000  1.0
  H  H434  1  0.600400  0.457500  0.002000  1.0
  H  H435  1  0.181900  0.944200  0.540500  1.0
  H  H436  1  0.318100  0.555800  0.040500  1.0
  H  H437  1  0.818100  0.055800  0.459500  1.0
  H  H438  1  0.681900  0.444200  0.959500  1.0
  H  H439  1  0.154900  0.888800  0.597300  1.0
  H  H440  1  0.345100  0.611200  0.097300  1.0
  H  H441  1  0.845100  0.111200  0.402700  1.0
  H  H442  1  0.654900  0.388800  0.902700  1.0
  H  H443  1  0.070800  0.840000  0.605000  1.0
  H  H444  1  0.429200  0.660000  0.105000  1.0
  H  H445  1  0.929200  0.160000  0.395000  1.0
  H  H446  1  0.570800  0.340000  0.895000  1.0
  H  H447  1  0.820000  0.353800  0.434000  1.0
  H  H448  1  0.680000  0.146200  0.934000  1.0
  H  H449  1  0.180000  0.646200  0.566000  1.0
  H  H450  1  0.320000  0.853800  0.066000  1.0
  H  H451  1  0.866100  0.346100  0.385000  1.0
  H  H452  1  0.633900  0.153900  0.885000  1.0
  H  H453  1  0.133900  0.653900  0.615000  1.0
  H  H454  1  0.366100  0.846100  0.115000  1.0
  H  H455  1  0.898500  0.252400  0.374200  1.0
  H  H456  1  0.601500  0.247600  0.874200  1.0
  H  H457  1  0.101500  0.747600  0.625800  1.0
  H  H458  1  0.398500  0.752400  0.125800  1.0
  H  H459  1  0.350000  0.445200  0.639200  1.0
  H  H460  1  0.150000  0.054800  0.139200  1.0
  H  H461  1  0.650000  0.554800  0.360800  1.0
  H  H462  1  0.850000  0.945200  0.860800  1.0
  H  H463  1  0.372900  0.530100  0.676500  1.0
  H  H464  1  0.127100  0.969900  0.176500  1.0
  H  H465  1  0.627100  0.469900  0.323500  1.0
  H  H466  1  0.872900  0.030100  0.823500  1.0
  H  H467  1  0.272300  0.540600  0.702400  1.0
  H  H468  1  0.227700  0.959400  0.202400  1.0
  H  H469  1  0.727700  0.459400  0.297600  1.0
  H  H470  1  0.772300  0.040600  0.797600  1.0
  H  H471  1  0.153400  0.461900  0.691900  1.0
  H  H472  1  0.346600  0.038100  0.191900  1.0
  H  H473  1  0.846600  0.538100  0.308100  1.0
  H  H474  1  0.653400  0.961900  0.808100  1.0
  H  H475  1  0.314100  0.350300  0.599500  1.0
  H  H476  1  0.185900  0.149700  0.099500  1.0
  H  H477  1  0.685900  0.649700  0.400500  1.0
  H  H478  1  0.814100  0.850300  0.900500  1.0
  H  H479  1  0.225800  0.248600  0.569800  1.0
  H  H480  1  0.274200  0.251400  0.069800  1.0
  H  H481  1  0.774200  0.751400  0.430200  1.0
  H  H482  1  0.725800  0.748600  0.930200  1.0
  H  H483  1  0.035600  0.200400  0.601600  1.0
  H  H484  1  0.464400  0.299600  0.101600  1.0
  H  H485  1  0.964400  0.799600  0.398400  1.0
  H  H486  1  0.535600  0.700400  0.898400  1.0
  H  H487  1  0.079000  0.166400  0.580200  1.0
  H  H488  1  0.421000  0.333600  0.080200  1.0
  H  H489  1  0.921000  0.833600  0.419800  1.0
  H  H490  1  0.579000  0.666400  0.919800  1.0
  H  H491  1  0.953100  0.652700  0.652400  1.0
  H  H492  1  0.546900  0.847300  0.152400  1.0
  H  H493  1  0.046900  0.347300  0.347600  1.0
  H  H494  1  0.453100  0.152700  0.847600  1.0
  H  H495  1  0.957000  0.718700  0.696700  1.0
  H  H496  1  0.543000  0.781300  0.196700  1.0
  H  H497  1  0.043000  0.281300  0.303300  1.0
  H  H498  1  0.457000  0.218700  0.803300  1.0
  H  H499  1  0.949500  0.825300  0.691000  1.0
  H  H500  1  0.550500  0.674700  0.191000  1.0
  H  H501  1  0.050500  0.174700  0.309000  1.0
  H  H502  1  0.449500  0.325300  0.809000  1.0
  H  H503  1  0.926800  0.858900  0.641200  1.0
  H  H504  1  0.573200  0.641100  0.141200  1.0
  H  H505  1  0.073200  0.141100  0.358800  1.0
  H  H506  1  0.426800  0.358900  0.858800  1.0
  H  H507  1  0.953100  0.592600  0.600400  1.0
  H  H508  1  0.546900  0.907400  0.100400  1.0
  H  H509  1  0.046900  0.407400  0.399600  1.0
  H  H510  1  0.453100  0.092600  0.899600  1.0
  H  H511  1  0.924300  0.568700  0.543800  1.0
  H  H512  1  0.575700  0.931300  0.043800  1.0
  H  H513  1  0.075700  0.431300  0.456200  1.0
  H  H514  1  0.424300  0.068700  0.956200  1.0
  H  H515  1  0.858900  0.617300  0.502300  1.0
  H  H516  1  0.641100  0.882700  0.002300  1.0
  H  H517  1  0.141100  0.382700  0.497700  1.0
  H  H518  1  0.358900  0.117300  0.997700  1.0
  H  H519  1  0.836500  0.678400  0.513800  1.0
  H  H520  1  0.663500  0.821600  0.013800  1.0
  H  H521  1  0.163500  0.321600  0.486200  1.0
  H  H522  1  0.336500  0.178400  0.986200  1.0
  H  H523  1  0.933500  0.171000  0.565500  1.0
  H  H524  1  0.566500  0.329000  0.065500  1.0
  H  H525  1  0.066500  0.829000  0.434500  1.0
  H  H526  1  0.433500  0.671000  0.934500  1.0
  H  H527  1  0.887400  0.196700  0.518600  1.0
  H  H528  1  0.612600  0.303300  0.018600  1.0
  H  H529  1  0.112600  0.803300  0.481400  1.0
  H  H530  1  0.387400  0.696700  0.981400  1.0
  H  H531  1  0.969500  0.270300  0.482900  1.0
  H  H532  1  0.530500  0.229700  0.982900  1.0
  H  H533  1  0.030500  0.729700  0.517100  1.0
  H  H534  1  0.469500  0.770300  0.017100  1.0
  C  C535  1  0.575100  0.492100  0.690000  1.0
  C  C536  1  0.924900  0.007900  0.190000  1.0
  C  C537  1  0.424900  0.507900  0.310000  1.0
  C  C538  1  0.075100  0.992100  0.810000  1.0
  C  C539  1  0.562100  0.543600  0.706300  1.0
  C  C540  1  0.937900  0.956400  0.206300  1.0
  C  C541  1  0.437900  0.456400  0.293700  1.0
  C  C542  1  0.062100  0.043600  0.793700  1.0
  C  C543  1  0.562800  0.542300  0.738900  1.0
  C  C544  1  0.937200  0.957700  0.238900  1.0
  C  C545  1  0.437200  0.457700  0.261100  1.0
  C  C546  1  0.062800  0.042300  0.761100  1.0
  C  C547  1  0.577300  0.492100  0.754200  1.0
  C  C548  1  0.922700  0.007900  0.254200  1.0
  C  C549  1  0.422700  0.507900  0.245800  1.0
  C  C550  1  0.077300  0.992100  0.745800  1.0
  C  C551  1  0.589700  0.443300  0.736900  1.0
  C  C552  1  0.910300  0.056700  0.236900  1.0
  C  C553  1  0.410300  0.556700  0.263100  1.0
  C  C554  1  0.089700  0.943300  0.763100  1.0
  C  C555  1  0.576500  0.489400  0.656200  1.0
  C  C556  1  0.923500  0.010600  0.156200  1.0
  C  C557  1  0.423500  0.510600  0.343800  1.0
  C  C558  1  0.076500  0.989400  0.843800  1.0
  C  C559  1  0.556000  0.525200  0.633400  1.0
  C  C560  1  0.944000  0.974800  0.133400  1.0
  C  C561  1  0.444000  0.474800  0.366600  1.0
  C  C562  1  0.056000  0.025200  0.866600  1.0
  C  C563  1  0.570200  0.501000  0.604600  1.0
  C  C564  1  0.929800  0.999000  0.104600  1.0
  C  C565  1  0.429800  0.499000  0.395400  1.0
  C  C566  1  0.070200  0.001000  0.895400  1.0
  C  C567  1  0.626600  0.416700  0.589200  1.0
  C  C568  1  0.873400  0.083300  0.089200  1.0
  C  C569  1  0.373400  0.583300  0.410800  1.0
  C  C570  1  0.126600  0.916700  0.910800  1.0
  C  C571  1  0.466300  0.101100  0.443900  1.0
  C  C572  1  0.033700  0.398900  0.943900  1.0
  C  C573  1  0.533700  0.898900  0.556100  1.0
  C  C574  1  0.966300  0.601100  0.056100  1.0
  C  C575  1  0.412700  0.045700  0.429300  1.0
  C  C576  1  0.087300  0.454300  0.929300  1.0
  C  C577  1  0.587300  0.954300  0.570700  1.0
  C  C578  1  0.912700  0.545700  0.070700  1.0
  C  C579  1  0.398300  0.047000  0.398200  1.0
  C  C580  1  0.101700  0.453000  0.898200  1.0
  C  C581  1  0.601700  0.953000  0.601800  1.0
  C  C582  1  0.898300  0.547000  0.101800  1.0
  C  C583  1  0.438100  0.106000  0.381400  1.0
  C  C584  1  0.061900  0.394000  0.881400  1.0
  C  C585  1  0.561900  0.894000  0.618600  1.0
  C  C586  1  0.938100  0.606000  0.118600  1.0
  C  C587  1  0.491200  0.160500  0.396800  1.0
  C  C588  1  0.008800  0.339500  0.896800  1.0
  C  C589  1  0.508800  0.839500  0.603200  1.0
  C  C590  1  0.991200  0.660500  0.103200  1.0
  C  C591  1  0.483400  0.104100  0.476900  1.0
  C  C592  1  0.016600  0.395900  0.976900  1.0
  C  C593  1  0.516600  0.895900  0.523100  1.0
  C  C594  1  0.983400  0.604100  0.023100  1.0
  C  C595  1  0.451200  0.056600  0.500800  1.0
  C  C596  1  0.048800  0.443400  0.000800  1.0
  C  C597  1  0.548800  0.943400  0.499200  1.0
  C  C598  1  0.951200  0.556600  0.999200  1.0
  C  C599  1  0.489600  0.088800  0.526900  1.0
  C  C600  1  0.010400  0.411200  0.026900  1.0
  C  C601  1  0.510400  0.911200  0.473100  1.0
  C  C602  1  0.989600  0.588800  0.973100  1.0
  C  C603  1  0.587200  0.204400  0.539500  1.0
  C  C604  1  0.912800  0.295600  0.039500  1.0
  C  C605  1  0.412800  0.795600  0.460500  1.0
  C  C606  1  0.087200  0.704400  0.960500  1.0
  C  C607  1  0.568000  0.352000  0.575850  1.0
  C  C608  1  0.932000  0.148000  0.075850  1.0
  C  C609  1  0.432000  0.648000  0.424150  1.0
  C  C610  1  0.068000  0.852000  0.924150  1.0
  C  C611  1  0.495000  0.340800  0.573600  1.0
  C  C612  1  0.005000  0.159200  0.073600  1.0
  C  C613  1  0.505000  0.659200  0.426400  1.0
  C  C614  1  0.995000  0.840800  0.926400  1.0
  C  C615  1  0.448200  0.282300  0.559300  1.0
  C  C616  1  0.051800  0.217700  0.059300  1.0
  C  C617  1  0.551800  0.717700  0.440700  1.0
  C  C618  1  0.948200  0.782300  0.940700  1.0
  C  C619  1  0.477100  0.236200  0.547100  1.0
  C  C620  1  0.022900  0.263800  0.047100  1.0
  C  C621  1  0.522900  0.763800  0.452900  1.0
  C  C622  1  0.977100  0.736200  0.952900  1.0
  C  C623  1  0.550200  0.251700  0.550240  1.0
  C  C624  1  0.949800  0.248300  0.050240  1.0
  C  C625  1  0.449800  0.748300  0.449760  1.0
  C  C626  1  0.050200  0.751700  0.949760  1.0
  C  C627  1  0.663700  0.316900  0.729200  1.0
  C  C628  1  0.836300  0.183100  0.229200  1.0
  C  C629  1  0.336300  0.683100  0.270800  1.0
  C  C630  1  0.163700  0.816900  0.770800  1.0
  C  C631  1  0.670900  0.279800  0.755300  1.0
  C  C632  1  0.829100  0.220200  0.255300  1.0
  C  C633  1  0.329100  0.720200  0.244700  1.0
  C  C634  1  0.170900  0.779800  0.744700  1.0
  C  C635  1  0.611900  0.223200  0.764200  1.0
  C  C636  1  0.888100  0.276800  0.264200  1.0
  C  C637  1  0.388100  0.776800  0.235800  1.0
  C  C638  1  0.111900  0.723200  0.735800  1.0
  C  C639  1  0.545200  0.203300  0.747700  1.0
  C  C640  1  0.954800  0.296700  0.247700  1.0
  C  C641  1  0.454800  0.796700  0.252300  1.0
  C  C642  1  0.045200  0.703300  0.752300  1.0
  C  C643  1  0.542300  0.243400  0.722700  1.0
  C  C644  1  0.957700  0.256600  0.222700  1.0
  C  C645  1  0.457700  0.756600  0.277300  1.0
  C  C646  1  0.042300  0.743400  0.777300  1.0
  C  C647  1  0.724100  0.378000  0.717700  1.0
  C  C648  1  0.775900  0.122000  0.217700  1.0
  C  C649  1  0.275900  0.622000  0.282300  1.0
  C  C650  1  0.224100  0.878000  0.782300  1.0
  C  C651  1  0.791900  0.418200  0.730100  1.0
  C  C652  1  0.708100  0.081800  0.230100  1.0
  C  C653  1  0.208100  0.581800  0.269900  1.0
  C  C654  1  0.291900  0.918200  0.769900  1.0
  C  C655  1  0.825800  0.469700  0.708900  1.0
  C  C656  1  0.674200  0.030300  0.208900  1.0
  C  C657  1  0.174200  0.530300  0.291100  1.0
  C  C658  1  0.325800  0.969700  0.791100  1.0
  C  C659  1  0.791900  0.495500  0.654900  1.0
  C  C660  1  0.708100  0.004500  0.154900  1.0
  C  C661  1  0.208100  0.504500  0.345100  1.0
  C  C662  1  0.291900  0.995500  0.845100  1.0
  C  C663  1  0.824200  0.894200  0.584800  1.0
  C  C664  1  0.675800  0.605800  0.084800  1.0
  C  C665  1  0.175800  0.105800  0.415200  1.0
  C  C666  1  0.324200  0.394200  0.915200  1.0
  C  C667  1  0.806800  0.951000  0.585700  1.0
  C  C668  1  0.693200  0.549000  0.085700  1.0
  C  C669  1  0.193200  0.049000  0.414300  1.0
  C  C670  1  0.306800  0.451000  0.914300  1.0
  C  C671  1  0.864200  0.016200  0.585200  1.0
  C  C672  1  0.635800  0.483800  0.085200  1.0
  C  C673  1  0.135800  0.983800  0.414800  1.0
  C  C674  1  0.364200  0.516200  0.914800  1.0
  C  C675  1  0.936100  0.021100  0.584800  1.0
  C  C676  1  0.563900  0.478900  0.084800  1.0
  C  C677  1  0.063900  0.978900  0.415200  1.0
  C  C678  1  0.436100  0.521100  0.915200  1.0
  C  C679  1  0.949100  0.960300  0.583400  1.0
  C  C680  1  0.550900  0.539700  0.083400  1.0
  C  C681  1  0.050900  0.039700  0.416600  1.0
  C  C682  1  0.449100  0.460300  0.916600  1.0
  C  C683  1  0.767800  0.825000  0.586900  1.0
  C  C684  1  0.732200  0.675000  0.086900  1.0
  C  C685  1  0.232200  0.175000  0.413100  1.0
  C  C686  1  0.267800  0.325000  0.913100  1.0
  C  C687  1  0.690600  0.800100  0.590100  1.0
  C  C688  1  0.809400  0.699900  0.090100  1.0
  C  C689  1  0.309400  0.199900  0.409900  1.0
  C  C690  1  0.190600  0.300100  0.909900  1.0
  C  C691  1  0.667600  0.730500  0.591900  1.0
  C  C692  1  0.832400  0.769500  0.091900  1.0
  C  C693  1  0.332400  0.269500  0.408100  1.0
  C  C694  1  0.167600  0.230500  0.908100  1.0
  C  C695  1  0.731500  0.648100  0.590400  1.0
  C  C696  1  0.768500  0.851900  0.090400  1.0
  C  C697  1  0.268500  0.351900  0.409600  1.0
  C  C698  1  0.231500  0.148100  0.909600  1.0
  C  C699  1  0.770600  0.557200  0.654900  1.0
  C  C700  1  0.729400  0.942800  0.154900  1.0
  C  C701  1  0.229400  0.442800  0.345100  1.0
  C  C702  1  0.270600  0.057200  0.845100  1.0
  C  C703  1  0.766100  0.590700  0.682400  1.0
  C  C704  1  0.733900  0.909300  0.182400  1.0
  C  C705  1  0.233900  0.409300  0.317600  1.0
  C  C706  1  0.266100  0.090700  0.817600  1.0
  C  C707  1  0.754100  0.650600  0.678700  1.0
  C  C708  1  0.745900  0.849400  0.178700  1.0
  C  C709  1  0.245900  0.349400  0.321300  1.0
  C  C710  1  0.254100  0.150600  0.821300  1.0
  C  C711  1  0.742000  0.672300  0.649800  1.0
  C  C712  1  0.758000  0.827700  0.149800  1.0
  C  C713  1  0.258000  0.327700  0.350200  1.0
  C  C714  1  0.242000  0.172300  0.850200  1.0
  C  C715  1  0.745400  0.633700  0.624600  1.0
  C  C716  1  0.754600  0.866300  0.124600  1.0
  C  C717  1  0.254600  0.366300  0.375400  1.0
  C  C718  1  0.245400  0.133700  0.875400  1.0
  C  C719  1  0.464600  0.256500  0.647400  1.0
  C  C720  1  0.035400  0.243500  0.147400  1.0
  C  C721  1  0.535400  0.743500  0.352600  1.0
  C  C722  1  0.964600  0.756500  0.852600  1.0
  C  C723  1  0.392800  0.219600  0.639300  1.0
  C  C724  1  0.107200  0.280400  0.139300  1.0
  C  C725  1  0.607200  0.780400  0.360700  1.0
  C  C726  1  0.892800  0.719600  0.860700  1.0
  C  C727  1  0.337300  0.237900  0.648800  1.0
  C  C728  1  0.162700  0.262100  0.148800  1.0
  C  C729  1  0.662700  0.762100  0.351200  1.0
  C  C730  1  0.837300  0.737900  0.851200  1.0
  C  C731  1  0.357100  0.297700  0.667700  1.0
  C  C732  1  0.142900  0.202300  0.167700  1.0
  C  C733  1  0.642900  0.702300  0.332300  1.0
  C  C734  1  0.857100  0.797700  0.832300  1.0
  C  C735  1  0.429800  0.333000  0.675200  1.0
  C  C736  1  0.070200  0.167000  0.175200  1.0
  C  C737  1  0.570200  0.667000  0.324800  1.0
  C  C738  1  0.929800  0.833000  0.824800  1.0
  C  C739  1  0.527600  0.239900  0.638700  1.0
  C  C740  1  0.972400  0.260100  0.138700  1.0
  C  C741  1  0.472400  0.760100  0.361300  1.0
  C  C742  1  0.027600  0.739900  0.861300  1.0
  C  C743  1  0.528700  0.181200  0.625000  1.0
  C  C744  1  0.971300  0.318800  0.125000  1.0
  C  C745  1  0.471300  0.818800  0.375000  1.0
  C  C746  1  0.028700  0.681200  0.875000  1.0
  C  C747  1  0.601900  0.193000  0.621600  1.0
  C  C748  1  0.898100  0.307000  0.121600  1.0
  C  C749  1  0.398100  0.807000  0.378400  1.0
  C  C750  1  0.101900  0.693000  0.878400  1.0
  C  C751  1  0.721400  0.295200  0.630600  1.0
  C  C752  1  0.778600  0.204800  0.130600  1.0
  C  C753  1  0.278600  0.704800  0.369400  1.0
  C  C754  1  0.221400  0.795200  0.869400  1.0
  C  C755  1  0.110100  0.285600  0.717830  1.0
  C  C756  1  0.389900  0.214400  0.217830  1.0
  C  C757  1  0.889900  0.714400  0.282170  1.0
  C  C758  1  0.610100  0.785600  0.782170  1.0
  C  C759  1  0.139200  0.259000  0.741710  1.0
  C  C760  1  0.360800  0.241000  0.241710  1.0
  C  C761  1  0.860800  0.741000  0.258290  1.0
  C  C762  1  0.639200  0.759000  0.758290  1.0
  C  C763  1  0.173900  0.214800  0.734590  1.0
  C  C764  1  0.326100  0.285200  0.234590  1.0
  C  C765  1  0.826100  0.785200  0.265410  1.0
  C  C766  1  0.673900  0.714800  0.765410  1.0
  C  C767  1  0.179500  0.197200  0.703600  1.0
  C  C768  1  0.320500  0.302800  0.203600  1.0
  C  C769  1  0.820500  0.802800  0.296400  1.0
  C  C770  1  0.679500  0.697200  0.796400  1.0
  C  C771  1  0.150500  0.223800  0.679710  1.0
  C  C772  1  0.349500  0.276200  0.179710  1.0
  C  C773  1  0.849500  0.776200  0.320290  1.0
  C  C774  1  0.650500  0.723800  0.820290  1.0
  C  C775  1  0.067700  0.326700  0.722100  1.0
  C  C776  1  0.432300  0.173300  0.222100  1.0
  C  C777  1  0.932300  0.673300  0.277900  1.0
  C  C778  1  0.567700  0.826700  0.777900  1.0
  C  C779  1  0.053900  0.357000  0.749100  1.0
  C  C780  1  0.446100  0.143000  0.249100  1.0
  C  C781  1  0.946100  0.643000  0.250900  1.0
  C  C782  1  0.553900  0.857000  0.750900  1.0
  C  C783  1  0.009400  0.388600  0.739100  1.0
  C  C784  1  0.490600  0.111400  0.239100  1.0
  C  C785  1  0.990600  0.611400  0.260900  1.0
  C  C786  1  0.509400  0.888600  0.760900  1.0
  C  C787  1  0.945800  0.392200  0.687700  1.0
  C  C788  1  0.554200  0.107800  0.187700  1.0
  C  C789  1  0.054200  0.607800  0.312300  1.0
  C  C790  1  0.445800  0.892200  0.812300  1.0
  C  C791  1  0.762700  0.285500  0.658600  1.0
  C  C792  1  0.737300  0.214500  0.158600  1.0
  C  C793  1  0.237300  0.714500  0.341400  1.0
  C  C794  1  0.262700  0.785500  0.841400  1.0
  C  C795  1  0.735700  0.230100  0.678600  1.0
  C  C796  1  0.764300  0.269900  0.178600  1.0
  C  C797  1  0.264300  0.769900  0.321400  1.0
  C  C798  1  0.235700  0.730100  0.821400  1.0
  C  C799  1  0.781300  0.225500  0.702500  1.0
  C  C800  1  0.718700  0.274500  0.202500  1.0
  C  C801  1  0.218700  0.774500  0.297500  1.0
  C  C802  1  0.281300  0.725500  0.797500  1.0
  C  C803  1  0.850500  0.276800  0.706400  1.0
  C  C804  1  0.649500  0.223200  0.206400  1.0
  C  C805  1  0.149500  0.723200  0.293600  1.0
  C  C806  1  0.350500  0.776800  0.793600  1.0
  C  C807  1  0.872900  0.331900  0.685600  1.0
  C  C808  1  0.627100  0.168100  0.185600  1.0
  C  C809  1  0.127100  0.668100  0.314400  1.0
  C  C810  1  0.372900  0.831900  0.814400  1.0
  C  C811  1  0.674100  0.172300  0.406900  1.0
  C  C812  1  0.825900  0.327700  0.906900  1.0
  C  C813  1  0.325900  0.827700  0.593100  1.0
  C  C814  1  0.174100  0.672300  0.093100  1.0
  C  C815  1  0.694300  0.124600  0.390700  1.0
  C  C816  1  0.805700  0.375400  0.890700  1.0
  C  C817  1  0.305700  0.875400  0.609300  1.0
  C  C818  1  0.194300  0.624600  0.109300  1.0
  C  C819  1  0.689700  0.066300  0.406300  1.0
  C  C820  1  0.810300  0.433700  0.906300  1.0
  C  C821  1  0.310300  0.933700  0.593700  1.0
  C  C822  1  0.189700  0.566300  0.093700  1.0
  C  C823  1  0.670900  0.057500  0.437400  1.0
  C  C824  1  0.829100  0.442500  0.937400  1.0
  C  C825  1  0.329100  0.942500  0.562600  1.0
  C  C826  1  0.170900  0.557500  0.062600  1.0
  C  C827  1  0.652600  0.107200  0.451800  1.0
  C  C828  1  0.847400  0.392800  0.951800  1.0
  C  C829  1  0.347400  0.892800  0.548200  1.0
  C  C830  1  0.152600  0.607200  0.048200  1.0
  C  C831  1  0.674600  0.234000  0.392000  1.0
  C  C832  1  0.825400  0.266000  0.892000  1.0
  C  C833  1  0.325400  0.766000  0.608000  1.0
  C  C834  1  0.174600  0.734000  0.108000  1.0
  C  C835  1  0.695900  0.261700  0.361700  1.0
  C  C836  1  0.804100  0.238300  0.861700  1.0
  C  C837  1  0.304100  0.738300  0.638300  1.0
  C  C838  1  0.195900  0.761700  0.138300  1.0
  C  C839  1  0.686400  0.321800  0.361800  1.0
  C  C840  1  0.813600  0.178200  0.861800  1.0
  C  C841  1  0.313600  0.678200  0.638200  1.0
  C  C842  1  0.186400  0.821800  0.138200  1.0
  C  C843  1  0.644800  0.388100  0.400300  1.0
  C  C844  1  0.855200  0.111900  0.900300  1.0
  C  C845  1  0.355200  0.611900  0.599700  1.0
  C  C846  1  0.144800  0.888100  0.099700  1.0
  C  C847  1  0.926000  0.247600  0.625700  1.0
  C  C848  1  0.574000  0.252400  0.125700  1.0
  C  C849  1  0.074000  0.752400  0.374300  1.0
  C  C850  1  0.426000  0.747600  0.874300  1.0
  C  C851  1  0.855000  0.198500  0.620400  1.0
  C  C852  1  0.645000  0.301500  0.120400  1.0
  C  C853  1  0.145000  0.801500  0.379600  1.0
  C  C854  1  0.355000  0.698500  0.879600  1.0
  C  C855  1  0.831300  0.136800  0.637000  1.0
  C  C856  1  0.668700  0.363200  0.137000  1.0
  C  C857  1  0.168700  0.863200  0.363000  1.0
  C  C858  1  0.331300  0.636800  0.863000  1.0
  C  C859  1  0.879500  0.126000  0.657900  1.0
  C  C860  1  0.620500  0.374000  0.157900  1.0
  C  C861  1  0.120500  0.874000  0.342100  1.0
  C  C862  1  0.379500  0.626000  0.842100  1.0
  C  C863  1  0.949400  0.176400  0.661300  1.0
  C  C864  1  0.550600  0.323600  0.161300  1.0
  C  C865  1  0.050600  0.823600  0.338700  1.0
  C  C866  1  0.449400  0.676400  0.838700  1.0
  C  C867  1  0.954900  0.314200  0.610270  1.0
  C  C868  1  0.545100  0.185800  0.110270  1.0
  C  C869  1  0.045100  0.685800  0.389730  1.0
  C  C870  1  0.454900  0.814200  0.889730  1.0
  C  C871  1  0.926600  0.340500  0.586100  1.0
  C  C872  1  0.573400  0.159500  0.086100  1.0
  C  C873  1  0.073400  0.659500  0.413900  1.0
  C  C874  1  0.426600  0.840500  0.913900  1.0
  C  C875  1  0.974900  0.405900  0.582900  1.0
  C  C876  1  0.525100  0.094100  0.082900  1.0
  C  C877  1  0.025100  0.594100  0.417100  1.0
  C  C878  1  0.474900  0.905900  0.917100  1.0
  C  C879  1  0.092800  0.482700  0.609100  1.0
  C  C880  1  0.407200  0.017300  0.109100  1.0
  C  C881  1  0.907200  0.517300  0.390900  1.0
  C  C882  1  0.592800  0.982700  0.890900  1.0
  C  C883  1  0.713200  0.447900  0.411800  1.0
  C  C884  1  0.786800  0.052100  0.911800  1.0
  C  C885  1  0.286800  0.552100  0.588200  1.0
  C  C886  1  0.213200  0.947900  0.088200  1.0
  C  C887  1  0.704600  0.492400  0.433900  1.0
  C  C888  1  0.795400  0.007600  0.933900  1.0
  C  C889  1  0.295400  0.507600  0.566100  1.0
  C  C890  1  0.204600  0.992400  0.066100  1.0
  C  C891  1  0.765300  0.548400  0.442400  1.0
  C  C892  1  0.734700  0.951600  0.942400  1.0
  C  C893  1  0.234700  0.451600  0.557600  1.0
  C  C894  1  0.265300  0.048400  0.057600  1.0
  C  C895  1  0.833500  0.558100  0.429200  1.0
  C  C896  1  0.666500  0.941900  0.929200  1.0
  C  C897  1  0.166500  0.441900  0.570800  1.0
  C  C898  1  0.333500  0.058100  0.070800  1.0
  C  C899  1  0.163000  0.487900  0.592800  1.0
  C  C900  1  0.337000  0.012100  0.092800  1.0
  C  C901  1  0.837000  0.512100  0.407200  1.0
  C  C902  1  0.663000  0.987900  0.907200  1.0
  C  C903  1  0.601900  0.353200  0.484740  1.0
  C  C904  1  0.898100  0.146800  0.984740  1.0
  C  C905  1  0.398100  0.646800  0.515260  1.0
  C  C906  1  0.101900  0.853200  0.015260  1.0
  C  C907  1  0.577500  0.401200  0.497900  1.0
  C  C908  1  0.922500  0.098800  0.997900  1.0
  C  C909  1  0.422500  0.598800  0.502100  1.0
  C  C910  1  0.077500  0.901200  0.002100  1.0
  C  C911  1  0.504200  0.392000  0.492600  1.0
  C  C912  1  0.995800  0.108000  0.992600  1.0
  C  C913  1  0.495800  0.608000  0.507400  1.0
  C  C914  1  0.004200  0.892000  0.007400  1.0
  C  C915  1  0.458500  0.337600  0.474300  1.0
  C  C916  1  0.041500  0.162400  0.974300  1.0
  C  C917  1  0.541500  0.662400  0.525700  1.0
  C  C918  1  0.958500  0.837600  0.025700  1.0
  C  C919  1  0.487000  0.293200  0.462500  1.0
  C  C920  1  0.013000  0.206800  0.962500  1.0
  C  C921  1  0.513000  0.706800  0.537500  1.0
  C  C922  1  0.987000  0.793200  0.037500  1.0
  C  C923  1  0.676400  0.355500  0.489890  1.0
  C  C924  1  0.823600  0.144500  0.989890  1.0
  C  C925  1  0.323600  0.644500  0.510110  1.0
  C  C926  1  0.176400  0.855500  0.010110  1.0
  C  C927  1  0.737700  0.404400  0.503400  1.0
  C  C928  1  0.762300  0.095600  0.003400  1.0
  C  C929  1  0.262300  0.595600  0.496600  1.0
  C  C930  1  0.237700  0.904400  0.996600  1.0
  C  C931  1  0.791400  0.377800  0.502400  1.0
  C  C932  1  0.708600  0.122200  0.002400  1.0
  C  C933  1  0.208600  0.622200  0.497600  1.0
  C  C934  1  0.291400  0.877800  0.997600  1.0
  C  C935  1  0.796900  0.267700  0.484060  1.0
  C  C936  1  0.703100  0.232300  0.984060  1.0
  C  C937  1  0.203100  0.732300  0.515940  1.0
  C  C938  1  0.296900  0.767700  0.015940  1.0
  C  C939  1  0.940000  0.873000  0.511300  1.0
  C  C940  1  0.560000  0.627000  0.011300  1.0
  C  C941  1  0.060000  0.127000  0.488700  1.0
  C  C942  1  0.440000  0.373000  0.988700  1.0
  C  C943  1  0.932000  0.906500  0.484000  1.0
  C  C944  1  0.568000  0.593500  0.984000  1.0
  C  C945  1  0.068000  0.093500  0.516000  1.0
  C  C946  1  0.432000  0.406500  0.016000  1.0
  C  C947  1  0.863000  0.890600  0.471800  1.0
  C  C948  1  0.637000  0.609400  0.971800  1.0
  C  C949  1  0.137000  0.109400  0.528200  1.0
  C  C950  1  0.363000  0.390600  0.028200  1.0
  C  C951  1  0.803600  0.840600  0.485900  1.0
  C  C952  1  0.696400  0.659400  0.985900  1.0
  C  C953  1  0.196400  0.159400  0.514100  1.0
  C  C954  1  0.303600  0.340600  0.014100  1.0
  C  C955  1  0.814200  0.808900  0.512700  1.0
  C  C956  1  0.685800  0.691100  0.012700  1.0
  C  C957  1  0.185800  0.191100  0.487300  1.0
  C  C958  1  0.314200  0.308900  0.987300  1.0
  C  C959  1  0.012200  0.887800  0.525600  1.0
  C  C960  1  0.487800  0.612200  0.025600  1.0
  C  C961  1  0.987800  0.112200  0.474400  1.0
  C  C962  1  0.512200  0.387800  0.974400  1.0
  C  C963  1  0.085300  0.930000  0.516300  1.0
  C  C964  1  0.414700  0.570000  0.016300  1.0
  C  C965  1  0.914700  0.070000  0.483700  1.0
  C  C966  1  0.585300  0.430000  0.983700  1.0
  C  C967  1  0.129300  0.922200  0.539700  1.0
  C  C968  1  0.370700  0.577800  0.039700  1.0
  C  C969  1  0.870700  0.077800  0.460300  1.0
  C  C970  1  0.629300  0.422200  0.960300  1.0
  C  C971  1  0.110000  0.851900  0.588700  1.0
  C  C972  1  0.390000  0.648100  0.088700  1.0
  C  C973  1  0.890000  0.148100  0.411300  1.0
  C  C974  1  0.610000  0.351900  0.911300  1.0
  C  C975  1  0.826200  0.267300  0.451600  1.0
  C  C976  1  0.673800  0.232700  0.951600  1.0
  C  C977  1  0.173800  0.732700  0.548400  1.0
  C  C978  1  0.326200  0.767300  0.048400  1.0
  C  C979  1  0.833800  0.316600  0.429200  1.0
  C  C980  1  0.666200  0.183400  0.929200  1.0
  C  C981  1  0.166200  0.683400  0.570800  1.0
  C  C982  1  0.333800  0.816600  0.070800  1.0
  C  C983  1  0.860700  0.312300  0.400500  1.0
  C  C984  1  0.639300  0.187700  0.900500  1.0
  C  C985  1  0.139300  0.687700  0.599500  1.0
  C  C986  1  0.360700  0.812300  0.099500  1.0
  C  C987  1  0.880200  0.257500  0.394200  1.0
  C  C988  1  0.619800  0.242500  0.894200  1.0
  C  C989  1  0.119800  0.742500  0.605800  1.0
  C  C990  1  0.380200  0.757500  0.105800  1.0
  C  C991  1  0.127300  0.789500  0.582400  1.0
  C  C992  1  0.372700  0.710500  0.082400  1.0
  C  C993  1  0.872700  0.210500  0.417600  1.0
  C  C994  1  0.627300  0.289500  0.917600  1.0
  C  C995  1  0.237000  0.403400  0.644300  1.0
  C  C996  1  0.263000  0.096600  0.144300  1.0
  C  C997  1  0.763000  0.596600  0.355700  1.0
  C  C998  1  0.737000  0.903400  0.855700  1.0
  C  C999  1  0.310000  0.449300  0.650300  1.0
  C  C1000  1  0.190000  0.050700  0.150300  1.0
  C  C1001  1  0.690000  0.550700  0.349700  1.0
  C  C1002  1  0.810000  0.949300  0.849700  1.0
  C  C1003  1  0.323500  0.499400  0.672000  1.0
  C  C1004  1  0.176500  0.000600  0.172000  1.0
  C  C1005  1  0.676500  0.500600  0.328000  1.0
  C  C1006  1  0.823500  0.999400  0.828000  1.0
  C  C1007  1  0.264500  0.505200  0.687500  1.0
  C  C1008  1  0.235500  0.994800  0.187500  1.0
  C  C1009  1  0.735500  0.494800  0.312500  1.0
  C  C1010  1  0.764500  0.005200  0.812500  1.0
  C  C1011  1  0.193900  0.458400  0.680900  1.0
  C  C1012  1  0.306100  0.041600  0.180900  1.0
  C  C1013  1  0.806100  0.541600  0.319100  1.0
  C  C1014  1  0.693900  0.958400  0.819100  1.0
  C  C1015  1  0.217900  0.348100  0.621100  1.0
  C  C1016  1  0.282100  0.151900  0.121100  1.0
  C  C1017  1  0.782100  0.651900  0.378900  1.0
  C  C1018  1  0.717900  0.848100  0.878900  1.0
  C  C1019  1  0.261700  0.329600  0.601600  1.0
  C  C1020  1  0.238300  0.170400  0.101600  1.0
  C  C1021  1  0.738300  0.670400  0.398400  1.0
  C  C1022  1  0.761700  0.829600  0.898400  1.0
  C  C1023  1  0.212900  0.273900  0.585400  1.0
  C  C1024  1  0.287100  0.226100  0.085400  1.0
  C  C1025  1  0.787100  0.726100  0.414600  1.0
  C  C1026  1  0.712900  0.773900  0.914600  1.0
  C  C1027  1  0.072400  0.209600  0.584500  1.0
  C  C1028  1  0.427600  0.290400  0.084500  1.0
  C  C1029  1  0.927600  0.790400  0.415500  1.0
  C  C1030  1  0.572400  0.709600  0.915500  1.0
  C  C1031  1  0.935800  0.718600  0.621400  1.0
  C  C1032  1  0.564200  0.781400  0.121400  1.0
  C  C1033  1  0.064200  0.281400  0.378600  1.0
  C  C1034  1  0.435800  0.218600  0.878600  1.0
  C  C1035  1  0.947500  0.695000  0.650500  1.0
  C  C1036  1  0.552500  0.805000  0.150500  1.0
  C  C1037  1  0.052500  0.305000  0.349500  1.0
  C  C1038  1  0.447500  0.195000  0.849500  1.0
  C  C1039  1  0.950800  0.734500  0.676400  1.0
  C  C1040  1  0.549200  0.765500  0.176400  1.0
  C  C1041  1  0.049200  0.265500  0.323600  1.0
  C  C1042  1  0.450800  0.234500  0.823600  1.0
  C  C1043  1  0.945200  0.796700  0.673300  1.0
  C  C1044  1  0.554800  0.703300  0.173300  1.0
  C  C1045  1  0.054800  0.203300  0.326700  1.0
  C  C1046  1  0.445200  0.296700  0.826700  1.0
  C  C1047  1  0.933100  0.816900  0.643400  1.0
  C  C1048  1  0.566900  0.683100  0.143400  1.0
  C  C1049  1  0.066900  0.183100  0.356600  1.0
  C  C1050  1  0.433100  0.316900  0.856600  1.0
  C  C1051  1  0.928700  0.680200  0.592500  1.0
  C  C1052  1  0.571300  0.819800  0.092500  1.0
  C  C1053  1  0.071300  0.319800  0.407500  1.0
  C  C1054  1  0.428700  0.180200  0.907500  1.0
  C  C1055  1  0.938500  0.619300  0.586100  1.0
  C  C1056  1  0.561500  0.880700  0.086100  1.0
  C  C1057  1  0.061500  0.380700  0.413900  1.0
  C  C1058  1  0.438500  0.119300  0.913900  1.0
  C  C1059  1  0.922700  0.606500  0.555200  1.0
  C  C1060  1  0.577300  0.893500  0.055200  1.0
  C  C1061  1  0.077300  0.393500  0.444800  1.0
  C  C1062  1  0.422700  0.106500  0.944800  1.0
  C  C1063  1  0.878200  0.663200  0.512200  1.0
  C  C1064  1  0.621800  0.836800  0.012200  1.0
  C  C1065  1  0.121800  0.336800  0.487800  1.0
  C  C1066  1  0.378200  0.163200  0.987800  1.0
  C  C1067  1  0.042500  0.229200  0.556100  1.0
  C  C1068  1  0.457500  0.270800  0.056100  1.0
  C  C1069  1  0.957500  0.770800  0.443900  1.0
  C  C1070  1  0.542500  0.729200  0.943900  1.0
  C  C1071  1  0.966400  0.200700  0.550500  1.0
  C  C1072  1  0.533600  0.299300  0.050500  1.0
  C  C1073  1  0.033600  0.799300  0.449500  1.0
  C  C1074  1  0.466400  0.700700  0.949500  1.0
  C  C1075  1  0.939100  0.216100  0.522800  1.0
  C  C1076  1  0.560900  0.283900  0.022800  1.0
  C  C1077  1  0.060900  0.783900  0.477200  1.0
  C  C1078  1  0.439100  0.716100  0.977200  1.0
  C  C1079  1  0.987100  0.259200  0.502000  1.0
  C  C1080  1  0.512900  0.240800  0.002000  1.0
  C  C1081  1  0.012900  0.740800  0.498000  1.0
  C  C1082  1  0.487100  0.759200  0.998000  1.0
  C  C1083  1  0.938100  0.713200  0.491100  1.0
  C  C1084  1  0.561900  0.786800  0.991100  1.0
  C  C1085  1  0.061900  0.286800  0.508900  1.0
  C  C1086  1  0.438100  0.213200  0.008900  1.0
  N  N1087  1  0.586700  0.441400  0.705150  1.0
  N  N1088  1  0.913300  0.058600  0.205150  1.0
  N  N1089  1  0.413300  0.558600  0.294850  1.0
  N  N1090  1  0.086700  0.941400  0.794850  1.0
  N  N1091  1  0.596900  0.452500  0.611590  1.0
  N  N1092  1  0.903100  0.047500  0.111590  1.0
  N  N1093  1  0.403100  0.547500  0.388410  1.0
  N  N1094  1  0.096900  0.952500  0.888410  1.0
  N  N1095  1  0.601000  0.444100  0.642590  1.0
  N  N1096  1  0.899000  0.055900  0.142590  1.0
  N  N1097  1  0.399000  0.555900  0.357410  1.0
  N  N1098  1  0.101000  0.944100  0.857410  1.0
  N  N1099  1  0.505800  0.159200  0.427470  1.0
  N  N1100  1  0.994200  0.340800  0.927470  1.0
  N  N1101  1  0.494200  0.840800  0.572530  1.0
  N  N1102  1  0.005800  0.659200  0.072530  1.0
  N  N1103  1  0.541000  0.150100  0.519360  1.0
  N  N1104  1  0.959000  0.349900  0.019360  1.0
  N  N1105  1  0.459000  0.849900  0.480640  1.0
  N  N1106  1  0.041000  0.650100  0.980640  1.0
  N  N1107  1  0.538600  0.160500  0.488100  1.0
  N  N1108  1  0.961400  0.339500  0.988100  1.0
  N  N1109  1  0.461400  0.839500  0.511900  1.0
  N  N1110  1  0.038600  0.660500  0.011900  1.0
  N  N1111  1  0.597300  0.309200  0.564230  1.0
  N  N1112  1  0.902700  0.190800  0.064230  1.0
  N  N1113  1  0.402700  0.690800  0.435770  1.0
  N  N1114  1  0.097300  0.809200  0.935770  1.0
  N  N1115  1  0.600200  0.299900  0.713140  1.0
  N  N1116  1  0.899800  0.200100  0.213140  1.0
  N  N1117  1  0.399800  0.700100  0.286860  1.0
  N  N1118  1  0.100200  0.799900  0.786860  1.0
  N  N1119  1  0.778600  0.458600  0.684520  1.0
  N  N1120  1  0.721400  0.041400  0.184520  1.0
  N  N1121  1  0.221400  0.541400  0.315480  1.0
  N  N1122  1  0.278600  0.958600  0.815480  1.0
  N  N1123  1  0.715000  0.403000  0.689430  1.0
  N  N1124  1  0.785000  0.097000  0.189430  1.0
  N  N1125  1  0.285000  0.597000  0.310570  1.0
  N  N1126  1  0.215000  0.903000  0.810570  1.0
  N  N1127  1  0.894400  0.898100  0.583060  1.0
  N  N1128  1  0.605600  0.601900  0.083060  1.0
  N  N1129  1  0.105600  0.101900  0.416940  1.0
  N  N1130  1  0.394400  0.398100  0.916940  1.0
  N  N1131  1  0.726600  0.715100  0.587660  1.0
  N  N1132  1  0.773400  0.784900  0.087660  1.0
  N  N1133  1  0.273400  0.284900  0.412340  1.0
  N  N1134  1  0.226600  0.215100  0.912340  1.0
  N  N1135  1  0.789300  0.772700  0.584850  1.0
  N  N1136  1  0.710700  0.727300  0.084850  1.0
  N  N1137  1  0.210700  0.227300  0.415150  1.0
  N  N1138  1  0.289300  0.272700  0.915150  1.0
  N  N1139  1  0.760300  0.576500  0.626630  1.0
  N  N1140  1  0.739700  0.923500  0.126630  1.0
  N  N1141  1  0.239700  0.423500  0.373370  1.0
  N  N1142  1  0.260300  0.076500  0.873370  1.0
  N  N1143  1  0.484500  0.314200  0.665910  1.0
  N  N1144  1  0.015500  0.185800  0.165910  1.0
  N  N1145  1  0.515500  0.685800  0.334090  1.0
  N  N1146  1  0.984500  0.814200  0.834090  1.0
  N  N1147  1  0.640900  0.256800  0.632350  1.0
  N  N1148  1  0.859100  0.243200  0.132350  1.0
  N  N1149  1  0.359100  0.743200  0.367650  1.0
  N  N1150  1  0.140900  0.756800  0.867650  1.0
  N  N1151  1  0.596000  0.286900  0.642760  1.0
  N  N1152  1  0.904000  0.213100  0.142760  1.0
  N  N1153  1  0.404000  0.713100  0.357240  1.0
  N  N1154  1  0.096000  0.786900  0.857240  1.0
  N  N1155  1  0.115800  0.268100  0.686830  1.0
  N  N1156  1  0.384200  0.231900  0.186830  1.0
  N  N1157  1  0.884200  0.731900  0.313170  1.0
  N  N1158  1  0.615800  0.768100  0.813170  1.0
  N  N1159  1  0.999500  0.378900  0.708100  1.0
  N  N1160  1  0.500500  0.121100  0.208100  1.0
  N  N1161  1  0.000500  0.621100  0.291900  1.0
  N  N1162  1  0.499500  0.878900  0.791900  1.0
  N  N1163  1  0.035000  0.340000  0.697150  1.0
  N  N1164  1  0.465000  0.160000  0.197150  1.0
  N  N1165  1  0.965000  0.660000  0.302850  1.0
  N  N1166  1  0.535000  0.840000  0.802850  1.0
  N  N1167  1  0.830600  0.337200  0.661960  1.0
  N  N1168  1  0.669400  0.162800  0.161960  1.0
  N  N1169  1  0.169400  0.662800  0.338040  1.0
  N  N1170  1  0.330600  0.837200  0.838040  1.0
  N  N1171  1  0.652900  0.163500  0.436910  1.0
  N  N1172  1  0.847100  0.336500  0.936910  1.0
  N  N1173  1  0.347100  0.836500  0.563090  1.0
  N  N1174  1  0.152900  0.663500  0.063090  1.0
  N  N1175  1  0.660000  0.329600  0.389690  1.0
  N  N1176  1  0.840000  0.170400  0.889690  1.0
  N  N1177  1  0.340000  0.670400  0.610310  1.0
  N  N1178  1  0.160000  0.829600  0.110310  1.0
  N  N1179  1  0.652800  0.276400  0.409340  1.0
  N  N1180  1  0.847200  0.223600  0.909340  1.0
  N  N1181  1  0.347200  0.723600  0.590660  1.0
  N  N1182  1  0.152800  0.776400  0.090660  1.0
  N  N1183  1  0.973000  0.236300  0.645920  1.0
  N  N1184  1  0.527000  0.263700  0.145920  1.0
  N  N1185  1  0.027000  0.763700  0.354080  1.0
  N  N1186  1  0.473000  0.736300  0.854080  1.0
  N  N1187  1  0.029500  0.418100  0.603780  1.0
  N  N1188  1  0.470500  0.081900  0.103780  1.0
  N  N1189  1  0.970500  0.581900  0.396220  1.0
  N  N1190  1  0.529500  0.918100  0.896220  1.0
  N  N1191  1  0.019100  0.361800  0.621000  1.0
  N  N1192  1  0.480900  0.138200  0.121000  1.0
  N  N1193  1  0.980900  0.638200  0.379000  1.0
  N  N1194  1  0.519100  0.861800  0.879000  1.0
  N  N1195  1  0.776500  0.456800  0.399020  1.0
  N  N1196  1  0.723500  0.043200  0.899020  1.0
  N  N1197  1  0.223500  0.543200  0.600980  1.0
  N  N1198  1  0.276500  0.956800  0.100980  1.0
  N  N1199  1  0.556200  0.299400  0.467460  1.0
  N  N1200  1  0.943800  0.200600  0.967460  1.0
  N  N1201  1  0.443800  0.700600  0.532540  1.0
  N  N1202  1  0.056200  0.799400  0.032540  1.0
  N  N1203  1  0.761900  0.315900  0.488680  1.0
  N  N1204  1  0.738100  0.184100  0.988680  1.0
  N  N1205  1  0.238100  0.684100  0.511320  1.0
  N  N1206  1  0.261900  0.815900  0.011320  1.0
  N  N1207  1  0.689400  0.300300  0.480620  1.0
  N  N1208  1  0.810600  0.199700  0.980620  1.0
  N  N1209  1  0.310600  0.699700  0.519380  1.0
  N  N1210  1  0.189400  0.800300  0.019380  1.0
  N  N1211  1  0.882400  0.825700  0.525390  1.0
  N  N1212  1  0.617600  0.674300  0.025390  1.0
  N  N1213  1  0.117600  0.174300  0.474610  1.0
  N  N1214  1  0.382400  0.325700  0.974610  1.0
  N  N1215  1  0.085500  0.877700  0.561380  1.0
  N  N1216  1  0.414500  0.622300  0.061380  1.0
  N  N1217  1  0.914500  0.122300  0.438620  1.0
  N  N1218  1  0.585500  0.377700  0.938620  1.0
  N  N1219  1  0.012800  0.855900  0.552950  1.0
  N  N1220  1  0.487200  0.644100  0.052950  1.0
  N  N1221  1  0.987200  0.144100  0.447050  1.0
  N  N1222  1  0.512800  0.355900  0.947050  1.0
  N  N1223  1  0.845300  0.214000  0.445930  1.0
  N  N1224  1  0.654700  0.286000  0.945930  1.0
  N  N1225  1  0.154700  0.786000  0.554070  1.0
  N  N1226  1  0.345300  0.714000  0.054070  1.0
  N  N1227  1  0.179500  0.408200  0.659590  1.0
  N  N1228  1  0.320500  0.091800  0.159590  1.0
  N  N1229  1  0.820500  0.591800  0.340410  1.0
  N  N1230  1  0.679500  0.908200  0.840410  1.0
  N  N1231  1  0.144000  0.261800  0.595320  1.0
  N  N1232  1  0.356000  0.238200  0.095320  1.0
  N  N1233  1  0.856000  0.738200  0.404680  1.0
  N  N1234  1  0.644000  0.761800  0.904680  1.0
  N  N1235  1  0.146000  0.307500  0.617710  1.0
  N  N1236  1  0.354000  0.192500  0.117710  1.0
  N  N1237  1  0.854000  0.692500  0.382290  1.0
  N  N1238  1  0.646000  0.807500  0.882290  1.0
  N  N1239  1  0.929900  0.779700  0.617650  1.0
  N  N1240  1  0.570100  0.720300  0.117650  1.0
  N  N1241  1  0.070100  0.220300  0.382350  1.0
  N  N1242  1  0.429900  0.279700  0.882350  1.0
  N  N1243  1  0.904000  0.657500  0.543400  1.0
  N  N1244  1  0.596000  0.842500  0.043400  1.0
  N  N1245  1  0.096000  0.342500  0.456600  1.0
  N  N1246  1  0.404000  0.157500  0.956600  1.0
  N  N1247  1  0.908500  0.704200  0.566450  1.0
  N  N1248  1  0.591500  0.795800  0.066450  1.0
  N  N1249  1  0.091500  0.295800  0.433550  1.0
  N  N1250  1  0.408500  0.204200  0.933550  1.0
  N  N1251  1  0.090600  0.272300  0.535640  1.0
  N  N1252  1  0.409400  0.227700  0.035640  1.0
  N  N1253  1  0.909400  0.727700  0.464360  1.0
  N  N1254  1  0.590600  0.772300  0.964360  1.0
  F  F1255  1  0.297600  0.350600  0.478890  1
  F  F1256  1  0.202400  0.149400  0.978890  1
  F  F1257  1  0.702400  0.649400  0.521110  1
  F  F1258  1  0.797600  0.850600  0.021110  1
  F  F1259  1  0.280800  0.450800  0.480620  1
  F  F1260  1  0.219200  0.049200  0.980620  1
  F  F1261  1  0.719200  0.549200  0.519380  1
  F  F1262  1  0.780800  0.950800  0.019380  1
  F  F1263  1  0.390000  0.450200  0.463580  1
  F  F1264  1  0.110000  0.049800  0.963580  1
  F  F1265  1  0.610000  0.549800  0.536420  1
  F  F1266  1  0.890000  0.950200  0.036420  1
  F  F1267  1  0.359200  0.431000  0.514870  1
  F  F1268  1  0.140800  0.069000  0.014870  1
  F  F1269  1  0.640800  0.569000  0.485130  1
  F  F1270  1  0.859200  0.931000  0.985130  1
  F  F1271  1  0.007400  0.422500  0.300690  1
  F  F1272  1  0.492600  0.077500  0.800690  1
  F  F1273  1  0.992600  0.577500  0.699310  1
  F  F1274  1  0.507400  0.922500  0.199310  1
  F  F1275  1  0.925600  0.465600  0.317430  1
  F  F1276  1  0.574400  0.034400  0.817430  1
  F  F1277  1  0.074400  0.534400  0.682570  1
  F  F1278  1  0.425600  0.965600  0.182570  1
  F  F1279  1  0.913000  0.359200  0.331330  1
  F  F1280  1  0.587000  0.140800  0.831330  1
  F  F1281  1  0.087000  0.640800  0.668670  1
  F  F1282  1  0.413000  0.859200  0.168670  1
  F  F1283  1  0.006500  0.452300  0.351110  1
  F  F1284  1  0.493500  0.047700  0.851110  1
  F  F1285  1  0.993500  0.547700  0.648890  1
  F  F1286  1  0.506500  0.952300  0.148890  1
  F  F1287  1  0.761800  0.957000  0.418400  1
  F  F1288  1  0.738200  0.543000  0.918400  1
  F  F1289  1  0.238200  0.043000  0.581600  1
  F  F1290  1  0.261800  0.457000  0.081600  1
  F  F1291  1  0.695900  0.914600  0.461070  1
  F  F1292  1  0.804100  0.585400  0.961070  1
  F  F1293  1  0.304100  0.085400  0.538930  1
  F  F1294  1  0.195900  0.414600  0.038930  1
  F  F1295  1  0.709800  0.842200  0.424190  1
  F  F1296  1  0.790200  0.657800  0.924190  1
  F  F1297  1  0.290200  0.157800  0.575810  1
  F  F1298  1  0.209800  0.342200  0.075810  1
  F  F1299  1  0.637600  0.902600  0.414530  1
  F  F1300  1  0.862400  0.597400  0.914530  1
  F  F1301  1  0.362400  0.097400  0.585470  1
  F  F1302  1  0.137600  0.402600  0.085470  1
  F  F1303  1  0.237700  0.791400  0.445640  1
  F  F1304  1  0.262300  0.708600  0.945640  1
  F  F1305  1  0.762300  0.208600  0.554360  1
  F  F1306  1  0.737700  0.291400  0.054360  1
  F  F1307  1  0.312600  0.882500  0.417970  1
  F  F1308  1  0.187400  0.617500  0.917970  1
  F  F1309  1  0.687400  0.117500  0.582030  1
  F  F1310  1  0.812600  0.382500  0.082030  1
  F  F1311  1  0.218200  0.889900  0.445760  1
  F  F1312  1  0.281800  0.610100  0.945760  1
  F  F1313  1  0.781800  0.110100  0.554240  1
  F  F1314  1  0.718200  0.389900  0.054240  1
  F  F1315  1  0.318600  0.885800  0.470850  1
  F  F1316  1  0.181400  0.614200  0.970850  1
  F  F1317  1  0.681400  0.114200  0.529150  1
  F  F1318  1  0.818600  0.385800  0.029150  1
  F  F1319  1  0.505100  0.743300  0.662800  1
  F  F1320  1  0.994900  0.756700  0.162800  1
  F  F1321  1  0.494900  0.256700  0.337200  1
  F  F1322  1  0.005100  0.243300  0.837200  1
  F  F1323  1  0.590700  0.697100  0.659200  1
  F  F1324  1  0.909300  0.802900  0.159200  1
  F  F1325  1  0.409300  0.302900  0.340800  1
  F  F1326  1  0.090700  0.197100  0.840800  1
  F  F1327  1  0.469200  0.628400  0.661800  1
  F  F1328  1  0.030800  0.871600  0.161800  1
  F  F1329  1  0.530800  0.371600  0.338200  1
  F  F1330  1  0.969200  0.128400  0.838200  1
  F  F1331  1  0.515500  0.690800  0.618300  1
  F  F1332  1  0.984500  0.809200  0.118300  1
  F  F1333  1  0.484500  0.309200  0.381700  1
  F  F1334  1  0.015500  0.190800  0.881700  1
  F  F1335  1  0.129300  0.354500  0.207300  1
  F  F1336  1  0.370700  0.145500  0.707300  1
  F  F1337  1  0.870700  0.645500  0.792700  1
  F  F1338  1  0.629300  0.854500  0.292700  1
  F  F1339  1  0.235000  0.408600  0.234400  1
  F  F1340  1  0.265000  0.091400  0.734400  1
  F  F1341  1  0.765000  0.591400  0.765600  1
  F  F1342  1  0.735000  0.908600  0.265600  1
  F  F1343  1  0.163100  0.298200  0.245100  1
  F  F1344  1  0.336900  0.201800  0.745100  1
  F  F1345  1  0.836900  0.701800  0.754900  1
  F  F1346  1  0.663100  0.798200  0.254900  1
  F  F1347  1  0.124300  0.381800  0.258000  1
  F  F1348  1  0.375700  0.118200  0.758000  1
  F  F1349  1  0.875700  0.618200  0.742000  1
  F  F1350  1  0.624300  0.881800  0.242000  1
  F  F1351  1  0.265100  0.974400  0.293600  1
  F  F1352  1  0.234900  0.525600  0.793600  1
  F  F1353  1  0.734900  0.025600  0.706400  1
  F  F1354  1  0.765100  0.474400  0.206400  1
  F  F1355  1  0.271700  0.018000  0.342200  1
  F  F1356  1  0.228300  0.482000  0.842200  1
  F  F1357  1  0.728300  0.982000  0.657800  1
  F  F1358  1  0.771700  0.518000  0.157800  1
  F  F1359  1  0.370700  0.058900  0.310100  1
  F  F1360  1  0.129300  0.441100  0.810100  1
  F  F1361  1  0.629300  0.941100  0.689900  1
  F  F1362  1  0.870700  0.558900  0.189900  1
  F  F1363  1  0.335400  0.952800  0.330500  1
  F  F1364  1  0.164600  0.547200  0.830500  1
  F  F1365  1  0.664600  0.047200  0.669500  1
  F  F1366  1  0.835400  0.452800  0.169500  1
  F  F1367  1  0.554000  0.995700  0.276500  1
  F  F1368  1  0.946000  0.504300  0.776500  1
  F  F1369  1  0.446000  0.004300  0.723500  1
  F  F1370  1  0.054000  0.495700  0.223500  1
  F  F1371  1  0.581100  0.081500  0.311700  1
  F  F1372  1  0.918900  0.418500  0.811700  1
  F  F1373  1  0.418900  0.918500  0.688300  1
  F  F1374  1  0.081100  0.581500  0.188300  1
  F  F1375  1  0.549000  0.972500  0.328200  1
  F  F1376  1  0.951000  0.527500  0.828200  1
  F  F1377  1  0.451000  0.027500  0.671800  1
  F  F1378  1  0.049000  0.472500  0.171800  1
  F  F1379  1  0.463100  0.005200  0.306100  1
  F  F1380  1  0.036900  0.494800  0.806100  1
  F  F1381  1  0.536900  0.994800  0.693900  1
  F  F1382  1  0.963100  0.505200  0.193900  1
  F  F1383  1  0.235600  0.103000  0.243900  1
  F  F1384  1  0.264400  0.397000  0.743900  1
  F  F1385  1  0.764400  0.897000  0.756100  1
  F  F1386  1  0.735600  0.603000  0.256100  1
  F  F1387  1  0.122000  0.082000  0.224300  1
  F  F1388  1  0.378000  0.418000  0.724300  1
  F  F1389  1  0.878000  0.918000  0.775700  1
  F  F1390  1  0.622000  0.582000  0.275700  1
  F  F1391  1  0.162000  0.148800  0.266900  1
  F  F1392  1  0.338000  0.351200  0.766900  1
  F  F1393  1  0.838000  0.851200  0.733100  1
  F  F1394  1  0.662000  0.648800  0.233100  1
  F  F1395  1  0.134000  0.035200  0.270500  1
  F  F1396  1  0.366000  0.464800  0.770500  1
  F  F1397  1  0.866000  0.964800  0.729500  1
  F  F1398  1  0.634000  0.535200  0.229500  1
  F  F1399  1  0.894800  0.925100  0.397500  1
  F  F1400  1  0.605200  0.574900  0.897500  1
  F  F1401  1  0.105200  0.074900  0.602500  1
  F  F1402  1  0.394800  0.425100  0.102500  1
  F  F1403  1  0.914900  0.010000  0.362400  1
  F  F1404  1  0.585100  0.490000  0.862400  1
  F  F1405  1  0.085100  0.990000  0.637600  1
  F  F1406  1  0.414900  0.510000  0.137600  1
  F  F1407  1  0.952200  0.924300  0.351800  1
  F  F1408  1  0.547800  0.575700  0.851800  1
  F  F1409  1  0.047800  0.075700  0.648200  1
  F  F1410  1  0.452200  0.424300  0.148200  1
  F  F1411  1  0.830200  0.903800  0.352300  1
  F  F1412  1  0.669800  0.596200  0.852300  1
  F  F1413  1  0.169800  0.096200  0.647700  1
  F  F1414  1  0.330200  0.403800  0.147700  1
  F  F1415  1  0.970200  0.424100  0.504500  1
  F  F1416  1  0.529800  0.075900  0.004500  1
  F  F1417  1  0.029800  0.575900  0.495500  1
  F  F1418  1  0.470200  0.924100  0.995500  1
  F  F1419  1  0.940900  0.519600  0.493100  1
  F  F1420  1  0.559100  0.980400  0.993100  1
  F  F1421  1  0.059100  0.480400  0.506900  1
  F  F1422  1  0.440900  0.019600  0.006900  1
  F  F1423  1  0.048700  0.515400  0.478200  1
  F  F1424  1  0.451300  0.984600  0.978200  1
  F  F1425  1  0.951300  0.484600  0.521800  1
  F  F1426  1  0.548700  0.015400  0.021800  1
  F  F1427  1  0.035800  0.531400  0.530100  1
  F  F1428  1  0.464200  0.968600  0.030100  1
  F  F1429  1  0.964200  0.468600  0.469900  1
  F  F1430  1  0.535800  0.031400  0.969900  1
  F  F1431  1  0.410500  0.032200  0.309500  1
  F  F1432  1  0.089500  0.467800  0.809500  1
  F  F1433  1  0.589500  0.967800  0.690500  1
  F  F1434  1  0.910500  0.532200  0.190500  1
  F  F1435  1  0.391100  0.930700  0.286700  1
  F  F1436  1  0.108900  0.569300  0.786700  1
  F  F1437  1  0.608900  0.069300  0.713300  1
  F  F1438  1  0.891100  0.430700  0.213300  1
  F  F1439  1  0.364300  0.934700  0.337800  1
  F  F1440  1  0.135700  0.565300  0.837800  1
  F  F1441  1  0.635700  0.065300  0.662200  1
  F  F1442  1  0.864300  0.434700  0.162200  1
  F  F1443  1  0.483400  0.975900  0.321800  1
  F  F1444  1  0.016600  0.524100  0.821800  1
  F  F1445  1  0.516600  0.024100  0.678200  1
  F  F1446  1  0.983400  0.475900  0.178200  1
  F  F1447  1  0.046700  0.960900  0.301300  1
  F  F1448  1  0.453300  0.539100  0.801300  1
  F  F1449  1  0.953300  0.039100  0.698700  1
  F  F1450  1  0.546700  0.460900  0.198700  1
  F  F1451  1  0.005300  0.040100  0.318400  1
  F  F1452  1  0.494700  0.459900  0.818400  1
  F  F1453  1  0.994700  0.959900  0.681600  1
  F  F1454  1  0.505300  0.540100  0.181600  1
  F  F1455  1  0.114400  0.073200  0.292800  1
  F  F1456  1  0.385600  0.426800  0.792800  1
  F  F1457  1  0.885600  0.926800  0.707200  1
  F  F1458  1  0.614400  0.573200  0.207200  1
  F  F1459  1  0.103800  0.030000  0.341700  1
  F  F1460  1  0.396200  0.470000  0.841700  1
  F  F1461  1  0.896200  0.970000  0.658300  1
  F  F1462  1  0.603800  0.530000  0.158300  1
  F  F1463  1  0.079000  0.021800  0.341900  1
  F  F1464  1  0.421000  0.478200  0.841900  1
  F  F1465  1  0.921000  0.978200  0.658100  1
  F  F1466  1  0.579000  0.521800  0.158100  1
  F  F1467  1  0.011400  0.950100  0.304100  1
  F  F1468  1  0.488600  0.549900  0.804100  1
  F  F1469  1  0.988600  0.049900  0.695900  1
  F  F1470  1  0.511400  0.450100  0.195900  1
  F  F1471  1  0.984500  0.923000  0.355000  1
  F  F1472  1  0.515500  0.577000  0.855000  1
  F  F1473  1  0.015500  0.077000  0.645000  1
  F  F1474  1  0.484500  0.423000  0.145000  1
  F  F1475  1  0.960900  0.009400  0.333333  1
  F  F1476  1  0.539100  0.490600  0.833333  1
  F  F1477  1  0.039100  0.990600  0.666667  1
  F  F1478  1  0.460900  0.509400  0.166667  1
  F  F1479  1  0.509200  0.756200  0.672000  1
  F  F1480  1  0.990800  0.743800  0.172000  1
  F  F1481  1  0.490800  0.243800  0.328000  1
  F  F1482  1  0.009200  0.256200  0.828000  1
  F  F1483  1  0.585800  0.700200  0.675100  1
  F  F1484  1  0.914200  0.799800  0.175100  1
  F  F1485  1  0.414200  0.299800  0.324900  1
  F  F1486  1  0.085800  0.200200  0.824900  1
  F  F1487  1  0.521900  0.695600  0.630600  1
  F  F1488  1  0.978100  0.804400  0.130600  1
  F  F1489  1  0.478100  0.304400  0.369400  1
  F  F1490  1  0.021900  0.195600  0.869400  1
  F  F1491  1  0.462000  0.640700  0.673900  1
  F  F1492  1  0.038000  0.859300  0.173900  1
  F  F1493  1  0.538000  0.359300  0.326100  1
  F  F1494  1  0.962000  0.140700  0.826100  1
  F  F1495  1  0.147300  0.338500  0.207400  1
  F  F1496  1  0.352700  0.161500  0.707400  1
  F  F1497  1  0.852700  0.661500  0.792600  1
  F  F1498  1  0.647300  0.838500  0.292600  1
  F  F1499  1  0.237200  0.381300  0.243800  1
  F  F1500  1  0.262800  0.118700  0.743800  1
  F  F1501  1  0.762800  0.618700  0.756200  1
  F  F1502  1  0.737200  0.881300  0.256200  1
  F  F1503  1  0.128300  0.296300  0.256600  1
  F  F1504  1  0.371700  0.203700  0.756600  1
  F  F1505  1  0.871700  0.703700  0.743400  1
  F  F1506  1  0.628300  0.796300  0.243400  1
  F  F1507  1  0.133400  0.402600  0.247100  1
  F  F1508  1  0.366600  0.097400  0.747100  1
  F  F1509  1  0.866600  0.597400  0.752900  1
  F  F1510  1  0.633400  0.902600  0.252900  1
