
#######################################################################
#
#                 Cambridge Crystallographic Data Centre
#                                CCDC 
#
#######################################################################
#
# If this CIF has been generated from an entry in the Cambridge 
# Structural Database, then it will include bibliographic, chemical, 
# crystal, experimental, refinement or atomic coordinate data resulting 
# from the CCDC's data processing and validation procedures.
#
#######################################################################

data_HABJUR
_chemical_formula_moiety         
'C288 H240 N72 Zn8 16+,5.5(C1 H3 N1 O2),16(Cl1 O4 1-),4(H2 O1),2(C3 H7 N1 O1)'
_chemical_name_systematic        
"dodecakis(\m~2~-2,2'-(1,3-phenylenebis(methylene-1H-pyrazole-1,3-diyl))dipyridine)-octa-zinc hexadecaperchlorate N,N-dimethylformamide nitromethane solvate tetrahydrate"
_symmetry_cell_setting           triclinic
_symmetry_space_group_name_H-M   'P -1'
_symmetry_Int_Tables_number      2
_space_group_name_Hall           '-P 1'
loop_
_symmetry_equiv_pos_site_id
_symmetry_equiv_pos_as_xyz
1 x,y,z
2 -x,-y,-z
_cell_length_a                   20.9658(10)
_cell_length_b                   21.8992(10)
_cell_length_c                   21.9285(11)
_cell_angle_alpha                60.570(3)
_cell_angle_beta                 78.875(3)
_cell_angle_gamma                89.377(3)
_cell_volume                     8562.52
_exptl_crystal_colour            colorless
_exptl_crystal_description       plate
_cell_formula_units_Z            1
loop_
_atom_site_label
_atom_site_type_symbol
_atom_site_fract_x
_atom_site_fract_y
_atom_site_fract_z
Zn1 Zn 0.44389(5) 0.65065(6) 0.11136(6)
Zn2 Zn 0.37192(5) 0.93485(6) 0.35875(6)
Zn3 Zn 0.86714(5) 0.47705(7) 0.19698(7)
Zn4 Zn 0.20331(5) 0.25333(6) 0.53192(6)
N1 N 0.4184(4) 0.6883(4) 0.0051(4)
C1 C 0.3550(5) 0.7011(5) 0.0059(6)
C2 C 0.3257(6) 0.7085(6) -0.0482(6)
H1 H 0.2819 0.7167 -0.0468
C3 C 0.3639(7) 0.7032(7) -0.1064(6)
H2 H 0.3453 0.7070 -0.1432
C4 C 0.4284(6) 0.6923(6) -0.1072(6)
H3 H 0.4549 0.6901 -0.1453
C5 C 0.4535(5) 0.6845(5) -0.0496(5)
H4 H 0.4971 0.6762 -0.0497
N2 N 0.3077(4) 0.6979(4) 0.1714(4)
N3 N 0.3502(4) 0.6892(4) 0.1223(4)
C6 C 0.3208(5) 0.7069(5) 0.0684(5)
C7 C 0.2585(5) 0.7276(6) 0.0823(6)
H5 H 0.2284 0.7424 0.0530
C8 C 0.2519(5) 0.7210(5) 0.1491(6)
H6 H 0.2159 0.7306 0.1741
C9 C 0.3274(5) 0.6916(5) 0.2341(5)
H7 H 0.3513 0.6505 0.2541
H8 H 0.2887 0.6844 0.2701
N4 N 0.4329(4) 1.0250(4) 0.3353(5)
C10 C 0.4959(5) 1.0294(5) 0.3027(5)
C11 C 0.5406(5) 1.0858(5) 0.2800(6)
H9 H 0.5832 1.0881 0.2562
C12 C 0.5199(6) 1.1391(5) 0.2938(6)
H10 H 0.5487 1.1778 0.2803
C13 C 0.4560(5) 1.1336(5) 0.3281(6)
H11 H 0.4415 1.1689 0.3377
C14 C 0.4139(5) 1.0771(5) 0.3478(6)
H12 H 0.3709 1.0746 0.3706
N5 N 0.5011(4) 0.8676(4) 0.3031(4)
N6 N 0.4697(4) 0.9134(4) 0.3198(4)
C15 C 0.5140(5) 0.9688(5) 0.2931(5)
C16 C 0.5727(5) 0.9590(6) 0.2571(6)
H13 H 0.6107 0.9897 0.2334
C17 C 0.5613(5) 0.8941(6) 0.2648(6)
H14 H 0.5907 0.8721 0.2464
C18 C 0.4679(5) 0.8024(5) 0.3189(5)
H15 H 0.4350 0.7849 0.3629
H16 H 0.4992 0.7677 0.3267
C19 C 0.3690(5) 0.7548(5) 0.2177(6)
C20 C 0.4003(5) 0.7509(5) 0.2699(5)
H17 H 0.3978 0.7084 0.3123
C21 C 0.4352(4) 0.8099(5) 0.2592(5)
C22 C 0.4413(5) 0.8736(5) 0.1955(5)
H18 H 0.4655 0.9130 0.1880
C23 C 0.4105(5) 0.8772(5) 0.1438(5)
H19 H 0.4143 0.9196 0.1010
C24 C 0.3739(5) 0.8189(5) 0.1540(6)
H20 H 0.3530 0.8226 0.1188
N7 N 0.3937(4) 0.5503(4) 0.1415(4)
C25 C 0.4311(5) 0.5077(5) 0.1255(5)
C26 C 0.4063(5) 0.4428(5) 0.1390(6)
H21 H 0.4337 0.4134 0.1295
C27 C 0.3397(6) 0.4223(5) 0.1673(6)
H22 H 0.3220 0.3789 0.1770
C28 C 0.3005(5) 0.4670(5) 0.1805(5)
H23 H 0.2557 0.4553 0.1978
C29 C 0.3299(5) 0.5305(5) 0.1673(5)
H24 H 0.3035 0.5605 0.1769
N8 N 0.5822(4) 0.6146(5) 0.0403(4)
N9 N 0.5204(4) 0.5970(4) 0.0821(4)
C30 C 0.4994(5) 0.5369(5) 0.0880(5)
C31 C 0.5475(5) 0.5156(6) 0.0497(6)
H25 H 0.5450 0.4755 0.0454
C32 C 0.5984(5) 0.5665(6) 0.0204(6)
H26 H 0.6377 0.5677 -0.0086
C33 C 0.6247(5) 0.6715(5) 0.0313(5)
H27 H 0.5996 0.7110 0.0244
H28 H 0.6588 0.6869 -0.0115
N10 N 0.9173(4) 0.4377(4) 0.2831(5)
C34 C 0.8788(5) 0.4140(5) 0.3488(6)
C35 C 0.9015(5) 0.3759(5) 0.4110(6)
H29 H 0.8736 0.3603 0.4554
C36 C 0.9655(5) 0.3614(6) 0.4066(7)
H30 H 0.9818 0.3360 0.4479
C37 C 1.0060(6) 0.3857(7) 0.3382(7)
H31 H 1.0494 0.3763 0.3338
C38 C 0.9807(5) 0.4237(6) 0.2777(6)
H32 H 1.0075 0.4400 0.2327
N11 N 0.7263(4) 0.4654(4) 0.3061(4)
N12 N 0.7885(4) 0.4535(4) 0.2899(4)
C39 C 0.8120(5) 0.4323(5) 0.3486(5)
C40 C 0.7631(5) 0.4319(5) 0.4039(5)
H33 H 0.7666 0.4198 0.4501
C41 C 0.7109(5) 0.4529(5) 0.3741(6)
H34 H 0.6706 0.4580 0.3968
C42 C 0.6831(5) 0.4842(5) 0.2569(5)
H35 H 0.6386 0.4686 0.2846
H36 H 0.6928 0.4586 0.2311
C43 C 0.6558(4) 0.6508(5) 0.0942(5)
C44 C 0.6552(5) 0.5816(5) 0.1465(5)
H37 H 0.6326 0.5467 0.1442
C45 C 0.6868(4) 0.5620(5) 0.2026(5)
C46 C 0.7195(5) 0.6131(5) 0.2077(6)
H38 H 0.7402 0.6007 0.2456
C47 C 0.7212(5) 0.6844(5) 0.1548(5)
H39 H 0.7442 0.7193 0.1566
C48 C 0.6889(4) 0.7018(5) 0.1009(6)
H40 H 0.6887 0.7491 0.0675
N13 N 0.4954(4) 0.7470(4) 0.0821(4)
C49 C 0.5273(5) 0.7478(5) 0.1295(6)
C50 C 0.5633(5) 0.8078(5) 0.1166(6)
H41 H 0.5869 0.8061 0.1491
C51 C 0.5625(6) 0.8694(6) 0.0541(7)
H42 H 0.5855 0.9104 0.0443
C52 C 0.5283(6) 0.8712(6) 0.0061(7)
H43 H 0.5264 0.9133 -0.0352
C53 C 0.4966(5) 0.8086(5) 0.0206(6)
H44 H 0.4754 0.8090 -0.0131
N14 N 0.4924(4) 0.5704(4) 0.2694(4)
N15 N 0.4822(4) 0.6262(4) 0.2076(4)
C54 C 0.5227(4) 0.6805(5) 0.1954(5)
C55 C 0.5551(5) 0.6596(5) 0.2510(5)
H45 H 0.5840 0.6876 0.2564
C56 C 0.5360(4) 0.5896(5) 0.2962(5)
H46 H 0.5504 0.5604 0.3379
C57 C 0.4540(4) 0.5017(5) 0.3031(5)
H47 H 0.4754 0.4664 0.3386
H48 H 0.4529 0.4887 0.2669
N16 N 0.1306(4) 0.2444(4) 0.6185(4)
C58 C 0.0871(4) 0.2935(5) 0.6009(5)
C59 C 0.0363(5) 0.2925(6) 0.6504(6)
H49 H 0.0077 0.3273 0.6366
C60 C 0.0270(5) 0.2398(6) 0.7215(6)
H50 H -0.0084 0.2377 0.7557
C61 C 0.0720(5) 0.1902(6) 0.7402(6)
H51 H 0.0685 0.1553 0.7877
C62 C 0.1217(5) 0.1933(6) 0.6875(6)
H52 H 0.1504 0.1587 0.7001
N17 N 0.1569(4) 0.4053(4) 0.4162(4)
N18 N 0.1571(4) 0.3498(4) 0.4811(5)
C63 C 0.1008(5) 0.3484(5) 0.5255(6)
C64 C 0.0674(5) 0.4060(5) 0.4857(6)
H53 H 0.0277 0.4178 0.5024
C65 C 0.1048(5) 0.4412(6) 0.4174(6)
H54 H 0.0958 0.4822 0.3791
C66 C 0.2150(5) 0.4284(5) 0.3566(5)
H55 H 0.2023 0.4597 0.3118
H56 H 0.2305 0.3876 0.3542
C67 C 0.3847(5) 0.5022(5) 0.3388(5)
C68 C 0.3338(5) 0.4672(5) 0.3336(5)
H57 H 0.3428 0.4434 0.3080
C69 C 0.2703(5) 0.4663(5) 0.3647(5)
C70 C 0.2573(5) 0.5025(5) 0.4023(5)
H58 H 0.2145 0.5040 0.4227
C71 C 0.3092(5) 0.5369(5) 0.4092(5)
H59 H 0.3006 0.5604 0.4352
C72 C 0.3725(4) 0.5364(5) 0.3784(5)
H60 H 0.4067 0.5587 0.3838
N19 N 0.3499(4) 0.9871(4) 0.2512(4)
C73 C 0.3114(5) 0.9481(5) 0.2380(6)
C74 C 0.2909(5) 0.9744(6) 0.1741(6)
H61 H 0.2653 0.9454 0.1666
C75 C 0.3085(6) 1.0433(6) 0.1220(6)
H62 H 0.2950 1.0622 0.0787
C76 C 0.3467(5) 1.0835(6) 0.1358(6)
H63 H 0.3589 1.1306 0.1014
C77 C 0.3675(5) 1.0555(6) 0.1998(6)
H64 H 0.3938 1.0838 0.2075
N20 N 0.2978(4) 0.7847(4) 0.3974(5)
N21 N 0.3185(4) 0.8543(4) 0.3549(4)
C78 C 0.2943(5) 0.8752(5) 0.2953(5)
C79 C 0.2585(5) 0.8190(6) 0.3008(6)
H65 H 0.2369 0.8193 0.2674
C80 C 0.2621(5) 0.7636(6) 0.3656(6)
H66 H 0.2428 0.7181 0.3848
C81 C 0.3049(4) 0.7459(5) 0.4704(5)
H67 H 0.3471 0.7609 0.4731
H68 H 0.3042 0.6963 0.4851
N22 N 0.9589(4) 0.4914(5) 0.1195(5)
C82 C 0.9749(5) 0.4340(6) 0.1171(6)
C83 C 1.0343(5) 0.4321(6) 0.0762(6)
H69 H 1.0449 0.3914 0.0749
C84 C 1.0763(6) 0.4924(7) 0.0384(7)
H70 H 1.1162 0.4926 0.0110
C85 C 1.0607(5) 0.5520(7) 0.0402(6)
H71 H 1.0889 0.5932 0.0142
C86 C 1.0012(5) 0.5490(7) 0.0824(6)
H72 H 0.9901 0.5890 0.0849
N23 N 0.8364(5) 0.3127(5) 0.2280(5)
N24 N 0.8713(4) 0.3761(5) 0.1986(5)
C87 C 0.9267(5) 0.3719(6) 0.1585(6)
C88 C 0.9286(6) 0.3053(7) 0.1643(7)
H73 H 0.9620 0.2892 0.1429
C89 C 0.8708(7) 0.2696(7) 0.2079(7)
H74 H 0.8568 0.2236 0.2219
C90 C 0.7763(5) 0.2946(6) 0.2834(6)
H75 H 0.7483 0.2596 0.2835
H76 H 0.7531 0.3363 0.2713
C91 C 0.2523(4) 0.7552(5) 0.5223(5)
C92 C 0.2586(5) 0.7278(5) 0.5920(6)
H77 H 0.2954 0.7050 0.6052
C93 C 0.7884(5) 0.2671(5) 0.3559(6)
C94 C 0.8429(5) 0.2330(5) 0.3781(6)
H78 H 0.8753 0.2288 0.3452
C95 C 0.8497(5) 0.2057(6) 0.4470(7)
H79 H 0.8870 0.1840 0.4601
C96 C 0.1980(5) 0.7903(5) 0.5018(6)
H80 H 0.1936 0.8109 0.4544
N25 N 0.2839(4) 0.9669(4) 0.4026(5)
C97 C 0.2731(5) 0.9456(6) 0.4726(6)
C98 C 0.2176(6) 0.9577(6) 0.5080(8)
H81 H 0.2112 0.9416 0.5569
C99 C 0.1717(7) 0.9937(8) 0.4708(10)
H82 H 0.1335 1.0022 0.4938
C100 C 0.1832(7) 1.0168(8) 0.3995(11)
H83 H 0.1526 1.0414 0.3733
C101 C 0.2401(6) 1.0040(6) 0.3656(7)
H84 H 0.2480 1.0215 0.3164
N26 N 0.4042(4) 0.8437(4) 0.5236(5)
N27 N 0.3694(4) 0.8839(4) 0.4755(5)
C102 C 0.3226(5) 0.9024(5) 0.5101(6)
C103 C 0.3262(6) 0.8751(6) 0.5815(6)
H85 H 0.2989 0.8807 0.6168
C104 C 0.3801(6) 0.8378(6) 0.5870(6)
H86 H 0.3968 0.8127 0.6280
C105 C 0.4625(5) 0.8125(5) 0.5057(6)
H87 H 0.4553 0.7986 0.4717
H88 H 0.4677 0.7701 0.5489
N28 N 0.1312(4) 0.2015(4) 0.5060(5)
C106 C 0.1201(5) 0.1301(6) 0.5499(6)
C107 C 0.0721(5) 0.0900(6) 0.5461(7)
H89 H 0.0653 0.0415 0.5770
C108 C 0.0347(5) 0.1231(7) 0.4956(7)
H90 H 0.0022 0.0972 0.4920
C109 C 0.0460(5) 0.1959(7) 0.4498(7)
H91 H 0.0219 0.2194 0.4147
C110 C 0.0947(5) 0.2325(6) 0.4583(7)
H92 H 0.1017 0.2811 0.4288
N29 N 0.2461(4) 0.1004(5) 0.6458(5)
N30 N 0.2154(4) 0.1427(4) 0.5916(5)
C111 C 0.1637(5) 0.1001(5) 0.5999(6)
C112 C 0.1626(5) 0.0324(6) 0.6585(7)
H93 H 0.1325 -0.0061 0.6751
C113 C 0.2147(6) 0.0350(6) 0.6861(7)
H94 H 0.2267 -0.0020 0.7258
C114 C 0.3106(5) 0.1241(6) 0.6443(6)
H95 H 0.3184 0.1000 0.6926
H96 H 0.3130 0.1742 0.6277
C115 C 0.5261(5) 0.8612(5) 0.4740(6)
C116 C 0.5774(5) 0.8472(5) 0.4337(5)
H97 H 0.5723 0.8094 0.4263
C117 C 0.3634(5) 0.1103(5) 0.5958(6)
C118 C 0.3573(6) 0.0541(6) 0.5843(7)
H98 H 0.3183 0.0252 0.6031
C119 C 0.4097(6) 0.0412(6) 0.5448(7)
H99 H 0.4055 0.0027 0.5382
C120 C 0.5317(5) 0.9165(6) 0.4853(7)
H100 H 0.4972 0.9256 0.5125
N31 N 0.8105(4) 0.5158(5) 0.1143(5)
C121 C 0.8208(5) 0.5861(7) 0.0684(6)
C122 C 0.8003(6) 0.6153(6) 0.0058(6)
H101 H 0.8093 0.6634 -0.0260
C123 C 0.7671(5) 0.5750(7) -0.0106(7)
H102 H 0.7531 0.5950 -0.0536
C124 C 0.7544(5) 0.5051(7) 0.0362(7)
H103 H 0.7305 0.4764 0.0266
C125 C 0.7772(5) 0.4778(6) 0.0973(6)
H104 H 0.7690 0.4296 0.1289
N32 N 0.9117(4) 0.6417(6) 0.1568(5)
N33 N 0.8787(4) 0.5912(5) 0.1528(5)
C126 C 0.8567(6) 0.6263(6) 0.0904(6)
C127 C 0.8756(7) 0.6970(7) 0.0569(7)
H105 H 0.8671 0.7320 0.0138
C128 C 0.9096(7) 0.7053(7) 0.1000(7)
H106 H 0.9283 0.7478 0.0915
C129 C 0.9421(5) 0.6225(7) 0.2185(6)
H107 H 0.9764 0.6591 0.2049
H108 H 0.9623 0.5791 0.2301
N34 N 0.2827(4) 0.2710(4) 0.4489(4)
C130 C 0.3399(4) 0.3000(5) 0.4479(5)
C131 C 0.3960(5) 0.3095(5) 0.3969(6)
H109 H 0.4351 0.3290 0.3971
C132 C 0.3937(6) 0.2900(5) 0.3458(6)
H110 H 0.4305 0.2973 0.3108
C133 C 0.3353(6) 0.2596(6) 0.3485(6)
H111 H 0.3322 0.2456 0.3153
C134 C 0.2815(5) 0.2499(5) 0.4010(6)
H112 H 0.2428 0.2279 0.4033
N35 N 0.2969(4) 0.3247(4) 0.5971(4)
N36 N 0.2841(4) 0.2988(4) 0.5554(4)
C135 C 0.3384(4) 0.3197(5) 0.5029(5)
C136 C 0.3837(5) 0.3583(6) 0.5100(6)
H113 H 0.4240 0.3798 0.4796
C137 C 0.3567(5) 0.3585(6) 0.5714(6)
H114 H 0.3768 0.3789 0.5922
C138 C 0.2523(5) 0.3087(6) 0.6637(5)
H115 H 0.2774 0.3102 0.6959
H116 H 0.2319 0.2610 0.6859
C139 C 0.8945(5) 0.6128(6) 0.2842(6)
C140 C 0.8444(5) 0.6516(6) 0.2822(6)
H117 H 0.8382 0.6863 0.2377
C141 C 0.1991(4) 0.3575(5) 0.6561(5)
C142 C 0.1902(5) 0.4113(5) 0.5910(6)
H118 H 0.2191 0.4202 0.5490
C143 C 0.1388(5) 0.4519(5) 0.5875(6)
H119 H 0.1328 0.4872 0.5431
C144 C 0.9042(5) 0.5597(6) 0.3499(7)
H120 H 0.9388 0.5324 0.3522
Zn1A Zn 0.55611(5) 0.34935(6) 0.88864(6)
Zn2A Zn 0.62808(5) 0.06515(6) 0.64125(6)
Zn3A Zn 0.13286(5) 0.52295(7) 0.80302(7)
Zn4A Zn 0.79669(5) 0.74667(6) 0.46808(6)
N1A N 0.5816(4) 0.3117(4) 0.9949(4)
C1A C 0.6450(5) 0.2989(5) 0.9941(6)
C2A C 0.6743(6) 0.2915(6) 1.0482(6)
H1A H 0.7181 0.2833 1.0468
C3A C 0.6361(7) 0.2968(7) 1.1064(6)
H2A H 0.6547 0.2930 1.1432
C4A C 0.5716(6) 0.3077(6) 1.1072(6)
H3A H 0.5451 0.3099 1.1453
C5A C 0.5465(5) 0.3155(5) 1.0496(5)
H4A H 0.5029 0.3238 1.0497
N2A N 0.6923(4) 0.3021(4) 0.8286(4)
N3A N 0.6498(4) 0.3108(4) 0.8777(4)
C6A C 0.6792(5) 0.2931(5) 0.9316(5)
C7A C 0.7415(5) 0.2724(6) 0.9177(6)
H5A H 0.7716 0.2576 0.9470
C8A C 0.7481(5) 0.2790(5) 0.8509(6)
H6A H 0.7841 0.2694 0.8259
C9A C 0.6726(5) 0.3084(5) 0.7659(5)
H7A H 0.6487 0.3495 0.7459
H8A H 0.7113 0.3156 0.7299
N4A N 0.5671(4) -0.0250(4) 0.6647(5)
C10A C 0.5041(5) -0.0294(5) 0.6973(5)
C11A C 0.4594(5) -0.0858(5) 0.7200(6)
H9A H 0.4168 -0.0881 0.7438
C12A C 0.4801(6) -0.1391(5) 0.7062(6)
H10A H 0.4513 -0.1778 0.7197
C13A C 0.5440(5) -0.1336(5) 0.6719(6)
H11A H 0.5585 -0.1689 0.6623
C14A C 0.5861(5) -0.0771(5) 0.6522(6)
H12A H 0.6291 -0.0746 0.6294
N5A N 0.4989(4) 0.1324(4) 0.6969(4)
N6A N 0.5303(4) 0.0866(4) 0.6802(4)
C15A C 0.4860(5) 0.0312(5) 0.7069(5)
C16A C 0.4273(5) 0.0410(6) 0.7429(6)
H13A H 0.3893 0.0103 0.7666
C17A C 0.4387(5) 0.1059(6) 0.7352(6)
H14A H 0.4093 0.1279 0.7536
C18A C 0.5321(5) 0.1976(5) 0.6811(5)
H15A H 0.5650 0.2151 0.6371
H16A H 0.5008 0.2323 0.6733
C19A C 0.6310(5) 0.2452(5) 0.7823(6)
C20A C 0.5997(5) 0.2491(5) 0.7301(5)
H17A H 0.6022 0.2916 0.6877
C21A C 0.5648(4) 0.1901(5) 0.7408(5)
C22A C 0.5587(5) 0.1264(5) 0.8045(5)
H18A H 0.5345 0.0870 0.8120
C23A C 0.5895(5) 0.1228(5) 0.8562(5)
H19A H 0.5857 0.0804 0.8990
C24A C 0.6261(5) 0.1811(5) 0.8460(6)
H20A H 0.6470 0.1774 0.8812
N7A N 0.6063(4) 0.4497(4) 0.8585(4)
C25A C 0.5689(5) 0.4923(5) 0.8745(5)
C26A C 0.5937(5) 0.5572(5) 0.8610(6)
H21A H 0.5663 0.5866 0.8705
C27A C 0.6603(6) 0.5777(5) 0.8327(6)
H22A H 0.6780 0.6211 0.8230
C28A C 0.6995(5) 0.5330(5) 0.8195(5)
H23A H 0.7443 0.5447 0.8022
C29A C 0.6701(5) 0.4695(5) 0.8327(5)
H24A H 0.6965 0.4395 0.8231
N8A N 0.4178(4) 0.3854(5) 0.9597(4)
N9A N 0.4796(4) 0.4030(4) 0.9179(4)
C30A C 0.5006(5) 0.4631(5) 0.9120(5)
C31A C 0.4525(5) 0.4844(6) 0.9503(6)
H25A H 0.4550 0.5245 0.9546
C32A C 0.4016(5) 0.4335(6) 0.9796(6)
H26A H 0.3623 0.4323 1.0086
C33A C 0.3753(5) 0.3285(5) 0.9687(5)
H27A H 0.4004 0.2890 0.9756
H28A H 0.3412 0.3131 1.0115
N10A N 0.0827(4) 0.5623(4) 0.7169(5)
C34A C 0.1212(5) 0.5860(5) 0.6512(6)
C35A C 0.0985(5) 0.6241(5) 0.5890(6)
H29A H 0.1264 0.6397 0.5446
C36A C 0.0345(5) 0.6386(6) 0.5934(7)
H30A H 0.0182 0.6640 0.5521
C37A C -0.0060(6) 0.6143(7) 0.6618(7)
H31A H -0.0494 0.6237 0.6662
C38A C 0.0193(5) 0.5763(6) 0.7223(6)
H32A H -0.0075 0.5600 0.7673
N11A N 0.2737(4) 0.5346(4) 0.6939(4)
N12A N 0.2115(4) 0.5465(4) 0.7101(4)
C39A C 0.1880(5) 0.5677(5) 0.6514(5)
C40A C 0.2369(5) 0.5681(5) 0.5961(5)
H33A H 0.2334 0.5802 0.5499
C41A C 0.2891(5) 0.5471(5) 0.6259(6)
H34A H 0.3294 0.5420 0.6032
C42A C 0.3169(5) 0.5158(5) 0.7431(5)
H35A H 0.3614 0.5314 0.7154
H36A H 0.3072 0.5414 0.7689
C43A C 0.3442(4) 0.3492(5) 0.9058(5)
C44A C 0.3448(5) 0.4184(5) 0.8535(5)
H37A H 0.3674 0.4533 0.8558
C45A C 0.3132(4) 0.4380(5) 0.7974(5)
C46A C 0.2805(5) 0.3869(5) 0.7923(6)
H38A H 0.2598 0.3993 0.7544
C47A C 0.2788(5) 0.3156(5) 0.8452(5)
H39A H 0.2558 0.2807 0.8434
C48A C 0.3111(4) 0.2982(5) 0.8991(6)
H40A H 0.3113 0.2509 0.9325
N13A N 0.5046(4) 0.2530(4) 0.9179(4)
C49A C 0.4727(5) 0.2522(5) 0.8705(6)
C50A C 0.4367(5) 0.1922(5) 0.8834(6)
H41A H 0.4131 0.1939 0.8509
C51A C 0.4375(6) 0.1306(6) 0.9459(7)
H42A H 0.4145 0.0896 0.9557
C52A C 0.4717(6) 0.1288(6) 0.9939(7)
H43A H 0.4736 0.0867 1.0352
C53A C 0.5034(5) 0.1914(5) 0.9794(6)
H44A H 0.5246 0.1910 1.0131
N14A N 0.5076(4) 0.4296(4) 0.7306(4)
N15A N 0.5178(4) 0.3738(4) 0.7924(4)
C54A C 0.4773(4) 0.3195(5) 0.8046(5)
C55A C 0.4449(5) 0.3404(5) 0.7490(5)
H45A H 0.4160 0.3124 0.7436
C56A C 0.4640(4) 0.4104(5) 0.7038(5)
H46A H 0.4496 0.4396 0.6621
C57A C 0.5460(4) 0.4983(5) 0.6969(5)
H47A H 0.5246 0.5336 0.6614
H48A H 0.5471 0.5113 0.7331
N16A N 0.8694(4) 0.7556(4) 0.3815(4)
C58A C 0.9129(4) 0.7065(5) 0.3991(5)
C59A C 0.9637(5) 0.7075(6) 0.3496(6)
H49A H 0.9923 0.6727 0.3634
C60A C 0.9730(5) 0.7602(6) 0.2785(6)
H50A H 1.0084 0.7623 0.2443
C61A C 0.9280(5) 0.8098(6) 0.2598(6)
H51A H 0.9315 0.8447 0.2123
C62A C 0.8783(5) 0.8067(6) 0.3125(6)
H52A H 0.8496 0.8413 0.2999
N17A N 0.8431(4) 0.5947(4) 0.5838(4)
N18A N 0.8429(4) 0.6502(4) 0.5189(5)
C63A C 0.8992(5) 0.6516(5) 0.4745(6)
C64A C 0.9326(5) 0.5940(5) 0.5143(6)
H53A H 0.9723 0.5822 0.4976
C65A C 0.8952(5) 0.5588(6) 0.5826(6)
H54A H 0.9042 0.5178 0.6209
C66A C 0.7850(5) 0.5716(5) 0.6434(5)
H55A H 0.7977 0.5403 0.6882
H56A H 0.7695 0.6124 0.6458
C67A C 0.6153(5) 0.4978(5) 0.6612(5)
C68A C 0.6662(5) 0.5328(5) 0.6664(5)
H57A H 0.6572 0.5566 0.6920
C69A C 0.7297(5) 0.5337(5) 0.6353(5)
C70A C 0.7427(5) 0.4975(5) 0.5977(5)
H58A H 0.7855 0.4960 0.5773
C71A C 0.6908(5) 0.4631(5) 0.5908(5)
H59A H 0.6994 0.4396 0.5648
C72A C 0.6275(4) 0.4636(5) 0.6216(5)
H60A H 0.5933 0.4413 0.6162
N19A N 0.6501(4) 0.0129(4) 0.7488(4)
C73A C 0.6886(5) 0.0519(5) 0.7620(6)
C74A C 0.7091(5) 0.0256(6) 0.8259(6)
H61A H 0.7347 0.0546 0.8334
C75A C 0.6915(6) -0.0433(6) 0.8780(6)
H62A H 0.7050 -0.0622 0.9213
C76A C 0.6533(5) -0.0835(6) 0.8642(6)
H63A H 0.6411 -0.1306 0.8986
C77A C 0.6325(5) -0.0555(6) 0.8002(6)
H64A H 0.6062 -0.0838 0.7925
N20A N 0.7022(4) 0.2153(4) 0.6026(5)
N21A N 0.6815(4) 0.1457(4) 0.6451(4)
C78A C 0.7057(5) 0.1248(5) 0.7047(5)
C79A C 0.7415(5) 0.1810(6) 0.6992(6)
H65A H 0.7631 0.1807 0.7326
C80A C 0.7379(5) 0.2364(6) 0.6344(6)
H66A H 0.7572 0.2819 0.6152
C81A C 0.6951(4) 0.2541(5) 0.5296(5)
H67A H 0.6529 0.2391 0.5269
H68A H 0.6958 0.3037 0.5149
N22A N 0.0411(4) 0.5086(5) 0.8805(5)
C82A C 0.0251(5) 0.5660(6) 0.8829(6)
C83A C -0.0343(5) 0.5679(6) 0.9238(6)
H69A H -0.0449 0.6086 0.9251
C84A C -0.0763(6) 0.5076(7) 0.9616(7)
H70A H -0.1162 0.5074 0.9890
C85A C -0.0607(5) 0.4480(7) 0.9598(6)
H71A H -0.0889 0.4068 0.9858
C86A C -0.0012(5) 0.4510(7) 0.9176(6)
H72A H 0.0099 0.4110 0.9151
N23A N 0.1636(5) 0.6873(5) 0.7720(5)
N24A N 0.1287(4) 0.6239(5) 0.8014(5)
C87A C 0.0733(5) 0.6281(6) 0.8415(6)
C88A C 0.0714(6) 0.6947(7) 0.8357(7)
H73A H 0.0380 0.7108 0.8571
C89A C 0.1292(7) 0.7304(7) 0.7921(7)
H74A H 0.1432 0.7764 0.7781
C90A C 0.2237(5) 0.7054(6) 0.7166(6)
H75A H 0.2517 0.7404 0.7165
H76A H 0.2469 0.6637 0.7287
C91A C 0.7477(4) 0.2448(5) 0.4777(5)
C92A C 0.7414(5) 0.2722(5) 0.4080(6)
H77A H 0.7046 0.2950 0.3948
C93A C 0.2116(5) 0.7329(5) 0.6441(6)
C94A C 0.1571(5) 0.7670(5) 0.6219(6)
H78A H 0.1247 0.7712 0.6548
C95A C 0.1503(5) 0.7943(6) 0.5530(7)
H79A H 0.1130 0.8160 0.5399
C96A C 0.8020(5) 0.2097(5) 0.4982(6)
H80A H 0.8064 0.1891 0.5456
N25A N 0.7161(4) 0.0331(4) 0.5974(5)
C97A C 0.7269(5) 0.0544(6) 0.5274(6)
C98A C 0.7824(6) 0.0423(6) 0.4920(8)
H81A H 0.7888 0.0584 0.4431
C99A C 0.8283(7) 0.0063(8) 0.5292(10)
H82A H 0.8665 -0.0022 0.5062
C100A C 0.8168(7) -0.0168(8) 0.6005(11)
H83A H 0.8474 -0.0414 0.6267
C101A C 0.7599(6) -0.0040(6) 0.6344(7)
H84A H 0.7520 -0.0215 0.6836
N26A N 0.5958(4) 0.1563(4) 0.4764(5)
N27A N 0.6306(4) 0.1161(4) 0.5245(5)
C102A C 0.6774(5) 0.0976(5) 0.4899(6)
C103A C 0.6738(6) 0.1249(6) 0.4185(6)
H85A H 0.7011 0.1193 0.3832
C104A C 0.6199(6) 0.1622(6) 0.4130(6)
H86A H 0.6032 0.1873 0.3720
C105A C 0.5375(5) 0.1875(5) 0.4943(6)
H87A H 0.5447 0.2014 0.5283
H88A H 0.5323 0.2299 0.4511
N28A N 0.8688(4) 0.7985(4) 0.4940(5)
C106A C 0.8799(5) 0.8699(6) 0.4501(6)
C107A C 0.9279(5) 0.9100(6) 0.4539(7)
H89A H 0.9347 0.9585 0.4230
C108A C 0.9653(5) 0.8769(7) 0.5044(7)
H90A H 0.9978 0.9028 0.5080
C109A C 0.9540(5) 0.8041(7) 0.5502(7)
H91A H 0.9781 0.7806 0.5853
C110A C 0.9053(5) 0.7675(6) 0.5417(7)
H92A H 0.8983 0.7189 0.5712
N29A N 0.7539(4) 0.8996(5) 0.3542(5)
N30A N 0.7846(4) 0.8573(4) 0.4084(5)
C111A C 0.8363(5) 0.8999(5) 0.4001(6)
C112A C 0.8374(5) 0.9676(6) 0.3415(7)
H93A H 0.8675 1.0061 0.3249
C113A C 0.7853(6) 0.9650(6) 0.3139(7)
H94A H 0.7733 1.0020 0.2742
C114A C 0.6894(5) 0.8759(6) 0.3557(6)
H95A H 0.6816 0.9000 0.3074
H96A H 0.6870 0.8258 0.3723
C115A C 0.4739(5) 0.1388(5) 0.5260(6)
C116A C 0.4226(5) 0.1528(5) 0.5663(5)
H97A H 0.4277 0.1906 0.5737
C117A C 0.6366(5) 0.8897(5) 0.4042(6)
C118A C 0.6427(6) 0.9459(6) 0.4157(7)
H98A H 0.6817 0.9748 0.3969
C119A C 0.5903(6) 0.9588(6) 0.4552(7)
H99A H 0.5945 0.9973 0.4618
C120A C 0.4683(5) 0.0835(6) 0.5147(7)
H100A H 0.5028 0.0744 0.4875
N31A N 0.1895(4) 0.4842(5) 0.8857(5)
C121A C 0.1792(5) 0.4139(7) 0.9316(6)
C122A C 0.1997(6) 0.3847(6) 0.9942(6)
H101A H 0.1907 0.3366 1.0260
C123A C 0.2329(5) 0.4250(7) 1.0106(7)
H102A H 0.2469 0.4050 1.0536
C124A C 0.2456(5) 0.4949(7) 0.9638(7)
H103A H 0.2695 0.5236 0.9734
C125A C 0.2228(5) 0.5222(6) 0.9027(6)
H104A H 0.2310 0.5704 0.8711
N32A N 0.0883(4) 0.3583(6) 0.8432(5)
N33A N 0.1213(4) 0.4088(5) 0.8472(5)
C126A C 0.1433(6) 0.3737(6) 0.9096(6)
C127A C 0.1244(7) 0.3030(7) 0.9431(7)
H105A H 0.1329 0.2680 0.9862
C128A C 0.0904(7) 0.2947(7) 0.9000(7)
H106A H 0.0717 0.2522 0.9085
C129A C 0.0579(5) 0.3775(7) 0.7815(6)
H107A H 0.0236 0.3409 0.7951
H108A H 0.0377 0.4209 0.7699
N34A N 0.7173(4) 0.7290(4) 0.5511(4)
C130A C 0.6601(4) 0.7000(5) 0.5521(5)
C131A C 0.6040(5) 0.6905(5) 0.6031(6)
H109A H 0.5649 0.6710 0.6029
C132A C 0.6063(6) 0.7100(5) 0.6542(6)
H110A H 0.5695 0.7027 0.6892
C133A C 0.6647(6) 0.7404(6) 0.6515(6)
H111A H 0.6678 0.7544 0.6847
C134A C 0.7185(5) 0.7501(5) 0.5990(6)
H112A H 0.7572 0.7721 0.5967
N35A N 0.7031(4) 0.6753(4) 0.4029(4)
N36A N 0.7159(4) 0.7012(4) 0.4446(4)
C135A C 0.6616(4) 0.6803(5) 0.4971(5)
C136A C 0.6163(5) 0.6417(6) 0.4900(6)
H113A H 0.5760 0.6202 0.5204
C137A C 0.6433(5) 0.6415(6) 0.4286(6)
H114A H 0.6232 0.6211 0.4078
C138A C 0.7477(5) 0.6913(6) 0.3363(5)
H115A H 0.7226 0.6898 0.3041
H116A H 0.7681 0.7390 0.3141
C139A C 0.1055(5) 0.3872(6) 0.7158(6)
C140A C 0.1556(5) 0.3484(6) 0.7178(6)
H117A H 0.1618 0.3137 0.7623
C141A C 0.8009(4) 0.6425(5) 0.3439(5)
C142A C 0.8098(5) 0.5887(5) 0.4090(6)
H118A H 0.7809 0.5798 0.4510
C143A C 0.8612(5) 0.5481(5) 0.4125(6)
H119A H 0.8672 0.5128 0.4569
C144A C 0.0958(5) 0.4403(6) 0.6501(7)
H120A H 0.0612 0.4676 0.6478
Cl1 Cl 0.72048(14) 0.85688(15) 0.17169(16)
O1 O 0.7831(4) 0.8313(4) 0.1820(5)
O2 O 0.7139(4) 0.8724(4) 0.1018(4)
O3 O 0.6700(3) 0.8021(4) 0.2250(4)
O4 O 0.7133(4) 0.9187(4) 0.1767(5)
Cl2 Cl 0.63740(14) 0.75581(14) 0.82928(15)
O5 O 0.6857(4) 0.7097(4) 0.8625(4)
O6 O 0.5938(4) 0.7201(4) 0.8103(4)
O7 O 0.6008(4) 0.7748(4) 0.8795(4)
O8 O 0.6715(4) 0.8175(4) 0.7652(4)
Cl3 Cl 0.14560(15) 0.55761(17) 0.1671(2)
O9 O 0.1798(4) 0.5658(4) 0.2140(5)
O10 O 0.1282(4) 0.4849(4) 0.1946(5)
O11 O 0.0897(4) 0.5967(5) 0.1594(5)
O12 O 0.1895(4) 0.5858(5) 0.0957(5)
Cl4 Cl 0.12805(13) 0.64319(14) 0.39731(16)
O13 O 0.1759(3) 0.6135(4) 0.4397(4)
O14 O 0.1598(4) 0.6808(4) 0.3230(4)
O15 O 0.0949(3) 0.6914(4) 0.4165(4)
O16 O 0.0825(3) 0.5887(4) 0.4097(4)
Cl5 Cl 0.26992(13) 0.85196(14) 0.77500(15)
O17 O 0.3220(4) 0.8211(4) 0.7507(4)
O18 O 0.2277(3) 0.8785(4) 0.7250(4)
O19 O 0.2958(4) 0.9090(4) 0.7810(4)
O20 O 0.2334(4) 0.7994(4) 0.8441(4)
Cl6 Cl 0.98650(14) 0.11433(15) 0.33413(18)
O21 O 1.0045(5) 0.1873(4) 0.3055(6)
O22 O 1.0420(4) 0.0747(5) 0.3513(6)
O23 O 0.9371(4) 0.0888(5) 0.4009(5)
O24 O 0.9597(5) 0.1021(6) 0.2857(5)
Cl7 Cl 0.58252(13) 0.35089(13) 0.26482(15)
O25 O 0.5476(3) 0.2892(4) 0.2745(4)
O26 O 0.6377(4) 0.3746(4) 0.2062(4)
O27 O 0.5413(4) 0.4053(4) 0.2513(4)
O28 O 0.6059(4) 0.3324(4) 0.3285(4)
Cl8 Cl 0.55408(11) 0.38208(13) 0.51668(13)
O29 O 0.6189(3) 0.3830(4) 0.5305(4)
O30 O 0.5061(3) 0.3814(4) 0.5741(4)
O31 O 0.5509(3) 0.4428(4) 0.4504(4)
O32 O 0.5401(3) 0.3201(3) 0.5130(4)
O33 O 0.8238(5) 0.6811(5) 0.7002(5)
O34 O 0.8710(5) 0.6762(5) 0.7883(5)
N37 N 0.8394(6) 0.7110(6) 0.7314(7)
C145 C 0.8287(7) 0.7834(6) 0.7063(8)
H121 H 0.8222 0.8047 0.6581
H122 H 0.8660 0.8077 0.7072
H123 H 0.7906 0.7863 0.7367
O35 O 0.6511(8) 0.0913(9) 0.0736(9)
O36 O 0.5928(7) 0.0298(8) 0.0477(8)
N38 N 0.6464(8) 0.0562(10) 0.0411(10)
C146 C 0.7037(9) 0.0520(13) -0.0015(12)
H124 H 0.7205 0.0076 0.0249
H125 H 0.7356 0.0897 -0.0142
H126 H 0.6940 0.0558 -0.0442
O37 O 0.8940(10) 0.2404(11) 0.0132(11)
O38 O 0.9304(11) 0.1575(10) 0.1041(11)
N39 N 0.9371(11) 0.2217(11) 0.0481(13)
C147 C 0.9840(12) 0.2711(12) 0.0374(16)
H127 H 1.0077 0.2939 -0.0116
H128 H 1.0136 0.2486 0.0686
H129 H 0.9636 0.3055 0.0475
O39 O 0.0494(11) 0.0426(14) 0.9080(15)
O40 O 0.1334(12) -0.0143(15) 0.9037(15)
N40 N 0.1000(13) 0.0209(17) 0.9278(16)
C148 C 0.1159(18) 0.026(2) 0.9847(18)
H130 H 0.1131 0.0731 0.9758
H131 H 0.1596 0.0134 0.9887
H132 H 0.0859 -0.0059 1.0286
O43 O 0.9168(10) 0.7457(11) 0.8888(11)
N42 N 0.8583(12) 0.8442(13) 0.8439(13)
C150 C 0.9081(15) 0.8016(14) 0.8580(14)
H136 H 0.9478 0.8289 0.8333
C151 C 0.7948(14) 0.8116(18) 0.8704(19)
H137 H 0.7645 0.8468 0.8582
H138 H 0.7873 0.7826 0.9216
H139 H 0.7889 0.7828 0.8497
C152 C 0.8539(18) 0.9146(14) 0.7891(17)
H140 H 0.8124 0.9295 0.8011
H141 H 0.8579 0.9159 0.7441
H142 H 0.8883 0.9455 0.7855
O44 O 0.8615(11) 0.1125(12) 0.8082(12)
N43 N 0.9334(13) 0.0845(13) 0.7338(15)
C153 C 0.9070(17) 0.0828(18) 0.792(2)
H143 H 0.9257 0.0532 0.8306
C154 C 0.9870(14) 0.0477(16) 0.7281(17)
H144 H 1.0017 0.0259 0.7723
H145 H 1.0217 0.0799 0.6899
H146 H 0.9744 0.0122 0.7179
C155 C 0.9226(16) 0.1262(17) 0.6655(16)
H147 H 0.9009 0.0977 0.6521
H148 H 0.9637 0.1475 0.6323
H149 H 0.8958 0.1623 0.6646
O45 O 0.0867(5) 0.6815(5) 0.2238(6)
O46 O 0.1185(8) 0.8177(8) 0.1136(9)
O47 O 0.9964(9) 0.8500(10) 0.0690(11)
O41? O 0.7800(10) 0.8006(10) 0.9278(11)
O42? O 0.8155(11) 0.8807(12) 0.8148(10)
N41? N 0.8148(10) 0.8534(11) 0.8830(11)
C149? C 0.8523(14) 0.8892(14) 0.9053(15)
H133? H 0.8774 0.9297 0.8640
H134? H 0.8812 0.8581 0.9328
H135? H 0.8237 0.9040 0.9343
O48? O 0.9894(8) 0.1793(6) 0.3369(9)
O49? O 1.0153(8) 0.0616(7) 0.3886(7)
O50? O 0.9207(5) 0.0927(8) 0.3407(9)
O51? O 1.0248(7) 0.1300(9) 0.2638(6)
loop_
_geom_bond_atom_site_label_1
_geom_bond_atom_site_label_2
_geom_bond_site_symmetry_1
_geom_bond_site_symmetry_2
Zn1 N1 1_555 1_555
Zn2 N4 1_555 1_555
Zn3 N10 1_555 1_555
Zn4 N16 1_555 1_555
N1 C1 1_555 1_555
C1 C2 1_555 1_555
C2 H1 1_555 1_555
C3 C2 1_555 1_555
H2 C3 1_555 1_555
C4 C3 1_555 1_555
H3 C4 1_555 1_555
C5 N1 1_555 1_555
H4 C5 1_555 1_555
N2 N3 1_555 1_555
N3 Zn1 1_555 1_555
C6 C1 1_555 1_555
C7 C6 1_555 1_555
H5 C7 1_555 1_555
C8 N2 1_555 1_555
H6 C8 1_555 1_555
C9 N2 1_555 1_555
H7 C9 1_555 1_555
H8 C9 1_555 1_555
N4 C10 1_555 1_555
C10 C11 1_555 1_555
C11 H9 1_555 1_555
C12 C11 1_555 1_555
H10 C12 1_555 1_555
C13 C12 1_555 1_555
H11 C13 1_555 1_555
C14 N4 1_555 1_555
H12 C14 1_555 1_555
N5 N6 1_555 1_555
N6 Zn2 1_555 1_555
C15 C10 1_555 1_555
C16 C15 1_555 1_555
H13 C16 1_555 1_555
C17 N5 1_555 1_555
H14 C17 1_555 1_555
C18 N5 1_555 1_555
H15 C18 1_555 1_555
H16 C18 1_555 1_555
C19 C9 1_555 1_555
C20 C19 1_555 1_555
H17 C20 1_555 1_555
C21 C18 1_555 1_555
C22 C21 1_555 1_555
H18 C22 1_555 1_555
C23 C22 1_555 1_555
H19 C23 1_555 1_555
C24 C19 1_555 1_555
H20 C24 1_555 1_555
N7 Zn1 1_555 1_555
C25 N7 1_555 1_555
C26 C25 1_555 1_555
H21 C26 1_555 1_555
C27 C26 1_555 1_555
H22 C27 1_555 1_555
C28 C27 1_555 1_555
H23 C28 1_555 1_555
C29 N7 1_555 1_555
H24 C29 1_555 1_555
N8 N9 1_555 1_555
N9 Zn1 1_555 1_555
C30 C25 1_555 1_555
C31 C30 1_555 1_555
H25 C31 1_555 1_555
C32 N8 1_555 1_555
H26 C32 1_555 1_555
C33 N8 1_555 1_555
H27 C33 1_555 1_555
H28 C33 1_555 1_555
N10 C34 1_555 1_555
C34 C35 1_555 1_555
C35 H29 1_555 1_555
C36 C35 1_555 1_555
H30 C36 1_555 1_555
C37 C36 1_555 1_555
H31 C37 1_555 1_555
C38 N10 1_555 1_555
H32 C38 1_555 1_555
N11 N12 1_555 1_555
N12 Zn3 1_555 1_555
C39 C34 1_555 1_555
C40 C39 1_555 1_555
H33 C40 1_555 1_555
C41 N11 1_555 1_555
H34 C41 1_555 1_555
C42 N11 1_555 1_555
H35 C42 1_555 1_555
H36 C42 1_555 1_555
C43 C33 1_555 1_555
C44 C43 1_555 1_555
H37 C44 1_555 1_555
C45 C42 1_555 1_555
C46 C45 1_555 1_555
H38 C46 1_555 1_555
C47 C46 1_555 1_555
H39 C47 1_555 1_555
C48 C43 1_555 1_555
H40 C48 1_555 1_555
N13 Zn1 1_555 1_555
C49 N13 1_555 1_555
C50 C49 1_555 1_555
H41 C50 1_555 1_555
C51 C50 1_555 1_555
H42 C51 1_555 1_555
C52 C51 1_555 1_555
H43 C52 1_555 1_555
C53 N13 1_555 1_555
H44 C53 1_555 1_555
N14 N15 1_555 1_555
N15 Zn1 1_555 1_555
C54 C49 1_555 1_555
C55 C54 1_555 1_555
H45 C55 1_555 1_555
C56 N14 1_555 1_555
H46 C56 1_555 1_555
C57 N14 1_555 1_555
H47 C57 1_555 1_555
H48 C57 1_555 1_555
N16 C58 1_555 1_555
C58 C59 1_555 1_555
C59 H49 1_555 1_555
C60 C59 1_555 1_555
H50 C60 1_555 1_555
C61 C60 1_555 1_555
H51 C61 1_555 1_555
C62 N16 1_555 1_555
H52 C62 1_555 1_555
N17 N18 1_555 1_555
N18 Zn4 1_555 1_555
C63 C58 1_555 1_555
C64 C63 1_555 1_555
H53 C64 1_555 1_555
C65 N17 1_555 1_555
H54 C65 1_555 1_555
C66 N17 1_555 1_555
H55 C66 1_555 1_555
H56 C66 1_555 1_555
C67 C57 1_555 1_555
C68 C67 1_555 1_555
H57 C68 1_555 1_555
C69 C66 1_555 1_555
C70 C69 1_555 1_555
H58 C70 1_555 1_555
C71 C70 1_555 1_555
H59 C71 1_555 1_555
C72 C67 1_555 1_555
H60 C72 1_555 1_555
N19 Zn2 1_555 1_555
C73 N19 1_555 1_555
C74 C73 1_555 1_555
H61 C74 1_555 1_555
C75 C74 1_555 1_555
H62 C75 1_555 1_555
C76 C75 1_555 1_555
H63 C76 1_555 1_555
C77 N19 1_555 1_555
H64 C77 1_555 1_555
N20 N21 1_555 1_555
N21 Zn2 1_555 1_555
C78 C73 1_555 1_555
C79 C78 1_555 1_555
H65 C79 1_555 1_555
C80 N20 1_555 1_555
H66 C80 1_555 1_555
C81 N20 1_555 1_555
H67 C81 1_555 1_555
H68 C81 1_555 1_555
N22 Zn3 1_555 1_555
C82 N22 1_555 1_555
C83 C82 1_555 1_555
H69 C83 1_555 1_555
C84 C83 1_555 1_555
H70 C84 1_555 1_555
C85 C84 1_555 1_555
H71 C85 1_555 1_555
C86 N22 1_555 1_555
H72 C86 1_555 1_555
N23 N24 1_555 1_555
N24 Zn3 1_555 1_555
C87 C82 1_555 1_555
C88 C87 1_555 1_555
H73 C88 1_555 1_555
C89 N23 1_555 1_555
H74 C89 1_555 1_555
C90 N23 1_555 1_555
H75 C90 1_555 1_555
H76 C90 1_555 1_555
C91 C81 1_555 1_555
C92 C91 1_555 1_555
H77 C92 1_555 1_555
C93 C90 1_555 1_555
C94 C93 1_555 1_555
H78 C94 1_555 1_555
C95 C94 1_555 1_555
H79 C95 1_555 1_555
C96 C91 1_555 1_555
H80 C96 1_555 1_555
N25 Zn2 1_555 1_555
C97 N25 1_555 1_555
C98 C97 1_555 1_555
H81 C98 1_555 1_555
C99 C98 1_555 1_555
H82 C99 1_555 1_555
C100 C99 1_555 1_555
H83 C100 1_555 1_555
C101 N25 1_555 1_555
H84 C101 1_555 1_555
N26 N27 1_555 1_555
N27 Zn2 1_555 1_555
C102 C97 1_555 1_555
C103 C102 1_555 1_555
H85 C103 1_555 1_555
C104 N26 1_555 1_555
H86 C104 1_555 1_555
C105 N26 1_555 1_555
H87 C105 1_555 1_555
H88 C105 1_555 1_555
N28 Zn4 1_555 1_555
C106 N28 1_555 1_555
C107 C106 1_555 1_555
H89 C107 1_555 1_555
C108 C107 1_555 1_555
H90 C108 1_555 1_555
C109 C108 1_555 1_555
H91 C109 1_555 1_555
C110 N28 1_555 1_555
H92 C110 1_555 1_555
N29 N30 1_555 1_555
N30 Zn4 1_555 1_555
C111 C106 1_555 1_555
C112 C111 1_555 1_555
H93 C112 1_555 1_555
C113 N29 1_555 1_555
H94 C113 1_555 1_555
C114 N29 1_555 1_555
H95 C114 1_555 1_555
H96 C114 1_555 1_555
C115 C105 1_555 1_555
C116 C115 1_555 1_555
H97 C116 1_555 1_555
C117 C114 1_555 1_555
C118 C117 1_555 1_555
H98 C118 1_555 1_555
C119 C118 1_555 1_555
H99 C119 1_555 1_555
C120 C115 1_555 1_555
H100 C120 1_555 1_555
N31 Zn3 1_555 1_555
C121 N31 1_555 1_555
C122 C121 1_555 1_555
H101 C122 1_555 1_555
C123 C122 1_555 1_555
H102 C123 1_555 1_555
C124 C123 1_555 1_555
H103 C124 1_555 1_555
C125 N31 1_555 1_555
H104 C125 1_555 1_555
N32 N33 1_555 1_555
N33 Zn3 1_555 1_555
C126 C121 1_555 1_555
C127 C126 1_555 1_555
H105 C127 1_555 1_555
C128 N32 1_555 1_555
H106 C128 1_555 1_555
C129 N32 1_555 1_555
H107 C129 1_555 1_555
H108 C129 1_555 1_555
N34 Zn4 1_555 1_555
C130 N34 1_555 1_555
C131 C130 1_555 1_555
H109 C131 1_555 1_555
C132 C131 1_555 1_555
H110 C132 1_555 1_555
C133 C132 1_555 1_555
H111 C133 1_555 1_555
C134 N34 1_555 1_555
H112 C134 1_555 1_555
N35 N36 1_555 1_555
N36 Zn4 1_555 1_555
C135 C130 1_555 1_555
C136 C135 1_555 1_555
H113 C136 1_555 1_555
C137 N35 1_555 1_555
H114 C137 1_555 1_555
C138 N35 1_555 1_555
H115 C138 1_555 1_555
H116 C138 1_555 1_555
C139 C129 1_555 1_555
C140 C139 1_555 1_555
H117 C140 1_555 1_555
C141 C138 1_555 1_555
C142 C141 1_555 1_555
H118 C142 1_555 1_555
C143 C142 1_555 1_555
H119 C143 1_555 1_555
C144 C139 1_555 1_555
H120 C144 1_555 1_555
Cl1 O1 1_555 1_555
O2 Cl1 1_555 1_555
O3 Cl1 1_555 1_555
O4 Cl1 1_555 1_555
Cl2 O5 1_555 1_555
O6 Cl2 1_555 1_555
O7 Cl2 1_555 1_555
O8 Cl2 1_555 1_555
Cl3 O9 1_555 1_555
O10 Cl3 1_555 1_555
O11 Cl3 1_555 1_555
O12 Cl3 1_555 1_555
Cl4 O13 1_555 1_555
O14 Cl4 1_555 1_555
O15 Cl4 1_555 1_555
O16 Cl4 1_555 1_555
Cl5 O17 1_555 1_555
O18 Cl5 1_555 1_555
O19 Cl5 1_555 1_555
O20 Cl5 1_555 1_555
Cl6 O21 1_555 1_555
O22 Cl6 1_555 1_555
O23 Cl6 1_555 1_555
O24 Cl6 1_555 1_555
Cl7 O25 1_555 1_555
O26 Cl7 1_555 1_555
O27 Cl7 1_555 1_555
O28 Cl7 1_555 1_555
Cl8 O29 1_555 1_555
O30 Cl8 1_555 1_555
O31 Cl8 1_555 1_555
O32 Cl8 1_555 1_555
O33 N37 1_555 1_555
O34 N37 1_555 1_555
N37 C145 1_555 1_555
C145 H121 1_555 1_555
H122 C145 1_555 1_555
H123 C145 1_555 1_555
O35 N38 1_555 1_555
O36 N38 1_555 1_555
N38 C146 1_555 1_555
C146 H124 1_555 1_555
H125 C146 1_555 1_555
H126 C146 1_555 1_555
O37 N39 1_555 1_555
O38 N39 1_555 1_555
N39 C147 1_555 1_555
C147 H127 1_555 1_555
H128 C147 1_555 1_555
H129 C147 1_555 1_555
O39 N40 1_555 1_555
O40 N40 1_555 1_555
N40 C148 1_555 1_555
C148 H130 1_555 1_555
H131 C148 1_555 1_555
H132 C148 1_555 1_555
O43 C150 1_555 1_555
N42 C150 1_555 1_555
C150 H136 1_555 1_555
C151 N42 1_555 1_555
H137 C151 1_555 1_555
H138 C151 1_555 1_555
H139 C151 1_555 1_555
C152 N42 1_555 1_555
H140 C152 1_555 1_555
H141 C152 1_555 1_555
H142 C152 1_555 1_555
O44 C153 1_555 1_555
N43 C153 1_555 1_555
C153 H143 1_555 1_555
C154 N43 1_555 1_555
H144 C154 1_555 1_555
H145 C154 1_555 1_555
H146 C154 1_555 1_555
C155 N43 1_555 1_555
H147 C155 1_555 1_555
H148 C155 1_555 1_555
H149 C155 1_555 1_555
Zn1A N1A 1_555 1_555
Zn2A N4A 1_555 1_555
Zn3A N10A 1_555 1_555
Zn4A N16A 1_555 1_555
N1A C1A 1_555 1_555
C1A C2A 1_555 1_555
C2A H1A 1_555 1_555
C3A C2A 1_555 1_555
H2A C3A 1_555 1_555
C4A C3A 1_555 1_555
H3A C4A 1_555 1_555
C5A N1A 1_555 1_555
H4A C5A 1_555 1_555
N2A N3A 1_555 1_555
N3A Zn1A 1_555 1_555
C6A C1A 1_555 1_555
C7A C6A 1_555 1_555
H5A C7A 1_555 1_555
C8A N2A 1_555 1_555
H6A C8A 1_555 1_555
C9A N2A 1_555 1_555
H7A C9A 1_555 1_555
H8A C9A 1_555 1_555
N4A C10A 1_555 1_555
C10A C11A 1_555 1_555
C11A H9A 1_555 1_555
C12A C11A 1_555 1_555
H10A C12A 1_555 1_555
C13A C12A 1_555 1_555
H11A C13A 1_555 1_555
C14A N4A 1_555 1_555
H12A C14A 1_555 1_555
N5A N6A 1_555 1_555
N6A Zn2A 1_555 1_555
C15A C10A 1_555 1_555
C16A C15A 1_555 1_555
H13A C16A 1_555 1_555
C17A N5A 1_555 1_555
H14A C17A 1_555 1_555
C18A N5A 1_555 1_555
H15A C18A 1_555 1_555
H16A C18A 1_555 1_555
C19A C9A 1_555 1_555
C20A C19A 1_555 1_555
H17A C20A 1_555 1_555
C21A C18A 1_555 1_555
C22A C21A 1_555 1_555
H18A C22A 1_555 1_555
C23A C22A 1_555 1_555
H19A C23A 1_555 1_555
C24A C19A 1_555 1_555
H20A C24A 1_555 1_555
N7A Zn1A 1_555 1_555
C25A N7A 1_555 1_555
C26A C25A 1_555 1_555
H21A C26A 1_555 1_555
C27A C26A 1_555 1_555
H22A C27A 1_555 1_555
C28A C27A 1_555 1_555
H23A C28A 1_555 1_555
C29A N7A 1_555 1_555
H24A C29A 1_555 1_555
N8A N9A 1_555 1_555
N9A Zn1A 1_555 1_555
C30A C25A 1_555 1_555
C31A C30A 1_555 1_555
H25A C31A 1_555 1_555
C32A N8A 1_555 1_555
H26A C32A 1_555 1_555
C33A N8A 1_555 1_555
H27A C33A 1_555 1_555
H28A C33A 1_555 1_555
N10A C34A 1_555 1_555
C34A C35A 1_555 1_555
C35A H29A 1_555 1_555
C36A C35A 1_555 1_555
H30A C36A 1_555 1_555
C37A C36A 1_555 1_555
H31A C37A 1_555 1_555
C38A N10A 1_555 1_555
H32A C38A 1_555 1_555
N11A N12A 1_555 1_555
N12A Zn3A 1_555 1_555
C39A C34A 1_555 1_555
C40A C39A 1_555 1_555
H33A C40A 1_555 1_555
C41A N11A 1_555 1_555
H34A C41A 1_555 1_555
C42A N11A 1_555 1_555
H35A C42A 1_555 1_555
H36A C42A 1_555 1_555
C43A C33A 1_555 1_555
C44A C43A 1_555 1_555
H37A C44A 1_555 1_555
C45A C42A 1_555 1_555
C46A C45A 1_555 1_555
H38A C46A 1_555 1_555
C47A C46A 1_555 1_555
H39A C47A 1_555 1_555
C48A C43A 1_555 1_555
H40A C48A 1_555 1_555
N13A Zn1A 1_555 1_555
C49A N13A 1_555 1_555
C50A C49A 1_555 1_555
H41A C50A 1_555 1_555
C51A C50A 1_555 1_555
H42A C51A 1_555 1_555
C52A C51A 1_555 1_555
H43A C52A 1_555 1_555
C53A N13A 1_555 1_555
H44A C53A 1_555 1_555
N14A N15A 1_555 1_555
N15A Zn1A 1_555 1_555
C54A C49A 1_555 1_555
C55A C54A 1_555 1_555
H45A C55A 1_555 1_555
C56A N14A 1_555 1_555
H46A C56A 1_555 1_555
C57A N14A 1_555 1_555
H47A C57A 1_555 1_555
H48A C57A 1_555 1_555
N16A C58A 1_555 1_555
C58A C59A 1_555 1_555
C59A H49A 1_555 1_555
C60A C59A 1_555 1_555
H50A C60A 1_555 1_555
C61A C60A 1_555 1_555
H51A C61A 1_555 1_555
C62A N16A 1_555 1_555
H52A C62A 1_555 1_555
N17A N18A 1_555 1_555
N18A Zn4A 1_555 1_555
C63A C58A 1_555 1_555
C64A C63A 1_555 1_555
H53A C64A 1_555 1_555
C65A N17A 1_555 1_555
H54A C65A 1_555 1_555
C66A N17A 1_555 1_555
H55A C66A 1_555 1_555
H56A C66A 1_555 1_555
C67A C57A 1_555 1_555
C68A C67A 1_555 1_555
H57A C68A 1_555 1_555
C69A C66A 1_555 1_555
C70A C69A 1_555 1_555
H58A C70A 1_555 1_555
C71A C70A 1_555 1_555
H59A C71A 1_555 1_555
C72A C67A 1_555 1_555
H60A C72A 1_555 1_555
N19A Zn2A 1_555 1_555
C73A N19A 1_555 1_555
C74A C73A 1_555 1_555
H61A C74A 1_555 1_555
C75A C74A 1_555 1_555
H62A C75A 1_555 1_555
C76A C75A 1_555 1_555
H63A C76A 1_555 1_555
C77A N19A 1_555 1_555
H64A C77A 1_555 1_555
N20A N21A 1_555 1_555
N21A Zn2A 1_555 1_555
C78A C73A 1_555 1_555
C79A C78A 1_555 1_555
H65A C79A 1_555 1_555
C80A N20A 1_555 1_555
H66A C80A 1_555 1_555
C81A N20A 1_555 1_555
H67A C81A 1_555 1_555
H68A C81A 1_555 1_555
N22A Zn3A 1_555 1_555
C82A N22A 1_555 1_555
C83A C82A 1_555 1_555
H69A C83A 1_555 1_555
C84A C83A 1_555 1_555
H70A C84A 1_555 1_555
C85A C84A 1_555 1_555
H71A C85A 1_555 1_555
C86A N22A 1_555 1_555
H72A C86A 1_555 1_555
N23A N24A 1_555 1_555
N24A Zn3A 1_555 1_555
C87A C82A 1_555 1_555
C88A C87A 1_555 1_555
H73A C88A 1_555 1_555
C89A N23A 1_555 1_555
H74A C89A 1_555 1_555
C90A N23A 1_555 1_555
H75A C90A 1_555 1_555
H76A C90A 1_555 1_555
C91A C81A 1_555 1_555
C92A C93 1_555 1_555
H77A C92A 1_555 1_555
C93A C92 1_555 1_555
C94A C93A 1_555 1_555
H78A C94A 1_555 1_555
C95A C96 1_555 1_555
H79A C95A 1_555 1_555
C96A C95 1_555 1_555
H80A C96A 1_555 1_555
N25A Zn2A 1_555 1_555
C97A N25A 1_555 1_555
C98A C97A 1_555 1_555
H81A C98A 1_555 1_555
C99A C98A 1_555 1_555
H82A C99A 1_555 1_555
C100A C99A 1_555 1_555
H83A C100A 1_555 1_555
C101A N25A 1_555 1_555
H84A C101A 1_555 1_555
N26A N27A 1_555 1_555
N27A Zn2A 1_555 1_555
C102A C97A 1_555 1_555
C103A C102A 1_555 1_555
H85A C103A 1_555 1_555
C104A N26A 1_555 1_555
H86A C104A 1_555 1_555
C105A N26A 1_555 1_555
H87A C105A 1_555 1_555
H88A C105A 1_555 1_555
N28A Zn4A 1_555 1_555
C106A N28A 1_555 1_555
C107A C106A 1_555 1_555
H89A C107A 1_555 1_555
C108A C107A 1_555 1_555
H90A C108A 1_555 1_555
C109A C108A 1_555 1_555
H91A C109A 1_555 1_555
C110A N28A 1_555 1_555
H92A C110A 1_555 1_555
N29A N30A 1_555 1_555
N30A Zn4A 1_555 1_555
C111A C106A 1_555 1_555
C112A C111A 1_555 1_555
H93A C112A 1_555 1_555
C113A N29A 1_555 1_555
H94A C113A 1_555 1_555
C114A N29A 1_555 1_555
H95A C114A 1_555 1_555
H96A C114A 1_555 1_555
C115A C105A 1_555 1_555
C116A C117 1_555 1_555
H97A C116A 1_555 1_555
C117A C116 1_555 1_555
C118A C117A 1_555 1_555
H98A C118A 1_555 1_555
C119A C120 1_555 1_555
H99A C119A 1_555 1_555
C120A C119 1_555 1_555
H100A C120A 1_555 1_555
N31A Zn3A 1_555 1_555
C121A N31A 1_555 1_555
C122A C121A 1_555 1_555
H101A C122A 1_555 1_555
C123A C122A 1_555 1_555
H102A C123A 1_555 1_555
C124A C123A 1_555 1_555
H103A C124A 1_555 1_555
C125A N31A 1_555 1_555
H104A C125A 1_555 1_555
N32A N33A 1_555 1_555
N33A Zn3A 1_555 1_555
C126A C121A 1_555 1_555
C127A C126A 1_555 1_555
H105A C127A 1_555 1_555
C128A N32A 1_555 1_555
H106A C128A 1_555 1_555
C129A N32A 1_555 1_555
H107A C129A 1_555 1_555
H108A C129A 1_555 1_555
N34A Zn4A 1_555 1_555
C130A N34A 1_555 1_555
C131A C130A 1_555 1_555
H109A C131A 1_555 1_555
C132A C131A 1_555 1_555
H110A C132A 1_555 1_555
C133A C132A 1_555 1_555
H111A C133A 1_555 1_555
C134A N34A 1_555 1_555
H112A C134A 1_555 1_555
N35A N36A 1_555 1_555
N36A Zn4A 1_555 1_555
C135A C130A 1_555 1_555
C136A C135A 1_555 1_555
H113A C136A 1_555 1_555
C137A N35A 1_555 1_555
H114A C137A 1_555 1_555
C138A N35A 1_555 1_555
H115A C138A 1_555 1_555
H116A C138A 1_555 1_555
C139A C129A 1_555 1_555
C140A C141 1_555 1_555
H117A C140A 1_555 1_555
C141A C140 1_555 1_555
C142A C141A 1_555 1_555
H118A C142A 1_555 1_555
C143A C144 1_555 1_555
H119A C143A 1_555 1_555
C144A C143 1_555 1_555
H120A C144A 1_555 1_555
C4 C5 1_555 1_555
N3 C6 1_555 1_555
C7 C8 1_555 1_555
C13 C14 1_555 1_555
N6 C15 1_555 1_555
C16 C17 1_555 1_555
C20 C21 1_555 1_555
C23 C24 1_555 1_555
C28 C29 1_555 1_555
N9 C30 1_555 1_555
C31 C32 1_555 1_555
C37 C38 1_555 1_555
N12 C39 1_555 1_555
C40 C41 1_555 1_555
C44 C45 1_555 1_555
C47 C48 1_555 1_555
C52 C53 1_555 1_555
N15 C54 1_555 1_555
C55 C56 1_555 1_555
C61 C62 1_555 1_555
N18 C63 1_555 1_555
C64 C65 1_555 1_555
C68 C69 1_555 1_555
C71 C72 1_555 1_555
C76 C77 1_555 1_555
N21 C78 1_555 1_555
C79 C80 1_555 1_555
C85 C86 1_555 1_555
N24 C87 1_555 1_555
C88 C89 1_555 1_555
C100 C101 1_555 1_555
N27 C102 1_555 1_555
C103 C104 1_555 1_555
C109 C110 1_555 1_555
N30 C111 1_555 1_555
C112 C113 1_555 1_555
C124 C125 1_555 1_555
N33 C126 1_555 1_555
C127 C128 1_555 1_555
C133 C134 1_555 1_555
N36 C135 1_555 1_555
C136 C137 1_555 1_555
C4A C5A 1_555 1_555
N3A C6A 1_555 1_555
C7A C8A 1_555 1_555
C13A C14A 1_555 1_555
N6A C15A 1_555 1_555
C16A C17A 1_555 1_555
C20A C21A 1_555 1_555
C23A C24A 1_555 1_555
C28A C29A 1_555 1_555
N9A C30A 1_555 1_555
C31A C32A 1_555 1_555
C37A C38A 1_555 1_555
N12A C39A 1_555 1_555
C40A C41A 1_555 1_555
C44A C45A 1_555 1_555
C47A C48A 1_555 1_555
C52A C53A 1_555 1_555
N15A C54A 1_555 1_555
C55A C56A 1_555 1_555
C61A C62A 1_555 1_555
N18A C63A 1_555 1_555
C64A C65A 1_555 1_555
C68A C69A 1_555 1_555
C71A C72A 1_555 1_555
C76A C77A 1_555 1_555
N21A C78A 1_555 1_555
C79A C80A 1_555 1_555
C85A C86A 1_555 1_555
N24A C87A 1_555 1_555
C88A C89A 1_555 1_555
C90A C93A 1_555 1_555
C91A C92A 1_555 1_555
C91A C96A 1_555 1_555
C94A C95A 1_555 1_555
C100A C101A 1_555 1_555
N27A C102A 1_555 1_555
C103A C104A 1_555 1_555
C109A C110A 1_555 1_555
N30A C111A 1_555 1_555
C112A C113A 1_555 1_555
C114A C117A 1_555 1_555
C115A C116A 1_555 1_555
C115A C120A 1_555 1_555
C118A C119A 1_555 1_555
C124A C125A 1_555 1_555
N33A C126A 1_555 1_555
C127A C128A 1_555 1_555
C133A C134A 1_555 1_555
N36A C135A 1_555 1_555
C136A C137A 1_555 1_555
C138A C141A 1_555 1_555
C139A C140A 1_555 1_555
C139A C144A 1_555 1_555
C142A C143A 1_555 1_555

#END
