
#######################################################################
#
#                 Cambridge Crystallographic Data Centre
#                                CCDC 
#
#######################################################################
#
# If this CIF has been generated from an entry in the Cambridge 
# Structural Database, then it will include bibliographic, chemical, 
# crystal, experimental, refinement or atomic coordinate data resulting 
# from the CCDC's data processing and validation procedures.
#
#######################################################################

data_HABJOL
_chemical_formula_moiety         'C276 H228 N84 Zn8 16+,16(Cl1 O4 1-)'
_chemical_name_systematic        
'dodecakis(\m~2~-2,6-bis((3-(pyridin-2-yl)-1H-pyrazol-1-yl)methyl)pyridine)-octa-zinc(ii) hexadecaperchlorate unknown solvate'
_symmetry_cell_setting           triclinic
_symmetry_space_group_name_H-M   'P -1'
_symmetry_Int_Tables_number      2
_space_group_name_Hall           '-P 1'
loop_
_symmetry_equiv_pos_site_id
_symmetry_equiv_pos_as_xyz
1 x,y,z
2 -x,-y,-z
_cell_length_a                   23.040(6)
_cell_length_b                   23.307(6)
_cell_length_c                   26.686(6)
_cell_angle_alpha                65.408(6)
_cell_angle_beta                 89.833(6)
_cell_angle_gamma                61.512(5)
_cell_volume                     11104.4
_exptl_crystal_colour            colorless
_exptl_crystal_description       block
_cell_formula_units_Z            1
loop_
_atom_site_label
_atom_site_type_symbol
_atom_site_fract_x
_atom_site_fract_y
_atom_site_fract_z
Zn1 Zn 0.39688(8) 0.18586(10) 0.14610(6)
Zn2 Zn 0.14159(9) 0.23313(11) 0.43397(7)
Zn3 Zn 0.18353(8) 0.71831(10) -0.15834(7)
Zn4 Zn 0.06486(9) 0.25455(12) -0.15468(9)
N1 N 0.4984(4) 0.1003(5) 0.1546(4)
C1 C 0.5469(5) 0.0809(6) 0.1988(4)
C2 C 0.6148(5) 0.0282(6) 0.2084(4)
H1 H 0.6480 0.0150 0.2386
C3 C 0.6343(4) -0.0052(6) 0.1736(5)
H2 H 0.6807 -0.0412 0.1801
C4 C 0.5858(5) 0.0142(6) 0.1293(4)
H3 H 0.5990 -0.0086 0.1055
C5 C 0.5178(5) 0.0669(6) 0.1198(4)
H4 H 0.4847 0.0801 0.0895
N2 N 0.4475(4) 0.1824(5) 0.2670(4)
N3 N 0.4564(5) 0.1564(6) 0.2263(4)
C6 C 0.5274(5) 0.1095(6) 0.2343(4)
C7 C 0.5623(4) 0.1064(6) 0.2800(5)
H5 H 0.6102 0.0790 0.2945
C8 C 0.5129(5) 0.1515(6) 0.3002(4)
H6 H 0.5220 0.1595 0.3306
C9 C 0.3809(7) 0.2253(8) 0.2740(6)
H7 H 0.3487 0.2642 0.2365
H8 H 0.3831 0.2493 0.2964
N4 N 0.0955(5) 0.1691(6) 0.4808(4)
C10 C 0.0943(5) 0.1227(7) 0.4615(4)
C11 C 0.0676(6) 0.0789(6) 0.4889(5)
H9 H 0.0668 0.0472 0.4757
C12 C 0.0421(5) 0.0815(6) 0.5357(4)
H10 H 0.0239 0.0515 0.5544
C13 C 0.0433(5) 0.1279(7) 0.5550(4)
H11 H 0.0259 0.1297 0.5870
C14 C 0.0700(6) 0.1717(6) 0.5276(4)
H12 H 0.0709 0.2035 0.5409
N5 N 0.1555(5) 0.1693(6) 0.3369(4)
N6 N 0.1347(5) 0.1791(6) 0.3844(4)
C15 C 0.1156(6) 0.1270(7) 0.4147(4)
C16 C 0.1245(6) 0.0850(6) 0.3861(5)
H13 H 0.1155 0.0462 0.3972
C17 C 0.1492(6) 0.1111(6) 0.3380(4)
H14 H 0.1596 0.0929 0.3113
C18 C 0.1839(7) 0.2068(9) 0.3020(6)
H15 H 0.1643 0.2559 0.3004
H16 H 0.1727 0.2148 0.2630
N7 N 0.2878(5) 0.2043(4) 0.2934(4)
C19 C 0.3582(5) 0.1713(5) 0.3051(4)
C20 C 0.3996(4) 0.0983(6) 0.3470(4)
H17 H 0.4477 0.0757 0.3550
C21 C 0.3706(5) 0.0583(4) 0.3774(4)
H18 H 0.3989 0.0084 0.4061
C22 C 0.3002(5) 0.0913(6) 0.3657(4)
H19 H 0.2804 0.0640 0.3864
C23 C 0.2588(4) 0.1643(6) 0.3237(4)
N8 N 0.3643(4) 0.1108(4) 0.1909(3)
C24 C 0.2959(4) 0.1415(3) 0.1916(4)
C25 C 0.2721(3) 0.0960(5) 0.2225(4)
H20 H 0.2253 0.1170 0.2230
C26 C 0.3167(4) 0.0198(5) 0.2527(4)
H21 H 0.3004 -0.0113 0.2738
C27 C 0.3851(4) -0.0109(3) 0.2520(4)
H22 H 0.4155 -0.0630 0.2726
C28 C 0.4089(3) 0.0346(5) 0.2210(4)
H23 H 0.4557 0.0136 0.2205
N9 N 0.2395(4) 0.3334(4) 0.1159(3)
N10 N 0.2905(3) 0.2569(5) 0.1446(3)
C29 C 0.2575(4) 0.2162(4) 0.1634(4)
C30 C 0.1862(4) 0.2676(5) 0.1463(4)
H24 H 0.1519 0.2556 0.1533
C31 C 0.1750(3) 0.3400(4) 0.1170(4)
H25 H 0.1320 0.3850 0.1009
C32 C 0.2511(7) 0.3904(8) 0.0892(5)
H26 H 0.2934 0.3779 0.1115
H27 H 0.2130 0.4358 0.0881
N11 N 0.1474(5) 0.7749(5) -0.1088(4)
C33 C 0.1924(4) 0.7407(4) -0.0569(4)
C34 C 0.1812(4) 0.7778(5) -0.0250(3)
H28 H 0.2120 0.7544 0.0105
C35 C 0.1251(5) 0.8490(5) -0.0451(4)
H29 H 0.1175 0.8744 -0.0234
C36 C 0.0801(4) 0.8833(4) -0.0971(4)
H30 H 0.0418 0.9320 -0.1108
C37 C 0.0913(4) 0.8462(5) -0.1289(3)
H31 H 0.0605 0.8696 -0.1645
N12 N 0.3090(4) 0.5660(4) -0.0479(4)
N13 N 0.2496(4) 0.6380(5) -0.0746(3)
C38 C 0.2445(4) 0.6719(4) -0.0399(4)
C39 C 0.3008(5) 0.6210(6) 0.0082(4)
H32 H 0.3102 0.6292 0.0384
C40 C 0.3407(4) 0.5555(5) 0.0033(3)
H33 H 0.3815 0.5123 0.0297
C41 C 0.3264(7) 0.5135(7) -0.0680(6)
H34 H 0.3763 0.4790 -0.0558
H35 H 0.3133 0.5399 -0.1101
N14 N 0.2841(4) 0.4505(5) 0.0077(3)
C42 C 0.2575(4) 0.4054(5) 0.0303(3)
C43 C 0.2395(4) 0.3800(5) -0.0020(3)
H36 H 0.2213 0.3492 0.0134
C44 C 0.2482(5) 0.3997(5) -0.0571(3)
H37 H 0.2359 0.3824 -0.0792
C45 C 0.2748(5) 0.4448(5) -0.0797(3)
H38 H 0.2807 0.4583 -0.1174
C46 C 0.2928(4) 0.4702(4) -0.0473(3)
N15 N 0.4226(4) 0.2674(4) 0.1011(3)
C47 C 0.4286(5) 0.2783(5) 0.0465(3)
C48 C 0.4532(5) 0.3230(5) 0.0155(3)
H39 H 0.4573 0.3305 -0.0218
C49 C 0.4718(4) 0.3567(5) 0.0391(3)
H40 H 0.4885 0.3872 0.0179
C50 C 0.4657(5) 0.3458(5) 0.0937(4)
H41 H 0.4784 0.3688 0.1099
C51 C 0.4412(4) 0.3011(5) 0.1248(3)
H42 H 0.4370 0.2936 0.1621
N16 N 0.3520(4) 0.1850(5) 0.0264(3)
N17 N 0.3742(4) 0.2092(5) 0.0589(3)
C52 C 0.4033(5) 0.2491(5) 0.0253(4)
C53 C 0.3991(5) 0.2496(5) -0.0279(3)
H43 H 0.4148 0.2724 -0.0586
C54 C 0.3674(5) 0.2099(6) -0.0273(3)
H44 H 0.3582 0.2016 -0.0574
C55 C 0.3209(6) 0.1429(8) 0.0516(5)
H45 H 0.3340 0.1212 0.0935
H46 H 0.3383 0.1016 0.0422
N18 N -0.0416(3) 0.3221(5) -0.1979(4)
C56 C -0.0793(5) 0.3893(5) -0.1972(4)
C57 C -0.1475(5) 0.4372(5) -0.2263(4)
H47 H -0.1732 0.4831 -0.2259
C58 C -0.1781(3) 0.4179(5) -0.2561(4)
H48 H -0.2247 0.4507 -0.2760
C59 C -0.1404(5) 0.3508(6) -0.2568(4)
H49 H -0.1613 0.3376 -0.2771
C60 C -0.0722(5) 0.3028(5) -0.2276(4)
H50 H -0.0465 0.2569 -0.2281
N19 N 0.0531(3) 0.3836(5) -0.1217(4)
N20 N 0.0295(4) 0.3567(4) -0.1507(4)
C61 C -0.0426(4) 0.4029(6) -0.1695(4)
C62 C -0.0635(3) 0.4582(5) -0.1521(4)
H51 H -0.1091 0.4965 -0.1590
C63 C -0.0044(5) 0.4464(5) -0.1226(4)
H52 H -0.0035 0.4753 -0.1063
C64 C 0.1205(6) 0.3544(8) -0.0984(5)
H53 H 0.1255 0.3931 -0.0961
H54 H 0.1486 0.3387 -0.1236
N21 N 0.2157(4) 0.2478(5) -0.0229(3)
C65 C 0.2456(3) 0.1884(5) 0.0317(3)
C66 C 0.2050(4) 0.1727(4) 0.0670(3)
H55 H 0.2255 0.1321 0.1043
C67 C 0.1345(4) 0.2164(5) 0.0477(3)
H56 H 0.1067 0.2057 0.0718
C68 C 0.1046(3) 0.2758(5) -0.0069(3)
H57 H 0.0564 0.3057 -0.0201
C69 C 0.1452(4) 0.2915(4) -0.0422(3)
N22 N 0.1279(6) 0.2924(6) 0.4802(5)
C70 C 0.0644(5) 0.3548(7) 0.4674(4)
C71 C 0.0543(5) 0.3962(6) 0.4954(5)
H58 H 0.0109 0.4389 0.4867
C72 C 0.1077(6) 0.3753(6) 0.5363(5)
H59 H 0.1008 0.4036 0.5554
C73 C 0.1712(5) 0.3129(7) 0.5491(5)
H60 H 0.2077 0.2986 0.5770
C74 C 0.1813(5) 0.2714(6) 0.5211(5)
H61 H 0.2247 0.2288 0.5298
N23 N -0.0163(6) 0.3684(7) 0.3459(4)
N24 N 0.0402(4) 0.3359(6) 0.3909(5)
C75 C 0.0186(6) 0.3743(7) 0.4233(4)
C76 C -0.0511(6) 0.4306(6) 0.3984(5)
H62 H -0.0786 0.4648 0.4115
C77 C -0.0728(5) 0.4270(6) 0.3506(5)
H63 H -0.1172 0.4583 0.3261
C78 C -0.0120(9) 0.3416(9) 0.3056(7)
H64 H 0.0355 0.3168 0.3022
H65 H -0.0413 0.3832 0.2677
N25 N 0.2532(5) 0.7600(6) -0.1759(5)
C79 C 0.2209(4) 0.8344(6) -0.2158(5)
C80 C 0.2557(6) 0.8715(5) -0.2256(4)
H66 H 0.2336 0.9224 -0.2528
C81 C 0.3228(6) 0.8342(6) -0.1956(5)
H67 H 0.3466 0.8596 -0.2023
C82 C 0.3550(4) 0.7598(6) -0.1557(5)
H68 H 0.4009 0.7343 -0.1352
C83 C 0.3202(5) 0.7227(5) -0.1459(4)
H69 H 0.3423 0.6718 -0.1186
N26 N 0.0605(5) 0.8687(6) -0.2697(5)
N27 N 0.1271(5) 0.8235(5) -0.2335(4)
C84 C 0.1563(5) 0.8679(7) -0.2447(5)
C85 C 0.1078(7) 0.9404(6) -0.2877(5)
H70 H 0.1138 0.9815 -0.3035
C86 C 0.0485(5) 0.9409(5) -0.3032(4)
H71 H 0.0080 0.9823 -0.3310
C87 C 0.0177(9) 0.8403(10) -0.2764(8)
H72 H 0.0184 0.8061 -0.2383
H73 H -0.0299 0.8822 -0.2948
N28 N -0.0198(5) 0.2477(6) 0.2968(4)
C88 C -0.0360(6) 0.2871(6) 0.3273(5)
C89 C -0.0713(6) 0.2748(6) 0.3690(5)
H74 H -0.0824 0.3017 0.3898
C90 C -0.0903(6) 0.2232(7) 0.3802(4)
H75 H -0.1145 0.2149 0.4087
C91 C -0.0741(6) 0.1839(6) 0.3498(5)
H76 H -0.0871 0.1486 0.3575
C92 C 0.0388(6) 0.8039(6) -0.3081(5)
N29 N 0.2455(3) 0.1469(5) 0.4802(4)
C93 C 0.2952(5) 0.1619(4) 0.4606(3)
C94 C 0.3637(4) 0.1074(6) 0.4848(4)
H77 H 0.3977 0.1176 0.4713
C95 C 0.3825(3) 0.0380(5) 0.5286(4)
H78 H 0.4293 0.0007 0.5451
C96 C 0.3328(5) 0.0230(4) 0.5482(4)
H79 H 0.3457 -0.0244 0.5782
C97 C 0.2643(4) 0.0775(5) 0.5240(4)
H80 H 0.2304 0.0673 0.5375
N30 N 0.1925(4) 0.3398(5) 0.3410(3)
N31 N 0.2029(4) 0.2735(5) 0.3869(4)
C98 C 0.2731(4) 0.2279(5) 0.4153(4)
C99 C 0.3060(3) 0.2660(6) 0.3870(4)
H81 H 0.3531 0.2483 0.3970
C100 C 0.2562(5) 0.3351(5) 0.3411(4)
H82 H 0.2641 0.3719 0.3150
C101 C 0.1289(7) 0.3966(8) 0.3052(6)
H83 H 0.1007 0.3760 0.3027
H84 H 0.1339 0.4218 0.2665
N32 N 0.0914(7) 0.1504(7) -0.1597(7)
C102 C 0.1310(8) 0.1390(8) -0.1979(6)
C103 C 0.1659(7) 0.0698(9) -0.1956(6)
H85 H 0.1930 0.0621 -0.2217
C104 C 0.1610(7) 0.0119(7) -0.1550(7)
H86 H 0.1848 -0.0354 -0.1534
C105 C 0.1214(8) 0.0232(7) -0.1168(6)
H87 H 0.1181 -0.0164 -0.0891
C106 C 0.0866(7) 0.0924(9) -0.1191(6)
H88 H 0.0595 0.1002 -0.0930
N33 N 0.1120(7) 0.3250(7) -0.2735(7)
N34 N 0.0965(7) 0.2741(9) -0.2338(6)
C107 C 0.1268(8) 0.2098(7) -0.2411(7)
C108 C 0.1610(8) 0.2210(8) -0.2853(7)
H89 H 0.1857 0.1868 -0.2990
C109 C 0.1519(8) 0.2922(9) -0.3053(6)
H90 H 0.1695 0.3141 -0.3348
C110 C 0.0840(7) 0.3920(9) -0.2760(6)
H91 H 0.0869 0.3866 -0.2372
H92 H 0.1090 0.4162 -0.2952
N35 N 0.0263(5) 0.5033(6) 0.2972(3)
C111 C 0.0940(5) 0.4518(5) 0.3270(4)
C112 C 0.1232(4) 0.4594(6) 0.3675(4)
H93 H 0.1695 0.4242 0.3878
C113 C 0.0847(5) 0.5186(6) 0.3783(4)
H94 H 0.1046 0.5238 0.4060
C114 C 0.0170(5) 0.5701(5) 0.3485(4)
H95 H -0.0093 0.6105 0.3559
C115 C 0.0122(4) 0.4375(5) -0.3080(4)
N36 N 0.2185(4) 0.6596(5) -0.2062(3)
C116 C 0.1877(4) 0.6208(5) -0.2060(3)
C117 C 0.2033(5) 0.5847(5) -0.2389(4)
H96 H 0.1822 0.5581 -0.2388
C118 C 0.2496(5) 0.5873(5) -0.2719(3)
H97 H 0.2603 0.5626 -0.2943
C119 C 0.2804(4) 0.6261(5) -0.2720(3)
H98 H 0.3121 0.6279 -0.2945
C120 C 0.2649(4) 0.6623(5) -0.2391(3)
H99 H 0.2859 0.6888 -0.2392
N37 N 0.0732(4) 0.6624(5) -0.1192(3)
N38 N 0.1195(4) 0.6723(5) -0.1520(3)
C121 C 0.1424(4) 0.6210(5) -0.1737(4)
C122 C 0.1103(5) 0.5795(5) -0.1543(4)
H100 H 0.1164 0.5412 -0.1625
C123 C 0.0676(4) 0.6050(5) -0.1206(4)
H101 H 0.0400 0.5869 -0.1022
C124 C 0.0355(7) 0.7065(8) -0.0925(5)
H102 H -0.0061 0.7042 -0.0872
H103 H 0.0213 0.7588 -0.1174
N39 N 0.1699(4) 0.1930(5) -0.1108(4)
C125 C 0.1860(4) 0.1355(6) -0.0567(4)
C126 C 0.2538(5) 0.0827(5) -0.0278(4)
H104 H 0.2649 0.0434 0.0092
C127 C 0.3054(4) 0.0874(5) -0.0529(4)
H105 H 0.3517 0.0513 -0.0331
C128 C 0.2893(4) 0.1449(6) -0.1069(4)
H106 H 0.3245 0.1481 -0.1240
C129 C 0.2215(5) 0.1977(5) -0.1358(3)
H107 H 0.2104 0.2370 -0.1728
N40 N 0.0185(4) 0.1854(5) -0.0351(4)
N41 N 0.0646(5) 0.1945(5) -0.0685(3)
C130 C 0.1318(4) 0.1380(6) -0.0349(5)
C131 C 0.1273(4) 0.0941(5) 0.0192(4)
H108 H 0.1646 0.0524 0.0501
C132 C 0.0573(5) 0.1234(6) 0.0191(4)
H109 H 0.0395 0.1048 0.0499
C133 C -0.0510(6) 0.2298(8) -0.0554(7)
H110 H -0.0715 0.1988 -0.0416
H111 H -0.0626 0.2538 -0.0974
N42 N 0.0490(4) 0.7294(4) -0.0163(4)
C134 C 0.0770(5) 0.6795(5) -0.0377(3)
C135 C 0.1370(5) 0.6117(5) -0.0063(4)
H112 H 0.1562 0.5777 -0.0210
C136 C 0.1691(4) 0.5939(4) 0.0465(4)
H113 H 0.2101 0.5475 0.0680
C137 C 0.1411(5) 0.6437(6) 0.0680(3)
H114 H 0.1630 0.6315 0.1041
C138 C -0.0810(5) 0.2885(5) -0.0366(4)
Zn1A Zn -0.39688(8) 0.81414(10) -0.14610(6)
Zn2A Zn -0.14159(9) 0.76687(11) -0.43397(7)
Zn3A Zn -0.18353(8) 0.28169(10) 0.15834(7)
Zn4A Zn -0.06486(9) 0.74545(12) 0.15468(9)
N1A N -0.4984(4) 0.8997(5) -0.1546(4)
C1A C -0.5469(5) 0.9191(6) -0.1988(4)
C2A C -0.6148(5) 0.9718(6) -0.2084(4)
H1A H -0.6480 0.9850 -0.2386
C3A C -0.6343(4) 1.0052(6) -0.1736(5)
H2A H -0.6807 1.0412 -0.1801
C4A C -0.5858(5) 0.9858(6) -0.1293(4)
H3A H -0.5990 1.0086 -0.1055
C5A C -0.5178(5) 0.9331(6) -0.1198(4)
H4A H -0.4847 0.9199 -0.0895
N2A N -0.4475(4) 0.8176(5) -0.2670(4)
N3A N -0.4564(5) 0.8436(6) -0.2263(4)
C6A C -0.5274(5) 0.8905(6) -0.2343(4)
C7A C -0.5623(4) 0.8936(6) -0.2800(5)
H5A H -0.6102 0.9210 -0.2945
C8A C -0.5129(5) 0.8485(6) -0.3002(4)
H6A H -0.5220 0.8405 -0.3306
C9A C -0.3809(7) 0.7747(8) -0.2740(6)
H7A H -0.3487 0.7358 -0.2365
H8A H -0.3831 0.7507 -0.2964
N4A N -0.0955(5) 0.8309(6) -0.4808(4)
C10A C -0.0943(5) 0.8773(7) -0.4615(4)
C11A C -0.0676(6) 0.9211(6) -0.4889(5)
H9A H -0.0668 0.9528 -0.4757
C12A C -0.0421(5) 0.9185(6) -0.5357(4)
H10A H -0.0239 0.9485 -0.5544
C13A C -0.0433(5) 0.8721(7) -0.5550(4)
H11A H -0.0259 0.8703 -0.5870
C14A C -0.0700(6) 0.8283(6) -0.5276(4)
H12A H -0.0709 0.7965 -0.5409
N5A N -0.1555(5) 0.8307(6) -0.3369(4)
N6A N -0.1347(5) 0.8209(6) -0.3844(4)
C15A C -0.1156(6) 0.8730(7) -0.4147(4)
C16A C -0.1245(6) 0.9150(6) -0.3861(5)
H13A H -0.1155 0.9538 -0.3972
C17A C -0.1492(6) 0.8889(6) -0.3380(4)
H14A H -0.1596 0.9071 -0.3113
C18A C -0.1839(7) 0.7932(9) -0.3020(6)
H15A H -0.1643 0.7441 -0.3004
H16A H -0.1727 0.7852 -0.2630
N7A N -0.2878(5) 0.7957(4) -0.2934(4)
C19A C -0.3582(5) 0.8287(5) -0.3051(4)
C20A C -0.3996(4) 0.9017(6) -0.3470(4)
H17A H -0.4477 0.9243 -0.3550
C21A C -0.3706(5) 0.9417(4) -0.3774(4)
H18A H -0.3989 0.9916 -0.4061
C22A C -0.3002(5) 0.9087(6) -0.3657(4)
H19A H -0.2804 0.9360 -0.3864
C23A C -0.2588(4) 0.8357(6) -0.3237(4)
N8A N -0.3643(4) 0.8892(4) -0.1909(3)
C24A C -0.2959(4) 0.8585(3) -0.1916(4)
C25A C -0.2721(3) 0.9040(5) -0.2225(4)
H20A H -0.2253 0.8830 -0.2230
C26A C -0.3167(4) 0.9802(5) -0.2527(4)
H21A H -0.3004 1.0113 -0.2738
C27A C -0.3851(4) 1.0109(3) -0.2520(4)
H22A H -0.4155 1.0630 -0.2726
C28A C -0.4089(3) 0.9654(5) -0.2210(4)
H23A H -0.4557 0.9864 -0.2205
N9A N -0.2395(4) 0.6666(4) -0.1159(3)
N10A N -0.2905(3) 0.7431(5) -0.1446(3)
C29A C -0.2575(4) 0.7838(4) -0.1634(4)
C30A C -0.1862(4) 0.7324(5) -0.1463(4)
H24A H -0.1519 0.7444 -0.1533
C31A C -0.1750(3) 0.6600(4) -0.1170(4)
H25A H -0.1320 0.6150 -0.1009
C32A C -0.2511(7) 0.6096(8) -0.0892(5)
H26A H -0.2934 0.6221 -0.1115
H27A H -0.2130 0.5642 -0.0881
N11A N -0.1474(5) 0.2251(5) 0.1088(4)
C33A C -0.1924(4) 0.2593(4) 0.0569(4)
C34A C -0.1812(4) 0.2222(5) 0.0250(3)
H28A H -0.2120 0.2456 -0.0105
C35A C -0.1251(5) 0.1510(5) 0.0451(4)
H29A H -0.1175 0.1256 0.0234
C36A C -0.0801(4) 0.1167(4) 0.0971(4)
H30A H -0.0418 0.0680 0.1108
C37A C -0.0913(4) 0.1538(5) 0.1289(3)
H31A H -0.0605 0.1304 0.1645
N12A N -0.3090(4) 0.4340(4) 0.0479(4)
N13A N -0.2496(4) 0.3620(5) 0.0746(3)
C38A C -0.2445(4) 0.3281(4) 0.0399(4)
C39A C -0.3008(5) 0.3790(6) -0.0082(4)
H32A H -0.3102 0.3708 -0.0384
C40A C -0.3407(4) 0.4445(5) -0.0033(3)
H33A H -0.3815 0.4877 -0.0297
C41A C -0.3264(7) 0.4865(7) 0.0680(6)
H34A H -0.3763 0.5210 0.0558
H35A H -0.3133 0.4601 0.1101
N14A N -0.2841(4) 0.5495(5) -0.0077(3)
C42A C -0.2575(4) 0.5946(5) -0.0303(3)
C43A C -0.2395(4) 0.6200(5) 0.0020(3)
H36A H -0.2213 0.6508 -0.0134
C44A C -0.2482(5) 0.6003(5) 0.0571(3)
H37A H -0.2359 0.6176 0.0792
C45A C -0.2748(5) 0.5552(5) 0.0797(3)
H38A H -0.2807 0.5417 0.1174
C46A C -0.2928(4) 0.5298(4) 0.0473(3)
N15A N -0.4226(4) 0.7326(4) -0.1011(3)
C47A C -0.4286(5) 0.7217(5) -0.0465(3)
C48A C -0.4532(5) 0.6770(5) -0.0155(3)
H39A H -0.4573 0.6695 0.0218
C49A C -0.4718(4) 0.6433(5) -0.0391(3)
H40A H -0.4885 0.6128 -0.0179
C50A C -0.4657(5) 0.6542(5) -0.0937(4)
H41A H -0.4784 0.6312 -0.1099
C51A C -0.4412(4) 0.6989(5) -0.1248(3)
H42A H -0.4370 0.7064 -0.1621
N16A N -0.3520(4) 0.8150(5) -0.0264(3)
N17A N -0.3742(4) 0.7908(5) -0.0589(3)
C52A C -0.4033(5) 0.7509(5) -0.0253(4)
C53A C -0.3991(5) 0.7504(5) 0.0279(3)
H43A H -0.4148 0.7276 0.0586
C54A C -0.3674(5) 0.7901(6) 0.0273(3)
H44A H -0.3582 0.7984 0.0574
C55A C -0.3209(6) 0.8571(8) -0.0516(5)
H45A H -0.3340 0.8788 -0.0935
H46A H -0.3383 0.8984 -0.0422
N18A N 0.0416(3) 0.6779(5) 0.1979(4)
C56A C 0.0793(5) 0.6107(5) 0.1972(4)
C57A C 0.1475(5) 0.5628(5) 0.2263(4)
H47A H 0.1732 0.5169 0.2259
C58A C 0.1781(3) 0.5821(5) 0.2561(4)
H48A H 0.2247 0.5493 0.2760
C59A C 0.1404(5) 0.6492(6) 0.2568(4)
H49A H 0.1613 0.6624 0.2771
C60A C 0.0722(5) 0.6972(5) 0.2276(4)
H50A H 0.0465 0.7431 0.2281
N19A N -0.0531(3) 0.6164(5) 0.1217(4)
N20A N -0.0295(4) 0.6433(4) 0.1507(4)
C61A C 0.0426(4) 0.5971(6) 0.1695(4)
C62A C 0.0635(3) 0.5418(5) 0.1521(4)
H51A H 0.1091 0.5035 0.1590
C63A C 0.0044(5) 0.5536(5) 0.1226(4)
H52A H 0.0035 0.5247 0.1063
C64A C -0.1205(6) 0.6456(8) 0.0984(5)
H53A H -0.1255 0.6069 0.0961
H54A H -0.1486 0.6613 0.1236
N21A N -0.2157(4) 0.7522(5) 0.0229(3)
C65A C -0.2456(3) 0.8116(5) -0.0317(3)
C66A C -0.2050(4) 0.8273(4) -0.0670(3)
H55A H -0.2255 0.8679 -0.1043
C67A C -0.1345(4) 0.7836(5) -0.0477(3)
H56A H -0.1067 0.7943 -0.0718
C68A C -0.1046(3) 0.7242(5) 0.0069(3)
H57A H -0.0564 0.6943 0.0201
C69A C -0.1452(4) 0.7085(4) 0.0422(3)
N22A N -0.1279(6) 0.7076(6) -0.4802(5)
C70A C -0.0644(5) 0.6452(7) -0.4674(4)
C71A C -0.0543(5) 0.6038(6) -0.4954(5)
H58A H -0.0109 0.5611 -0.4867
C72A C -0.1077(6) 0.6247(6) -0.5363(5)
H59A H -0.1008 0.5964 -0.5554
C73A C -0.1712(5) 0.6871(7) -0.5491(5)
H60A H -0.2077 0.7014 -0.5770
C74A C -0.1813(5) 0.7286(6) -0.5211(5)
H61A H -0.2247 0.7712 -0.5298
N23A N 0.0163(6) 0.6316(7) -0.3459(4)
N24A N -0.0402(4) 0.6641(6) -0.3909(5)
C75A C -0.0186(6) 0.6257(7) -0.4233(4)
C76A C 0.0511(6) 0.5694(6) -0.3984(5)
H62A H 0.0786 0.5352 -0.4115
C77A C 0.0728(5) 0.5730(6) -0.3506(5)
H63A H 0.1172 0.5417 -0.3261
C78A C 0.0120(9) 0.6584(9) -0.3056(7)
H64A H -0.0355 0.6832 -0.3022
H65A H 0.0413 0.6168 -0.2677
N25A N -0.2532(5) 0.2400(6) 0.1759(5)
C79A C -0.2209(4) 0.1656(6) 0.2158(5)
C80A C -0.2557(6) 0.1285(5) 0.2256(4)
H66A H -0.2336 0.0776 0.2528
C81A C -0.3228(6) 0.1658(6) 0.1956(5)
H67A H -0.3466 0.1404 0.2023
C82A C -0.3550(4) 0.2402(6) 0.1557(5)
H68A H -0.4009 0.2657 0.1352
C83A C -0.3202(5) 0.2773(5) 0.1459(4)
H69A H -0.3423 0.3282 0.1186
N26A N -0.0605(5) 0.1313(6) 0.2697(5)
N27A N -0.1271(5) 0.1765(5) 0.2335(4)
C84A C -0.1563(5) 0.1321(7) 0.2447(5)
C85A C -0.1078(7) 0.0596(6) 0.2877(5)
H70A H -0.1138 0.0185 0.3035
C86A C -0.0485(5) 0.0591(5) 0.3032(4)
H71A H -0.0080 0.0177 0.3310
C87A C -0.0177(9) 0.1597(10) 0.2764(8)
H72A H -0.0184 0.1939 0.2383
H73A H 0.0299 0.1178 0.2948
N28A N 0.0198(5) 0.7523(6) -0.2968(4)
C88A C 0.0360(6) 0.7129(6) -0.3273(5)
C89A C 0.0713(6) 0.7252(6) -0.3690(5)
H74A H 0.0824 0.6983 -0.3898
C90A C 0.0903(6) 0.7768(7) -0.3802(4)
H75A H 0.1145 0.7851 -0.4087
C91A C 0.0741(6) 0.8161(6) -0.3498(5)
H76A H 0.0871 0.8514 -0.3575
C92A C -0.0388(6) 0.1961(6) 0.3081(5)
N29A N -0.2455(3) 0.8531(5) -0.4802(4)
C93A C -0.2952(5) 0.8381(4) -0.4606(3)
C94A C -0.3637(4) 0.8926(6) -0.4848(4)
H77A H -0.3977 0.8824 -0.4713
C95A C -0.3825(3) 0.9620(5) -0.5286(4)
H78A H -0.4293 0.9993 -0.5451
C96A C -0.3328(5) 0.9770(4) -0.5482(4)
H79A H -0.3457 1.0244 -0.5782
C97A C -0.2643(4) 0.9225(5) -0.5240(4)
H80A H -0.2304 0.9327 -0.5375
N30A N -0.1925(4) 0.6602(5) -0.3410(3)
N31A N -0.2029(4) 0.7265(5) -0.3869(4)
C98A C -0.2731(4) 0.7721(5) -0.4153(4)
C99A C -0.3060(3) 0.7340(6) -0.3870(4)
H81A H -0.3531 0.7517 -0.3970
C100A C -0.2562(5) 0.6649(5) -0.3411(4)
H82A H -0.2641 0.6281 -0.3150
C101A C -0.1289(7) 0.6034(8) -0.3052(6)
H83A H -0.1007 0.6240 -0.3027
H84A H -0.1339 0.5782 -0.2665
N32A N -0.0914(7) 0.8496(7) 0.1597(7)
C102A C -0.1310(8) 0.8610(8) 0.1979(6)
C103A C -0.1659(7) 0.9302(9) 0.1956(6)
H85A H -0.1930 0.9379 0.2217
C104A C -0.1610(7) 0.9881(7) 0.1550(7)
H86A H -0.1848 1.0354 0.1534
C105A C -0.1214(8) 0.9768(7) 0.1168(6)
H87A H -0.1181 1.0164 0.0891
C106A C -0.0866(7) 0.9076(9) 0.1191(6)
H88A H -0.0595 0.8998 0.0930
N33A N -0.1120(7) 0.6750(7) 0.2735(7)
N34A N -0.0965(7) 0.7259(9) 0.2338(6)
C107A C -0.1268(8) 0.7902(7) 0.2411(7)
C108A C -0.1610(8) 0.7790(8) 0.2853(7)
H89A H -0.1857 0.8132 0.2990
C109A C -0.1519(8) 0.7078(9) 0.3053(6)
H90A H -0.1695 0.6859 0.3348
C110A C -0.0840(7) 0.6080(9) 0.2760(6)
H91A H -0.0869 0.6134 0.2372
H92A H -0.1090 0.5838 0.2952
N35A N -0.0263(5) 0.4967(6) -0.2972(3)
C111A C -0.0940(5) 0.5482(5) -0.3270(4)
C112A C -0.1232(4) 0.5406(6) -0.3675(4)
H93A H -0.1695 0.5758 -0.3878
C113A C -0.0847(5) 0.4814(6) -0.3783(4)
H94A H -0.1046 0.4762 -0.4060
C114A C -0.0170(5) 0.4299(5) -0.3485(4)
H95A H 0.0093 0.3895 -0.3559
C115A C -0.0122(4) 0.5625(5) 0.3080(4)
N36A N -0.2185(4) 0.3404(5) 0.2062(3)
C116A C -0.1877(4) 0.3792(5) 0.2060(3)
C117A C -0.2033(5) 0.4153(5) 0.2389(4)
H96A H -0.1822 0.4419 0.2388
C118A C -0.2496(5) 0.4127(5) 0.2719(3)
H97A H -0.2603 0.4374 0.2943
C119A C -0.2804(4) 0.3739(5) 0.2720(3)
H98A H -0.3121 0.3721 0.2945
C120A C -0.2649(4) 0.3377(5) 0.2391(3)
H99A H -0.2859 0.3112 0.2392
N37A N -0.0732(4) 0.3376(5) 0.1192(3)
N38A N -0.1195(4) 0.3277(5) 0.1520(3)
C121A C -0.1424(4) 0.3790(5) 0.1737(4)
C122A C -0.1103(5) 0.4205(5) 0.1543(4)
H100A H -0.1164 0.4588 0.1625
C123A C -0.0676(4) 0.3950(5) 0.1206(4)
H101A H -0.0400 0.4131 0.1022
C124A C -0.0355(7) 0.2935(8) 0.0925(5)
H102A H 0.0061 0.2958 0.0872
H103A H -0.0213 0.2412 0.1174
N39A N -0.1699(4) 0.8070(5) 0.1108(4)
C125A C -0.1860(4) 0.8645(6) 0.0567(4)
C126A C -0.2538(5) 0.9173(5) 0.0278(4)
H104A H -0.2649 0.9566 -0.0092
C127A C -0.3054(4) 0.9126(5) 0.0529(4)
H105A H -0.3517 0.9487 0.0331
C128A C -0.2893(4) 0.8551(6) 0.1069(4)
H106A H -0.3245 0.8519 0.1240
C129A C -0.2215(5) 0.8023(5) 0.1358(3)
H107A H -0.2104 0.7630 0.1728
N40A N -0.0185(4) 0.8146(5) 0.0351(4)
N41A N -0.0646(5) 0.8055(5) 0.0685(3)
C130A C -0.1318(4) 0.8620(6) 0.0349(5)
C131A C -0.1273(4) 0.9059(5) -0.0192(4)
H108A H -0.1646 0.9476 -0.0501
C132A C -0.0573(5) 0.8766(6) -0.0191(4)
H109A H -0.0395 0.8952 -0.0499
C133A C 0.0510(6) 0.7702(8) 0.0554(7)
H110A H 0.0715 0.8012 0.0416
H111A H 0.0626 0.7462 0.0974
N42A N -0.0490(4) 0.2706(4) 0.0163(4)
C134A C -0.0770(5) 0.3205(5) 0.0377(3)
C135A C -0.1370(5) 0.3883(5) 0.0063(4)
H112A H -0.1562 0.4223 0.0210
C136A C -0.1691(4) 0.4061(4) -0.0465(4)
H113A H -0.2101 0.4525 -0.0680
C137A C -0.1411(5) 0.3563(6) -0.0680(3)
H114A H -0.1630 0.3685 -0.1041
C138A C 0.0810(5) 0.7115(5) 0.0366(4)
Cl1 Cl 0.1180(4) 0.0927(5) 0.2084(4)
O1 O 0.0532(6) 0.0986(9) 0.2001(7)
O2 O 0.1541(7) 0.0732(9) 0.1685(6)
O3 O 0.1059(8) 0.1642(6) 0.1985(7)
O4 O 0.1578(7) 0.0385(7) 0.2654(5)
Cl3 Cl 0.3033(3) 0.4357(3) 0.2017(2)
O9 O 0.2448(5) 0.4288(6) 0.1954(5)
O10 O 0.3632(5) 0.3736(8) 0.2047(9)
O11 O 0.3097(9) 0.4415(12) 0.2534(6)
O12 O 0.2914(9) 0.5031(7) 0.1541(6)
Cl4 Cl 0.5207(4) 0.4803(4) 0.1067(3)
O16 O 0.5818(6) 0.4344(7) 0.1524(5)
O17 O 0.4659(6) 0.4744(8) 0.1279(6)
O18 O 0.5347(7) 0.4558(8) 0.0640(5)
O19 O 0.5040(7) 0.5562(6) 0.0819(6)
Cl6 Cl 0.5150(3) 0.1609(3) 0.4469(2)
O24 O 0.4792(5) 0.1430(6) 0.4179(4)
O25 O 0.5711(13) 0.0915(9) 0.4889(13)
O26 O 0.535(2) 0.205(2) 0.4031(9)
O27 O 0.4656(11) 0.203(2) 0.4702(16)
Cl7 Cl -0.2255(2) 0.5957(2) 0.21409(17)
O31 O -0.1619(4) 0.5501(5) 0.2063(4)
O32 O -0.2799(5) 0.6058(16) 0.1781(11)
O33 O -0.2273(9) 0.5602(11) 0.2725(5)
O34 O -0.2348(10) 0.6665(8) 0.1999(14)
Cl8 Cl 0.2134(2) 0.0647(2) 0.66013(18)
O38 O 0.1973(5) 0.1326(5) 0.6119(4)
O39 O 0.2337(9) 0.0672(9) 0.7110(4)
O40 O 0.1590(7) 0.0534(8) 0.6645(7)
O41 O 0.2729(7) 0.0037(6) 0.6587(7)
loop_
_geom_bond_atom_site_label_1
_geom_bond_atom_site_label_2
_geom_bond_site_symmetry_1
_geom_bond_site_symmetry_2
Zn1 N1 1_555 1_555
Zn2 N4 1_555 1_555
Zn3 N11 1_555 1_555
Zn4 N18 1_555 1_555
N1 C1 1_555 1_555
C1 C2 1_555 1_555
C2 H1 1_555 1_555
C3 C2 1_555 1_555
H2 C3 1_555 1_555
C4 C3 1_555 1_555
H3 C4 1_555 1_555
C5 N1 1_555 1_555
H4 C5 1_555 1_555
N2 N3 1_555 1_555
N3 Zn1 1_555 1_555
C6 C1 1_555 1_555
C7 C6 1_555 1_555
H5 C7 1_555 1_555
C8 N2 1_555 1_555
H6 C8 1_555 1_555
C9 N2 1_555 1_555
H7 C9 1_555 1_555
H8 C9 1_555 1_555
N4 C10 1_555 1_555
C10 C11 1_555 1_555
C11 H9 1_555 1_555
C12 C11 1_555 1_555
H10 C12 1_555 1_555
C13 C12 1_555 1_555
H11 C13 1_555 1_555
C14 N4 1_555 1_555
H12 C14 1_555 1_555
N5 N6 1_555 1_555
N6 Zn2 1_555 1_555
C15 C10 1_555 1_555
C16 C15 1_555 1_555
H13 C16 1_555 1_555
C17 N5 1_555 1_555
H14 C17 1_555 1_555
C18 N5 1_555 1_555
H15 C18 1_555 1_555
H16 C18 1_555 1_555
N7 C19 1_555 1_555
C19 C9 1_555 1_555
C20 C19 1_555 1_555
H17 C20 1_555 1_555
C21 C20 1_555 1_555
H18 C21 1_555 1_555
C22 C21 1_555 1_555
H19 C22 1_555 1_555
C23 C18 1_555 1_555
N8 Zn1 1_555 1_555
C24 N8 1_555 1_555
C25 C24 1_555 1_555
H20 C25 1_555 1_555
C26 C25 1_555 1_555
H21 C26 1_555 1_555
C27 C26 1_555 1_555
H22 C27 1_555 1_555
C28 N8 1_555 1_555
H23 C28 1_555 1_555
N9 N10 1_555 1_555
N10 Zn1 1_555 1_555
C29 C24 1_555 1_555
C30 C29 1_555 1_555
H24 C30 1_555 1_555
C31 N9 1_555 1_555
H25 C31 1_555 1_555
C32 N9 1_555 1_555
H26 C32 1_555 1_555
H27 C32 1_555 1_555
N11 C33 1_555 1_555
C33 C34 1_555 1_555
C34 H28 1_555 1_555
C35 C34 1_555 1_555
H29 C35 1_555 1_555
C36 C35 1_555 1_555
H30 C36 1_555 1_555
C37 N11 1_555 1_555
H31 C37 1_555 1_555
N12 N13 1_555 1_555
N13 Zn3 1_555 1_555
C38 C33 1_555 1_555
C39 C38 1_555 1_555
H32 C39 1_555 1_555
C40 N12 1_555 1_555
H33 C40 1_555 1_555
C41 N12 1_555 1_555
H34 C41 1_555 1_555
H35 C41 1_555 1_555
N14 C42 1_555 1_555
C42 C32 1_555 1_555
C43 C42 1_555 1_555
H36 C43 1_555 1_555
C44 C43 1_555 1_555
H37 C44 1_555 1_555
C45 C44 1_555 1_555
H38 C45 1_555 1_555
C46 C41 1_555 1_555
N15 Zn1 1_555 1_555
C47 N15 1_555 1_555
C48 C47 1_555 1_555
H39 C48 1_555 1_555
C49 C48 1_555 1_555
H40 C49 1_555 1_555
C50 C49 1_555 1_555
H41 C50 1_555 1_555
C51 N15 1_555 1_555
H42 C51 1_555 1_555
N16 N17 1_555 1_555
N17 Zn1 1_555 1_555
C52 C47 1_555 1_555
C53 C52 1_555 1_555
H43 C53 1_555 1_555
C54 N16 1_555 1_555
H44 C54 1_555 1_555
C55 N16 1_555 1_555
H45 C55 1_555 1_555
H46 C55 1_555 1_555
N18 C56 1_555 1_555
C56 C57 1_555 1_555
C57 H47 1_555 1_555
C58 C57 1_555 1_555
H48 C58 1_555 1_555
C59 C58 1_555 1_555
H49 C59 1_555 1_555
C60 N18 1_555 1_555
H50 C60 1_555 1_555
N19 N20 1_555 1_555
N20 Zn4 1_555 1_555
C61 C56 1_555 1_555
C62 C61 1_555 1_555
H51 C62 1_555 1_555
C63 N19 1_555 1_555
H52 C63 1_555 1_555
C64 N19 1_555 1_555
H53 C64 1_555 1_555
H54 C64 1_555 1_555
N21 C65 1_555 1_555
C65 C55 1_555 1_555
C66 C65 1_555 1_555
H55 C66 1_555 1_555
C67 C66 1_555 1_555
H56 C67 1_555 1_555
C68 C67 1_555 1_555
H57 C68 1_555 1_555
C69 C64 1_555 1_555
N22 Zn2 1_555 1_555
C70 N22 1_555 1_555
C71 C70 1_555 1_555
H58 C71 1_555 1_555
C72 C71 1_555 1_555
H59 C72 1_555 1_555
C73 C72 1_555 1_555
H60 C73 1_555 1_555
C74 N22 1_555 1_555
H61 C74 1_555 1_555
N23 N24 1_555 1_555
N24 Zn2 1_555 1_555
C75 C70 1_555 1_555
C76 C75 1_555 1_555
H62 C76 1_555 1_555
C77 N23 1_555 1_555
H63 C77 1_555 1_555
C78 N23 1_555 1_555
H64 C78 1_555 1_555
H65 C78 1_555 1_555
N25 Zn3 1_555 1_555
C79 N25 1_555 1_555
C80 C79 1_555 1_555
H66 C80 1_555 1_555
C81 C80 1_555 1_555
H67 C81 1_555 1_555
C82 C81 1_555 1_555
H68 C82 1_555 1_555
C83 N25 1_555 1_555
H69 C83 1_555 1_555
N26 N27 1_555 1_555
N27 Zn3 1_555 1_555
C84 C79 1_555 1_555
C85 C84 1_555 1_555
H70 C85 1_555 1_555
C86 N26 1_555 1_555
H71 C86 1_555 1_555
C87 N26 1_555 1_555
H72 C87 1_555 1_555
H73 C87 1_555 1_555
N28 C88 1_555 1_555
C88 C78 1_555 1_555
C89 C88 1_555 1_555
H74 C89 1_555 1_555
C90 C89 1_555 1_555
H75 C90 1_555 1_555
C91 C90 1_555 1_555
H76 C91 1_555 1_555
C92 C87 1_555 1_555
N29 Zn2 1_555 1_555
C93 N29 1_555 1_555
C94 C93 1_555 1_555
H77 C94 1_555 1_555
C95 C94 1_555 1_555
H78 C95 1_555 1_555
C96 C95 1_555 1_555
H79 C96 1_555 1_555
C97 N29 1_555 1_555
H80 C97 1_555 1_555
N30 N31 1_555 1_555
N31 Zn2 1_555 1_555
C98 C93 1_555 1_555
C99 C98 1_555 1_555
H81 C99 1_555 1_555
C100 N30 1_555 1_555
H82 C100 1_555 1_555
C101 N30 1_555 1_555
H83 C101 1_555 1_555
H84 C101 1_555 1_555
N32 Zn4 1_555 1_555
C102 N32 1_555 1_555
C103 C102 1_555 1_555
H85 C103 1_555 1_555
C104 C103 1_555 1_555
H86 C104 1_555 1_555
C105 C104 1_555 1_555
H87 C105 1_555 1_555
C106 N32 1_555 1_555
H88 C106 1_555 1_555
N33 N34 1_555 1_555
N34 Zn4 1_555 1_555
C107 C102 1_555 1_555
C108 C107 1_555 1_555
H89 C108 1_555 1_555
C109 N33 1_555 1_555
H90 C109 1_555 1_555
C110 N33 1_555 1_555
H91 C110 1_555 1_555
H92 C110 1_555 1_555
N35 C111 1_555 1_555
C111 C101 1_555 1_555
C112 C111 1_555 1_555
H93 C112 1_555 1_555
C113 C112 1_555 1_555
H94 C113 1_555 1_555
C114 C113 1_555 1_555
H95 C114 1_555 1_555
C115 C110 1_555 1_555
N36 Zn3 1_555 1_555
C116 N36 1_555 1_555
C117 C116 1_555 1_555
H96 C117 1_555 1_555
C118 C117 1_555 1_555
H97 C118 1_555 1_555
C119 C118 1_555 1_555
H98 C119 1_555 1_555
C120 N36 1_555 1_555
H99 C120 1_555 1_555
N37 N38 1_555 1_555
N38 Zn3 1_555 1_555
C121 C116 1_555 1_555
C122 C121 1_555 1_555
H100 C122 1_555 1_555
C123 N37 1_555 1_555
H101 C123 1_555 1_555
C124 N37 1_555 1_555
H102 C124 1_555 1_555
H103 C124 1_555 1_555
N39 Zn4 1_555 1_555
C125 N39 1_555 1_555
C126 C125 1_555 1_555
H104 C126 1_555 1_555
C127 C126 1_555 1_555
H105 C127 1_555 1_555
C128 C127 1_555 1_555
H106 C128 1_555 1_555
C129 N39 1_555 1_555
H107 C129 1_555 1_555
N40 N41 1_555 1_555
N41 Zn4 1_555 1_555
C130 C125 1_555 1_555
C131 C130 1_555 1_555
H108 C131 1_555 1_555
C132 N40 1_555 1_555
H109 C132 1_555 1_555
C133 N40 1_555 1_555
H110 C133 1_555 1_555
H111 C133 1_555 1_555
N42 C134 1_555 1_555
C134 C124 1_555 1_555
C135 C134 1_555 1_555
H112 C135 1_555 1_555
C136 C135 1_555 1_555
H113 C136 1_555 1_555
C137 C136 1_555 1_555
H114 C137 1_555 1_555
C138 C133 1_555 1_555
Cl1 O1 1_555 1_555
O2 Cl1 1_555 1_555
O3 Cl1 1_555 1_555
O4 Cl1 1_555 1_555
Cl3 O9 1_555 1_555
O10 Cl3 1_555 1_555
O11 Cl3 1_555 1_555
O12 Cl3 1_555 1_555
Cl4 O16 1_555 1_555
O17 Cl4 1_555 1_555
O18 Cl4 1_555 1_555
O19 Cl4 1_555 1_555
Cl6 O24 1_555 1_555
O25 Cl6 1_555 1_555
O26 Cl6 1_555 1_555
O27 Cl6 1_555 1_555
Cl7 O31 1_555 1_555
O32 Cl7 1_555 1_555
O33 Cl7 1_555 1_555
O34 Cl7 1_555 1_555
Cl8 O38 1_555 1_555
O39 Cl8 1_555 1_555
O40 Cl8 1_555 1_555
O41 Cl8 1_555 1_555
Zn1A N1A 1_555 1_555
Zn2A N4A 1_555 1_555
Zn3A N11A 1_555 1_555
Zn4A N18A 1_555 1_555
N1A C1A 1_555 1_555
C1A C2A 1_555 1_555
C2A H1A 1_555 1_555
C3A C2A 1_555 1_555
H2A C3A 1_555 1_555
C4A C3A 1_555 1_555
H3A C4A 1_555 1_555
C5A N1A 1_555 1_555
H4A C5A 1_555 1_555
N2A N3A 1_555 1_555
N3A Zn1A 1_555 1_555
C6A C1A 1_555 1_555
C7A C6A 1_555 1_555
H5A C7A 1_555 1_555
C8A N2A 1_555 1_555
H6A C8A 1_555 1_555
C9A N2A 1_555 1_555
H7A C9A 1_555 1_555
H8A C9A 1_555 1_555
N4A C10A 1_555 1_555
C10A C11A 1_555 1_555
C11A H9A 1_555 1_555
C12A C11A 1_555 1_555
H10A C12A 1_555 1_555
C13A C12A 1_555 1_555
H11A C13A 1_555 1_555
C14A N4A 1_555 1_555
H12A C14A 1_555 1_555
N5A N6A 1_555 1_555
N6A Zn2A 1_555 1_555
C15A C10A 1_555 1_555
C16A C15A 1_555 1_555
H13A C16A 1_555 1_555
C17A N5A 1_555 1_555
H14A C17A 1_555 1_555
C18A N5A 1_555 1_555
H15A C18A 1_555 1_555
H16A C18A 1_555 1_555
N7A C19A 1_555 1_555
C19A C9A 1_555 1_555
C20A C19A 1_555 1_555
H17A C20A 1_555 1_555
C21A C20A 1_555 1_555
H18A C21A 1_555 1_555
C22A C21A 1_555 1_555
H19A C22A 1_555 1_555
C23A C18A 1_555 1_555
N8A Zn1A 1_555 1_555
C24A N8A 1_555 1_555
C25A C24A 1_555 1_555
H20A C25A 1_555 1_555
C26A C25A 1_555 1_555
H21A C26A 1_555 1_555
C27A C26A 1_555 1_555
H22A C27A 1_555 1_555
C28A N8A 1_555 1_555
H23A C28A 1_555 1_555
N9A N10A 1_555 1_555
N10A Zn1A 1_555 1_555
C29A C24A 1_555 1_555
C30A C29A 1_555 1_555
H24A C30A 1_555 1_555
C31A N9A 1_555 1_555
H25A C31A 1_555 1_555
C32A N9A 1_555 1_555
H26A C32A 1_555 1_555
H27A C32A 1_555 1_555
N11A C33A 1_555 1_555
C33A C34A 1_555 1_555
C34A H28A 1_555 1_555
C35A C34A 1_555 1_555
H29A C35A 1_555 1_555
C36A C35A 1_555 1_555
H30A C36A 1_555 1_555
C37A N11A 1_555 1_555
H31A C37A 1_555 1_555
N12A N13A 1_555 1_555
N13A Zn3A 1_555 1_555
C38A C33A 1_555 1_555
C39A C38A 1_555 1_555
H32A C39A 1_555 1_555
C40A N12A 1_555 1_555
H33A C40A 1_555 1_555
C41A N12A 1_555 1_555
H34A C41A 1_555 1_555
H35A C41A 1_555 1_555
N14A C42A 1_555 1_555
C42A C32A 1_555 1_555
C43A C42A 1_555 1_555
H36A C43A 1_555 1_555
C44A C43A 1_555 1_555
H37A C44A 1_555 1_555
C45A C44A 1_555 1_555
H38A C45A 1_555 1_555
C46A C41A 1_555 1_555
N15A Zn1A 1_555 1_555
C47A N15A 1_555 1_555
C48A C47A 1_555 1_555
H39A C48A 1_555 1_555
C49A C48A 1_555 1_555
H40A C49A 1_555 1_555
C50A C49A 1_555 1_555
H41A C50A 1_555 1_555
C51A N15A 1_555 1_555
H42A C51A 1_555 1_555
N16A N17A 1_555 1_555
N17A Zn1A 1_555 1_555
C52A C47A 1_555 1_555
C53A C52A 1_555 1_555
H43A C53A 1_555 1_555
C54A N16A 1_555 1_555
H44A C54A 1_555 1_555
C55A N16A 1_555 1_555
H45A C55A 1_555 1_555
H46A C55A 1_555 1_555
N18A C56A 1_555 1_555
C56A C57A 1_555 1_555
C57A H47A 1_555 1_555
C58A C57A 1_555 1_555
H48A C58A 1_555 1_555
C59A C58A 1_555 1_555
H49A C59A 1_555 1_555
C60A N18A 1_555 1_555
H50A C60A 1_555 1_555
N19A N20A 1_555 1_555
N20A Zn4A 1_555 1_555
C61A C56A 1_555 1_555
C62A C61A 1_555 1_555
H51A C62A 1_555 1_555
C63A N19A 1_555 1_555
H52A C63A 1_555 1_555
C64A N19A 1_555 1_555
H53A C64A 1_555 1_555
H54A C64A 1_555 1_555
N21A C65A 1_555 1_555
C65A C55A 1_555 1_555
C66A C65A 1_555 1_555
H55A C66A 1_555 1_555
C67A C66A 1_555 1_555
H56A C67A 1_555 1_555
C68A C67A 1_555 1_555
H57A C68A 1_555 1_555
C69A C64A 1_555 1_555
N22A Zn2A 1_555 1_555
C70A N22A 1_555 1_555
C71A C70A 1_555 1_555
H58A C71A 1_555 1_555
C72A C71A 1_555 1_555
H59A C72A 1_555 1_555
C73A C72A 1_555 1_555
H60A C73A 1_555 1_555
C74A N22A 1_555 1_555
H61A C74A 1_555 1_555
N23A N24A 1_555 1_555
N24A Zn2A 1_555 1_555
C75A C70A 1_555 1_555
C76A C75A 1_555 1_555
H62A C76A 1_555 1_555
C77A N23A 1_555 1_555
H63A C77A 1_555 1_555
C78A N23A 1_555 1_555
H64A C78A 1_555 1_555
H65A C78A 1_555 1_555
N25A Zn3A 1_555 1_555
C79A N25A 1_555 1_555
C80A C79A 1_555 1_555
H66A C80A 1_555 1_555
C81A C80A 1_555 1_555
H67A C81A 1_555 1_555
C82A C81A 1_555 1_555
H68A C82A 1_555 1_555
C83A N25A 1_555 1_555
H69A C83A 1_555 1_555
N26A N27A 1_555 1_555
N27A Zn3A 1_555 1_555
C84A C79A 1_555 1_555
C85A C84A 1_555 1_555
H70A C85A 1_555 1_555
C86A N26A 1_555 1_555
H71A C86A 1_555 1_555
C87A N26A 1_555 1_555
H72A C87A 1_555 1_555
H73A C87A 1_555 1_555
N28A C92 1_555 1_555
C88A C78A 1_555 1_555
C89A C88A 1_555 1_555
H74A C89A 1_555 1_555
C90A C89A 1_555 1_555
H75A C90A 1_555 1_555
C91A C92 1_555 1_555
H76A C91A 1_555 1_555
C92A N28 1_555 1_555
N29A Zn2A 1_555 1_555
C93A N29A 1_555 1_555
C94A C93A 1_555 1_555
H77A C94A 1_555 1_555
C95A C94A 1_555 1_555
H78A C95A 1_555 1_555
C96A C95A 1_555 1_555
H79A C96A 1_555 1_555
C97A N29A 1_555 1_555
H80A C97A 1_555 1_555
N30A N31A 1_555 1_555
N31A Zn2A 1_555 1_555
C98A C93A 1_555 1_555
C99A C98A 1_555 1_555
H81A C99A 1_555 1_555
C100A N30A 1_555 1_555
H82A C100A 1_555 1_555
C101A N30A 1_555 1_555
H83A C101A 1_555 1_555
H84A C101A 1_555 1_555
N32A Zn4A 1_555 1_555
C102A N32A 1_555 1_555
C103A C102A 1_555 1_555
H85A C103A 1_555 1_555
C104A C103A 1_555 1_555
H86A C104A 1_555 1_555
C105A C104A 1_555 1_555
H87A C105A 1_555 1_555
C106A N32A 1_555 1_555
H88A C106A 1_555 1_555
N33A N34A 1_555 1_555
N34A Zn4A 1_555 1_555
C107A C102A 1_555 1_555
C108A C107A 1_555 1_555
H89A C108A 1_555 1_555
C109A N33A 1_555 1_555
H90A C109A 1_555 1_555
C110A N33A 1_555 1_555
H91A C110A 1_555 1_555
H92A C110A 1_555 1_555
N35A C115 1_555 1_555
C111A C101A 1_555 1_555
C112A C111A 1_555 1_555
H93A C112A 1_555 1_555
C113A C112A 1_555 1_555
H94A C113A 1_555 1_555
C114A C115 1_555 1_555
H95A C114A 1_555 1_555
C115A N35 1_555 1_555
N36A Zn3A 1_555 1_555
C116A N36A 1_555 1_555
C117A C116A 1_555 1_555
H96A C117A 1_555 1_555
C118A C117A 1_555 1_555
H97A C118A 1_555 1_555
C119A C118A 1_555 1_555
H98A C119A 1_555 1_555
C120A N36A 1_555 1_555
H99A C120A 1_555 1_555
N37A N38A 1_555 1_555
N38A Zn3A 1_555 1_555
C121A C116A 1_555 1_555
C122A C121A 1_555 1_555
H100A C122A 1_555 1_555
C123A N37A 1_555 1_555
H101A C123A 1_555 1_555
C124A N37A 1_555 1_555
H102A C124A 1_555 1_555
H103A C124A 1_555 1_555
N39A Zn4A 1_555 1_555
C125A N39A 1_555 1_555
C126A C125A 1_555 1_555
H104A C126A 1_555 1_555
C127A C126A 1_555 1_555
H105A C127A 1_555 1_555
C128A C127A 1_555 1_555
H106A C128A 1_555 1_555
C129A N39A 1_555 1_555
H107A C129A 1_555 1_555
N40A N41A 1_555 1_555
N41A Zn4A 1_555 1_555
C130A C125A 1_555 1_555
C131A C130A 1_555 1_555
H108A C131A 1_555 1_555
C132A N40A 1_555 1_555
H109A C132A 1_555 1_555
C133A N40A 1_555 1_555
H110A C133A 1_555 1_555
H111A C133A 1_555 1_555
N42A C138 1_555 1_555
C134A C124A 1_555 1_555
C135A C134A 1_555 1_555
H112A C135A 1_555 1_555
C136A C135A 1_555 1_555
H113A C136A 1_555 1_555
C137A C138 1_555 1_555
H114A C137A 1_555 1_555
C138A N42 1_555 1_555
C4 C5 1_555 1_555
N3 C6 1_555 1_555
C7 C8 1_555 1_555
C13 C14 1_555 1_555
N6 C15 1_555 1_555
C16 C17 1_555 1_555
N7 C23 1_555 1_555
C22 C23 1_555 1_555
C27 C28 1_555 1_555
N10 C29 1_555 1_555
C30 C31 1_555 1_555
C36 C37 1_555 1_555
N13 C38 1_555 1_555
C39 C40 1_555 1_555
N14 C46 1_555 1_555
C45 C46 1_555 1_555
C50 C51 1_555 1_555
N17 C52 1_555 1_555
C53 C54 1_555 1_555
C59 C60 1_555 1_555
N20 C61 1_555 1_555
C62 C63 1_555 1_555
N21 C69 1_555 1_555
C68 C69 1_555 1_555
C73 C74 1_555 1_555
N24 C75 1_555 1_555
C76 C77 1_555 1_555
C82 C83 1_555 1_555
N27 C84 1_555 1_555
C85 C86 1_555 1_555
C91 C92A 1_555 1_555
C96 C97 1_555 1_555
N31 C98 1_555 1_555
C99 C100 1_555 1_555
C105 C106 1_555 1_555
N34 C107 1_555 1_555
C108 C109 1_555 1_555
C114 C115A 1_555 1_555
C119 C120 1_555 1_555
N38 C121 1_555 1_555
C122 C123 1_555 1_555
C128 C129 1_555 1_555
N41 C130 1_555 1_555
C131 C132 1_555 1_555
C137 C138A 1_555 1_555
C4A C5A 1_555 1_555
N3A C6A 1_555 1_555
C7A C8A 1_555 1_555
C13A C14A 1_555 1_555
N6A C15A 1_555 1_555
C16A C17A 1_555 1_555
N7A C23A 1_555 1_555
C22A C23A 1_555 1_555
C27A C28A 1_555 1_555
N10A C29A 1_555 1_555
C30A C31A 1_555 1_555
C36A C37A 1_555 1_555
N13A C38A 1_555 1_555
C39A C40A 1_555 1_555
N14A C46A 1_555 1_555
C45A C46A 1_555 1_555
C50A C51A 1_555 1_555
N17A C52A 1_555 1_555
C53A C54A 1_555 1_555
C59A C60A 1_555 1_555
N20A C61A 1_555 1_555
C62A C63A 1_555 1_555
N21A C69A 1_555 1_555
C68A C69A 1_555 1_555
C73A C74A 1_555 1_555
N24A C75A 1_555 1_555
C76A C77A 1_555 1_555
C82A C83A 1_555 1_555
N27A C84A 1_555 1_555
C85A C86A 1_555 1_555
C87A C92A 1_555 1_555
N28A C88A 1_555 1_555
C90A C91A 1_555 1_555
C96A C97A 1_555 1_555
N31A C98A 1_555 1_555
C99A C100A 1_555 1_555
C105A C106A 1_555 1_555
N34A C107A 1_555 1_555
C108A C109A 1_555 1_555
C110A C115A 1_555 1_555
N35A C111A 1_555 1_555
C113A C114A 1_555 1_555
C119A C120A 1_555 1_555
N38A C121A 1_555 1_555
C122A C123A 1_555 1_555
C128A C129A 1_555 1_555
N41A C130A 1_555 1_555
C131A C132A 1_555 1_555
C133A C138A 1_555 1_555
N42A C134A 1_555 1_555
C136A C137A 1_555 1_555

#END
