
#######################################################################
#
#                 Cambridge Crystallographic Data Centre
#                                CCDC 
#
#######################################################################
#
# If this CIF has been generated from an entry in the Cambridge 
# Structural Database, then it will include bibliographic, chemical, 
# crystal, experimental, refinement or atomic coordinate data resulting 
# from the CCDC's data processing and validation procedures.
#
#######################################################################

data_HABJIF
_chemical_formula_moiety         'C276 H228 Co8 N84 16+,16(B1 F4 1-)'
_chemical_name_systematic        
'dodecakis(\m~2~-2,6-bis((3-(pyridin-2-yl)-1H-pyrazol-1-yl)methyl)pyridine)-octa-cobalt(ii) hexadecakis(tetrafluoroborate) unknown solvate'
_symmetry_cell_setting           monoclinic
_symmetry_space_group_name_H-M   'P 21/n'
_symmetry_Int_Tables_number      14
_space_group_name_Hall           '-P 2yn'
loop_
_symmetry_equiv_pos_site_id
_symmetry_equiv_pos_as_xyz
1 x,y,z
2 1/2-x,1/2+y,1/2-z
3 -x,-y,-z
4 1/2+x,1/2-y,1/2+z
_cell_length_a                   19.5900(9)
_cell_length_b                   42.658(2)
_cell_length_c                   21.1943(9)
_cell_angle_alpha                90
_cell_angle_beta                 113.099(2)
_cell_angle_gamma                90
_cell_volume                     16291.5
_exptl_crystal_colour            orange
_exptl_crystal_description       block
_cell_formula_units_Z            2
loop_
_atom_site_label
_atom_site_type_symbol
_atom_site_fract_x
_atom_site_fract_y
_atom_site_fract_z
Co1 Co 1.39927(7) 0.32459(3) 0.63416(6)
Co2 Co 1.39681(6) 0.54749(3) 0.76948(5)
Co3 Co 0.92461(6) 0.34666(3) 0.67881(5)
Co4 Co 1.09548(6) 0.42778(3) 0.19816(5)
N1 N 1.4133(4) 0.29485(18) 0.5586(4)
C1 C 1.4249(5) 0.3100(2) 0.5079(4)
C2 C 1.4379(6) 0.2937(3) 0.4564(5)
H1 H 1.4470 0.3046 0.4214
C3 C 1.4372(8) 0.2611(3) 0.4577(7)
H2 H 1.4467 0.2494 0.4238
C4 C 1.4227(8) 0.2458(3) 0.5079(7)
H3 H 1.4213 0.2236 0.5088
C5 C 1.4103(7) 0.2631(3) 0.5567(6)
H4 H 1.3991 0.2524 0.5907
N2 N 1.4031(4) 0.38841(17) 0.5475(3)
N3 N 1.3990(4) 0.35741(17) 0.5559(3)
C6 C 1.4235(5) 0.3438(2) 0.5106(4)
C7 C 1.4440(5) 0.3666(2) 0.4748(4)
H5 H 1.4638 0.3634 0.4409
C8 C 1.4298(5) 0.3954(2) 0.4990(4)
H6 H 1.4372 0.4157 0.4843
C9 C 1.3734(5) 0.4108(2) 0.5833(4)
H7 H 1.3490 0.4282 0.5517
H8 H 1.3352 0.4001 0.5952
N4 N 1.4942(4) 0.57253(17) 0.8408(3)
C10 C 1.5337(4) 0.5561(2) 0.8989(4)
C11 C 1.5873(5) 0.5707(3) 0.9543(5)
H9 H 1.6148 0.5588 0.9941
C12 C 1.6017(6) 0.6018(3) 0.9530(5)
H10 H 1.6383 0.6117 0.9916
C13 C 1.5619(5) 0.6186(3) 0.8940(5)
H11 H 1.5708 0.6404 0.8912
C14 C 1.5088(5) 0.6032(2) 0.8395(4)
H12 H 1.4815 0.6148 0.7992
N5 N 1.4590(4) 0.48064(18) 0.8499(3)
N6 N 1.4614(4) 0.51190(17) 0.8395(3)
C15 C 1.5166(4) 0.5231(2) 0.8959(4)
C16 C 1.5488(6) 0.4992(2) 0.9434(5)
H13 H 1.5879 0.5008 0.9875
C17 C 1.5104(6) 0.4731(2) 0.9112(5)
H14 H 1.5191 0.4525 0.9298
C18 C 1.4128(5) 0.4605(2) 0.7956(4)
H15 H 1.3991 0.4419 0.8159
H16 H 1.3664 0.4718 0.7682
N7 N 1.4027(4) 0.43577(16) 0.6908(3)
C19 C 1.4320(5) 0.42415(19) 0.6480(4)
C20 C 1.5050(5) 0.4264(2) 0.6592(4)
H17 H 1.5231 0.4183 0.6269
C21 C 1.5518(5) 0.4407(3) 0.7177(5)
H18 H 1.6033 0.4424 0.7273
C22 C 1.5229(5) 0.4529(2) 0.7638(5)
H19 H 1.5542 0.4631 0.8048
C23 C 1.4498(5) 0.44976(19) 0.7483(4)
N8 N 1.3998(4) 0.28686(17) 0.7001(4)
C24 C 1.3363(6) 0.2708(2) 0.6831(5)
C25 C 1.3291(6) 0.2447(2) 0.7202(5)
H20 H 1.2837 0.2334 0.7058
C26 C 1.3881(7) 0.2358(3) 0.7768(6)
H21 H 1.3841 0.2184 0.8030
C27 C 1.4548(7) 0.2523(3) 0.7967(6)
H22 H 1.4967 0.2465 0.8364
C28 C 1.4577(6) 0.2773(2) 0.7566(5)
H23 H 1.5032 0.2884 0.7696
N9 N 1.2214(4) 0.31548(17) 0.5414(3)
N10 N 1.2850(4) 0.31057(17) 0.5970(3)
C29 C 1.2759(5) 0.2823(2) 0.6220(5)
C30 C 1.2081(5) 0.2699(2) 0.5818(5)
H24 H 1.1884 0.2504 0.5882
C31 C 1.1742(5) 0.2911(2) 0.5303(5)
H25 H 1.1268 0.2891 0.4940
C32 C 1.2081(5) 0.3451(2) 0.5045(4)
H26 H 1.1547 0.3504 0.4887
H27 H 1.2365 0.3618 0.5365
N11 N 1.1056(4) 0.41694(17) 0.1019(3)
C33 C 1.1758(6) 0.4152(2) 0.1058(4)
C34 C 1.1932(6) 0.4143(3) 0.0490(5)
H28 H 1.2435 0.4135 0.0539
C35 C 1.1358(7) 0.4148(3) -0.0162(5)
H29 H 1.1464 0.4148 -0.0562
C36 C 1.0639(7) 0.4152(3) -0.0211(5)
H30 H 1.0236 0.4147 -0.0647
C37 C 1.0509(6) 0.4166(2) 0.0397(4)
H31 H 1.0011 0.4172 0.0363
N12 N 1.2734(4) 0.41234(17) 0.2849(3)
N13 N 1.2107(4) 0.41515(16) 0.2273(3)
C38 C 1.2322(5) 0.4131(2) 0.1750(4)
C39 C 1.3094(5) 0.4099(3) 0.1999(6)
H32 H 1.3393 0.4092 0.1739
C40 C 1.3324(5) 0.4081(2) 0.2695(5)
H33 H 1.3818 0.4043 0.3013
C41 C 1.2685(5) 0.4096(2) 0.3519(4)
H34 H 1.3153 0.4171 0.3882
H35 H 1.2276 0.4229 0.3528
N14 N 1.2397(4) 0.37337(17) 0.4235(3)
C42 C 1.2294(5) 0.3451(2) 0.4428(4)
C43 C 1.2339(5) 0.3176(2) 0.4093(4)
H36 H 1.2290 0.2975 0.4264
C44 C 1.2459(6) 0.3213(2) 0.3494(5)
H37 H 1.2458 0.3033 0.3228
C45 C 1.2580(5) 0.3502(2) 0.3277(4)
H38 H 1.2683 0.3526 0.2878
C46 C 1.2546(5) 0.3754(2) 0.3663(4)
N15 N 1.5155(4) 0.33409(17) 0.6858(3)
C47 C 1.5354(5) 0.3526(2) 0.7435(4)
C48 C 1.6072(5) 0.3607(2) 0.7804(5)
H39 H 1.6188 0.3733 0.8201
C49 C 1.6627(5) 0.3512(2) 0.7621(5)
H40 H 1.7128 0.3570 0.7880
C50 C 1.6429(5) 0.3323(3) 0.7023(5)
H41 H 1.6798 0.3250 0.6873
C51 C 1.5702(5) 0.3248(2) 0.6670(5)
H42 H 1.5575 0.3123 0.6268
N16 N 1.3591(4) 0.36765(16) 0.7432(4)
N17 N 1.4040(4) 0.35724(16) 0.7131(3)
C52 C 1.4724(5) 0.3613(2) 0.7601(4)
C53 C 1.4713(6) 0.3750(2) 0.8188(5)
H43 H 1.5127 0.3807 0.8590
C54 C 1.3981(6) 0.3784(2) 0.8070(5)
H44 H 1.3784 0.3868 0.8378
C55 C 1.2786(5) 0.3694(2) 0.7048(5)
H45 H 1.2597 0.3885 0.7193
H46 H 1.2683 0.3716 0.6554
N18 N 0.8842(3) 0.31317(13) 0.7319(3)
C56 C 0.8899(4) 0.28217(15) 0.7144(4)
C57 C 0.8608(5) 0.25829(12) 0.7410(5)
H47 H 0.8647 0.2371 0.7289
C58 C 0.8261(5) 0.26541(19) 0.7852(5)
H48 H 0.8062 0.2491 0.8034
C59 C 0.8205(4) 0.2964(2) 0.8028(4)
H49 H 0.7968 0.3013 0.8330
C60 C 0.8495(4) 0.32029(15) 0.7762(3)
H50 H 0.8457 0.3415 0.7882
N19 N 1.0005(4) 0.2919(2) 0.6211(4)
N20 N 0.9650(4) 0.30285(17) 0.6600(4)
C61 C 0.9323(5) 0.2779(2) 0.6733(6)
C62 C 0.9461(7) 0.2509(3) 0.6430(8)
H51 H 0.9285 0.2303 0.6441
C63 C 0.9906(7) 0.2609(3) 0.6114(7)
H52 H 1.0112 0.2481 0.5867
C64 C 1.0542(5) 0.3123(3) 0.6078(5)
H53 H 1.0627 0.3040 0.5678
H54 H 1.0328 0.3336 0.5960
N21 N 1.1694(4) 0.33804(18) 0.6628(4)
C65 C 1.2373(5) 0.3414(2) 0.7145(5)
C66 C 1.2643(5) 0.3214(2) 0.7699(5)
H55 H 1.3129 0.3240 0.8041
C67 C 1.2187(6) 0.2975(3) 0.7745(5)
H56 H 1.2352 0.2838 0.8130
C68 C 1.1495(6) 0.2936(2) 0.7232(6)
H57 H 1.1177 0.2771 0.7252
C69 C 1.1271(5) 0.3144(2) 0.6681(5)
N22 N 1.3471(4) 0.56309(16) 0.8365(3)
C70 C 1.3259(4) 0.5931(2) 0.8277(4)
C71 C 1.3057(5) 0.6093(2) 0.8754(4)
H58 H 1.2893 0.6305 0.8676
C72 C 1.3103(5) 0.5937(2) 0.9337(4)
H59 H 1.3004 0.6046 0.9683
C73 C 1.3291(4) 0.5626(2) 0.9425(4)
H60 H 1.3296 0.5514 0.9813
C74 C 1.3474(4) 0.5482(2) 0.8928(4)
H61 H 1.3607 0.5266 0.8986
N23 N 1.3400(4) 0.61031(18) 0.6704(3)
N24 N 1.3472(3) 0.59066(16) 0.7236(3)
C75 C 1.3254(5) 0.6080(2) 0.7660(4)
C76 C 1.3041(5) 0.6383(2) 0.7383(5)
H62 H 1.2868 0.6551 0.7576
C77 C 1.3136(5) 0.6382(2) 0.6782(4)
H63 H 1.3032 0.6552 0.6468
C78 C 1.3552(5) 0.5997(2) 0.6119(4)
H64 H 1.3776 0.6172 0.5960
H65 H 1.3920 0.5825 0.6270
N25 N 1.0270(4) 0.35408(16) 0.7637(3)
C79 C 1.0740(4) 0.37430(19) 0.7524(4)
C80 C 1.1450(5) 0.3796(2) 0.8015(4)
H66 H 1.1770 0.3943 0.7931
C81 C 1.1687(5) 0.3630(2) 0.8632(4)
H67 H 1.2173 0.3660 0.8972
C82 C 1.1205(5) 0.3421(2) 0.8740(5)
H68 H 1.1353 0.3303 0.9152
C83 C 1.0506(5) 0.3387(2) 0.8236(4)
H69 H 1.0173 0.3247 0.8316
N26 N 0.9705(4) 0.39622(17) 0.5819(3)
N27 N 0.9809(3) 0.37900(16) 0.6382(3)
C84 C 1.0451(4) 0.38973(19) 0.6858(4)
C85 C 1.0734(5) 0.4139(2) 0.6595(4)
H70 H 1.1173 0.4257 0.6827
C86 C 1.0251(5) 0.4171(2) 0.5941(5)
H71 H 1.0290 0.4317 0.5619
C87 C 0.9072(5) 0.3909(2) 0.5173(4)
H72 H 0.9204 0.3981 0.4791
H73 H 0.8975 0.3681 0.5116
N28 N 1.2235(4) 0.60098(15) 0.5432(3)
C88 C 1.2868(5) 0.5882(2) 0.5521(4)
C89 C 1.2954(5) 0.5661(2) 0.5076(4)
H74 H 1.3425 0.5571 0.5162
C90 C 1.2347(6) 0.5576(2) 0.4516(4)
H75 H 1.2388 0.5429 0.4196
C91 C 1.1665(5) 0.5708(2) 0.4419(4)
H76 H 1.1230 0.5647 0.4040
C92 C 0.8370(5) 0.4072(2) 0.5121(4)
N29 N 1.4438(4) 0.53254(16) 0.7006(3)
C93 C 1.3981(4) 0.51526(18) 0.6468(4)
C94 C 1.4225(4) 0.5021(2) 0.5988(4)
H77 H 1.3902 0.4899 0.5614
C95 C 1.4958(5) 0.5074(2) 0.6080(4)
H78 H 1.5147 0.4986 0.5770
C96 C 1.5415(5) 0.5257(2) 0.6624(4)
H79 H 1.5914 0.5298 0.6687
C97 C 1.5130(5) 0.5375(2) 0.7068(4)
H80 H 1.5443 0.5500 0.7440
N30 N 1.2381(3) 0.51132(16) 0.6841(3)
N31 N 1.3106(3) 0.51938(15) 0.6997(3)
C98 C 1.3236(4) 0.51011(18) 0.6445(4)
C99 C 1.2623(5) 0.4966(2) 0.5956(4)
H81 H 1.2578 0.4883 0.5526
C100 C 1.2086(5) 0.4976(2) 0.6222(4)
H82 H 1.1592 0.4900 0.6006
C101 C 1.2031(4) 0.51594(19) 0.7323(4)
H83 H 1.1616 0.5009 0.7214
H84 H 1.2397 0.5110 0.7790
N32 N 1.1176(4) 0.47461(16) 0.1743(3)
C102 C 1.0600(5) 0.4887(2) 0.1270(4)
C103 C 1.0680(6) 0.5160(2) 0.0935(4)
H85 H 1.0257 0.5259 0.0601
C104 C 1.1370(6) 0.5282(2) 0.1094(5)
H86 H 1.1438 0.5463 0.0862
C105 C 1.1964(5) 0.5141(2) 0.1594(4)
H87 H 1.2448 0.5226 0.1721
C106 C 1.1858(5) 0.4873(2) 0.1911(4)
H88 H 1.2274 0.4776 0.2256
N33 N 0.9145(4) 0.43862(19) 0.1223(4)
N34 N 0.9872(4) 0.44705(17) 0.1441(3)
C107 C 0.9878(5) 0.4744(2) 0.1122(4)
C108 C 0.9147(5) 0.4837(2) 0.0700(4)
H89 H 0.8996 0.5020 0.0425
C109 C 0.8707(5) 0.4603(3) 0.0778(4)
H90 H 0.8181 0.4595 0.0558
C110 C 0.8900(5) 0.4113(2) 0.1481(4)
H91 H 0.8451 0.4027 0.1112
H92 H 0.9292 0.3950 0.1600
N35 N 1.1547(3) 0.55407(17) 0.7860(3)
C111 C 1.1738(4) 0.5484(2) 0.7327(4)
C112 C 1.1662(5) 0.5708(2) 0.6834(4)
H93 H 1.1800 0.5660 0.6462
C113 C 1.1393(5) 0.5995(2) 0.6877(5)
H94 H 1.1339 0.6150 0.6539
C114 C 1.1198(5) 0.6058(2) 0.7425(5)
H95 H 1.1015 0.6258 0.7476
C115 C 0.8727(5) 0.4176(2) 0.2105(4)
N36 N 0.8205(4) 0.34041(17) 0.5918(3)
C116 C 0.7630(5) 0.3557(2) 0.5966(4)
C117 C 0.6900(5) 0.3497(2) 0.5507(4)
H96 H 0.6500 0.3608 0.5548
C118 C 0.6765(5) 0.3280(2) 0.5006(5)
H97 H 0.6271 0.3235 0.4699
C119 C 0.7355(6) 0.3125(3) 0.4948(5)
H98 H 0.7277 0.2976 0.4594
C120 C 0.8061(5) 0.3191(2) 0.5416(5)
H99 H 0.8466 0.3081 0.5381
N37 N 0.8560(4) 0.40468(17) 0.7382(3)
N38 N 0.8540(4) 0.38229(17) 0.6925(3)
C121 C 0.7821(5) 0.3789(2) 0.6519(4)
C122 C 0.7383(5) 0.3984(2) 0.6704(5)
H100 H 0.6859 0.4005 0.6497
C123 C 0.7871(5) 0.4146(2) 0.7261(5)
H101 H 0.7742 0.4302 0.7514
C124 C 0.9276(5) 0.4155(2) 0.7904(4)
H102 H 0.9644 0.3984 0.7996
H103 H 0.9210 0.4198 0.8336
N39 N 1.0701(4) 0.38235(17) 0.2203(3)
C125 C 1.0642(4) 0.3786(2) 0.2814(4)
C126 C 1.0525(5) 0.3495(2) 0.3050(5)
H104 H 1.0469 0.3476 0.3473
C127 C 1.0492(6) 0.3236(3) 0.2655(5)
H105 H 1.0430 0.3033 0.2813
C128 C 1.0548(6) 0.3267(3) 0.2033(6)
H106 H 1.0505 0.3090 0.1747
C129 C 1.0669(5) 0.3566(2) 0.1831(5)
H107 H 1.0732 0.3588 0.1411
N40 N 1.0960(4) 0.45660(16) 0.3425(3)
N41 N 1.0915(4) 0.43355(17) 0.2958(3)
C130 C 1.0713(4) 0.4075(2) 0.3198(4)
C131 C 1.0615(5) 0.4139(2) 0.3807(4)
H108 H 1.0469 0.3996 0.4074
C132 C 1.0773(5) 0.4448(2) 0.3935(4)
H109 H 1.0757 0.4562 0.4313
C133 C 1.1218(5) 0.4878(2) 0.3368(4)
H110 H 1.1411 0.4977 0.3827
H111 H 1.1635 0.4862 0.3216
N42 N 0.9094(4) 0.46436(17) 0.7277(3)
C134 C 0.9575(5) 0.4439(2) 0.7708(4)
C135 C 1.0336(5) 0.4495(2) 0.7993(4)
H112 H 1.0665 0.4345 0.8290
C136 C 1.0609(5) 0.4772(2) 0.7839(4)
H113 H 1.1126 0.4814 0.8033
C137 C 1.0129(4) 0.4980(2) 0.7408(4)
H114 H 1.0305 0.5171 0.7297
C138 C 1.0619(5) 0.5089(2) 0.2868(4)
Co1B Co 0.60073(7) 0.67541(3) 0.36584(6)
Co2B Co 0.60319(6) 0.45251(3) 0.23052(5)
Co3B Co 1.07539(6) 0.65334(3) 0.32119(5)
Co4B Co 0.90452(6) 0.57222(3) 0.80184(5)
N1B N 0.5867(4) 0.70515(18) 0.4414(4)
C1B C 0.5751(5) 0.6900(2) 0.4921(4)
C2B C 0.5621(6) 0.7063(3) 0.5436(5)
H1B H 0.5530 0.6954 0.5786
C3B C 0.5628(8) 0.7389(3) 0.5423(7)
H2B H 0.5533 0.7506 0.5762
C4B C 0.5773(8) 0.7542(3) 0.4921(7)
H3B H 0.5787 0.7764 0.4912
C5B C 0.5897(7) 0.7369(3) 0.4433(6)
H4B H 0.6009 0.7476 0.4093
N2B N 0.5969(4) 0.61159(17) 0.4525(3)
N3B N 0.6010(4) 0.64259(17) 0.4441(3)
C6B C 0.5765(5) 0.6562(2) 0.4894(4)
C7B C 0.5560(5) 0.6334(2) 0.5252(4)
H5B H 0.5362 0.6366 0.5591
C8B C 0.5702(5) 0.6046(2) 0.5010(4)
H6B H 0.5628 0.5843 0.5157
C9B C 0.6266(5) 0.5892(2) 0.4167(4)
H7B H 0.6510 0.5718 0.4483
H8B H 0.6648 0.5999 0.4048
N4B N 0.5058(4) 0.42747(17) 0.1592(3)
C10B C 0.4663(4) 0.4439(2) 0.1011(4)
C11B C 0.4127(5) 0.4293(3) 0.0457(5)
H9B H 0.3852 0.4412 0.0059
C12B C 0.3983(6) 0.3982(3) 0.0470(5)
H10B H 0.3617 0.3883 0.0084
C13B C 0.4381(5) 0.3814(3) 0.1060(5)
H11B H 0.4292 0.3596 0.1088
C14B C 0.4912(5) 0.3968(2) 0.1605(4)
H12B H 0.5185 0.3852 0.2008
N5B N 0.5410(4) 0.51936(18) 0.1501(3)
N6B N 0.5386(4) 0.48810(17) 0.1605(3)
C15B C 0.4834(4) 0.4769(2) 0.1041(4)
C16B C 0.4512(6) 0.5008(2) 0.0566(5)
H13B H 0.4121 0.4992 0.0125
C17B C 0.4896(6) 0.5269(2) 0.0888(5)
H14B H 0.4809 0.5475 0.0702
C18B C 0.5872(5) 0.5395(2) 0.2044(4)
H15B H 0.6009 0.5581 0.1841
H16B H 0.6336 0.5282 0.2318
N7B N 0.5973(4) 0.56423(16) 0.3092(3)
C19B C 0.5680(5) 0.57585(19) 0.3520(4)
C20B C 0.4950(5) 0.5736(2) 0.3408(4)
H17B H 0.4769 0.5817 0.3731
C21B C 0.4482(5) 0.5593(3) 0.2823(5)
H18B H 0.3967 0.5576 0.2727
C22B C 0.4771(5) 0.5471(2) 0.2362(5)
H19B H 0.4458 0.5369 0.1952
C23B C 0.5502(5) 0.55024(19) 0.2517(4)
N8B N 0.6002(4) 0.71314(17) 0.2999(4)
C24B C 0.6637(6) 0.7292(2) 0.3169(5)
C25B C 0.6709(6) 0.7553(2) 0.2798(5)
H20B H 0.7163 0.7666 0.2942
C26B C 0.6119(7) 0.7642(3) 0.2232(6)
H21B H 0.6159 0.7816 0.1970
C27B C 0.5452(7) 0.7477(3) 0.2033(6)
H22B H 0.5033 0.7535 0.1636
C28B C 0.5423(6) 0.7227(2) 0.2434(5)
H23B H 0.4968 0.7116 0.2304
N9B N 0.7786(4) 0.68452(17) 0.4586(3)
N10B N 0.7150(4) 0.68943(17) 0.4030(3)
C29B C 0.7241(5) 0.7177(2) 0.3780(5)
C30B C 0.7919(5) 0.7301(2) 0.4182(5)
H24B H 0.8116 0.7496 0.4118
C31B C 0.8258(5) 0.7089(2) 0.4697(5)
H25B H 0.8732 0.7109 0.5060
C32B C 0.7919(5) 0.6549(2) 0.4955(4)
H26B H 0.8453 0.6496 0.5113
H27B H 0.7635 0.6382 0.4635
N11B N 0.8944(4) 0.58306(17) 0.8981(3)
C33B C 0.8242(6) 0.5848(2) 0.8942(4)
C34B C 0.8068(6) 0.5857(3) 0.9510(5)
H28B H 0.7565 0.5865 0.9461
C35B C 0.8642(7) 0.5852(3) 1.0162(5)
H29B H 0.8536 0.5852 1.0562
C36B C 0.9361(7) 0.5848(3) 1.0211(5)
H30B H 0.9764 0.5853 1.0647
C37B C 0.9491(6) 0.5834(2) 0.9603(4)
H31B H 0.9989 0.5828 0.9637
N12B N 0.7266(4) 0.58766(17) 0.7151(3)
N13B N 0.7893(4) 0.58485(16) 0.7727(3)
C38B C 0.7678(5) 0.5869(2) 0.8250(4)
C39B C 0.6906(5) 0.5901(3) 0.8001(6)
H32B H 0.6607 0.5908 0.8261
C40B C 0.6676(5) 0.5919(2) 0.7305(5)
H33B H 0.6182 0.5957 0.6987
C41B C 0.7315(5) 0.5904(2) 0.6481(4)
H34B H 0.6847 0.5829 0.6118
H35B H 0.7724 0.5771 0.6472
N14B N 0.7603(4) 0.62663(17) 0.5765(3)
C42B C 0.7706(5) 0.6549(2) 0.5572(4)
C43B C 0.7661(5) 0.6824(2) 0.5907(4)
H36B H 0.7710 0.7025 0.5736
C44B C 0.7541(6) 0.6787(2) 0.6506(5)
H37B H 0.7542 0.6967 0.6772
C45B C 0.7420(5) 0.6498(2) 0.6723(4)
H38B H 0.7317 0.6474 0.7122
C46B C 0.7454(5) 0.6246(2) 0.6337(4)
N15B N 0.4845(4) 0.66591(17) 0.3142(3)
C47B C 0.4646(5) 0.6474(2) 0.2565(4)
C48B C 0.3928(5) 0.6393(2) 0.2196(5)
H39B H 0.3812 0.6267 0.1799
C49B C 0.3373(5) 0.6488(2) 0.2379(5)
H40B H 0.2872 0.6430 0.2120
C50B C 0.3571(5) 0.6677(3) 0.2977(5)
H41B H 0.3202 0.6750 0.3127
C51B C 0.4298(5) 0.6752(2) 0.3330(5)
H42B H 0.4425 0.6877 0.3732
N16B N 0.6409(4) 0.63235(16) 0.2568(4)
N17B N 0.5960(4) 0.64276(16) 0.2869(3)
C52B C 0.5276(5) 0.6387(2) 0.2399(4)
C53B C 0.5287(6) 0.6250(2) 0.1812(5)
H43B H 0.4873 0.6193 0.1410
C54B C 0.6019(6) 0.6216(2) 0.1930(5)
H44B H 0.6216 0.6132 0.1622
C55B C 0.7214(5) 0.6306(2) 0.2952(5)
H45B H 0.7403 0.6115 0.2807
H46B H 0.7317 0.6284 0.3446
N18B N 1.1158(3) 0.68683(13) 0.2681(3)
C56B C 1.1101(4) 0.71783(15) 0.2856(4)
C57B C 1.1392(5) 0.74171(12) 0.2590(5)
H47B H 1.1353 0.7629 0.2711
C58B C 1.1739(5) 0.73459(19) 0.2148(5)
H48B H 1.1938 0.7509 0.1966
C59B C 1.1795(4) 0.7036(2) 0.1972(4)
H49B H 1.2032 0.6987 0.1670
C60B C 1.1505(4) 0.67971(15) 0.2238(3)
H50B H 1.1543 0.6585 0.2118
N19B N 0.9995(4) 0.7081(2) 0.3789(4)
N20B N 1.0350(4) 0.69715(17) 0.3400(4)
C61B C 1.0677(5) 0.7221(2) 0.3267(6)
C62B C 1.0539(7) 0.7491(3) 0.3570(8)
H51B H 1.0715 0.7697 0.3559
C63B C 1.0094(7) 0.7391(3) 0.3886(7)
H52B H 0.9888 0.7519 0.4133
C64B C 0.9458(5) 0.6877(3) 0.3922(5)
H53B H 0.9373 0.6960 0.4322
H54B H 0.9672 0.6664 0.4040
N21B N 0.8306(4) 0.66196(18) 0.3372(4)
C65B C 0.7627(5) 0.6586(2) 0.2855(5)
C66B C 0.7357(5) 0.6786(2) 0.2301(5)
H55B H 0.6871 0.6760 0.1959
C67B C 0.7813(6) 0.7025(3) 0.2255(5)
H56B H 0.7648 0.7162 0.1870
C68B C 0.8505(6) 0.7064(2) 0.2768(6)
H57B H 0.8823 0.7229 0.2748
C69B C 0.8729(5) 0.6856(2) 0.3319(5)
N22B N 0.6529(4) 0.43691(16) 0.1635(3)
C70B C 0.6741(4) 0.4069(2) 0.1723(4)
C71B C 0.6943(5) 0.3907(2) 0.1246(4)
H58B H 0.7107 0.3695 0.1324
C72B C 0.6897(5) 0.4063(2) 0.0663(4)
H59B H 0.6996 0.3954 0.0317
C73B C 0.6709(4) 0.4374(2) 0.0575(4)
H60B H 0.6704 0.4486 0.0187
C74B C 0.6526(4) 0.4518(2) 0.1072(4)
H61B H 0.6393 0.4734 0.1014
N23B N 0.6600(4) 0.38969(18) 0.3296(3)
N24B N 0.6528(3) 0.40934(16) 0.2764(3)
C75B C 0.6746(5) 0.3920(2) 0.2340(4)
C76B C 0.6959(5) 0.3617(2) 0.2617(5)
H62B H 0.7132 0.3449 0.2424
C77B C 0.6864(5) 0.3618(2) 0.3218(4)
H63B H 0.6968 0.3448 0.3532
C78B C 0.6448(5) 0.4003(2) 0.3881(4)
H64B H 0.6224 0.3828 0.4040
H65B H 0.6080 0.4175 0.3730
N25B N 0.9730(4) 0.64592(16) 0.2363(3)
C79B C 0.9260(4) 0.62570(19) 0.2476(4)
C80B C 0.8550(5) 0.6204(2) 0.1985(4)
H66B H 0.8230 0.6057 0.2069
C81B C 0.8313(5) 0.6370(2) 0.1368(4)
H67B H 0.7827 0.6340 0.1028
C82B C 0.8795(5) 0.6579(2) 0.1260(5)
H68B H 0.8647 0.6697 0.0848
C83B C 0.9494(5) 0.6613(2) 0.1764(4)
H69B H 0.9827 0.6753 0.1684
N26B N 1.0295(4) 0.60378(17) 0.4181(3)
N27B N 1.0191(3) 0.62100(16) 0.3618(3)
C84B C 0.9549(4) 0.61027(19) 0.3142(4)
C85B C 0.9266(5) 0.5861(2) 0.3405(4)
H70B H 0.8827 0.5743 0.3173
C86B C 0.9749(5) 0.5829(2) 0.4059(5)
H71B H 0.9710 0.5683 0.4381
C87B C 1.0928(5) 0.6091(2) 0.4827(4)
H72B H 1.0796 0.6019 0.5209
H73B H 1.1025 0.6319 0.4884
N28B N 0.7765(4) 0.39902(15) 0.4568(3)
C88B C 0.7132(5) 0.4118(2) 0.4479(4)
C89B C 0.7046(5) 0.4339(2) 0.4924(4)
H74B H 0.6575 0.4429 0.4838
C90B C 0.7653(6) 0.4424(2) 0.5484(4)
H75B H 0.7612 0.4571 0.5804
C91B C 0.8335(5) 0.4292(2) 0.5581(4)
H76B H 0.8770 0.4353 0.5960
C92B C 1.1630(5) 0.5928(2) 0.4879(4)
N29B N 0.5562(4) 0.46746(16) 0.2994(3)
C93B C 0.6019(4) 0.48474(18) 0.3532(4)
C94B C 0.5775(4) 0.4979(2) 0.4012(4)
H77B H 0.6098 0.5101 0.4386
C95B C 0.5042(5) 0.4926(2) 0.3920(4)
H78B H 0.4853 0.5014 0.4230
C96B C 0.4585(5) 0.4743(2) 0.3376(4)
H79B H 0.4086 0.4702 0.3313
C97B C 0.4870(5) 0.4625(2) 0.2932(4)
H80B H 0.4557 0.4500 0.2560
N30B N 0.7619(3) 0.48868(16) 0.3159(3)
N31B N 0.6894(3) 0.48062(15) 0.3003(3)
C98B C 0.6764(4) 0.48989(18) 0.3555(4)
C99B C 0.7377(5) 0.5034(2) 0.4044(4)
H81B H 0.7422 0.5117 0.4474
C100B C 0.7914(5) 0.5024(2) 0.3778(4)
H82B H 0.8408 0.5100 0.3994
C101B C 0.7969(4) 0.48406(19) 0.2677(4)
H83B H 0.8384 0.4991 0.2786
H84B H 0.7603 0.4890 0.2210
N32B N 0.8824(4) 0.52539(16) 0.8257(3)
C102B C 0.9400(5) 0.5113(2) 0.8730(4)
C103B C 0.9320(6) 0.4840(2) 0.9065(4)
H85B H 0.9743 0.4741 0.9399
C104B C 0.8630(6) 0.4718(2) 0.8906(5)
H86B H 0.8562 0.4537 0.9138
C105B C 0.8036(5) 0.4859(2) 0.8406(4)
H87B H 0.7552 0.4774 0.8279
C106B C 0.8142(5) 0.5127(2) 0.8089(4)
H88B H 0.7726 0.5224 0.7744
N33B N 1.0855(4) 0.56138(19) 0.8777(4)
N34B N 1.0128(4) 0.55295(17) 0.8559(3)
C107B C 1.0122(5) 0.5256(2) 0.8878(4)
C108B C 1.0853(5) 0.5163(2) 0.9300(4)
H89B H 1.1004 0.4980 0.9575
C109B C 1.1293(5) 0.5397(3) 0.9222(4)
H90B H 1.1819 0.5405 0.9442
C110B C 1.1100(5) 0.5887(2) 0.8519(4)
H91B H 1.1549 0.5973 0.8888
H92B H 1.0708 0.6050 0.8400
N35B N 0.8453(3) 0.44593(17) 0.2140(3)
C111B C 0.8262(4) 0.4516(2) 0.2673(4)
C112B C 0.8338(5) 0.4292(2) 0.3166(4)
H93B H 0.8200 0.4340 0.3538
C113B C 0.8607(5) 0.4005(2) 0.3123(5)
H94B H 0.8661 0.3850 0.3461
C114B C 0.8802(5) 0.3942(2) 0.2575(5)
H95B H 0.8985 0.3742 0.2524
C115B C 1.1273(5) 0.5824(2) 0.7895(4)
N36B N 1.1795(4) 0.65959(17) 0.4082(3)
C116B C 1.2370(5) 0.6443(2) 0.4034(4)
C117B C 1.3100(5) 0.6503(2) 0.4493(4)
H96B H 1.3500 0.6392 0.4452
C118B C 1.3235(5) 0.6720(2) 0.4994(5)
H97B H 1.3729 0.6765 0.5301
C119B C 1.2645(6) 0.6875(3) 0.5052(5)
H98B H 1.2723 0.7024 0.5406
C120B C 1.1939(5) 0.6809(2) 0.4584(5)
H99B H 1.1534 0.6919 0.4619
N37B N 1.1440(4) 0.59532(17) 0.2618(3)
N38B N 1.1460(4) 0.61771(17) 0.3075(3)
C121B C 1.2179(5) 0.6211(2) 0.3481(4)
C122B C 1.2617(5) 0.6016(2) 0.3296(5)
H100B H 1.3141 0.5995 0.3503
C123B C 1.2129(5) 0.5854(2) 0.2739(5)
H101B H 1.2258 0.5698 0.2486
C124B C 1.0724(5) 0.5845(2) 0.2096(4)
H102B H 1.0356 0.6016 0.2004
H103B H 1.0790 0.5802 0.1664
N39B N 0.9299(4) 0.61765(17) 0.7797(3)
C125B C 0.9358(4) 0.6214(2) 0.7186(4)
C126B C 0.9475(5) 0.6505(2) 0.6950(5)
H104B H 0.9531 0.6524 0.6527
C127B C 0.9508(6) 0.6764(3) 0.7345(5)
H105B H 0.9570 0.6967 0.7187
C128B C 0.9452(6) 0.6733(3) 0.7967(6)
H106B H 0.9495 0.6910 0.8253
C129B C 0.9331(5) 0.6434(2) 0.8169(5)
H107B H 0.9268 0.6412 0.8589
N40B N 0.9040(4) 0.54340(16) 0.6575(3)
N41B N 0.9085(4) 0.56645(17) 0.7042(3)
C130B C 0.9287(4) 0.5925(2) 0.6802(4)
C131B C 0.9385(5) 0.5861(2) 0.6193(4)
H108B H 0.9531 0.6004 0.5926
C132B C 0.9227(5) 0.5552(2) 0.6065(4)
H109B H 0.9243 0.5438 0.5687
C133B C 0.8782(5) 0.5122(2) 0.6632(4)
H110B H 0.8589 0.5023 0.6173
H111B H 0.8365 0.5138 0.6784
N42B N 1.0906(4) 0.53564(17) 0.2723(3)
C134B C 1.0425(5) 0.5561(2) 0.2292(4)
C135B C 0.9664(5) 0.5505(2) 0.2007(4)
H112B H 0.9335 0.5655 0.1710
C136B C 0.9391(5) 0.5228(2) 0.2161(4)
H113B H 0.8874 0.5186 0.1967
C137B C 0.9871(4) 0.5020(2) 0.2592(4)
H114B H 0.9695 0.4829 0.2703
C138B C 0.9381(5) 0.4911(2) 0.7132(4)
B2 B 0.6677(6) 0.5155(3) 0.5796(5)
F5 F 0.7024(3) 0.52111(12) 0.6494(2)
F6 F 0.7192(3) 0.51938(12) 0.5492(2)
F7 F 0.6100(3) 0.53642(12) 0.5498(2)
F8 F 0.6408(3) 0.48513(12) 0.5690(2)
B3 B 0.0370(8) 0.6743(3) 0.5760(7)
F9 F -0.0074(3) 0.69931(15) 0.5775(3)
F10 F 0.0744(4) 0.68257(15) 0.5344(3)
F11 F 0.0870(4) 0.66867(14) 0.6408(3)
F12 F -0.0065(3) 0.64889(14) 0.5477(3)
B4 B 0.2996(8) 0.5715(4) 0.0974(7)
F13 F 0.2382(4) 0.58160(16) 0.0430(3)
F14 F 0.3041(3) 0.53893(16) 0.0854(3)
F15 F 0.2902(3) 0.57581(16) 0.1578(3)
F16 F 0.3624(3) 0.58547(16) 0.0974(3)
B5 B 0.7285(7) 0.5546(3) 0.1372(6)
F17 F 0.7623(3) 0.55436(13) 0.2086(3)
F18 F 0.6874(3) 0.58203(13) 0.1175(3)
F19 F 0.7818(3) 0.55424(13) 0.1101(3)
F20 F 0.6814(3) 0.52915(13) 0.1142(3)
B6 B 0.4799(4) 0.3495(3) 0.3101(4)
F21 F 0.4949(6) 0.3372(3) 0.2567(5)
F22 F 0.4093(4) 0.3408(4) 0.3029(6)
F23 F 0.5308(5) 0.3382(3) 0.3716(5)
F24 F 0.4845(6) 0.3817(3) 0.3092(6)
B7 B 0.8370(6) 0.7638(3) 0.6392(6)
F25 F 0.8707(10) 0.7927(3) 0.6455(9)
F26 F 0.7650(7) 0.7656(5) 0.5914(10)
F27 F 0.8369(13) 0.7549(5) 0.7018(7)
F28 F 0.8757(10) 0.7420(4) 0.6182(10)
B8 B 0.6893(8) 0.6809(4) 0.9990(8)
F29 F 0.7349(11) 0.7064(4) 1.0256(12)
F30 F 0.7283(12) 0.6578(5) 0.9820(12)
F31 F 0.6293(10) 0.6899(6) 0.9411(10)
F32 F 0.6646(13) 0.6695(6) 1.0472(11)
B10 B 0.4633(11) 0.6944(5) 0.9863(11)
F37 F 0.4460(18) 0.7235(6) 1.0043(17)
F38 F 0.4189(17) 0.6883(8) 0.9185(12)
F39 F 0.451(2) 0.6718(7) 1.0275(17)
F40 F 0.5369(12) 0.6939(9) 0.9948(19)
B11 B 0.8366(13) 0.7486(6) -0.0921(13)
F41 F 0.7644(14) 0.7561(9) -0.103(2)
F42 F 0.878(2) 0.7757(8) -0.082(2)
F43 F 0.838(2) 0.7331(10) -0.1488(18)
F44 F 0.866(2) 0.7295(9) -0.0352(18)
B12 B 1.1020(5) 0.6340(2) 0.0592(5)
F45 F 1.1052(8) 0.6025(2) 0.0749(8)
F46 F 1.0851(8) 0.6376(4) -0.0100(5)
F47 F 1.0478(7) 0.6482(3) 0.0757(8)
F48 F 1.1698(6) 0.6477(3) 0.0962(7)
loop_
_geom_bond_atom_site_label_1
_geom_bond_atom_site_label_2
_geom_bond_site_symmetry_1
_geom_bond_site_symmetry_2
Co1 N1 1_555 1_555
Co2 N4 1_555 1_555
Co3 N18 1_555 1_555
Co4 N11 1_555 1_555
N1 C1 1_555 1_555
C1 C2 1_555 1_555
C2 H1 1_555 1_555
C3 C2 1_555 1_555
H2 C3 1_555 1_555
C4 C3 1_555 1_555
H3 C4 1_555 1_555
C5 N1 1_555 1_555
H4 C5 1_555 1_555
N2 N3 1_555 1_555
N3 Co1 1_555 1_555
C6 C1 1_555 1_555
C7 C6 1_555 1_555
H5 C7 1_555 1_555
C8 N2 1_555 1_555
H6 C8 1_555 1_555
C9 N2 1_555 1_555
H7 C9 1_555 1_555
H8 C9 1_555 1_555
N4 C10 1_555 1_555
C10 C11 1_555 1_555
C11 H9 1_555 1_555
C12 C11 1_555 1_555
H10 C12 1_555 1_555
C13 C12 1_555 1_555
H11 C13 1_555 1_555
C14 N4 1_555 1_555
H12 C14 1_555 1_555
N5 N6 1_555 1_555
N6 Co2 1_555 1_555
C15 C10 1_555 1_555
C16 C15 1_555 1_555
H13 C16 1_555 1_555
C17 N5 1_555 1_555
H14 C17 1_555 1_555
C18 N5 1_555 1_555
H15 C18 1_555 1_555
H16 C18 1_555 1_555
N7 C19 1_555 1_555
C19 C9 1_555 1_555
C20 C19 1_555 1_555
H17 C20 1_555 1_555
C21 C20 1_555 1_555
H18 C21 1_555 1_555
C22 C21 1_555 1_555
H19 C22 1_555 1_555
C23 C18 1_555 1_555
N8 Co1 1_555 1_555
C24 N8 1_555 1_555
C25 C24 1_555 1_555
H20 C25 1_555 1_555
C26 C25 1_555 1_555
H21 C26 1_555 1_555
C27 C26 1_555 1_555
H22 C27 1_555 1_555
C28 N8 1_555 1_555
H23 C28 1_555 1_555
N9 N10 1_555 1_555
N10 Co1 1_555 1_555
C29 C24 1_555 1_555
C30 C29 1_555 1_555
H24 C30 1_555 1_555
C31 N9 1_555 1_555
H25 C31 1_555 1_555
C32 N9 1_555 1_555
H26 C32 1_555 1_555
H27 C32 1_555 1_555
N11 C33 1_555 1_555
C33 C34 1_555 1_555
C34 H28 1_555 1_555
C35 C34 1_555 1_555
H29 C35 1_555 1_555
C36 C35 1_555 1_555
H30 C36 1_555 1_555
C37 N11 1_555 1_555
H31 C37 1_555 1_555
N12 N13 1_555 1_555
N13 Co4 1_555 1_555
C38 C33 1_555 1_555
C39 C38 1_555 1_555
H32 C39 1_555 1_555
C40 N12 1_555 1_555
H33 C40 1_555 1_555
C41 N12 1_555 1_555
H34 C41 1_555 1_555
H35 C41 1_555 1_555
N14 C42 1_555 1_555
C42 C32 1_555 1_555
C43 C42 1_555 1_555
H36 C43 1_555 1_555
C44 C43 1_555 1_555
H37 C44 1_555 1_555
C45 C44 1_555 1_555
H38 C45 1_555 1_555
C46 C41 1_555 1_555
N15 Co1 1_555 1_555
C47 N15 1_555 1_555
C48 C47 1_555 1_555
H39 C48 1_555 1_555
C49 C48 1_555 1_555
H40 C49 1_555 1_555
C50 C49 1_555 1_555
H41 C50 1_555 1_555
C51 N15 1_555 1_555
H42 C51 1_555 1_555
N16 N17 1_555 1_555
N17 Co1 1_555 1_555
C52 C47 1_555 1_555
C53 C52 1_555 1_555
H43 C53 1_555 1_555
C54 N16 1_555 1_555
H44 C54 1_555 1_555
C55 N16 1_555 1_555
H45 C55 1_555 1_555
H46 C55 1_555 1_555
N18 C56 1_555 1_555
C56 C57 1_555 1_555
C57 H47 1_555 1_555
C58 C57 1_555 1_555
H48 C58 1_555 1_555
C59 C58 1_555 1_555
H49 C59 1_555 1_555
C60 N18 1_555 1_555
H50 C60 1_555 1_555
N19 N20 1_555 1_555
N20 Co3 1_555 1_555
C61 C56 1_555 1_555
C62 C61 1_555 1_555
H51 C62 1_555 1_555
C63 N19 1_555 1_555
H52 C63 1_555 1_555
C64 N19 1_555 1_555
H53 C64 1_555 1_555
H54 C64 1_555 1_555
N21 C65 1_555 1_555
C65 C55 1_555 1_555
C66 C65 1_555 1_555
H55 C66 1_555 1_555
C67 C66 1_555 1_555
H56 C67 1_555 1_555
C68 C67 1_555 1_555
H57 C68 1_555 1_555
C69 C64 1_555 1_555
N22 Co2 1_555 1_555
C70 N22 1_555 1_555
C71 C70 1_555 1_555
H58 C71 1_555 1_555
C72 C71 1_555 1_555
H59 C72 1_555 1_555
C73 C72 1_555 1_555
H60 C73 1_555 1_555
C74 N22 1_555 1_555
H61 C74 1_555 1_555
N23 N24 1_555 1_555
N24 Co2 1_555 1_555
C75 C70 1_555 1_555
C76 C75 1_555 1_555
H62 C76 1_555 1_555
C77 N23 1_555 1_555
H63 C77 1_555 1_555
C78 N23 1_555 1_555
H64 C78 1_555 1_555
H65 C78 1_555 1_555
N25 Co3 1_555 1_555
C79 N25 1_555 1_555
C80 C79 1_555 1_555
H66 C80 1_555 1_555
C81 C80 1_555 1_555
H67 C81 1_555 1_555
C82 C81 1_555 1_555
H68 C82 1_555 1_555
C83 N25 1_555 1_555
H69 C83 1_555 1_555
N26 N27 1_555 1_555
N27 Co3 1_555 1_555
C84 C79 1_555 1_555
C85 C84 1_555 1_555
H70 C85 1_555 1_555
C86 N26 1_555 1_555
H71 C86 1_555 1_555
C87 N26 1_555 1_555
H72 C87 1_555 1_555
H73 C87 1_555 1_555
N28 C88 1_555 1_555
C88 C78 1_555 1_555
C89 C88 1_555 1_555
H74 C89 1_555 1_555
C90 C89 1_555 1_555
H75 C90 1_555 1_555
C91 C90 1_555 1_555
H76 C91 1_555 1_555
C92 C87 1_555 1_555
N29 Co2 1_555 1_555
C93 N29 1_555 1_555
C94 C93 1_555 1_555
H77 C94 1_555 1_555
C95 C94 1_555 1_555
H78 C95 1_555 1_555
C96 C95 1_555 1_555
H79 C96 1_555 1_555
C97 N29 1_555 1_555
H80 C97 1_555 1_555
N30 N31 1_555 1_555
N31 Co2 1_555 1_555
C98 C93 1_555 1_555
C99 C98 1_555 1_555
H81 C99 1_555 1_555
C100 N30 1_555 1_555
H82 C100 1_555 1_555
C101 N30 1_555 1_555
H83 C101 1_555 1_555
H84 C101 1_555 1_555
N32 Co4 1_555 1_555
C102 N32 1_555 1_555
C103 C102 1_555 1_555
H85 C103 1_555 1_555
C104 C103 1_555 1_555
H86 C104 1_555 1_555
C105 C104 1_555 1_555
H87 C105 1_555 1_555
C106 N32 1_555 1_555
H88 C106 1_555 1_555
N33 N34 1_555 1_555
N34 Co4 1_555 1_555
C107 C102 1_555 1_555
C108 C107 1_555 1_555
H89 C108 1_555 1_555
C109 N33 1_555 1_555
H90 C109 1_555 1_555
C110 N33 1_555 1_555
H91 C110 1_555 1_555
H92 C110 1_555 1_555
N35 C111 1_555 1_555
C111 C101 1_555 1_555
C112 C111 1_555 1_555
H93 C112 1_555 1_555
C113 C112 1_555 1_555
H94 C113 1_555 1_555
C114 C113 1_555 1_555
H95 C114 1_555 1_555
C115 C110 1_555 1_555
N36 Co3 1_555 1_555
C116 N36 1_555 1_555
C117 C116 1_555 1_555
H96 C117 1_555 1_555
C118 C117 1_555 1_555
H97 C118 1_555 1_555
C119 C118 1_555 1_555
H98 C119 1_555 1_555
C120 N36 1_555 1_555
H99 C120 1_555 1_555
N37 N38 1_555 1_555
N38 Co3 1_555 1_555
C121 C116 1_555 1_555
C122 C121 1_555 1_555
H100 C122 1_555 1_555
C123 N37 1_555 1_555
H101 C123 1_555 1_555
C124 N37 1_555 1_555
H102 C124 1_555 1_555
H103 C124 1_555 1_555
N39 Co4 1_555 1_555
C125 N39 1_555 1_555
C126 C125 1_555 1_555
H104 C126 1_555 1_555
C127 C126 1_555 1_555
H105 C127 1_555 1_555
C128 C127 1_555 1_555
H106 C128 1_555 1_555
C129 N39 1_555 1_555
H107 C129 1_555 1_555
N40 N41 1_555 1_555
N41 Co4 1_555 1_555
C130 C125 1_555 1_555
C131 C130 1_555 1_555
H108 C131 1_555 1_555
C132 N40 1_555 1_555
H109 C132 1_555 1_555
C133 N40 1_555 1_555
H110 C133 1_555 1_555
H111 C133 1_555 1_555
N42 C134 1_555 1_555
C134 C124 1_555 1_555
C135 C134 1_555 1_555
H112 C135 1_555 1_555
C136 C135 1_555 1_555
H113 C136 1_555 1_555
C137 C136 1_555 1_555
H114 C137 1_555 1_555
C138 C133 1_555 1_555
B2 F5 1_555 1_555
F6 B2 1_555 1_555
F7 B2 1_555 1_555
F8 B2 1_555 1_555
B3 F9 1_555 1_555
F10 B3 1_555 1_555
F11 B3 1_555 1_555
F12 B3 1_555 1_555
B4 F13 1_555 1_555
F14 B4 1_555 1_555
F15 B4 1_555 1_555
F16 B4 1_555 1_555
B5 F17 1_555 1_555
F18 B5 1_555 1_555
F19 B5 1_555 1_555
F20 B5 1_555 1_555
B6 F21 1_555 1_555
F22 B6 1_555 1_555
F23 B6 1_555 1_555
F24 B6 1_555 1_555
B7 F25 1_555 1_555
F26 B7 1_555 1_555
F27 B7 1_555 1_555
F28 B7 1_555 1_555
B8 F29 1_555 1_555
F30 B8 1_555 1_555
F31 B8 1_555 1_555
F32 B8 1_555 1_555
B10 F37 1_555 1_555
F38 B10 1_555 1_555
F39 B10 1_555 1_555
F40 B10 1_555 1_555
B11 F41 1_555 1_555
F42 B11 1_555 1_555
F43 B11 1_555 1_555
F44 B11 1_555 1_555
B12 F45 1_555 1_555
F46 B12 1_555 1_555
F47 B12 1_555 1_555
F48 B12 1_555 1_555
Co1B N1B 1_555 1_555
Co2B N4B 1_555 1_555
Co3B N18B 1_555 1_555
Co4B N11B 1_555 1_555
N1B C1B 1_555 1_555
C1B C2B 1_555 1_555
C2B H1B 1_555 1_555
C3B C2B 1_555 1_555
H2B C3B 1_555 1_555
C4B C3B 1_555 1_555
H3B C4B 1_555 1_555
C5B N1B 1_555 1_555
H4B C5B 1_555 1_555
N2B N3B 1_555 1_555
N3B Co1B 1_555 1_555
C6B C1B 1_555 1_555
C7B C6B 1_555 1_555
H5B C7B 1_555 1_555
C8B N2B 1_555 1_555
H6B C8B 1_555 1_555
C9B N2B 1_555 1_555
H7B C9B 1_555 1_555
H8B C9B 1_555 1_555
N4B C10B 1_555 1_555
C10B C11B 1_555 1_555
C11B H9B 1_555 1_555
C12B C11B 1_555 1_555
H10B C12B 1_555 1_555
C13B C12B 1_555 1_555
H11B C13B 1_555 1_555
C14B N4B 1_555 1_555
H12B C14B 1_555 1_555
N5B N6B 1_555 1_555
N6B Co2B 1_555 1_555
C15B C10B 1_555 1_555
C16B C15B 1_555 1_555
H13B C16B 1_555 1_555
C17B N5B 1_555 1_555
H14B C17B 1_555 1_555
C18B N5B 1_555 1_555
H15B C18B 1_555 1_555
H16B C18B 1_555 1_555
N7B C19B 1_555 1_555
C19B C9B 1_555 1_555
C20B C19B 1_555 1_555
H17B C20B 1_555 1_555
C21B C20B 1_555 1_555
H18B C21B 1_555 1_555
C22B C21B 1_555 1_555
H19B C22B 1_555 1_555
C23B C18B 1_555 1_555
N8B Co1B 1_555 1_555
C24B N8B 1_555 1_555
C25B C24B 1_555 1_555
H20B C25B 1_555 1_555
C26B C25B 1_555 1_555
H21B C26B 1_555 1_555
C27B C26B 1_555 1_555
H22B C27B 1_555 1_555
C28B N8B 1_555 1_555
H23B C28B 1_555 1_555
N9B N10B 1_555 1_555
N10B Co1B 1_555 1_555
C29B C24B 1_555 1_555
C30B C29B 1_555 1_555
H24B C30B 1_555 1_555
C31B N9B 1_555 1_555
H25B C31B 1_555 1_555
C32B N9B 1_555 1_555
H26B C32B 1_555 1_555
H27B C32B 1_555 1_555
N11B C33B 1_555 1_555
C33B C34B 1_555 1_555
C34B H28B 1_555 1_555
C35B C34B 1_555 1_555
H29B C35B 1_555 1_555
C36B C35B 1_555 1_555
H30B C36B 1_555 1_555
C37B N11B 1_555 1_555
H31B C37B 1_555 1_555
N12B N13B 1_555 1_555
N13B Co4B 1_555 1_555
C38B C33B 1_555 1_555
C39B C38B 1_555 1_555
H32B C39B 1_555 1_555
C40B N12B 1_555 1_555
H33B C40B 1_555 1_555
C41B N12B 1_555 1_555
H34B C41B 1_555 1_555
H35B C41B 1_555 1_555
N14B C42B 1_555 1_555
C42B C32B 1_555 1_555
C43B C42B 1_555 1_555
H36B C43B 1_555 1_555
C44B C43B 1_555 1_555
H37B C44B 1_555 1_555
C45B C44B 1_555 1_555
H38B C45B 1_555 1_555
C46B C41B 1_555 1_555
N15B Co1B 1_555 1_555
C47B N15B 1_555 1_555
C48B C47B 1_555 1_555
H39B C48B 1_555 1_555
C49B C48B 1_555 1_555
H40B C49B 1_555 1_555
C50B C49B 1_555 1_555
H41B C50B 1_555 1_555
C51B N15B 1_555 1_555
H42B C51B 1_555 1_555
N16B N17B 1_555 1_555
N17B Co1B 1_555 1_555
C52B C47B 1_555 1_555
C53B C52B 1_555 1_555
H43B C53B 1_555 1_555
C54B N16B 1_555 1_555
H44B C54B 1_555 1_555
C55B N16B 1_555 1_555
H45B C55B 1_555 1_555
H46B C55B 1_555 1_555
N18B C56B 1_555 1_555
C56B C57B 1_555 1_555
C57B H47B 1_555 1_555
C58B C57B 1_555 1_555
H48B C58B 1_555 1_555
C59B C58B 1_555 1_555
H49B C59B 1_555 1_555
C60B N18B 1_555 1_555
H50B C60B 1_555 1_555
N19B N20B 1_555 1_555
N20B Co3B 1_555 1_555
C61B C56B 1_555 1_555
C62B C61B 1_555 1_555
H51B C62B 1_555 1_555
C63B N19B 1_555 1_555
H52B C63B 1_555 1_555
C64B N19B 1_555 1_555
H53B C64B 1_555 1_555
H54B C64B 1_555 1_555
N21B C65B 1_555 1_555
C65B C55B 1_555 1_555
C66B C65B 1_555 1_555
H55B C66B 1_555 1_555
C67B C66B 1_555 1_555
H56B C67B 1_555 1_555
C68B C67B 1_555 1_555
H57B C68B 1_555 1_555
C69B C64B 1_555 1_555
N22B Co2B 1_555 1_555
C70B N22B 1_555 1_555
C71B C70B 1_555 1_555
H58B C71B 1_555 1_555
C72B C71B 1_555 1_555
H59B C72B 1_555 1_555
C73B C72B 1_555 1_555
H60B C73B 1_555 1_555
C74B N22B 1_555 1_555
H61B C74B 1_555 1_555
N23B N24B 1_555 1_555
N24B Co2B 1_555 1_555
C75B C70B 1_555 1_555
C76B C75B 1_555 1_555
H62B C76B 1_555 1_555
C77B N23B 1_555 1_555
H63B C77B 1_555 1_555
C78B N23B 1_555 1_555
H64B C78B 1_555 1_555
H65B C78B 1_555 1_555
N25B Co3B 1_555 1_555
C79B N25B 1_555 1_555
C80B C79B 1_555 1_555
H66B C80B 1_555 1_555
C81B C80B 1_555 1_555
H67B C81B 1_555 1_555
C82B C81B 1_555 1_555
H68B C82B 1_555 1_555
C83B N25B 1_555 1_555
H69B C83B 1_555 1_555
N26B N27B 1_555 1_555
N27B Co3B 1_555 1_555
C84B C79B 1_555 1_555
C85B C84B 1_555 1_555
H70B C85B 1_555 1_555
C86B N26B 1_555 1_555
H71B C86B 1_555 1_555
C87B N26B 1_555 1_555
H72B C87B 1_555 1_555
H73B C87B 1_555 1_555
N28B C92 1_555 1_555
C88B C78B 1_555 1_555
C89B C88B 1_555 1_555
H74B C89B 1_555 1_555
C90B C89B 1_555 1_555
H75B C90B 1_555 1_555
C91B C92 1_555 1_555
H76B C91B 1_555 1_555
C92B N28 1_555 1_555
N29B Co2B 1_555 1_555
C93B N29B 1_555 1_555
C94B C93B 1_555 1_555
H77B C94B 1_555 1_555
C95B C94B 1_555 1_555
H78B C95B 1_555 1_555
C96B C95B 1_555 1_555
H79B C96B 1_555 1_555
C97B N29B 1_555 1_555
H80B C97B 1_555 1_555
N30B N31B 1_555 1_555
N31B Co2B 1_555 1_555
C98B C93B 1_555 1_555
C99B C98B 1_555 1_555
H81B C99B 1_555 1_555
C100B N30B 1_555 1_555
H82B C100B 1_555 1_555
C101B N30B 1_555 1_555
H83B C101B 1_555 1_555
H84B C101B 1_555 1_555
N32B Co4B 1_555 1_555
C102B N32B 1_555 1_555
C103B C102B 1_555 1_555
H85B C103B 1_555 1_555
C104B C103B 1_555 1_555
H86B C104B 1_555 1_555
C105B C104B 1_555 1_555
H87B C105B 1_555 1_555
C106B N32B 1_555 1_555
H88B C106B 1_555 1_555
N33B N34B 1_555 1_555
N34B Co4B 1_555 1_555
C107B C102B 1_555 1_555
C108B C107B 1_555 1_555
H89B C108B 1_555 1_555
C109B N33B 1_555 1_555
H90B C109B 1_555 1_555
C110B N33B 1_555 1_555
H91B C110B 1_555 1_555
H92B C110B 1_555 1_555
N35B C115 1_555 1_555
C111B C101B 1_555 1_555
C112B C111B 1_555 1_555
H93B C112B 1_555 1_555
C113B C112B 1_555 1_555
H94B C113B 1_555 1_555
C114B C115 1_555 1_555
H95B C114B 1_555 1_555
C115B N35 1_555 1_555
N36B Co3B 1_555 1_555
C116B N36B 1_555 1_555
C117B C116B 1_555 1_555
H96B C117B 1_555 1_555
C118B C117B 1_555 1_555
H97B C118B 1_555 1_555
C119B C118B 1_555 1_555
H98B C119B 1_555 1_555
C120B N36B 1_555 1_555
H99B C120B 1_555 1_555
N37B N38B 1_555 1_555
N38B Co3B 1_555 1_555
C121B C116B 1_555 1_555
C122B C121B 1_555 1_555
H100B C122B 1_555 1_555
C123B N37B 1_555 1_555
H101B C123B 1_555 1_555
C124B N37B 1_555 1_555
H102B C124B 1_555 1_555
H103B C124B 1_555 1_555
N39B Co4B 1_555 1_555
C125B N39B 1_555 1_555
C126B C125B 1_555 1_555
H104B C126B 1_555 1_555
C127B C126B 1_555 1_555
H105B C127B 1_555 1_555
C128B C127B 1_555 1_555
H106B C128B 1_555 1_555
C129B N39B 1_555 1_555
H107B C129B 1_555 1_555
N40B N41B 1_555 1_555
N41B Co4B 1_555 1_555
C130B C125B 1_555 1_555
C131B C130B 1_555 1_555
H108B C131B 1_555 1_555
C132B N40B 1_555 1_555
H109B C132B 1_555 1_555
C133B N40B 1_555 1_555
H110B C133B 1_555 1_555
H111B C133B 1_555 1_555
N42B C138 1_555 1_555
C134B C124B 1_555 1_555
C135B C134B 1_555 1_555
H112B C135B 1_555 1_555
C136B C135B 1_555 1_555
H113B C136B 1_555 1_555
C137B C138 1_555 1_555
H114B C137B 1_555 1_555
C138B N42 1_555 1_555
C4 C5 1_555 1_555
N3 C6 1_555 1_555
C7 C8 1_555 1_555
C13 C14 1_555 1_555
N6 C15 1_555 1_555
C16 C17 1_555 1_555
N7 C23 1_555 1_555
C22 C23 1_555 1_555
C27 C28 1_555 1_555
N10 C29 1_555 1_555
C30 C31 1_555 1_555
C36 C37 1_555 1_555
N13 C38 1_555 1_555
C39 C40 1_555 1_555
N14 C46 1_555 1_555
C45 C46 1_555 1_555
C50 C51 1_555 1_555
N17 C52 1_555 1_555
C53 C54 1_555 1_555
C59 C60 1_555 1_555
N20 C61 1_555 1_555
C62 C63 1_555 1_555
N21 C69 1_555 1_555
C68 C69 1_555 1_555
C73 C74 1_555 1_555
N24 C75 1_555 1_555
C76 C77 1_555 1_555
C82 C83 1_555 1_555
N27 C84 1_555 1_555
C85 C86 1_555 1_555
C91 C92B 1_555 1_555
C96 C97 1_555 1_555
N31 C98 1_555 1_555
C99 C100 1_555 1_555
C105 C106 1_555 1_555
N34 C107 1_555 1_555
C108 C109 1_555 1_555
C114 C115B 1_555 1_555
C119 C120 1_555 1_555
N38 C121 1_555 1_555
C122 C123 1_555 1_555
C128 C129 1_555 1_555
N41 C130 1_555 1_555
C131 C132 1_555 1_555
C137 C138B 1_555 1_555
C4B C5B 1_555 1_555
N3B C6B 1_555 1_555
C7B C8B 1_555 1_555
C13B C14B 1_555 1_555
N6B C15B 1_555 1_555
C16B C17B 1_555 1_555
N7B C23B 1_555 1_555
C22B C23B 1_555 1_555
C27B C28B 1_555 1_555
N10B C29B 1_555 1_555
C30B C31B 1_555 1_555
C36B C37B 1_555 1_555
N13B C38B 1_555 1_555
C39B C40B 1_555 1_555
N14B C46B 1_555 1_555
C45B C46B 1_555 1_555
C50B C51B 1_555 1_555
N17B C52B 1_555 1_555
C53B C54B 1_555 1_555
C59B C60B 1_555 1_555
N20B C61B 1_555 1_555
C62B C63B 1_555 1_555
N21B C69B 1_555 1_555
C68B C69B 1_555 1_555
C73B C74B 1_555 1_555
N24B C75B 1_555 1_555
C76B C77B 1_555 1_555
C82B C83B 1_555 1_555
N27B C84B 1_555 1_555
C85B C86B 1_555 1_555
C87B C92B 1_555 1_555
N28B C88B 1_555 1_555
C90B C91B 1_555 1_555
C96B C97B 1_555 1_555
N31B C98B 1_555 1_555
C99B C100B 1_555 1_555
C105B C106B 1_555 1_555
N34B C107B 1_555 1_555
C108B C109B 1_555 1_555
C110B C115B 1_555 1_555
N35B C111B 1_555 1_555
C113B C114B 1_555 1_555
C119B C120B 1_555 1_555
N38B C121B 1_555 1_555
C122B C123B 1_555 1_555
C128B C129B 1_555 1_555
N41B C130B 1_555 1_555
C131B C132B 1_555 1_555
C133B C138B 1_555 1_555
N42B C134B 1_555 1_555
C136B C137B 1_555 1_555

#END
