
#######################################################################
#
#                 Cambridge Crystallographic Data Centre
#                                CCDC 
#
#######################################################################
#
# If this CIF has been generated from an entry in the Cambridge 
# Structural Database, then it will include bibliographic, chemical, 
# crystal, experimental, refinement or atomic coordinate data resulting 
# from the CCDC's data processing and validation procedures.
#
#######################################################################

data_HABKAY
_chemical_formula_moiety         '8(B1 F4 1-),0.5(H2 O1),C138 H114 N42 Ni4 8+'
_chemical_name_systematic        
'hexakis(\m~2~-2,6-bis((3-(pyridin-2-yl)-1H-pyrazol-1-yl)methyl)pyridine)-tetra-nickel(ii) octakis(tetrafluoroborate) hemihydrate'
_symmetry_cell_setting           monoclinic
_symmetry_space_group_name_H-M   'C 2/c'
_symmetry_Int_Tables_number      15
_space_group_name_Hall           '-C 2yn'
loop_
_symmetry_equiv_pos_site_id
_symmetry_equiv_pos_as_xyz
1 x,y,z
2 -x,y,1/2-z
3 1/2+x,1/2+y,z
4 1/2-x,1/2+y,1/2-z
5 -x,-y,-z
6 x,-y,1/2+z
7 1/2-x,1/2-y,-z
8 1/2+x,1/2-y,1/2+z
_cell_length_a                   21.3802(15)
_cell_length_b                   19.4021(15)
_cell_length_c                   37.083(3)
_cell_angle_alpha                90
_cell_angle_beta                 103.357(3)
_cell_angle_gamma                90
_cell_volume                     14966.7
_exptl_crystal_colour            blue
_exptl_crystal_description       block
_cell_formula_units_Z            4
loop_
_atom_site_label
_atom_site_type_symbol
_atom_site_fract_x
_atom_site_fract_y
_atom_site_fract_z
Ni1 Ni 0.37551(4) 1.22378(4) 0.11777(3)
Ni2 Ni 0.38783(4) 0.70816(5) 0.11324(3)
N1 N 0.4037(3) 1.2991(3) 0.08350(16)
C1 C 0.4557(4) 1.2828(4) 0.0704(2)
C2 C 0.4865(4) 1.3295(4) 0.0525(2)
H1 H 0.5238 1.3164 0.0444
C3 C 0.4624(4) 1.3956(5) 0.0466(2)
H2 H 0.4823 1.4284 0.0338
C4 C 0.4097(5) 1.4133(4) 0.0593(3)
H3 H 0.3927 1.4587 0.0555
C5 C 0.3803(4) 1.3645(4) 0.0780(2)
H4 H 0.3437 1.3773 0.0869
N2 N 0.4836(3) 1.1131(3) 0.10482(18)
N3 N 0.4533(3) 1.1746(3) 0.10221(16)
C6 C 0.4780(3) 1.2135(4) 0.0784(2)
C7 C 0.5251(4) 1.1751(5) 0.0668(3)
H5 H 0.5508 1.1898 0.0505
C8 C 0.5270(4) 1.1123(4) 0.0836(2)
H6 H 0.5540 1.0748 0.0808
C9 C 0.4715(3) 1.0588(4) 0.1291(2)
H7 H 0.4631 1.0798 0.1518
H8 H 0.5104 1.0297 0.1364
N4 N 0.3117(3) 0.6398(4) 0.0927(2)
C10 C 0.2563(3) 0.6553(4) 0.1031(2)
C11 C 0.2066(4) 0.6088(4) 0.1002(2)
H9 H 0.1688 0.6209 0.1081
C12 C 0.2130(5) 0.5435(5) 0.0856(3)
H10 H 0.1801 0.5100 0.0839
C13 C 0.2670(5) 0.5287(6) 0.0736(4)
H11 H 0.2716 0.4849 0.0630
C14 C 0.3159(5) 0.5780(6) 0.0770(4)
H12 H 0.3529 0.5675 0.0679
N5 N 0.2908(3) 0.8222(3) 0.13891(17)
N6 N 0.3082(3) 0.7614(3) 0.12558(16)
C15 C 0.2538(3) 0.7254(4) 0.1176(2)
C16 C 0.2023(4) 0.7620(4) 0.1244(3)
H13 H 0.1589 0.7473 0.1207
C17 C 0.2276(4) 0.8235(4) 0.1376(3)
H14 H 0.2045 0.8611 0.1446
C18 C 0.3378(4) 0.8768(4) 0.1524(2)
H15 H 0.3787 0.8550 0.1654
H16 H 0.3220 0.9047 0.1709
N7 N 0.3996(3) 0.9685(3) 0.13609(17)
C19 C 0.4147(3) 1.0135(3) 0.1113(2)
C20 C 0.3840(3) 1.0151(4) 0.0748(2)
H17 H 0.3966 1.0469 0.0583
C21 C 0.3339(4) 0.9694(4) 0.0622(2)
H18 H 0.3119 0.9695 0.0368
C22 C 0.3162(3) 0.9239(4) 0.0865(2)
H19 H 0.2811 0.8932 0.0786
C23 C 0.3513(3) 0.9242(4) 0.1232(2)
N8 N 0.3096(3) 1.1737(3) 0.07492(19)
C24 C 0.2733(3) 1.1247(4) 0.0869(3)
C25 C 0.2248(4) 1.0896(4) 0.0622(3)
H20 H 0.1989 1.0567 0.0710
C26 C 0.2146(4) 1.1033(5) 0.0244(3)
H21 H 0.1821 1.0799 0.0069
C27 C 0.2529(4) 1.1516(4) 0.0131(3)
H22 H 0.2477 1.1610 -0.0126
C28 C 0.2991(4) 1.1865(4) 0.0391(2)
H23 H 0.3241 1.2209 0.0308
N9 N 0.3562(3) 1.1129(3) 0.1803(2)
N10 N 0.3461(3) 1.1411(3) 0.14617(19)
C29 C 0.2923(3) 1.1085(4) 0.1267(2)
C30 C 0.2686(4) 1.0620(4) 0.1485(3)
H24 H 0.2315 1.0337 0.1414
C31 C 0.3107(4) 1.0660(4) 0.1827(3)
H25 H 0.3082 1.0402 0.2041
C32 C 0.4075(3) 1.1376(4) 0.2111(2)
H26 H 0.4414 1.1598 0.2010
H27 H 0.4270 1.0977 0.2262
N11 N 0.6968(3) 1.2872(3) 0.3693(2)
C33 C 0.6761(4) 1.3322(4) 0.3416(2)
C34 C 0.7177(5) 1.3791(4) 0.3306(3)
H28 H 0.7024 1.4096 0.3104
C35 C 0.7821(5) 1.3804(5) 0.3497(3)
H29 H 0.8110 1.4125 0.3430
C36 C 0.8029(5) 1.3364(5) 0.3774(4)
H30 H 0.8467 1.3366 0.3906
C37 C 0.7592(4) 1.2899(4) 0.3869(3)
H31 H 0.7745 1.2588 0.4068
N12 N 0.5104(3) 1.2946(3) 0.3196(2)
N13 N 0.5717(3) 1.2822(3) 0.33744(18)
C38 C 0.6079(4) 1.3298(4) 0.3251(2)
C39 C 0.5685(5) 1.3724(5) 0.2993(3)
H32 H 0.5815 1.4100 0.2863
C40 C 0.5074(6) 1.3489(5) 0.2963(4)
H33 H 0.4695 1.3674 0.2807
C41 C 0.4560(4) 1.2556(5) 0.3275(2)
H34 H 0.4361 1.2819 0.3448
H35 H 0.4713 1.2110 0.3392
N14 N 0.4257(3) 1.2012(3) 0.26765(18)
C42 C 0.3836(4) 1.1882(3) 0.2356(2)
C43 C 0.3226(4) 1.2168(4) 0.2260(2)
H36 H 0.2943 1.2065 0.2028
C44 C 0.3040(4) 1.2608(4) 0.2511(2)
H37 H 0.2626 1.2815 0.2454
C45 C 0.3460(4) 1.2740(4) 0.2840(3)
H38 H 0.3342 1.3035 0.3018
C46 C 0.4068(4) 1.2433(4) 0.2912(2)
N15 N 0.3802(3) 0.7602(4) 0.06312(19)
C47 C 0.4223(4) 0.8121(5) 0.0642(2)
C48 C 0.4221(5) 0.8527(6) 0.0329(2)
H39 H 0.4516 0.8897 0.0342
C49 C 0.3780(6) 0.8377(8) 0.0002(3)
H40 H 0.3768 0.8650 -0.0213
C50 C 0.3368(5) 0.7845(8) -0.0014(3)
H41 H 0.3068 0.7737 -0.0239
C51 C 0.3389(4) 0.7454(6) 0.0306(3)
H42 H 0.3105 0.7074 0.0295
N16 N 0.4981(3) 0.8127(3) 0.15892(17)
N17 N 0.4562(3) 0.7873(4) 0.12903(18)
C52 C 0.4639(4) 0.8260(5) 0.1000(2)
C53 C 0.5126(4) 0.8740(5) 0.1123(2)
H43 H 0.5287 0.9065 0.0975
C54 C 0.5324(3) 0.8653(4) 0.1495(2)
H44 H 0.5646 0.8913 0.1658
C55 C 0.5070(3) 0.7825(4) 0.1957(2)
H45 H 0.4687 0.7547 0.1969
H46 H 0.5108 0.8200 0.2143
N18 N 0.5421(3) 0.6401(4) 0.3983(2)
C56 C 0.5197(4) 0.5932(4) 0.3716(3)
C57 C 0.4740(4) 0.5442(5) 0.3756(3)
H47 H 0.4585 0.5122 0.3562
C58 C 0.4516(5) 0.5421(7) 0.4067(4)
H48 H 0.4203 0.5090 0.4095
C59 C 0.4746(6) 0.5880(8) 0.4339(3)
H49 H 0.4595 0.5882 0.4561
C60 C 0.5209(5) 0.6349(7) 0.4287(3)
H50 H 0.5384 0.6653 0.4485
N19 N 0.6112(4) 0.6328(3) 0.3071(2)
N20 N 0.5907(3) 0.6458(3) 0.3379(2)
C61 C 0.5486(5) 0.5965(4) 0.3405(3)
C62 C 0.5401(8) 0.5538(9) 0.3083(4)
H51 H 0.5113 0.5161 0.3018
C63 C 0.5815(9) 0.5784(10) 0.2890(5)
H52 H 0.5882 0.5602 0.2664
C64 C 0.6600(4) 0.6753(5) 0.2953(2)
H53 H 0.7021 0.6517 0.3015
H54 H 0.6644 0.7201 0.3084
N21 N 0.5875(3) 0.7262(3) 0.24233(18)
C65 C 0.5664(3) 0.7373(4) 0.2055(2)
C66 C 0.5963(4) 0.7087(4) 0.1796(2)
H55 H 0.5802 0.7173 0.1540
C67 C 0.6491(4) 0.6683(5) 0.1914(3)
H56 H 0.6702 0.6486 0.1740
C68 C 0.6720(4) 0.6559(5) 0.2291(3)
H57 H 0.7085 0.6274 0.2378
C69 C 0.6397(3) 0.6870(4) 0.2540(2)
Ni1A Ni 0.62449(4) 1.22378(4) 0.38223(3)
Ni2A Ni 0.61217(4) 0.70816(5) 0.38676(3)
N1A N 0.5963(3) 1.2991(3) 0.41650(16)
C1A C 0.5443(4) 1.2828(4) 0.4296(2)
C2A C 0.5135(4) 1.3295(4) 0.4475(2)
H1A H 0.4762 1.3164 0.4556
C3A C 0.5376(4) 1.3956(5) 0.4534(2)
H2A H 0.5177 1.4284 0.4662
C4A C 0.5903(5) 1.4133(4) 0.4407(3)
H3A H 0.6073 1.4587 0.4445
C5A C 0.6197(4) 1.3645(4) 0.4220(2)
H4A H 0.6563 1.3773 0.4131
N2A N 0.5164(3) 1.1131(3) 0.39518(18)
N3A N 0.5467(3) 1.1746(3) 0.39779(16)
C6A C 0.5220(3) 1.2135(4) 0.4216(2)
C7A C 0.4749(4) 1.1751(5) 0.4332(3)
H5A H 0.4492 1.1898 0.4495
C8A C 0.4730(4) 1.1123(4) 0.4164(2)
H6A H 0.4460 1.0748 0.4192
C9A C 0.5285(3) 1.0588(4) 0.3709(2)
H7A H 0.5369 1.0798 0.3482
H8A H 0.4896 1.0297 0.3636
N4A N 0.6883(3) 0.6398(4) 0.4073(2)
C10A C 0.7437(3) 0.6553(4) 0.3969(2)
C11A C 0.7934(4) 0.6088(4) 0.3998(2)
H9A H 0.8312 0.6209 0.3919
C12A C 0.7870(5) 0.5435(5) 0.4144(3)
H10A H 0.8199 0.5100 0.4161
C13A C 0.7330(5) 0.5287(6) 0.4264(4)
H11A H 0.7284 0.4849 0.4370
C14A C 0.6841(5) 0.5780(6) 0.4230(4)
H12A H 0.6471 0.5675 0.4321
N5A N 0.7092(3) 0.8222(3) 0.36109(17)
N6A N 0.6918(3) 0.7614(3) 0.37442(16)
C15A C 0.7462(3) 0.7254(4) 0.3824(2)
C16A C 0.7977(4) 0.7620(4) 0.3756(3)
H13A H 0.8411 0.7473 0.3793
C17A C 0.7724(4) 0.8235(4) 0.3624(3)
H14A H 0.7955 0.8611 0.3554
C18A C 0.6622(4) 0.8768(4) 0.3476(2)
H15A H 0.6213 0.8550 0.3346
H16A H 0.6780 0.9047 0.3291
N7A N 0.6004(3) 0.9685(3) 0.36391(17)
C19A C 0.5853(3) 1.0135(3) 0.3887(2)
C20A C 0.6160(3) 1.0151(4) 0.4252(2)
H17A H 0.6034 1.0469 0.4417
C21A C 0.6661(4) 0.9694(4) 0.4378(2)
H18A H 0.6881 0.9695 0.4632
C22A C 0.6838(3) 0.9239(4) 0.4135(2)
H19A H 0.7189 0.8932 0.4214
C23A C 0.6487(3) 0.9242(4) 0.3768(2)
N8A N 0.6904(3) 1.1737(3) 0.42508(19)
C24A C 0.7267(3) 1.1247(4) 0.4131(3)
C25A C 0.7752(4) 1.0896(4) 0.4378(3)
H20A H 0.8011 1.0567 0.4290
C26A C 0.7854(4) 1.1033(5) 0.4756(3)
H21A H 0.8179 1.0799 0.4931
C27A C 0.7471(4) 1.1516(4) 0.4869(3)
H22A H 0.7523 1.1610 0.5126
C28A C 0.7009(4) 1.1865(4) 0.4609(2)
H23A H 0.6759 1.2209 0.4692
N9A N 0.6438(3) 1.1129(3) 0.3197(2)
N10A N 0.6539(3) 1.1411(3) 0.35383(19)
C29A C 0.7077(3) 1.1085(4) 0.3733(2)
C30A C 0.7314(4) 1.0620(4) 0.3515(3)
H24A H 0.7685 1.0337 0.3586
C31A C 0.6893(4) 1.0660(4) 0.3173(3)
H25A H 0.6918 1.0402 0.2959
C32A C 0.5925(3) 1.1376(4) 0.2889(2)
H26A H 0.5586 1.1598 0.2990
H27A H 0.5730 1.0977 0.2738
N11A N 0.3032(3) 1.2872(3) 0.1307(2)
C33A C 0.3239(4) 1.3322(4) 0.1584(2)
C34A C 0.2823(5) 1.3791(4) 0.1694(3)
H28A H 0.2976 1.4096 0.1896
C35A C 0.2179(5) 1.3804(5) 0.1503(3)
H29A H 0.1890 1.4125 0.1570
C36A C 0.1971(5) 1.3364(5) 0.1226(4)
H30A H 0.1533 1.3366 0.1094
C37A C 0.2408(4) 1.2899(4) 0.1131(3)
H31A H 0.2255 1.2588 0.0932
N12A N 0.4896(3) 1.2946(3) 0.1804(2)
N13A N 0.4283(3) 1.2822(3) 0.16256(18)
C38A C 0.3921(4) 1.3298(4) 0.1749(2)
C39A C 0.4315(5) 1.3724(5) 0.2007(3)
H32A H 0.4185 1.4100 0.2137
C40A C 0.4926(6) 1.3489(5) 0.2037(4)
H33A H 0.5305 1.3674 0.2193
C41A C 0.5440(4) 1.2556(5) 0.1725(2)
H34A H 0.5639 1.2819 0.1552
H35A H 0.5287 1.2110 0.1608
N14A N 0.5743(3) 1.2012(3) 0.23235(18)
C42A C 0.6164(4) 1.1882(3) 0.2644(2)
C43A C 0.6774(4) 1.2168(4) 0.2740(2)
H36A H 0.7057 1.2065 0.2972
C44A C 0.6960(4) 1.2608(4) 0.2489(2)
H37A H 0.7374 1.2815 0.2546
C45A C 0.6540(4) 1.2740(4) 0.2160(3)
H38A H 0.6658 1.3035 0.1982
C46A C 0.5932(4) 1.2433(4) 0.2088(2)
N15A N 0.6198(3) 0.7602(4) 0.43688(19)
C47A C 0.5777(4) 0.8121(5) 0.4358(2)
C48A C 0.5779(5) 0.8527(6) 0.4671(2)
H39A H 0.5484 0.8897 0.4658
C49A C 0.6220(6) 0.8377(8) 0.4998(3)
H40A H 0.6232 0.8650 0.5213
C50A C 0.6632(5) 0.7845(8) 0.5014(3)
H41A H 0.6932 0.7737 0.5239
C51A C 0.6611(4) 0.7454(6) 0.4694(3)
H42A H 0.6895 0.7074 0.4705
N16A N 0.5019(3) 0.8127(3) 0.34108(17)
N17A N 0.5438(3) 0.7873(4) 0.37097(18)
C52A C 0.5361(4) 0.8260(5) 0.4000(2)
C53A C 0.4874(4) 0.8740(5) 0.3877(2)
H43A H 0.4713 0.9065 0.4025
C54A C 0.4676(3) 0.8653(4) 0.3505(2)
H44A H 0.4354 0.8913 0.3342
C55A C 0.4930(3) 0.7825(4) 0.3043(2)
H45A H 0.5313 0.7547 0.3031
H46A H 0.4892 0.8200 0.2857
N18A N 0.4579(3) 0.6401(4) 0.1017(2)
C56A C 0.4803(4) 0.5932(4) 0.1284(3)
C57A C 0.5260(4) 0.5442(5) 0.1244(3)
H47A H 0.5415 0.5122 0.1438
C58A C 0.5484(5) 0.5421(7) 0.0933(4)
H48A H 0.5797 0.5090 0.0905
C59A C 0.5254(6) 0.5880(8) 0.0661(3)
H49A H 0.5405 0.5882 0.0439
C60A C 0.4791(5) 0.6349(7) 0.0713(3)
H50A H 0.4616 0.6653 0.0515
N19A N 0.3888(4) 0.6328(3) 0.1929(2)
N20A N 0.4093(3) 0.6458(3) 0.1621(2)
C61A C 0.4514(5) 0.5965(4) 0.1595(3)
C62A C 0.4599(8) 0.5538(9) 0.1917(4)
H51A H 0.4887 0.5161 0.1982
C63A C 0.4185(9) 0.5784(10) 0.2110(5)
H52A H 0.4118 0.5602 0.2336
C64A C 0.3400(4) 0.6753(5) 0.2047(2)
H53A H 0.2979 0.6517 0.1985
H54A H 0.3356 0.7201 0.1916
N21A N 0.4125(3) 0.7262(3) 0.25767(18)
C65A C 0.4336(3) 0.7373(4) 0.2945(2)
C66A C 0.4037(4) 0.7087(4) 0.3204(2)
H55A H 0.4198 0.7173 0.3460
C67A C 0.3509(4) 0.6683(5) 0.3086(3)
H56A H 0.3298 0.6486 0.3260
C68A C 0.3280(4) 0.6559(5) 0.2709(3)
H57A H 0.2915 0.6274 0.2622
C69A C 0.3603(3) 0.6870(4) 0.2460(2)
B1 B 0.1508(3) 0.5604(2) 0.18405(10)
F1 F 0.2157(3) 0.5598(3) 0.18485(16)
F2 F 0.1235(2) 0.6188(2) 0.16558(15)
F3 F 0.1227(3) 0.5023(2) 0.16578(15)
F4 F 0.1430(3) 0.5609(3) 0.21996(13)
B2 B 0.1317(2) 0.9260(2) 0.02317(16)
F5 F 0.1501(3) 0.9319(3) 0.06126(16)
F6 F 0.1000(4) 0.8640(3) 0.01477(15)
F7 F 0.1860(3) 0.9286(5) 0.00923(17)
F8 F 0.0910(4) 0.9805(3) 0.01008(18)
B3 B 0.3585(3) 0.4604(3) 0.2953(2)
F9 F 0.3337(5) 0.4217(5) 0.2639(2)
F10 F 0.3105(5) 0.5036(5) 0.3011(3)
F11 F 0.3781(5) 0.4157(5) 0.3246(2)
F12 F 0.4097(4) 0.4978(5) 0.2888(3)
B4 B 0.0990(3) 0.4441(3) 0.02687(16)
F13 F 0.0588(4) 0.3980(4) 0.0045(2)
F14 F 0.0752(4) 0.4589(4) 0.05752(18)
F15 F 0.1595(3) 0.4157(5) 0.0381(2)
F16 F 0.1026(5) 0.5040(4) 0.0074(2)
O1 O 0.5000 0.910(2) 0.2500
loop_
_geom_bond_atom_site_label_1
_geom_bond_atom_site_label_2
_geom_bond_site_symmetry_1
_geom_bond_site_symmetry_2
Ni1 N1 1_555 1_555
Ni2 N4 1_555 1_555
N1 C1 1_555 1_555
C1 C2 1_555 1_555
C2 H1 1_555 1_555
C3 C2 1_555 1_555
H2 C3 1_555 1_555
C4 C3 1_555 1_555
H3 C4 1_555 1_555
C5 N1 1_555 1_555
H4 C5 1_555 1_555
N2 N3 1_555 1_555
N3 Ni1 1_555 1_555
C6 C1 1_555 1_555
C7 C6 1_555 1_555
H5 C7 1_555 1_555
C8 N2 1_555 1_555
H6 C8 1_555 1_555
C9 N2 1_555 1_555
H7 C9 1_555 1_555
H8 C9 1_555 1_555
N4 C10 1_555 1_555
C10 C11 1_555 1_555
C11 H9 1_555 1_555
C12 C11 1_555 1_555
H10 C12 1_555 1_555
C13 C12 1_555 1_555
H11 C13 1_555 1_555
C14 N4 1_555 1_555
H12 C14 1_555 1_555
N5 N6 1_555 1_555
N6 Ni2 1_555 1_555
C15 C10 1_555 1_555
C16 C15 1_555 1_555
H13 C16 1_555 1_555
C17 N5 1_555 1_555
H14 C17 1_555 1_555
C18 N5 1_555 1_555
H15 C18 1_555 1_555
H16 C18 1_555 1_555
N7 C19 1_555 1_555
C19 C9 1_555 1_555
C20 C19 1_555 1_555
H17 C20 1_555 1_555
C21 C20 1_555 1_555
H18 C21 1_555 1_555
C22 C21 1_555 1_555
H19 C22 1_555 1_555
C23 C18 1_555 1_555
N8 Ni1 1_555 1_555
C24 N8 1_555 1_555
C25 C24 1_555 1_555
H20 C25 1_555 1_555
C26 C25 1_555 1_555
H21 C26 1_555 1_555
C27 C26 1_555 1_555
H22 C27 1_555 1_555
C28 N8 1_555 1_555
H23 C28 1_555 1_555
N9 N10 1_555 1_555
N10 Ni1 1_555 1_555
C29 C24 1_555 1_555
C30 C29 1_555 1_555
H24 C30 1_555 1_555
C31 N9 1_555 1_555
H25 C31 1_555 1_555
C32 N9 1_555 1_555
H26 C32 1_555 1_555
H27 C32 1_555 1_555
N11 C33 1_555 1_555
C33 C34 1_555 1_555
C34 H28 1_555 1_555
C35 C34 1_555 1_555
H29 C35 1_555 1_555
C36 C35 1_555 1_555
H30 C36 1_555 1_555
C37 N11 1_555 1_555
H31 C37 1_555 1_555
N12 N13 1_555 1_555
N13 C38 1_555 1_555
C38 C33 1_555 1_555
C39 C38 1_555 1_555
H32 C39 1_555 1_555
C40 N12 1_555 1_555
H33 C40 1_555 1_555
C41 N12 1_555 1_555
H34 C41 1_555 1_555
H35 C41 1_555 1_555
N14 C42 1_555 1_555
C42 C32 1_555 1_555
C43 C42 1_555 1_555
H36 C43 1_555 1_555
C44 C43 1_555 1_555
H37 C44 1_555 1_555
C45 C44 1_555 1_555
H38 C45 1_555 1_555
C46 C41 1_555 1_555
N15 Ni2 1_555 1_555
C47 N15 1_555 1_555
C48 C47 1_555 1_555
H39 C48 1_555 1_555
C49 C48 1_555 1_555
H40 C49 1_555 1_555
C50 C49 1_555 1_555
H41 C50 1_555 1_555
C51 N15 1_555 1_555
H42 C51 1_555 1_555
N16 N17 1_555 1_555
N17 Ni2 1_555 1_555
C52 C47 1_555 1_555
C53 C52 1_555 1_555
H43 C53 1_555 1_555
C54 N16 1_555 1_555
H44 C54 1_555 1_555
C55 N16 1_555 1_555
H45 C55 1_555 1_555
H46 C55 1_555 1_555
N18 C56 1_555 1_555
C56 C57 1_555 1_555
C57 H47 1_555 1_555
C58 C57 1_555 1_555
H48 C58 1_555 1_555
C59 C58 1_555 1_555
H49 C59 1_555 1_555
C60 N18 1_555 1_555
H50 C60 1_555 1_555
N19 N20 1_555 1_555
N20 C61 1_555 1_555
C61 C56 1_555 1_555
C62 C61 1_555 1_555
H51 C62 1_555 1_555
C63 N19 1_555 1_555
H52 C63 1_555 1_555
C64 N19 1_555 1_555
H53 C64 1_555 1_555
H54 C64 1_555 1_555
N21 C65 1_555 1_555
C65 C55 1_555 1_555
C66 C65 1_555 1_555
H55 C66 1_555 1_555
C67 C66 1_555 1_555
H56 C67 1_555 1_555
C68 C67 1_555 1_555
H57 C68 1_555 1_555
C69 C64 1_555 1_555
B1 F1 1_555 1_555
F2 B1 1_555 1_555
F3 B1 1_555 1_555
F4 B1 1_555 1_555
B2 F5 1_555 1_555
F6 B2 1_555 1_555
F7 B2 1_555 1_555
F8 B2 1_555 1_555
B3 F9 1_555 1_555
F10 B3 1_555 1_555
F11 B3 1_555 1_555
F12 B3 1_555 1_555
B4 F13 1_555 1_555
F14 B4 1_555 1_555
F15 B4 1_555 1_555
F16 B4 1_555 1_555
Ni1A N11 1_555 1_555
Ni2A N18 1_555 1_555
N1A Ni1A 1_555 1_555
C1A N1A 1_555 1_555
C2A C1A 1_555 1_555
H1A C2A 1_555 1_555
C3A C2A 1_555 1_555
H2A C3A 1_555 1_555
C4A C3A 1_555 1_555
H3A C4A 1_555 1_555
C5A N1A 1_555 1_555
H4A C5A 1_555 1_555
N2A N3A 1_555 1_555
N3A Ni1A 1_555 1_555
C6A C1A 1_555 1_555
C7A C6A 1_555 1_555
H5A C7A 1_555 1_555
C8A N2A 1_555 1_555
H6A C8A 1_555 1_555
C9A N2A 1_555 1_555
H7A C9A 1_555 1_555
H8A C9A 1_555 1_555
N4A Ni2A 1_555 1_555
C10A N4A 1_555 1_555
C11A C10A 1_555 1_555
H9A C11A 1_555 1_555
C12A C11A 1_555 1_555
H10A C12A 1_555 1_555
C13A C12A 1_555 1_555
H11A C13A 1_555 1_555
C14A N4A 1_555 1_555
H12A C14A 1_555 1_555
N5A N6A 1_555 1_555
N6A Ni2A 1_555 1_555
C15A C10A 1_555 1_555
C16A C15A 1_555 1_555
H13A C16A 1_555 1_555
C17A N5A 1_555 1_555
H14A C17A 1_555 1_555
C18A N5A 1_555 1_555
H15A C18A 1_555 1_555
H16A C18A 1_555 1_555
N7A C19A 1_555 1_555
C19A C9A 1_555 1_555
C20A C19A 1_555 1_555
H17A C20A 1_555 1_555
C21A C20A 1_555 1_555
H18A C21A 1_555 1_555
C22A C21A 1_555 1_555
H19A C22A 1_555 1_555
C23A C18A 1_555 1_555
N8A Ni1A 1_555 1_555
C24A N8A 1_555 1_555
C25A C24A 1_555 1_555
H20A C25A 1_555 1_555
C26A C25A 1_555 1_555
H21A C26A 1_555 1_555
C27A C26A 1_555 1_555
H22A C27A 1_555 1_555
C28A N8A 1_555 1_555
H23A C28A 1_555 1_555
N9A N10A 1_555 1_555
N10A Ni1A 1_555 1_555
C29A C24A 1_555 1_555
C30A C29A 1_555 1_555
H24A C30A 1_555 1_555
C31A N9A 1_555 1_555
H25A C31A 1_555 1_555
C32A N9A 1_555 1_555
H26A C32A 1_555 1_555
H27A C32A 1_555 1_555
N11A Ni1 1_555 1_555
C33A N11A 1_555 1_555
C34A C33A 1_555 1_555
H28A C34A 1_555 1_555
C35A C34A 1_555 1_555
H29A C35A 1_555 1_555
C36A C35A 1_555 1_555
H30A C36A 1_555 1_555
C37A N11A 1_555 1_555
H31A C37A 1_555 1_555
N12A N13A 1_555 1_555
N13A Ni1 1_555 1_555
C38A C33A 1_555 1_555
C39A C38A 1_555 1_555
H32A C39A 1_555 1_555
C40A N12A 1_555 1_555
H33A C40A 1_555 1_555
C41A N12A 1_555 1_555
H34A C41A 1_555 1_555
H35A C41A 1_555 1_555
N14A C42A 1_555 1_555
C42A C32A 1_555 1_555
C43A C42A 1_555 1_555
H36A C43A 1_555 1_555
C44A C43A 1_555 1_555
H37A C44A 1_555 1_555
C45A C44A 1_555 1_555
H38A C45A 1_555 1_555
C46A C41A 1_555 1_555
N15A Ni2A 1_555 1_555
C47A N15A 1_555 1_555
C48A C47A 1_555 1_555
H39A C48A 1_555 1_555
C49A C48A 1_555 1_555
H40A C49A 1_555 1_555
C50A C49A 1_555 1_555
H41A C50A 1_555 1_555
C51A N15A 1_555 1_555
H42A C51A 1_555 1_555
N16A N17A 1_555 1_555
N17A Ni2A 1_555 1_555
C52A C47A 1_555 1_555
C53A C52A 1_555 1_555
H43A C53A 1_555 1_555
C54A N16A 1_555 1_555
H44A C54A 1_555 1_555
C55A N16A 1_555 1_555
H45A C55A 1_555 1_555
H46A C55A 1_555 1_555
N18A Ni2 1_555 1_555
C56A N18A 1_555 1_555
C57A C56A 1_555 1_555
H47A C57A 1_555 1_555
C58A C57A 1_555 1_555
H48A C58A 1_555 1_555
C59A C58A 1_555 1_555
H49A C59A 1_555 1_555
C60A N18A 1_555 1_555
H50A C60A 1_555 1_555
N19A N20A 1_555 1_555
N20A Ni2 1_555 1_555
C61A C56A 1_555 1_555
C62A C61A 1_555 1_555
H51A C62A 1_555 1_555
C63A N19A 1_555 1_555
H52A C63A 1_555 1_555
C64A N19A 1_555 1_555
H53A C64A 1_555 1_555
H54A C64A 1_555 1_555
N21A C65A 1_555 1_555
C65A C55A 1_555 1_555
C66A C65A 1_555 1_555
H55A C66A 1_555 1_555
C67A C66A 1_555 1_555
H56A C67A 1_555 1_555
C68A C67A 1_555 1_555
H57A C68A 1_555 1_555
C69A C64A 1_555 1_555
C4 C5 1_555 1_555
N3 C6 1_555 1_555
C7 C8 1_555 1_555
C13 C14 1_555 1_555
N6 C15 1_555 1_555
C16 C17 1_555 1_555
N7 C23 1_555 1_555
C22 C23 1_555 1_555
C27 C28 1_555 1_555
N10 C29 1_555 1_555
C30 C31 1_555 1_555
C36 C37 1_555 1_555
N13 Ni1A 1_555 1_555
C39 C40 1_555 1_555
N14 C46 1_555 1_555
C45 C46 1_555 1_555
C50 C51 1_555 1_555
N17 C52 1_555 1_555
C53 C54 1_555 1_555
C59 C60 1_555 1_555
N20 Ni2A 1_555 1_555
C62 C63 1_555 1_555
N21 C69 1_555 1_555
C68 C69 1_555 1_555
C4A C5A 1_555 1_555
N3A C6A 1_555 1_555
C7A C8A 1_555 1_555
C13A C14A 1_555 1_555
N6A C15A 1_555 1_555
C16A C17A 1_555 1_555
N7A C23A 1_555 1_555
C22A C23A 1_555 1_555
C27A C28A 1_555 1_555
N10A C29A 1_555 1_555
C30A C31A 1_555 1_555
C36A C37A 1_555 1_555
N13A C38A 1_555 1_555
C39A C40A 1_555 1_555
N14A C46A 1_555 1_555
C45A C46A 1_555 1_555
C50A C51A 1_555 1_555
N17A C52A 1_555 1_555
C53A C54A 1_555 1_555
C59A C60A 1_555 1_555
N20A C61A 1_555 1_555
C62A C63A 1_555 1_555
N21A C69A 1_555 1_555
C68A C69A 1_555 1_555

#END
