# generated using pymatgen
data_H520Pd24C969.76N144
_symmetry_space_group_name_H-M   'P 1'
_cell_length_a   43.75600000
_cell_length_b   43.75600000
_cell_length_c   46.52988313
_cell_angle_alpha   118.04678996
_cell_angle_beta   118.04678996
_cell_angle_gamma   90.00000000
_symmetry_Int_Tables_number   1
_chemical_formula_structural   H520Pd24C969.76N144
_chemical_formula_sum   'H520 Pd24 C969.76 N144'
_cell_volume   66536.70334484
_cell_formula_units_Z   1
loop_
 _symmetry_equiv_pos_site_id
 _symmetry_equiv_pos_as_xyz
  1  'x, y, z'
loop_
 _atom_site_type_symbol
 _atom_site_label
 _atom_site_symmetry_multiplicity
 _atom_site_fract_x
 _atom_site_fract_y
 _atom_site_fract_z
 _atom_site_occupancy
  C  C1  1  0.529700  0.775600  0.572000  1.0
  C  C2  1  0.042300  0.796400  0.572000  1.0
  C  C3  1  0.775600  0.042300  0.572000  1.0
  C  C4  1  0.796400  0.529700  0.572000  1.0
  C  C5  1  0.470300  0.224400  0.428000  1.0
  C  C6  1  0.957700  0.203600  0.428000  1.0
  C  C7  1  0.224400  0.957700  0.428000  1.0
  C  C8  1  0.203600  0.470300  0.428000  1.0
  C  C9  1  0.513800  0.766300  0.587600  1.0
  C  C10  1  0.073800  0.821300  0.587600  1.0
  C  C11  1  0.766300  0.073800  0.587600  1.0
  C  C12  1  0.821300  0.513800  0.587600  1.0
  C  C13  1  0.486200  0.233700  0.412400  1.0
  C  C14  1  0.926200  0.178700  0.412400  1.0
  C  C15  1  0.233700  0.926200  0.412400  1.0
  C  C16  1  0.178700  0.486200  0.412400  1.0
  C  C17  1  0.477100  0.748600  0.565400  1.0
  C  C18  1  0.088300  0.816800  0.565400  1.0
  C  C19  1  0.748600  0.088300  0.565400  1.0
  C  C20  1  0.816800  0.477100  0.565400  1.0
  C  C21  1  0.522900  0.251400  0.434600  1.0
  C  C22  1  0.911700  0.183200  0.434600  1.0
  C  C23  1  0.251400  0.911700  0.434600  1.0
  C  C24  1  0.183200  0.522900  0.434600  1.0
  C  C25  1  0.456400  0.740300  0.527800  1.0
  C  C26  1  0.071400  0.787500  0.527800  1.0
  C  C27  1  0.740300  0.071400  0.527800  1.0
  C  C28  1  0.787500  0.456400  0.527800  1.0
  C  C29  1  0.543600  0.259700  0.472200  1.0
  C  C30  1  0.928600  0.212500  0.472200  1.0
  C  C31  1  0.259700  0.928600  0.472200  1.0
  C  C32  1  0.212500  0.543600  0.472200  1.0
  C  C33  1  0.472300  0.749600  0.512200  1.0
  C  C34  1  0.039900  0.762600  0.512200  1.0
  C  C35  1  0.749600  0.039900  0.512200  1.0
  C  C36  1  0.762600  0.472300  0.512200  1.0
  C  C37  1  0.527700  0.250400  0.487800  1.0
  C  C38  1  0.960100  0.237400  0.487800  1.0
  C  C39  1  0.250400  0.960100  0.487800  1.0
  C  C40  1  0.237400  0.527700  0.487800  1.0
  C  C41  1  0.431100  0.716000  0.568600  1.0
  C  C42  1  0.137500  0.852600  0.568600  1.0
  C  C43  1  0.716000  0.137500  0.568600  1.0
  C  C44  1  0.852600  0.431100  0.568600  1.0
  C  C45  1  0.568900  0.284000  0.431400  1.0
  C  C46  1  0.862500  0.147400  0.431400  1.0
  C  C47  1  0.284000  0.862500  0.431400  1.0
  C  C48  1  0.147400  0.568900  0.431400  1.0
  C  C49  1  0.427600  0.723000  0.599800  1.0
  C  C50  1  0.172200  0.876800  0.599800  1.0
  C  C51  1  0.723000  0.172200  0.599800  1.0
  C  C52  1  0.876800  0.427600  0.599800  1.0
  C  C53  1  0.572400  0.277000  0.400200  1.0
  C  C54  1  0.827800  0.123200  0.400200  1.0
  C  C55  1  0.277000  0.827800  0.400200  1.0
  C  C56  1  0.123200  0.572400  0.400200  1.0
  C  C57  1  0.482800  0.756300  0.626400  1.0
  C  C58  1  0.143600  0.870100  0.626400  1.0
  C  C59  1  0.756300  0.143600  0.626400  1.0
  C  C60  1  0.870100  0.482800  0.626400  1.0
  C  C61  1  0.517200  0.243700  0.373600  1.0
  C  C62  1  0.856400  0.129900  0.373600  1.0
  C  C63  1  0.243700  0.856400  0.373600  1.0
  C  C64  1  0.129900  0.517200  0.373600  1.0
  C  C65  1  0.468060  0.754560  0.672520  1.0
  C  C66  1  0.204460  0.917960  0.672520  1.0
  C  C67  1  0.754560  0.204460  0.672520  1.0
  C  C68  1  0.917960  0.468060  0.672520  1.0
  C  C69  1  0.531940  0.245440  0.327480  1.0
  C  C70  1  0.795540  0.082040  0.327480  1.0
  C  C71  1  0.245440  0.795540  0.327480  1.0
  C  C72  1  0.082040  0.531940  0.327480  1.0
  C  C73  1  0.443600  0.745800  0.680400  1.0
  C  C74  1  0.236800  0.934600  0.680400  1.0
  C  C75  1  0.745800  0.236800  0.680400  1.0
  C  C76  1  0.934600  0.443600  0.680400  1.0
  C  C77  1  0.556400  0.254200  0.319600  1.0
  C  C78  1  0.763200  0.065400  0.319600  1.0
  C  C79  1  0.254200  0.763200  0.319600  1.0
  C  C80  1  0.065400  0.556400  0.319600  1.0
  C  C81  1  0.455000  0.755800  0.717800  1.0
  C  C82  1  0.262800  0.962000  0.717800  1.0
  C  C83  1  0.755800  0.262800  0.717800  1.0
  C  C84  1  0.962000  0.455000  0.717800  1.0
  C  C85  1  0.545000  0.244200  0.282200  1.0
  C  C86  1  0.737200  0.038000  0.282200  1.0
  C  C87  1  0.244200  0.737200  0.282200  1.0
  C  C88  1  0.038000  0.545000  0.282200  1.0
  C  C89  1  0.515300  0.783000  0.739200  1.0
  C  C90  1  0.223900  0.956200  0.739200  1.0
  C  C91  1  0.783000  0.223900  0.739200  1.0
  C  C92  1  0.956200  0.515300  0.739200  1.0
  C  C93  1  0.484700  0.217000  0.260800  1.0
  C  C94  1  0.776100  0.043800  0.260800  1.0
  C  C95  1  0.217000  0.776100  0.260800  1.0
  C  C96  1  0.043800  0.484700  0.260800  1.0
  C  C97  1  0.504000  0.773200  0.702000  1.0
  C  C98  1  0.198000  0.928800  0.702000  1.0
  C  C99  1  0.773200  0.198000  0.702000  1.0
  C  C100  1  0.928800  0.504000  0.702000  1.0
  C  C101  1  0.496000  0.226800  0.298000  1.0
  C  C102  1  0.802000  0.071200  0.298000  1.0
  C  C103  1  0.226800  0.802000  0.298000  1.0
  C  C104  1  0.071200  0.496000  0.298000  1.0
  C  C105  1  0.516400  0.865000  0.818600  1.0
  C  C106  1  0.302200  0.953600  0.818600  1.0
  C  C107  1  0.865000  0.302200  0.818600  1.0
  C  C108  1  0.953600  0.516400  0.818600  1.0
  C  C109  1  0.483600  0.135000  0.181400  1.0
  C  C110  1  0.697800  0.046400  0.181400  1.0
  C  C111  1  0.135000  0.697800  0.181400  1.0
  C  C112  1  0.046400  0.483600  0.181400  1.0
  C  C113  1  0.513000  0.896500  0.818400  1.0
  C  C114  1  0.305400  0.921900  0.818400  1.0
  C  C115  1  0.896500  0.305400  0.818400  1.0
  C  C116  1  0.921900  0.513000  0.818400  1.0
  C  C117  1  0.487000  0.103500  0.181600  1.0
  C  C118  1  0.694600  0.078100  0.181600  1.0
  C  C119  1  0.103500  0.694600  0.181600  1.0
  C  C120  1  0.078100  0.487000  0.181600  1.0
  C  C121  1  0.479100  0.901700  0.802000  1.0
  C  C122  1  0.322900  0.900300  0.802000  1.0
  C  C123  1  0.901700  0.322900  0.802000  1.0
  C  C124  1  0.900300  0.479100  0.802000  1.0
  C  C125  1  0.520900  0.098300  0.198000  1.0
  C  C126  1  0.677100  0.099700  0.198000  1.0
  C  C127  1  0.098300  0.677100  0.198000  1.0
  C  C128  1  0.099700  0.520900  0.198000  1.0
  C  C129  1  0.448500  0.875200  0.785600  1.0
  C  C130  1  0.337100  0.910400  0.785600  1.0
  C  C131  1  0.875200  0.337100  0.785600  1.0
  C  C132  1  0.910400  0.448500  0.785600  1.0
  C  C133  1  0.551500  0.124800  0.214400  1.0
  C  C134  1  0.662900  0.089600  0.214400  1.0
  C  C135  1  0.124800  0.662900  0.214400  1.0
  C  C136  1  0.089600  0.551500  0.214400  1.0
  C  C137  1  0.451700  0.843600  0.785600  1.0
  C  C138  1  0.333900  0.942000  0.785600  1.0
  C  C139  1  0.843600  0.333900  0.785600  1.0
  C  C140  1  0.942000  0.451700  0.785600  1.0
  C  C141  1  0.548300  0.156400  0.214400  1.0
  C  C142  1  0.666100  0.058000  0.214400  1.0
  C  C143  1  0.156400  0.666100  0.214400  1.0
  C  C144  1  0.058000  0.548300  0.214400  1.0
  C  C145  1  0.428600  0.932200  0.777600  1.0
  C  C146  1  0.349000  0.845400  0.777600  1.0
  C  C147  1  0.932200  0.349000  0.777600  1.0
  C  C148  1  0.845400  0.428600  0.777600  1.0
  C  C149  1  0.571400  0.067800  0.222400  1.0
  C  C150  1  0.651000  0.154600  0.222400  1.0
  C  C151  1  0.067800  0.651000  0.222400  1.0
  C  C152  1  0.154600  0.571400  0.222400  1.0
  C  C153  1  0.435100  0.965000  0.779400  1.0
  C  C154  1  0.344300  0.814400  0.779400  1.0
  C  C155  1  0.965000  0.344300  0.779400  1.0
  C  C156  1  0.814400  0.435100  0.779400  1.0
  C  C157  1  0.564900  0.035000  0.220600  1.0
  C  C158  1  0.655700  0.185600  0.220600  1.0
  C  C159  1  0.035000  0.655700  0.220600  1.0
  C  C160  1  0.185600  0.564900  0.220600  1.0
  C  C161  1  0.492300  0.954500  0.806200  1.0
  C  C162  1  0.313900  0.851700  0.806200  1.0
  C  C163  1  0.954500  0.313900  0.806200  1.0
  C  C164  1  0.851700  0.492300  0.806200  1.0
  C  C165  1  0.507700  0.045500  0.193800  1.0
  C  C166  1  0.686100  0.148300  0.193800  1.0
  C  C167  1  0.045500  0.686100  0.193800  1.0
  C  C168  1  0.148300  0.507700  0.193800  1.0
  C  C169  1  0.488800  0.010700  0.801600  1.0
  C  C170  1  0.312800  0.790900  0.801600  1.0
  C  C171  1  0.010700  0.312800  0.801600  1.0
  C  C172  1  0.790900  0.488800  0.801600  1.0
  C  C173  1  0.511200  0.989300  0.198400  1.0
  C  C174  1  0.687200  0.209100  0.198400  1.0
  C  C175  1  0.989300  0.687200  0.198400  1.0
  C  C176  1  0.209100  0.511200  0.198400  1.0
  C  C177  1  0.525700  0.021300  0.817000  1.0
  C  C178  1  0.291300  0.795700  0.817000  1.0
  C  C179  1  0.021300  0.291300  0.817000  1.0
  C  C180  1  0.795700  0.525700  0.817000  1.0
  C  C181  1  0.474300  0.978700  0.183000  1.0
  C  C182  1  0.708700  0.204300  0.183000  1.0
  C  C183  1  0.978700  0.708700  0.183000  1.0
  C  C184  1  0.204300  0.474300  0.183000  1.0
  C  C185  1  0.540300  0.050200  0.818000  1.0
  C  C186  1  0.277700  0.767800  0.818000  1.0
  C  C187  1  0.050200  0.277700  0.818000  1.0
  C  C188  1  0.767800  0.540300  0.818000  1.0
  C  C189  1  0.459700  0.949800  0.182000  1.0
  C  C190  1  0.722300  0.232200  0.182000  1.0
  C  C191  1  0.949800  0.722300  0.182000  1.0
  C  C192  1  0.232200  0.459700  0.182000  1.0
  C  C193  1  0.481200  0.058000  0.788200  1.0
  C  C194  1  0.307000  0.730200  0.788200  1.0
  C  C195  1  0.058000  0.307000  0.788200  1.0
  C  C196  1  0.730200  0.481200  0.788200  1.0
  C  C197  1  0.518800  0.942000  0.211800  1.0
  C  C198  1  0.693000  0.269800  0.211800  1.0
  C  C199  1  0.942000  0.693000  0.211800  1.0
  C  C200  1  0.269800  0.518800  0.211800  1.0
  C  C201  1  0.466600  0.029100  0.787200  1.0
  C  C202  1  0.320600  0.758100  0.787200  1.0
  C  C203  1  0.029100  0.320600  0.787200  1.0
  C  C204  1  0.758100  0.466600  0.787200  1.0
  C  C205  1  0.533400  0.970900  0.212800  1.0
  C  C206  1  0.679400  0.241900  0.212800  1.0
  C  C207  1  0.970900  0.679400  0.212800  1.0
  C  C208  1  0.241900  0.533400  0.212800  1.0
  C  C209  1  0.495100  0.064200  0.717400  1.0
  C  C210  1  0.222300  0.653200  0.717400  1.0
  C  C211  1  0.064200  0.222300  0.717400  1.0
  C  C212  1  0.653200  0.495100  0.717400  1.0
  C  C213  1  0.504900  0.935800  0.282600  1.0
  C  C214  1  0.777700  0.346800  0.282600  1.0
  C  C215  1  0.935800  0.777700  0.282600  1.0
  C  C216  1  0.346800  0.504900  0.282600  1.0
  C  C217  1  0.481400  0.036800  0.679400  1.0
  C  C218  1  0.198000  0.642600  0.679400  1.0
  C  C219  1  0.036800  0.198000  0.679400  1.0
  C  C220  1  0.642600  0.481400  0.679400  1.0
  C  C221  1  0.518600  0.963200  0.320600  1.0
  C  C222  1  0.802000  0.357400  0.320600  1.0
  C  C223  1  0.963200  0.802000  0.320600  1.0
  C  C224  1  0.357400  0.518600  0.320600  1.0
  C  C225  1  0.500830  0.012630  0.670660  1.0
  C  C226  1  0.169830  0.658030  0.670660  1.0
  C  C227  1  0.012630  0.169830  0.670660  1.0
  C  C228  1  0.658030  0.500830  0.670660  1.0
  C  C229  1  0.499170  0.987370  0.329340  1.0
  C  C230  1  0.830170  0.341970  0.329340  1.0
  C  C231  1  0.987370  0.830170  0.329340  1.0
  C  C232  1  0.341970  0.499170  0.329340  1.0
  C  C233  1  0.534000  0.015900  0.699800  1.0
  C  C234  1  0.165800  0.683900  0.699800  1.0
  C  C235  1  0.015900  0.165800  0.699800  1.0
  C  C236  1  0.683900  0.534000  0.699800  1.0
  C  C237  1  0.466000  0.984100  0.300200  1.0
  C  C238  1  0.834200  0.316100  0.300200  1.0
  C  C239  1  0.984100  0.834200  0.300200  1.0
  C  C240  1  0.316100  0.466000  0.300200  1.0
  C  C241  1  0.547700  0.043300  0.737800  1.0
  C  C242  1  0.190100  0.694500  0.737800  1.0
  C  C243  1  0.043300  0.190100  0.737800  1.0
  C  C244  1  0.694500  0.547700  0.737800  1.0
  C  C245  1  0.452300  0.956700  0.262200  1.0
  C  C246  1  0.809900  0.305500  0.262200  1.0
  C  C247  1  0.956700  0.809900  0.262200  1.0
  C  C248  1  0.305500  0.452300  0.262200  1.0
  C  C249  1  0.461600  0.970700  0.598000  1.0
  C  C250  1  0.136400  0.627300  0.598000  1.0
  C  C251  1  0.970700  0.136400  0.598000  1.0
  C  C252  1  0.627300  0.461600  0.598000  1.0
  C  C253  1  0.538400  0.029300  0.402000  1.0
  C  C254  1  0.863600  0.372700  0.402000  1.0
  C  C255  1  0.029300  0.863600  0.402000  1.0
  C  C256  1  0.372700  0.538400  0.402000  1.0
  C  C257  1  0.460400  0.935600  0.572000  1.0
  C  C258  1  0.111600  0.636400  0.572000  1.0
  C  C259  1  0.935600  0.111600  0.572000  1.0
  C  C260  1  0.636400  0.460400  0.572000  1.0
  C  C261  1  0.539600  0.064400  0.428000  1.0
  C  C262  1  0.888400  0.363600  0.428000  1.0
  C  C263  1  0.064400  0.888400  0.428000  1.0
  C  C264  1  0.363600  0.539600  0.428000  1.0
  C  C265  1  0.511100  0.954200  0.631200  1.0
  C  C266  1  0.120100  0.677000  0.631200  1.0
  C  C267  1  0.954200  0.120100  0.631200  1.0
  C  C268  1  0.677000  0.511100  0.631200  1.0
  C  C269  1  0.488900  0.045800  0.368800  1.0
  C  C270  1  0.879900  0.323000  0.368800  1.0
  C  C271  1  0.045800  0.879900  0.368800  1.0
  C  C272  1  0.323000  0.488900  0.368800  1.0
  C  C273  1  0.499200  0.894200  0.567800  1.0
  C  C274  1  0.068600  0.673600  0.567800  1.0
  C  C275  1  0.894200  0.068600  0.567800  1.0
  C  C276  1  0.673600  0.499200  0.567800  1.0
  C  C277  1  0.500800  0.105800  0.432200  1.0
  C  C278  1  0.931400  0.326400  0.432200  1.0
  C  C279  1  0.105800  0.931400  0.432200  1.0
  C  C280  1  0.326400  0.500800  0.432200  1.0
  C  C281  1  0.476800  0.867100  0.529400  1.0
  C  C282  1  0.052600  0.662300  0.529400  1.0
  C  C283  1  0.867100  0.052600  0.529400  1.0
  C  C284  1  0.662300  0.476800  0.529400  1.0
  C  C285  1  0.523200  0.132900  0.470600  1.0
  C  C286  1  0.947400  0.337700  0.470600  1.0
  C  C287  1  0.132900  0.947400  0.470600  1.0
  C  C288  1  0.337700  0.523200  0.470600  1.0
  C  C289  1  0.487300  0.836600  0.513400  1.0
  C  C290  1  0.026100  0.676800  0.513400  1.0
  C  C291  1  0.836600  0.026100  0.513400  1.0
  C  C292  1  0.676800  0.487300  0.513400  1.0
  C  C293  1  0.512700  0.163400  0.486600  1.0
  C  C294  1  0.973900  0.323200  0.486600  1.0
  C  C295  1  0.163400  0.973900  0.486600  1.0
  C  C296  1  0.323200  0.512700  0.486600  1.0
  C  C297  1  0.543000  0.860600  0.574600  1.0
  C  C298  1  0.031600  0.714000  0.574600  1.0
  C  C299  1  0.860600  0.031600  0.574600  1.0
  C  C300  1  0.714000  0.543000  0.574600  1.0
  C  C301  1  0.457000  0.139400  0.425400  1.0
  C  C302  1  0.968400  0.286000  0.425400  1.0
  C  C303  1  0.139400  0.968400  0.425400  1.0
  C  C304  1  0.286000  0.457000  0.425400  1.0
  C  C305  1  0.532300  0.891000  0.590400  1.0
  C  C306  1  0.058100  0.699400  0.590400  1.0
  C  C307  1  0.891000  0.058100  0.590400  1.0
  C  C308  1  0.699400  0.532300  0.590400  1.0
  C  C309  1  0.467700  0.109000  0.409600  1.0
  C  C310  1  0.941900  0.300600  0.409600  1.0
  C  C311  1  0.109000  0.941900  0.409600  1.0
  C  C312  1  0.300600  0.467700  0.409600  1.0
  C  C313  1  0.528000  0.716400  0.465200  1.0
  C  C314  1  0.937200  0.748800  0.465200  1.0
  C  C315  1  0.716400  0.937200  0.465200  1.0
  C  C316  1  0.748800  0.528000  0.465200  1.0
  C  C317  1  0.472000  0.283600  0.534800  1.0
  C  C318  1  0.062800  0.251200  0.534800  1.0
  C  C319  1  0.283600  0.062800  0.534800  1.0
  C  C320  1  0.251200  0.472000  0.534800  1.0
  C  C321  1  0.534100  0.683200  0.447600  1.0
  C  C322  1  0.913500  0.764400  0.447600  1.0
  C  C323  1  0.683200  0.913500  0.447600  1.0
  C  C324  1  0.764400  0.534100  0.447600  1.0
  C  C325  1  0.465900  0.316800  0.552400  1.0
  C  C326  1  0.086500  0.235600  0.552400  1.0
  C  C327  1  0.316800  0.086500  0.552400  1.0
  C  C328  1  0.235600  0.465900  0.552400  1.0
  C  C329  1  0.565700  0.676500  0.468000  1.0
  C  C330  1  0.902300  0.791500  0.468000  1.0
  C  C331  1  0.676500  0.902300  0.468000  1.0
  C  C332  1  0.791500  0.565700  0.468000  1.0
  C  C333  1  0.434300  0.323500  0.532000  1.0
  C  C334  1  0.097700  0.208500  0.532000  1.0
  C  C335  1  0.323500  0.097700  0.532000  1.0
  C  C336  1  0.208500  0.434300  0.532000  1.0
  C  C337  1  0.591300  0.702900  0.506000  1.0
  C  C338  1  0.914700  0.803100  0.506000  1.0
  C  C339  1  0.702900  0.914700  0.506000  1.0
  C  C340  1  0.803100  0.591300  0.506000  1.0
  C  C341  1  0.408700  0.297100  0.494000  1.0
  C  C342  1  0.085300  0.196900  0.494000  1.0
  C  C343  1  0.297100  0.085300  0.494000  1.0
  C  C344  1  0.196900  0.408700  0.494000  1.0
  C  C345  1  0.585300  0.736100  0.523600  1.0
  C  C346  1  0.938300  0.787500  0.523600  1.0
  C  C347  1  0.736100  0.938300  0.523600  1.0
  C  C348  1  0.787500  0.585300  0.523600  1.0
  C  C349  1  0.414700  0.263900  0.476400  1.0
  C  C350  1  0.061700  0.212500  0.476400  1.0
  C  C351  1  0.263900  0.061700  0.476400  1.0
  C  C352  1  0.212500  0.414700  0.476400  1.0
  C  C353  1  0.610100  0.639300  0.483000  1.0
  C  C354  1  0.872900  0.843700  0.483000  1.0
  C  C355  1  0.639300  0.872900  0.483000  1.0
  C  C356  1  0.843700  0.610100  0.483000  1.0
  C  C357  1  0.389900  0.360700  0.517000  1.0
  C  C358  1  0.127100  0.156300  0.517000  1.0
  C  C359  1  0.360700  0.127100  0.517000  1.0
  C  C360  1  0.156300  0.389900  0.517000  1.0
  C  C361  1  0.555700  0.611500  0.423000  1.0
  C  C362  1  0.867300  0.811500  0.423000  1.0
  C  C363  1  0.611500  0.867300  0.423000  1.0
  C  C364  1  0.811500  0.555700  0.423000  1.0
  C  C365  1  0.444300  0.388500  0.577000  1.0
  C  C366  1  0.132700  0.188500  0.577000  1.0
  C  C367  1  0.388500  0.132700  0.577000  1.0
  C  C368  1  0.188500  0.444300  0.577000  1.0
  C  C369  1  0.538800  0.799600  0.466400  1.0
  C  C370  1  0.927600  0.666800  0.466400  1.0
  C  C371  1  0.799600  0.927600  0.466400  1.0
  C  C372  1  0.666800  0.538800  0.466400  1.0
  C  C373  1  0.461200  0.200400  0.533600  1.0
  C  C374  1  0.072400  0.333200  0.533600  1.0
  C  C375  1  0.200400  0.072400  0.533600  1.0
  C  C376  1  0.333200  0.461200  0.533600  1.0
  C  C377  1  0.550900  0.809900  0.448600  1.0
  C  C378  1  0.897700  0.638700  0.448600  1.0
  C  C379  1  0.809900  0.897700  0.448600  1.0
  C  C380  1  0.638700  0.550900  0.448600  1.0
  C  C381  1  0.449100  0.190100  0.551400  1.0
  C  C382  1  0.102300  0.361300  0.551400  1.0
  C  C383  1  0.190100  0.102300  0.551400  1.0
  C  C384  1  0.361300  0.449100  0.551400  1.0
  C  C385  1  0.586200  0.830900  0.469000  1.0
  C  C386  1  0.882800  0.638100  0.469000  1.0
  C  C387  1  0.830900  0.882800  0.469000  1.0
  C  C388  1  0.638100  0.586200  0.469000  1.0
  C  C389  1  0.413800  0.169100  0.531000  1.0
  C  C390  1  0.117200  0.361900  0.531000  1.0
  C  C391  1  0.169100  0.117200  0.531000  1.0
  C  C392  1  0.361900  0.413800  0.531000  1.0
  C  C393  1  0.609300  0.841700  0.507200  1.0
  C  C394  1  0.897900  0.665500  0.507200  1.0
  C  C395  1  0.841700  0.897900  0.507200  1.0
  C  C396  1  0.665500  0.609300  0.507200  1.0
  C  C397  1  0.390700  0.158300  0.492800  1.0
  C  C398  1  0.102100  0.334500  0.492800  1.0
  C  C399  1  0.158300  0.102100  0.492800  1.0
  C  C400  1  0.334500  0.390700  0.492800  1.0
  C  C401  1  0.597200  0.831400  0.525000  1.0
  C  C402  1  0.927800  0.693600  0.525000  1.0
  C  C403  1  0.831400  0.927800  0.525000  1.0
  C  C404  1  0.693600  0.597200  0.525000  1.0
  C  C405  1  0.402800  0.168600  0.475000  1.0
  C  C406  1  0.072200  0.306400  0.475000  1.0
  C  C407  1  0.168600  0.072200  0.475000  1.0
  C  C408  1  0.306400  0.402800  0.475000  1.0
  C  C409  1  0.590000  0.845900  0.425600  1.0
  C  C410  1  0.835600  0.579700  0.425600  1.0
  C  C411  1  0.845900  0.835600  0.425600  1.0
  C  C412  1  0.579700  0.590000  0.425600  1.0
  C  C413  1  0.410000  0.154100  0.574400  1.0
  C  C414  1  0.164400  0.420300  0.574400  1.0
  C  C415  1  0.154100  0.164400  0.574400  1.0
  C  C416  1  0.420300  0.410000  0.574400  1.0
  C  C417  1  0.546000  0.747100  0.807000  1.0
  C  C418  1  0.261000  0.059900  0.807000  1.0
  C  C419  1  0.747100  0.261000  0.807000  1.0
  C  C420  1  0.059900  0.546000  0.807000  1.0
  C  C421  1  0.454000  0.252900  0.193000  1.0
  C  C422  1  0.739000  0.940100  0.193000  1.0
  C  C423  1  0.252900  0.739000  0.193000  1.0
  C  C424  1  0.940100  0.454000  0.193000  1.0
  C  C425  1  0.556800  0.716700  0.805200  1.0
  C  C426  1  0.248400  0.088500  0.805200  1.0
  C  C427  1  0.716700  0.248400  0.805200  1.0
  C  C428  1  0.088500  0.556800  0.805200  1.0
  C  C429  1  0.443200  0.283300  0.194800  1.0
  C  C430  1  0.751600  0.911500  0.194800  1.0
  C  C431  1  0.283300  0.751600  0.194800  1.0
  C  C432  1  0.911500  0.443200  0.194800  1.0
  C  C433  1  0.532000  0.686300  0.792000  1.0
  C  C434  1  0.260000  0.105700  0.792000  1.0
  C  C435  1  0.686300  0.260000  0.792000  1.0
  C  C436  1  0.105700  0.532000  0.792000  1.0
  C  C437  1  0.468000  0.313700  0.208000  1.0
  C  C438  1  0.740000  0.894300  0.208000  1.0
  C  C439  1  0.313700  0.740000  0.208000  1.0
  C  C440  1  0.894300  0.468000  0.208000  1.0
  C  C441  1  0.496400  0.686200  0.780600  1.0
  C  C442  1  0.284200  0.094400  0.780600  1.0
  C  C443  1  0.686200  0.284200  0.780600  1.0
  C  C444  1  0.094400  0.496400  0.780600  1.0
  C  C445  1  0.503600  0.313800  0.219400  1.0
  C  C446  1  0.715800  0.905600  0.219400  1.0
  C  C447  1  0.313800  0.715800  0.219400  1.0
  C  C448  1  0.905600  0.503600  0.219400  1.0
  C  C449  1  0.485600  0.716600  0.782400  1.0
  C  C450  1  0.296800  0.065800  0.782400  1.0
  C  C451  1  0.716600  0.296800  0.782400  1.0
  C  C452  1  0.065800  0.485600  0.782400  1.0
  C  C453  1  0.514400  0.283400  0.217600  1.0
  C  C454  1  0.703200  0.934200  0.217600  1.0
  C  C455  1  0.283400  0.703200  0.217600  1.0
  C  C456  1  0.934200  0.514400  0.217600  1.0
  C  C457  1  0.515500  0.627200  0.780000  1.0
  C  C458  1  0.264500  0.152800  0.780000  1.0
  C  C459  1  0.627200  0.264500  0.780000  1.0
  C  C460  1  0.152800  0.515500  0.780000  1.0
  C  C461  1  0.484500  0.372800  0.220000  1.0
  C  C462  1  0.735500  0.847200  0.220000  1.0
  C  C463  1  0.372800  0.735500  0.220000  1.0
  C  C464  1  0.847200  0.484500  0.220000  1.0
  C  C465  1  0.548400  0.837000  0.886000  1.0
  C  C466  1  0.337600  0.049000  0.886000  1.0
  C  C467  1  0.837000  0.337600  0.886000  1.0
  C  C468  1  0.049000  0.548400  0.886000  1.0
  C  C469  1  0.451600  0.163000  0.114000  1.0
  C  C470  1  0.662400  0.951000  0.114000  1.0
  C  C471  1  0.163000  0.662400  0.114000  1.0
  C  C472  1  0.951000  0.451600  0.114000  1.0
  C  C473  1  0.556400  0.849900  0.923000  1.0
  C  C474  1  0.366600  0.073100  0.923000  1.0
  C  C475  1  0.849900  0.366600  0.923000  1.0
  C  C476  1  0.073100  0.556400  0.923000  1.0
  C  C477  1  0.443600  0.150100  0.077000  1.0
  C  C478  1  0.633400  0.926900  0.077000  1.0
  C  C479  1  0.150100  0.633400  0.077000  1.0
  C  C480  1  0.926900  0.443600  0.077000  1.0
  C  C481  1  0.529910  0.841310  0.928620  1.0
  C  C482  1  0.398710  0.087310  0.928620  1.0
  C  C483  1  0.841310  0.398710  0.928620  1.0
  C  C484  1  0.087310  0.529910  0.928620  1.0
  C  C485  1  0.470090  0.158690  0.071380  1.0
  C  C486  1  0.601290  0.912690  0.071380  1.0
  C  C487  1  0.158690  0.601290  0.071380  1.0
  C  C488  1  0.912690  0.470090  0.071380  1.0
  C  C489  1  0.495400  0.819700  0.897200  1.0
  C  C490  1  0.401800  0.077500  0.897200  1.0
  C  C491  1  0.819700  0.401800  0.897200  1.0
  C  C492  1  0.077500  0.495400  0.897200  1.0
  C  C493  1  0.504600  0.180300  0.102800  1.0
  C  C494  1  0.598200  0.922500  0.102800  1.0
  C  C495  1  0.180300  0.598200  0.102800  1.0
  C  C496  1  0.922500  0.504600  0.102800  1.0
  C  C497  1  0.487460  0.806660  0.860120  1.0
  C  C498  1  0.372660  0.053460  0.860120  1.0
  C  C499  1  0.806660  0.372660  0.860120  1.0
  C  C500  1  0.053460  0.487460  0.860120  1.0
  C  C501  1  0.512540  0.193340  0.139880  1.0
  C  C502  1  0.627340  0.946540  0.139880  1.0
  C  C503  1  0.193340  0.627340  0.139880  1.0
  C  C504  1  0.946540  0.512540  0.139880  1.0
  C  C505  1  0.576600  0.878200  1.000000  1.0
  C  C506  1  0.423400  0.121800  1.000000  1.0
  C  C507  1  0.878200  0.423400  0.000000  1.0
  C  C508  1  0.121800  0.576600  0.000000  1.0
  C  C509  1  0.516690  0.854490  0.979780  1.0
  C  C510  1  0.463090  0.125290  0.979780  1.0
  C  C511  1  0.854490  0.463090  0.979780  1.0
  C  C512  1  0.125290  0.516690  0.979780  1.0
  C  C513  1  0.483310  0.145510  0.020220  1.0
  C  C514  1  0.536910  0.874710  0.020220  1.0
  C  C515  1  0.145510  0.536910  0.020220  1.0
  C  C516  1  0.874710  0.483310  0.020220  1.0
  C  C517  1  0.586500  0.144300  0.882600  1.0
  C  C518  1  0.296100  0.738300  0.882600  1.0
  C  C519  1  0.144300  0.296100  0.882600  1.0
  C  C520  1  0.738300  0.586500  0.882600  1.0
  C  C521  1  0.413500  0.855700  0.117400  1.0
  C  C522  1  0.703900  0.261700  0.117400  1.0
  C  C523  1  0.855700  0.703900  0.117400  1.0
  C  C524  1  0.261700  0.413500  0.117400  1.0
  C  C525  1  0.598100  0.170200  0.920600  1.0
  C  C526  1  0.322500  0.750400  0.920600  1.0
  C  C527  1  0.170200  0.322500  0.920600  1.0
  C  C528  1  0.750400  0.598100  0.920600  1.0
  C  C529  1  0.401900  0.829800  0.079400  1.0
  C  C530  1  0.677500  0.249600  0.079400  1.0
  C  C531  1  0.829800  0.677500  0.079400  1.0
  C  C532  1  0.249600  0.401900  0.079400  1.0
  C  C533  1  0.577810  0.193510  0.928620  1.0
  C  C534  1  0.350810  0.735110  0.928620  1.0
  C  C535  1  0.193510  0.350810  0.928620  1.0
  C  C536  1  0.735110  0.577810  0.928620  1.0
  C  C537  1  0.422190  0.806490  0.071380  1.0
  C  C538  1  0.649190  0.264890  0.071380  1.0
  C  C539  1  0.806490  0.649190  0.071380  1.0
  C  C540  1  0.264890  0.422190  0.071380  1.0
  C  C541  1  0.545900  0.191200  0.898800  1.0
  C  C542  1  0.352900  0.707600  0.898800  1.0
  C  C543  1  0.191200  0.352900  0.898800  1.0
  C  C544  1  0.707600  0.545900  0.898800  1.0
  C  C545  1  0.454100  0.808800  0.101200  1.0
  C  C546  1  0.647100  0.292400  0.101200  1.0
  C  C547  1  0.808800  0.647100  0.101200  1.0
  C  C548  1  0.292400  0.454100  0.101200  1.0
  C  C549  1  0.534200  0.165400  0.860800  1.0
  C  C550  1  0.326600  0.695400  0.860800  1.0
  C  C551  1  0.165400  0.326600  0.860800  1.0
  C  C552  1  0.695400  0.534200  0.860800  1.0
  C  C553  1  0.465800  0.834600  0.139200  1.0
  C  C554  1  0.673400  0.304600  0.139200  1.0
  C  C555  1  0.834600  0.673400  0.139200  1.0
  C  C556  1  0.304600  0.465800  0.139200  1.0
  C  C557  1  0.544200  0.162800  0.783400  1.0
  C  C558  1  0.239200  0.620600  0.783400  1.0
  C  C559  1  0.162800  0.239200  0.783400  1.0
  C  C560  1  0.620600  0.544200  0.783400  1.0
  C  C561  1  0.455800  0.837200  0.216600  1.0
  C  C562  1  0.760800  0.379400  0.216600  1.0
  C  C563  1  0.837200  0.760800  0.216600  1.0
  C  C564  1  0.379400  0.455800  0.216600  1.0
  C  C565  1  0.559800  0.188600  0.781000  1.0
  C  C566  1  0.221200  0.592400  0.781000  1.0
  C  C567  1  0.188600  0.221200  0.781000  1.0
  C  C568  1  0.592400  0.559800  0.781000  1.0
  C  C569  1  0.440200  0.811400  0.219000  1.0
  C  C570  1  0.778800  0.407600  0.219000  1.0
  C  C571  1  0.811400  0.778800  0.219000  1.0
  C  C572  1  0.407600  0.440200  0.219000  1.0
  C  C573  1  0.595600  0.193900  0.791200  1.0
  C  C574  1  0.195600  0.597300  0.791200  1.0
  C  C575  1  0.193900  0.195600  0.791200  1.0
  C  C576  1  0.597300  0.595600  0.791200  1.0
  C  C577  1  0.404400  0.806100  0.208800  1.0
  C  C578  1  0.804400  0.402700  0.208800  1.0
  C  C579  1  0.806100  0.804400  0.208800  1.0
  C  C580  1  0.402700  0.404400  0.208800  1.0
  C  C581  1  0.615800  0.173400  0.803600  1.0
  C  C582  1  0.187800  0.630200  0.803600  1.0
  C  C583  1  0.173400  0.187800  0.803600  1.0
  C  C584  1  0.630200  0.615800  0.803600  1.0
  C  C585  1  0.384200  0.826600  0.196400  1.0
  C  C586  1  0.812200  0.369800  0.196400  1.0
  C  C587  1  0.826600  0.812200  0.196400  1.0
  C  C588  1  0.369800  0.384200  0.196400  1.0
  C  C589  1  0.600400  0.147700  0.806200  1.0
  C  C590  1  0.205800  0.658500  0.806200  1.0
  C  C591  1  0.147700  0.205800  0.806200  1.0
  C  C592  1  0.658500  0.600400  0.806200  1.0
  C  C593  1  0.399600  0.852300  0.193800  1.0
  C  C594  1  0.794200  0.341500  0.193800  1.0
  C  C595  1  0.852300  0.794200  0.193800  1.0
  C  C596  1  0.341500  0.399600  0.193800  1.0
  C  C597  1  0.600100  0.242200  0.774600  1.0
  C  C598  1  0.174500  0.532400  0.774600  1.0
  C  C599  1  0.242200  0.174500  0.774600  1.0
  C  C600  1  0.532400  0.600100  0.774600  1.0
  C  C601  1  0.399900  0.757800  0.225400  1.0
  C  C602  1  0.825500  0.467600  0.225400  1.0
  C  C603  1  0.757800  0.825500  0.225400  1.0
  C  C604  1  0.467600  0.399900  0.225400  1.0
  C  C605  1  0.648000  0.220700  0.795800  1.0
  C  C606  1  0.147800  0.575100  0.795800  1.0
  C  C607  1  0.220700  0.147800  0.795800  1.0
  C  C608  1  0.575100  0.648000  0.795800  1.0
  C  C609  1  0.352000  0.779300  0.204200  1.0
  C  C610  1  0.852200  0.424900  0.204200  1.0
  C  C611  1  0.779300  0.852200  0.204200  1.0
  C  C612  1  0.424900  0.352000  0.204200  1.0
  C  C613  1  0.622000  0.225700  1.000000  1.0
  C  C614  1  0.378000  0.774300  0.000000  1.0
  C  C615  1  0.225700  0.378000  1.000000  1.0
  C  C616  1  0.774300  0.622000  1.000000  1.0
  C  C617  1  0.571220  0.243720  0.980240  1.0
  C  C618  1  0.409020  0.736520  0.980240  1.0
  C  C619  1  0.243720  0.409020  0.980240  1.0
  C  C620  1  0.736520  0.571220  0.980240  1.0
  C  C621  1  0.428780  0.756280  0.019760  1.0
  C  C622  1  0.590980  0.263480  0.019760  1.0
  C  C623  1  0.756280  0.590980  0.019760  1.0
  C  C624  1  0.263480  0.428780  0.019760  1.0
  C  C625  1  0.560500  0.943700  1.000000  1.0
  C  C626  1  0.439500  0.056300  1.000000  1.0
  C  C627  1  0.943700  0.439500  1.000000  1.0
  C  C628  1  0.056300  0.560500  1.000000  1.0
  C  C629  1  0.380600  0.014300  0.743800  1.0
  C  C630  1  0.363200  0.729500  0.743800  1.0
  C  C631  1  0.014300  0.363200  0.743800  1.0
  C  C632  1  0.729500  0.380600  0.743800  1.0
  C  C633  1  0.619400  0.985700  0.256200  1.0
  C  C634  1  0.636800  0.270500  0.256200  1.0
  C  C635  1  0.985700  0.636800  0.256200  1.0
  C  C636  1  0.270500  0.619400  0.256200  1.0
  C  C637  1  0.178000  0.016100  0.401000  1.0
  C  C638  1  0.223000  0.384900  0.401000  1.0
  C  C639  1  0.016100  0.223000  0.401000  1.0
  C  C640  1  0.384900  0.178000  0.401000  1.0
  C  C641  1  0.822000  0.983900  0.599000  1.0
  C  C642  1  0.777000  0.615100  0.599000  1.0
  C  C643  1  0.983900  0.777000  0.599000  1.0
  C  C644  1  0.615100  0.822000  0.599000  1.0
  C  C645  1  0.161100  0.013200  0.365800  1.0
  C  C646  1  0.204700  0.352600  0.365800  1.0
  C  C647  1  0.013200  0.204700  0.365800  1.0
  C  C648  1  0.352600  0.161100  0.365800  1.0
  C  C649  1  0.838900  0.986800  0.634200  1.0
  C  C650  1  0.795300  0.647400  0.634200  1.0
  C  C651  1  0.986800  0.795300  0.634200  1.0
  C  C652  1  0.647400  0.838900  0.634200  1.0
  C  C653  1  0.836800  0.229500  0.844400  1.0
  C  C654  1  0.007600  0.614900  0.844400  1.0
  C  C655  1  0.229500  0.007600  0.844400  1.0
  C  C656  1  0.614900  0.836800  0.844400  1.0
  C  C657  1  0.163200  0.770500  0.155600  1.0
  C  C658  1  0.992400  0.385100  0.155600  1.0
  C  C659  1  0.770500  0.992400  0.155600  1.0
  C  C660  1  0.385100  0.163200  0.155600  1.0
  C  C661  1  0.611800  0.087300  0.830200  1.0
  C  C662  1  0.218400  0.742900  0.830200  1.0
  C  C663  1  0.087300  0.218400  0.830200  1.0
  C  C664  1  0.742900  0.611800  0.830200  1.0
  C  C665  1  0.388200  0.912700  0.169800  1.0
  C  C666  1  0.781600  0.257100  0.169800  1.0
  C  C667  1  0.912700  0.781600  0.169800  1.0
  C  C668  1  0.257100  0.388200  0.169800  1.0
  C  C669  1  0.648000  0.075700  0.843800  1.0
  C  C670  1  0.195800  0.768100  0.843800  1.0
  C  C671  1  0.075700  0.195800  0.843800  1.0
  C  C672  1  0.768100  0.648000  0.843800  1.0
  C  C673  1  0.352000  0.924300  0.156200  1.0
  C  C674  1  0.804200  0.231900  0.156200  1.0
  C  C675  1  0.924300  0.804200  0.156200  1.0
  C  C676  1  0.231900  0.352000  0.156200  1.0
  C  C677  1  0.430200  0.122500  0.849000  0.25
  C  C678  1  0.418800  0.726500  0.849000  0.25
  C  C679  1  0.122500  0.418800  0.849000  0.25
  C  C680  1  0.726500  0.430200  0.849000  0.25
  C  C681  1  0.569800  0.877500  0.151000  0.25
  C  C682  1  0.581200  0.273500  0.151000  0.25
  C  C683  1  0.877500  0.581200  0.151000  0.25
  C  C684  1  0.273500  0.569800  0.151000  0.25
  C  C685  1  0.638000  0.041600  0.813200  0.25
  C  C686  1  0.175200  0.771600  0.813200  0.25
  C  C687  1  0.041600  0.175200  0.813200  0.25
  C  C688  1  0.771600  0.638000  0.813200  0.25
  C  C689  1  0.362000  0.958400  0.186800  0.25
  C  C690  1  0.824800  0.228400  0.186800  0.25
  C  C691  1  0.958400  0.824800  0.186800  0.25
  C  C692  1  0.228400  0.362000  0.186800  0.25
  C  C693  1  0.622400  0.959400  0.718800  0.25
  C  C694  1  0.096400  0.759400  0.718800  0.25
  C  C695  1  0.959400  0.096400  0.718800  0.25
  C  C696  1  0.759400  0.622400  0.718800  0.25
  C  C697  1  0.377600  0.040600  0.281200  0.25
  C  C698  1  0.903600  0.240600  0.281200  0.25
  C  C699  1  0.040600  0.903600  0.281200  0.25
  C  C700  1  0.240600  0.377600  0.281200  0.25
  C  C701  1  0.343700  0.689700  0.627400  0.33
  C  C702  1  0.283700  0.937700  0.627400  0.33
  C  C703  1  0.689700  0.283700  0.627400  0.33
  C  C704  1  0.937700  0.343700  0.627400  0.33
  C  C705  1  0.656300  0.310300  0.372600  0.33
  C  C706  1  0.716300  0.062300  0.372600  0.33
  C  C707  1  0.310300  0.716300  0.372600  0.33
  C  C708  1  0.062300  0.656300  0.372600  0.33
  C  C709  1  0.660100  0.768200  0.507600  0.33
  C  C710  1  0.847500  0.739400  0.507600  0.33
  C  C711  1  0.768200  0.847500  0.507600  0.33
  C  C712  1  0.739400  0.660100  0.507600  0.33
  C  C713  1  0.339900  0.231800  0.492400  0.33
  C  C714  1  0.152500  0.260600  0.492400  0.33
  C  C715  1  0.231800  0.152500  0.492400  0.33
  C  C716  1  0.260600  0.339900  0.492400  0.33
  C  C717  1  0.595100  0.928200  0.571000  0.33
  C  C718  1  0.975900  0.642800  0.571000  0.33
  C  C719  1  0.928200  0.975900  0.571000  0.33
  C  C720  1  0.642800  0.595100  0.571000  0.33
  C  C721  1  0.404900  0.071800  0.429000  0.33
  C  C722  1  0.024100  0.357200  0.429000  0.33
  C  C723  1  0.071800  0.024100  0.429000  0.33
  C  C724  1  0.357200  0.404900  0.429000  0.33
  C  C725  1  0.543700  0.945300  0.951400  0.33
  C  C726  1  0.407700  0.006100  0.951400  0.33
  C  C727  1  0.945300  0.407700  0.951400  0.33
  C  C728  1  0.006100  0.543700  0.951400  0.33
  C  C729  1  0.456300  0.054700  0.048600  0.33
  C  C730  1  0.592300  0.993900  0.048600  0.33
  C  C731  1  0.054700  0.592300  0.048600  0.33
  C  C732  1  0.993900  0.456300  0.048600  0.33
  C  C733  1  0.378300  0.000800  0.608200  0.33
  C  C734  1  0.229900  0.607400  0.608200  0.33
  C  C735  1  0.000800  0.229900  0.608200  0.33
  C  C736  1  0.607400  0.378300  0.608200  0.33
  C  C737  1  0.621700  0.999200  0.391800  0.33
  C  C738  1  0.770100  0.392600  0.391800  0.33
  C  C739  1  0.999200  0.770100  0.391800  0.33
  C  C740  1  0.392600  0.621700  0.391800  0.33
  C  C741  1  0.474500  0.208600  0.715200  0.33
  C  C742  1  0.240700  0.506600  0.715200  0.33
  C  C743  1  0.208600  0.240700  0.715200  0.33
  C  C744  1  0.506600  0.474500  0.715200  0.33
  C  C745  1  0.525500  0.791400  0.284800  0.33
  C  C746  1  0.759300  0.493400  0.284800  0.33
  C  C747  1  0.791400  0.759300  0.284800  0.33
  C  C748  1  0.493400  0.525500  0.284800  0.33
  C  C749  1  0.508800  0.244900  0.756800  0.33
  C  C750  1  0.248000  0.511900  0.756800  0.33
  C  C751  1  0.244900  0.248000  0.756800  0.33
  C  C752  1  0.511900  0.508800  0.756800  0.33
  C  C753  1  0.491200  0.755100  0.243200  0.33
  C  C754  1  0.752000  0.488100  0.243200  0.33
  C  C755  1  0.755100  0.752000  0.243200  0.33
  C  C756  1  0.488100  0.491200  0.243200  0.33
  C  C757  1  0.636500  0.971500  0.715000  0.33
  C  C758  1  0.078500  0.743500  0.715000  0.33
  C  C759  1  0.971500  0.078500  0.715000  0.33
  C  C760  1  0.743500  0.636500  0.715000  0.33
  C  C761  1  0.363500  0.028500  0.285000  0.33
  C  C762  1  0.921500  0.256500  0.285000  0.33
  C  C763  1  0.028500  0.921500  0.285000  0.33
  C  C764  1  0.256500  0.363500  0.285000  0.33
  C  C765  1  0.256300  0.994600  0.574000  0.33
  C  C766  1  0.317700  0.579400  0.574000  0.33
  C  C767  1  0.994600  0.317700  0.574000  0.33
  C  C768  1  0.579400  0.256300  0.574000  0.33
  C  C769  1  0.743700  0.005400  0.426000  0.33
  C  C770  1  0.682300  0.420600  0.426000  0.33
  C  C771  1  0.005400  0.682300  0.426000  0.33
  C  C772  1  0.420600  0.743700  0.426000  0.33
  C  C773  1  0.355900  0.679600  0.598400  0.5
  C  C774  1  0.242500  0.918800  0.598400  0.5
  C  C775  1  0.679600  0.242500  0.598400  0.5
  C  C776  1  0.918800  0.355900  0.598400  0.5
  C  C777  1  0.644100  0.320400  0.401600  0.5
  C  C778  1  0.757500  0.081200  0.401600  0.5
  C  C779  1  0.320400  0.757500  0.401600  0.5
  C  C780  1  0.081200  0.644100  0.401600  0.5
  C  C781  1  0.590200  0.731700  0.747400  0.5
  C  C782  1  0.157200  0.015700  0.747400  0.5
  C  C783  1  0.731700  0.157200  0.747400  0.5
  C  C784  1  0.015700  0.590200  0.747400  0.5
  C  C785  1  0.409800  0.268300  0.252600  0.5
  C  C786  1  0.842800  0.984300  0.252600  0.5
  C  C787  1  0.268300  0.842800  0.252600  0.5
  C  C788  1  0.984300  0.409800  0.252600  0.5
  C  C789  1  0.361900  0.682600  0.463400  0.5
  C  C790  1  0.101500  0.780800  0.463400  0.5
  C  C791  1  0.682600  0.101500  0.463400  0.5
  C  C792  1  0.780800  0.361900  0.463400  0.5
  C  C793  1  0.638100  0.317400  0.536600  0.5
  C  C794  1  0.898500  0.219200  0.536600  0.5
  C  C795  1  0.317400  0.898500  0.536600  0.5
  C  C796  1  0.219200  0.638100  0.536600  0.5
  C  C797  1  0.581200  0.622700  0.520400  0.5
  C  C798  1  0.939200  0.897700  0.520400  0.5
  C  C799  1  0.622700  0.939200  0.520400  0.5
  C  C800  1  0.897700  0.581200  0.520400  0.5
  C  C801  1  0.418800  0.377300  0.479600  0.5
  C  C802  1  0.060800  0.102300  0.479600  0.5
  C  C803  1  0.377300  0.060800  0.479600  0.5
  C  C804  1  0.102300  0.418800  0.479600  0.5
  C  C805  1  0.697000  0.899900  0.571200  0.5
  C  C806  1  0.874200  0.671300  0.571200  0.5
  C  C807  1  0.899900  0.874200  0.571200  0.5
  C  C808  1  0.671300  0.697000  0.571200  0.5
  C  C809  1  0.303000  0.100100  0.428800  0.5
  C  C810  1  0.125800  0.328700  0.428800  0.5
  C  C811  1  0.100100  0.125800  0.428800  0.5
  C  C812  1  0.328700  0.303000  0.428800  0.5
  C  C813  1  0.721300  0.903900  0.602200  0.5
  C  C814  1  0.880900  0.698300  0.602200  0.5
  C  C815  1  0.903900  0.880900  0.602200  0.5
  C  C816  1  0.698300  0.721300  0.602200  0.5
  C  C817  1  0.278700  0.096100  0.397800  0.5
  C  C818  1  0.119100  0.301700  0.397800  0.5
  C  C819  1  0.096100  0.119100  0.397800  0.5
  C  C820  1  0.301700  0.278700  0.397800  0.5
  C  C821  1  0.582400  0.168000  0.000000  0.5
  C  C822  1  0.417600  0.832000  1.000000  0.5
  C  C823  1  0.168000  0.417600  1.000000  0.5
  C  C824  1  0.832000  0.582400  1.000000  0.5
  C  C825  1  0.704000  0.159000  0.000000  0.5
  C  C826  1  0.296000  0.841000  1.000000  0.5
  C  C827  1  0.159000  0.296000  1.000000  0.5
  C  C828  1  0.841000  0.704000  0.000000  0.5
  C  C829  1  0.687000  0.189900  0.000000  0.5
  C  C830  1  0.313000  0.810100  0.000000  0.5
  C  C831  1  0.189900  0.313000  0.000000  0.5
  C  C832  1  0.810100  0.687000  0.000000  0.5
  C  C833  1  0.469000  0.139800  0.895600  0.5
  C  C834  1  0.426600  0.755800  0.895600  0.5
  C  C835  1  0.139800  0.426600  0.895600  0.5
  C  C836  1  0.755800  0.469000  0.895600  0.5
  C  C837  1  0.531000  0.860200  0.104400  0.5
  C  C838  1  0.573400  0.244200  0.104400  0.5
  C  C839  1  0.860200  0.573400  0.104400  0.5
  C  C840  1  0.244200  0.531000  0.104400  0.5
  C  C841  1  0.376800  0.017600  0.787200  0.5
  C  C842  1  0.410400  0.769600  0.787200  0.5
  C  C843  1  0.017600  0.410400  0.787200  0.5
  C  C844  1  0.769600  0.376800  0.787200  0.5
  C  C845  1  0.623200  0.982400  0.212800  0.5
  C  C846  1  0.589600  0.230400  0.212800  0.5
  C  C847  1  0.982400  0.589600  0.212800  0.5
  C  C848  1  0.230400  0.623200  0.212800  0.5
  C  C849  1  0.824400  0.114600  0.722600  0.5
  C  C850  1  0.898200  0.608000  0.722600  0.5
  C  C851  1  0.114600  0.898200  0.722600  0.5
  C  C852  1  0.608000  0.824400  0.722600  0.5
  C  C853  1  0.175600  0.885400  0.277400  0.5
  C  C854  1  0.101800  0.392000  0.277400  0.5
  C  C855  1  0.885400  0.101800  0.277400  0.5
  C  C856  1  0.392000  0.175600  0.277400  0.5
  C  C857  1  0.791300  0.116600  0.682800  0.5
  C  C858  1  0.891500  0.566200  0.682800  0.5
  C  C859  1  0.116600  0.891500  0.682800  0.5
  C  C860  1  0.566200  0.791300  0.682800  0.5
  C  C861  1  0.208700  0.883400  0.317200  0.5
  C  C862  1  0.108500  0.433800  0.317200  0.5
  C  C863  1  0.883400  0.108500  0.317200  0.5
  C  C864  1  0.433800  0.208700  0.317200  0.5
  C  C865  1  0.919000  0.320000  1.000000  0.5
  C  C866  1  0.081000  0.680000  0.000000  0.5
  C  C867  1  0.320000  0.081000  1.000000  0.5
  C  C868  1  0.680000  0.919000  1.000000  0.5
  C  C869  1  0.906000  0.350000  0.000000  0.5
  C  C870  1  0.094000  0.650000  1.000000  0.5
  C  C871  1  0.350000  0.094000  0.000000  0.5
  C  C872  1  0.650000  0.906000  1.000000  0.5
  C  C873  1  0.847000  0.347000  0.694000  0.5
  C  C874  1  0.347000  0.847000  0.694000  0.5
  C  C875  1  0.153000  0.653000  0.306000  0.5
  C  C876  1  0.653000  0.153000  0.306000  0.5
  C  C877  1  0.753400  0.469200  0.871000  0.5
  C  C878  1  0.117600  0.401800  0.871000  0.5
  C  C879  1  0.469200  0.117600  0.871000  0.5
  C  C880  1  0.401800  0.753400  0.871000  0.5
  C  C881  1  0.246600  0.530800  0.129000  0.5
  C  C882  1  0.882400  0.598200  0.129000  0.5
  C  C883  1  0.530800  0.882400  0.129000  0.5
  C  C884  1  0.598200  0.246600  0.129000  0.5
  C  C885  1  0.611900  0.121000  0.545600  0.5
  C  C886  1  0.933700  0.424600  0.545600  0.5
  C  C887  1  0.121000  0.933700  0.545600  0.5
  C  C888  1  0.424600  0.611900  0.545600  0.5
  C  C889  1  0.388100  0.879000  0.454400  0.5
  C  C890  1  0.066300  0.575400  0.454400  0.5
  C  C891  1  0.879000  0.066300  0.454400  0.5
  C  C892  1  0.575400  0.388100  0.454400  0.5
  C  C893  1  0.528500  0.223100  0.667200  0.5
  C  C894  1  0.138700  0.444100  0.667200  0.5
  C  C895  1  0.223100  0.138700  0.667200  0.5
  C  C896  1  0.444100  0.528500  0.667200  0.5
  C  C897  1  0.471500  0.776900  0.332800  0.5
  C  C898  1  0.861300  0.555900  0.332800  0.5
  C  C899  1  0.776900  0.861300  0.332800  0.5
  C  C900  1  0.555900  0.471500  0.332800  0.5
  C  C901  1  0.661200  0.217600  0.683800  0.5
  C  C902  1  0.022600  0.466200  0.683800  0.5
  C  C903  1  0.217600  0.022600  0.683800  0.5
  C  C904  1  0.466200  0.661200  0.683800  0.5
  C  C905  1  0.338800  0.782400  0.316200  0.5
  C  C906  1  0.977400  0.533800  0.316200  0.5
  C  C907  1  0.782400  0.977400  0.316200  0.5
  C  C908  1  0.533800  0.338800  0.316200  0.5
  C  C909  1  0.708300  0.173300  0.827000  0.5
  C  C910  1  0.118700  0.653700  0.827000  0.5
  C  C911  1  0.173300  0.118700  0.827000  0.5
  C  C912  1  0.653700  0.708300  0.827000  0.5
  C  C913  1  0.291700  0.826700  0.173000  0.5
  C  C914  1  0.881300  0.346300  0.173000  0.5
  C  C915  1  0.826700  0.881300  0.173000  0.5
  C  C916  1  0.346300  0.291700  0.173000  0.5
  C  C917  1  0.675000  0.207000  0.912400  0.5
  C  C918  1  0.237400  0.705400  0.912400  0.5
  C  C919  1  0.207000  0.237400  0.912400  0.5
  C  C920  1  0.705400  0.675000  0.912400  0.5
  C  C921  1  0.325000  0.793000  0.087600  0.5
  C  C922  1  0.762600  0.294600  0.087600  0.5
  C  C923  1  0.793000  0.762600  0.087600  0.5
  C  C924  1  0.294600  0.325000  0.087600  0.5
  C  C925  1  0.586200  0.952000  0.691800  0.5
  C  C926  1  0.105600  0.739800  0.691800  0.5
  C  C927  1  0.952000  0.105600  0.691800  0.5
  C  C928  1  0.739800  0.586200  0.691800  0.5
  C  C929  1  0.413800  0.048000  0.308200  0.5
  C  C930  1  0.894400  0.260200  0.308200  0.5
  C  C931  1  0.048000  0.894400  0.308200  0.5
  C  C932  1  0.260200  0.413800  0.308200  0.5
  C  C933  1  0.622700  0.158000  0.713600  0.5
  C  C934  1  0.090900  0.555600  0.713600  0.5
  C  C935  1  0.158000  0.090900  0.713600  0.5
  C  C936  1  0.555600  0.622700  0.713600  0.5
  C  C937  1  0.377300  0.842000  0.286400  0.5
  C  C938  1  0.909100  0.444400  0.286400  0.5
  C  C939  1  0.842000  0.909100  0.286400  0.5
  C  C940  1  0.444400  0.377300  0.286400  0.5
  C  C941  1  0.598400  0.967900  0.852200  0.5
  C  C942  1  0.253800  0.884300  0.852200  0.5
  C  C943  1  0.967900  0.253800  0.852200  0.5
  C  C944  1  0.884300  0.598400  0.852200  0.5
  C  C945  1  0.401600  0.032100  0.147800  0.5
  C  C946  1  0.746200  0.115700  0.147800  0.5
  C  C947  1  0.032100  0.746200  0.147800  0.5
  C  C948  1  0.115700  0.401600  0.147800  0.5
  C  C949  1  0.477200  0.246400  0.899600  0.5
  C  C950  1  0.422400  0.653200  0.899600  0.5
  C  C951  1  0.246400  0.422400  0.899600  0.5
  C  C952  1  0.653200  0.477200  0.899600  0.5
  C  C953  1  0.522800  0.753600  0.100400  0.5
  C  C954  1  0.577600  0.346800  0.100400  0.5
  C  C955  1  0.753600  0.577600  0.100400  0.5
  C  C956  1  0.346800  0.522800  0.100400  0.5
  C  C957  1  0.377100  0.044900  0.781400  0.5
  C  C958  1  0.404300  0.736500  0.781400  0.5
  C  C959  1  0.044900  0.404300  0.781400  0.5
  C  C960  1  0.736500  0.377100  0.781400  0.5
  C  C961  1  0.622900  0.955100  0.218600  0.5
  C  C962  1  0.595700  0.263500  0.218600  0.5
  C  C963  1  0.955100  0.595700  0.218600  0.5
  C  C964  1  0.263500  0.622900  0.218600  0.5
  C  C965  1  0.650000  0.095000  0.858000  0.5
  C  C966  1  0.208000  0.763000  0.858000  0.5
  C  C967  1  0.095000  0.208000  0.858000  0.5
  C  C968  1  0.763000  0.650000  0.858000  0.5
  C  C969  1  0.350000  0.905000  0.142000  0.5
  C  C970  1  0.792000  0.237000  0.142000  0.5
  C  C971  1  0.905000  0.792000  0.142000  0.5
  C  C972  1  0.237000  0.350000  0.142000  0.5
  C  C973  1  0.649400  0.361600  0.783800  0.5
  C  C974  1  0.134400  0.422200  0.783800  0.5
  C  C975  1  0.361600  0.134400  0.783800  0.5
  C  C976  1  0.422200  0.649400  0.783800  0.5
  C  C977  1  0.350600  0.638400  0.216200  0.5
  C  C978  1  0.865600  0.577800  0.216200  0.5
  C  C979  1  0.638400  0.865600  0.216200  0.5
  C  C980  1  0.577800  0.350600  0.216200  0.5
  C  C981  1  0.635800  0.329000  0.714800  0.5
  C  C982  1  0.079000  0.385800  0.714800  0.5
  C  C983  1  0.329000  0.079000  0.714800  0.5
  C  C984  1  0.385800  0.635800  0.714800  0.5
  C  C985  1  0.364200  0.671000  0.285200  0.5
  C  C986  1  0.921000  0.614200  0.285200  0.5
  C  C987  1  0.671000  0.921000  0.285200  0.5
  C  C988  1  0.614200  0.364200  0.285200  0.5
  C  C989  1  0.605500  0.331500  0.719000  0.5
  C  C990  1  0.113500  0.387500  0.719000  0.5
  C  C991  1  0.331500  0.113500  0.719000  0.5
  C  C992  1  0.387500  0.605500  0.719000  0.5
  C  C993  1  0.394500  0.668500  0.281000  0.5
  C  C994  1  0.886500  0.612500  0.281000  0.5
  C  C995  1  0.668500  0.886500  0.281000  0.5
  C  C996  1  0.612500  0.394500  0.281000  0.5
  C  C997  1  0.615100  0.301800  0.732000  0.5
  C  C998  1  0.116900  0.430200  0.732000  0.5
  C  C999  1  0.301800  0.116900  0.732000  0.5
  C  C1000  1  0.430200  0.615100  0.732000  0.5
  C  C1001  1  0.384900  0.698200  0.268000  0.5
  C  C1002  1  0.883100  0.569800  0.268000  0.5
  C  C1003  1  0.698200  0.883100  0.268000  0.5
  C  C1004  1  0.569800  0.384900  0.268000  0.5
  C  C1005  1  0.255400  0.017900  0.560200  0.5
  C  C1006  1  0.304800  0.542300  0.560200  0.5
  C  C1007  1  0.017900  0.304800  0.560200  0.5
  C  C1008  1  0.542300  0.255400  0.560200  0.5
  C  C1009  1  0.744600  0.982100  0.439800  0.5
  C  C1010  1  0.695200  0.457700  0.439800  0.5
  C  C1011  1  0.982100  0.695200  0.439800  0.5
  C  C1012  1  0.457700  0.744600  0.439800  0.5
  C  C1013  1  0.345200  0.982700  0.736600  0.5
  C  C1014  1  0.391400  0.753900  0.736600  0.5
  C  C1015  1  0.982700  0.391400  0.736600  0.5
  C  C1016  1  0.753900  0.345200  0.736600  0.5
  C  C1017  1  0.654800  0.017300  0.263400  0.5
  C  C1018  1  0.608600  0.246100  0.263400  0.5
  C  C1019  1  0.017300  0.608600  0.263400  0.5
  C  C1020  1  0.246100  0.654800  0.263400  0.5
  C  C1021  1  0.227100  0.025800  0.586600  0.5
  C  C1022  1  0.359500  0.560800  0.586600  0.5
  C  C1023  1  0.025800  0.359500  0.586600  0.5
  C  C1024  1  0.560800  0.227100  0.586600  0.5
  C  C1025  1  0.772900  0.974200  0.413400  0.5
  C  C1026  1  0.640500  0.439200  0.413400  0.5
  C  C1027  1  0.974200  0.640500  0.413400  0.5
  C  C1028  1  0.439200  0.772900  0.413400  0.5
  C  C1029  1  0.861800  0.361800  0.723600  0.5
  C  C1030  1  0.361800  0.861800  0.723600  0.5
  C  C1031  1  0.138200  0.638200  0.276400  0.5
  C  C1032  1  0.638200  0.138200  0.276400  0.5
  C  C1033  1  0.735100  0.173500  0.844000  0.5
  C  C1034  1  0.108900  0.670500  0.844000  0.5
  C  C1035  1  0.173500  0.108900  0.844000  0.5
  C  C1036  1  0.670500  0.735100  0.844000  0.5
  C  C1037  1  0.264900  0.826500  0.156000  0.5
  C  C1038  1  0.891100  0.329500  0.156000  0.5
  C  C1039  1  0.826500  0.891100  0.156000  0.5
  C  C1040  1  0.329500  0.264900  0.156000  0.5
  C  C1041  1  0.611700  0.137800  0.533000  0.5
  C  C1042  1  0.921300  0.395200  0.533000  0.5
  C  C1043  1  0.137800  0.921300  0.533000  0.5
  C  C1044  1  0.395200  0.611700  0.533000  0.5
  C  C1045  1  0.388300  0.862200  0.467000  0.5
  C  C1046  1  0.078700  0.604800  0.467000  0.5
  C  C1047  1  0.862200  0.078700  0.467000  0.5
  C  C1048  1  0.604800  0.388300  0.467000  0.5
  C  C1049  1  0.804000  0.109800  0.705600  0.5
  C  C1050  1  0.901600  0.595800  0.705600  0.5
  C  C1051  1  0.109800  0.901600  0.705600  0.5
  C  C1052  1  0.595800  0.804000  0.705600  0.5
  C  C1053  1  0.196000  0.890200  0.294400  0.5
  C  C1054  1  0.098400  0.404200  0.294400  0.5
  C  C1055  1  0.890200  0.098400  0.294400  0.5
  C  C1056  1  0.404200  0.196000  0.294400  0.5
  C  C1057  1  0.937000  0.334000  0.000000  0.5
  C  C1058  1  0.063000  0.666000  1.000000  0.5
  C  C1059  1  0.334000  0.063000  0.000000  0.5
  C  C1060  1  0.666000  0.937000  1.000000  0.5
  C  C1061  1  0.247900  0.020800  0.569800  0.5
  C  C1062  1  0.321900  0.549000  0.569800  0.5
  C  C1063  1  0.020800  0.321900  0.569800  0.5
  C  C1064  1  0.549000  0.247900  0.569800  0.5
  C  C1065  1  0.752100  0.979200  0.430200  0.5
  C  C1066  1  0.678100  0.451000  0.430200  0.5
  C  C1067  1  0.979200  0.678100  0.430200  0.5
  C  C1068  1  0.451000  0.752100  0.430200  0.5
  C  C1069  1  0.650900  0.452000  0.779800  0.5
  C  C1070  1  0.128900  0.327800  0.779800  0.5
  C  C1071  1  0.452000  0.128900  0.779800  0.5
  C  C1072  1  0.327800  0.650900  0.779800  0.5
  C  C1073  1  0.349100  0.548000  0.220200  0.5
  C  C1074  1  0.871100  0.672200  0.220200  0.5
  C  C1075  1  0.548000  0.871100  0.220200  0.5
  C  C1076  1  0.672200  0.349100  0.220200  0.5
  C  C1077  1  0.666100  0.446600  0.799200  0.5
  C  C1078  1  0.133100  0.352600  0.799200  0.5
  C  C1079  1  0.446600  0.133100  0.799200  0.5
  C  C1080  1  0.352600  0.666100  0.799200  0.5
  C  C1081  1  0.333900  0.553400  0.200800  0.5
  C  C1082  1  0.866900  0.647400  0.200800  0.5
  C  C1083  1  0.553400  0.866900  0.200800  0.5
  C  C1084  1  0.647400  0.333900  0.200800  0.5
  C  C1085  1  0.463300  0.742700  0.586400  0.5
  N  N1086  1  0.463300  0.742700  0.586400  0.5
  C  C1087  1  0.123100  0.843700  0.586400  0.5
  N  N1088  1  0.123100  0.843700  0.586400  0.5
  C  C1089  1  0.742700  0.123100  0.586400  0.5
  N  N1090  1  0.742700  0.123100  0.586400  0.5
  C  C1091  1  0.843700  0.463300  0.586400  0.5
  N  N1092  1  0.843700  0.463300  0.586400  0.5
  C  C1093  1  0.536700  0.257300  0.413600  0.5
  N  N1094  1  0.536700  0.257300  0.413600  0.5
  C  C1095  1  0.876900  0.156300  0.413600  0.5
  N  N1096  1  0.876900  0.156300  0.413600  0.5
  C  C1097  1  0.257300  0.876900  0.413600  0.5
  N  N1098  1  0.257300  0.876900  0.413600  0.5
  C  C1099  1  0.156300  0.536700  0.413600  0.5
  N  N1100  1  0.156300  0.536700  0.413600  0.5
  C  C1101  1  0.461300  0.742300  0.635200  0.5
  N  N1102  1  0.461300  0.742300  0.635200  0.5
  C  C1103  1  0.173900  0.892900  0.635200  0.5
  N  N1104  1  0.173900  0.892900  0.635200  0.5
  C  C1105  1  0.742300  0.173900  0.635200  0.5
  N  N1106  1  0.742300  0.173900  0.635200  0.5
  C  C1107  1  0.892900  0.461300  0.635200  0.5
  N  N1108  1  0.892900  0.461300  0.635200  0.5
  C  C1109  1  0.538700  0.257700  0.364800  0.5
  N  N1110  1  0.538700  0.257700  0.364800  0.5
  C  C1111  1  0.826100  0.107100  0.364800  0.5
  N  N1112  1  0.826100  0.107100  0.364800  0.5
  C  C1113  1  0.257700  0.826100  0.364800  0.5
  N  N1114  1  0.257700  0.826100  0.364800  0.5
  C  C1115  1  0.107100  0.538700  0.364800  0.5
  N  N1116  1  0.107100  0.538700  0.364800  0.5
  C  C1117  1  0.463300  0.927500  0.793800  0.5
  N  N1118  1  0.463300  0.927500  0.793800  0.5
  C  C1119  1  0.330500  0.866300  0.793800  0.5
  N  N1120  1  0.330500  0.866300  0.793800  0.5
  C  C1121  1  0.927500  0.330500  0.793800  0.5
  N  N1122  1  0.927500  0.330500  0.793800  0.5
  C  C1123  1  0.866300  0.463300  0.793800  0.5
  N  N1124  1  0.866300  0.463300  0.793800  0.5
  C  C1125  1  0.536700  0.072500  0.206200  0.5
  N  N1126  1  0.536700  0.072500  0.206200  0.5
  C  C1127  1  0.669500  0.133700  0.206200  0.5
  N  N1128  1  0.669500  0.133700  0.206200  0.5
  C  C1129  1  0.072500  0.669500  0.206200  0.5
  N  N1130  1  0.072500  0.669500  0.206200  0.5
  C  C1131  1  0.133700  0.536700  0.206200  0.5
  N  N1132  1  0.133700  0.536700  0.206200  0.5
  C  C1133  1  0.472700  0.978200  0.796400  0.5
  N  N1134  1  0.472700  0.978200  0.796400  0.5
  C  C1135  1  0.323700  0.818200  0.796400  0.5
  N  N1136  1  0.323700  0.818200  0.796400  0.5
  C  C1137  1  0.978200  0.323700  0.796400  0.5
  N  N1138  1  0.978200  0.323700  0.796400  0.5
  C  C1139  1  0.818200  0.472700  0.796400  0.5
  N  N1140  1  0.818200  0.472700  0.796400  0.5
  C  C1141  1  0.527300  0.021800  0.203600  0.5
  N  N1142  1  0.527300  0.021800  0.203600  0.5
  C  C1143  1  0.676300  0.181800  0.203600  0.5
  N  N1144  1  0.676300  0.181800  0.203600  0.5
  C  C1145  1  0.021800  0.676300  0.203600  0.5
  N  N1146  1  0.021800  0.676300  0.203600  0.5
  C  C1147  1  0.181800  0.527300  0.203600  0.5
  N  N1148  1  0.181800  0.527300  0.203600  0.5
  C  C1149  1  0.491200  0.980400  0.635000  0.5
  N  N1150  1  0.491200  0.980400  0.635000  0.5
  C  C1151  1  0.143800  0.654600  0.635000  0.5
  N  N1152  1  0.143800  0.654600  0.635000  0.5
  C  C1153  1  0.980400  0.143800  0.635000  0.5
  N  N1154  1  0.980400  0.143800  0.635000  0.5
  C  C1155  1  0.654600  0.491200  0.635000  0.5
  N  N1156  1  0.654600  0.491200  0.635000  0.5
  C  C1157  1  0.508800  0.019600  0.365000  0.5
  N  N1158  1  0.508800  0.019600  0.365000  0.5
  C  C1159  1  0.856200  0.345400  0.365000  0.5
  N  N1160  1  0.856200  0.345400  0.365000  0.5
  C  C1161  1  0.019600  0.856200  0.365000  0.5
  N  N1162  1  0.019600  0.856200  0.365000  0.5
  C  C1163  1  0.345400  0.508800  0.365000  0.5
  N  N1164  1  0.345400  0.508800  0.365000  0.5
  C  C1165  1  0.492400  0.927200  0.591200  0.5
  N  N1166  1  0.492400  0.927200  0.591200  0.5
  C  C1167  1  0.098800  0.664000  0.591200  0.5
  N  N1168  1  0.098800  0.664000  0.591200  0.5
  C  C1169  1  0.927200  0.098800  0.591200  0.5
  N  N1170  1  0.927200  0.098800  0.591200  0.5
  C  C1171  1  0.664000  0.492400  0.591200  0.5
  N  N1172  1  0.664000  0.492400  0.591200  0.5
  C  C1173  1  0.507600  0.072800  0.408800  0.5
  N  N1174  1  0.507600  0.072800  0.408800  0.5
  C  C1175  1  0.901200  0.336000  0.408800  0.5
  N  N1176  1  0.901200  0.336000  0.408800  0.5
  C  C1177  1  0.072800  0.901200  0.408800  0.5
  N  N1178  1  0.072800  0.901200  0.408800  0.5
  C  C1179  1  0.336000  0.507600  0.408800  0.5
  N  N1180  1  0.336000  0.507600  0.408800  0.5
  C  C1181  1  0.576500  0.642900  0.458600  0.5
  N  N1182  1  0.576500  0.642900  0.458600  0.5
  C  C1183  1  0.882100  0.815700  0.458600  0.5
  N  N1184  1  0.882100  0.815700  0.458600  0.5
  C  C1185  1  0.642900  0.882100  0.458600  0.5
  N  N1186  1  0.642900  0.882100  0.458600  0.5
  C  C1187  1  0.815700  0.576500  0.458600  0.5
  N  N1188  1  0.815700  0.576500  0.458600  0.5
  C  C1189  1  0.423500  0.357100  0.541400  0.5
  N  N1190  1  0.423500  0.357100  0.541400  0.5
  C  C1191  1  0.117900  0.184300  0.541400  0.5
  N  N1192  1  0.117900  0.184300  0.541400  0.5
  C  C1193  1  0.357100  0.117900  0.541400  0.5
  N  N1194  1  0.357100  0.117900  0.541400  0.5
  C  C1195  1  0.184300  0.423500  0.541400  0.5
  N  N1196  1  0.184300  0.423500  0.541400  0.5
  C  C1197  1  0.606300  0.847300  0.460000  0.5
  N  N1198  1  0.606300  0.847300  0.460000  0.5
  C  C1199  1  0.853700  0.612700  0.460000  0.5
  N  N1200  1  0.853700  0.612700  0.460000  0.5
  C  C1201  1  0.847300  0.853700  0.460000  0.5
  N  N1202  1  0.847300  0.853700  0.460000  0.5
  C  C1203  1  0.612700  0.606300  0.460000  0.5
  N  N1204  1  0.612700  0.606300  0.460000  0.5
  C  C1205  1  0.393700  0.152700  0.540000  0.5
  N  N1206  1  0.393700  0.152700  0.540000  0.5
  C  C1207  1  0.146300  0.387300  0.540000  0.5
  N  N1208  1  0.146300  0.387300  0.540000  0.5
  C  C1209  1  0.152700  0.146300  0.540000  0.5
  N  N1210  1  0.152700  0.146300  0.540000  0.5
  C  C1211  1  0.387300  0.393700  0.540000  0.5
  N  N1212  1  0.387300  0.393700  0.540000  0.5
  C  C1213  1  0.543000  0.654800  0.791200  0.5
  N  N1214  1  0.543000  0.654800  0.791200  0.5
  C  C1215  1  0.248200  0.136400  0.791200  0.5
  N  N1216  1  0.248200  0.136400  0.791200  0.5
  C  C1217  1  0.654800  0.248200  0.791200  0.5
  N  N1218  1  0.654800  0.248200  0.791200  0.5
  C  C1219  1  0.136400  0.543000  0.791200  0.5
  N  N1220  1  0.136400  0.543000  0.791200  0.5
  C  C1221  1  0.457000  0.345200  0.208800  0.5
  N  N1222  1  0.457000  0.345200  0.208800  0.5
  C  C1223  1  0.751800  0.863600  0.208800  0.5
  N  N1224  1  0.751800  0.863600  0.208800  0.5
  C  C1225  1  0.345200  0.751800  0.208800  0.5
  N  N1226  1  0.345200  0.751800  0.208800  0.5
  C  C1227  1  0.863600  0.457000  0.208800  0.5
  N  N1228  1  0.863600  0.457000  0.208800  0.5
  C  C1229  1  0.540720  0.859220  0.968440  0.5
  N  N1230  1  0.540720  0.859220  0.968440  0.5
  C  C1231  1  0.427720  0.109220  0.968440  0.5
  N  N1232  1  0.427720  0.109220  0.968440  0.5
  C  C1233  1  0.859220  0.427720  0.968440  0.5
  N  N1234  1  0.859220  0.427720  0.968440  0.5
  C  C1235  1  0.109220  0.540720  0.968440  0.5
  N  N1236  1  0.109220  0.540720  0.968440  0.5
  C  C1237  1  0.459280  0.140780  0.031560  0.5
  N  N1238  1  0.459280  0.140780  0.031560  0.5
  C  C1239  1  0.572280  0.890780  0.031560  0.5
  N  N1240  1  0.572280  0.890780  0.031560  0.5
  C  C1241  1  0.140780  0.572280  0.031560  0.5
  N  N1242  1  0.140780  0.572280  0.031560  0.5
  C  C1243  1  0.890780  0.459280  0.031560  0.5
  N  N1244  1  0.890780  0.459280  0.031560  0.5
  C  C1245  1  0.613300  0.218300  0.787400  0.5
  N  N1246  1  0.613300  0.218300  0.787400  0.5
  C  C1247  1  0.174100  0.569100  0.787400  0.5
  N  N1248  1  0.174100  0.569100  0.787400  0.5
  C  C1249  1  0.218300  0.174100  0.787400  0.5
  N  N1250  1  0.218300  0.174100  0.787400  0.5
  C  C1251  1  0.569100  0.613300  0.787400  0.5
  N  N1252  1  0.569100  0.613300  0.787400  0.5
  C  C1253  1  0.386700  0.781700  0.212600  0.5
  N  N1254  1  0.386700  0.781700  0.212600  0.5
  C  C1255  1  0.825900  0.430900  0.212600  0.5
  N  N1256  1  0.825900  0.430900  0.212600  0.5
  C  C1257  1  0.781700  0.825900  0.212600  0.5
  N  N1258  1  0.781700  0.825900  0.212600  0.5
  C  C1259  1  0.430900  0.386700  0.212600  0.5
  N  N1260  1  0.430900  0.386700  0.212600  0.5
  C  C1261  1  0.589820  0.218920  0.968240  0.5
  N  N1262  1  0.589820  0.218920  0.968240  0.5
  C  C1263  1  0.378420  0.749320  0.968240  0.5
  N  N1264  1  0.378420  0.749320  0.968240  0.5
  C  C1265  1  0.218920  0.378420  0.968240  0.5
  N  N1266  1  0.218920  0.378420  0.968240  0.5
  C  C1267  1  0.749320  0.589820  0.968240  0.5
  N  N1268  1  0.749320  0.589820  0.968240  0.5
  C  C1269  1  0.410180  0.781080  0.031760  0.5
  N  N1270  1  0.410180  0.781080  0.031760  0.5
  C  C1271  1  0.621580  0.250680  0.031760  0.5
  N  N1272  1  0.621580  0.250680  0.031760  0.5
  C  C1273  1  0.781080  0.621580  0.031760  0.5
  N  N1274  1  0.781080  0.621580  0.031760  0.5
  C  C1275  1  0.250680  0.410180  0.031760  0.5
  N  N1276  1  0.250680  0.410180  0.031760  0.5
  C  C1277  1  0.323200  0.016400  0.726400  0.75
  C  C1278  1  0.403200  0.710000  0.726400  0.75
  C  C1279  1  0.016400  0.403200  0.726400  0.75
  C  C1280  1  0.710000  0.323200  0.726400  0.75
  C  C1281  1  0.676800  0.983600  0.273600  0.75
  C  C1282  1  0.596800  0.290000  0.273600  0.75
  C  C1283  1  0.983600  0.596800  0.273600  0.75
  C  C1284  1  0.290000  0.676800  0.273600  0.75
  C  C1285  1  0.270700  0.072600  0.599800  0.75
  C  C1286  1  0.329100  0.527200  0.599800  0.75
  C  C1287  1  0.072600  0.329100  0.599800  0.75
  C  C1288  1  0.527200  0.270700  0.599800  0.75
  C  C1289  1  0.729300  0.927400  0.400200  0.75
  C  C1290  1  0.670900  0.472800  0.400200  0.75
  C  C1291  1  0.927400  0.670900  0.400200  0.75
  C  C1292  1  0.472800  0.729300  0.400200  0.75
  C  C1293  1  0.271700  0.026200  0.610000  0.75
  C  C1294  1  0.338300  0.583800  0.610000  0.75
  C  C1295  1  0.026200  0.338300  0.610000  0.75
  C  C1296  1  0.583800  0.271700  0.610000  0.75
  C  C1297  1  0.728300  0.973800  0.390000  0.75
  C  C1298  1  0.661700  0.416200  0.390000  0.75
  C  C1299  1  0.973800  0.661700  0.390000  0.75
  C  C1300  1  0.416200  0.728300  0.390000  0.75
  C  C1301  1  0.827500  0.254200  0.831800  0.75
  C  C1302  1  0.004300  0.577600  0.831800  0.75
  C  C1303  1  0.254200  0.004300  0.831800  0.75
  C  C1304  1  0.577600  0.827500  0.831800  0.75
  C  C1305  1  0.172500  0.745800  0.168200  0.75
  C  C1306  1  0.995700  0.422400  0.168200  0.75
  C  C1307  1  0.745800  0.995700  0.168200  0.75
  C  C1308  1  0.422400  0.172500  0.168200  0.75
  C  C1309  1  0.851500  0.233400  0.854200  0.75
  C  C1310  1  0.002700  0.620800  0.854200  0.75
  C  C1311  1  0.233400  0.002700  0.854200  0.75
  C  C1312  1  0.620800  0.851500  0.854200  0.75
  C  C1313  1  0.148500  0.766600  0.145800  0.75
  C  C1314  1  0.997300  0.379200  0.145800  0.75
  C  C1315  1  0.766600  0.997300  0.145800  0.75
  C  C1316  1  0.379200  0.148500  0.145800  0.75
  C  C1317  1  0.639500  0.450000  0.752400  0.75
  C  C1318  1  0.112900  0.302400  0.752400  0.75
  C  C1319  1  0.450000  0.112900  0.752400  0.75
  C  C1320  1  0.302400  0.639500  0.752400  0.75
  C  C1321  1  0.360500  0.550000  0.247600  0.75
  C  C1322  1  0.887100  0.697600  0.247600  0.75
  C  C1323  1  0.550000  0.887100  0.247600  0.75
  C  C1324  1  0.697600  0.360500  0.247600  0.75
  C  C1325  1  0.611600  0.420500  0.752200  0.75
  C  C1326  1  0.140600  0.331700  0.752200  0.75
  C  C1327  1  0.420500  0.140600  0.752200  0.75
  C  C1328  1  0.331700  0.611600  0.752200  0.75
  C  C1329  1  0.388400  0.579500  0.247800  0.75
  C  C1330  1  0.859400  0.668300  0.247800  0.75
  C  C1331  1  0.579500  0.859400  0.247800  0.75
  C  C1332  1  0.668300  0.388400  0.247800  0.75
  C  C1333  1  0.641400  0.472400  0.776800  0.75
  C  C1334  1  0.135400  0.304400  0.776800  0.75
  C  C1335  1  0.472400  0.135400  0.776800  0.75
  C  C1336  1  0.304400  0.641400  0.776800  0.75
  C  C1337  1  0.358600  0.527600  0.223200  0.75
  C  C1338  1  0.864600  0.695600  0.223200  0.75
  C  C1339  1  0.527600  0.864600  0.223200  0.75
  C  C1340  1  0.695600  0.358600  0.223200  0.75
  C  C1341  1  0.620500  0.340400  0.744400  0.75
  C  C1342  1  0.123900  0.404000  0.744400  0.75
  C  C1343  1  0.340400  0.123900  0.744400  0.75
  C  C1344  1  0.404000  0.620500  0.744400  0.75
  C  C1345  1  0.379500  0.659600  0.255600  0.75
  C  C1346  1  0.876100  0.596000  0.255600  0.75
  C  C1347  1  0.659600  0.876100  0.255600  0.75
  C  C1348  1  0.596000  0.379500  0.255600  0.75
  C  C1349  1  0.352700  0.008300  0.764600  0.75
  C  C1350  1  0.411900  0.756300  0.764600  0.75
  C  C1351  1  0.008300  0.411900  0.764600  0.75
  C  C1352  1  0.756300  0.352700  0.764600  0.75
  C  C1353  1  0.647300  0.991700  0.235400  0.75
  C  C1354  1  0.588100  0.243700  0.235400  0.75
  C  C1355  1  0.991700  0.588100  0.235400  0.75
  C  C1356  1  0.243700  0.647300  0.235400  0.75
  H  H1357  1  0.554800  0.787700  0.587000  1.0
  H  H1358  1  0.032200  0.799300  0.587000  1.0
  H  H1359  1  0.787700  0.032200  0.587000  1.0
  H  H1360  1  0.799300  0.554800  0.587000  1.0
  H  H1361  1  0.445200  0.212300  0.413000  1.0
  H  H1362  1  0.967800  0.200700  0.413000  1.0
  H  H1363  1  0.212300  0.967800  0.413000  1.0
  H  H1364  1  0.200700  0.445200  0.413000  1.0
  H  H1365  1  0.527900  0.771900  0.613200  1.0
  H  H1366  1  0.085300  0.841300  0.613200  1.0
  H  H1367  1  0.771900  0.085300  0.613200  1.0
  H  H1368  1  0.841300  0.527900  0.613200  1.0
  H  H1369  1  0.472100  0.228100  0.386800  1.0
  H  H1370  1  0.914700  0.158700  0.386800  1.0
  H  H1371  1  0.228100  0.914700  0.386800  1.0
  H  H1372  1  0.158700  0.472100  0.386800  1.0
  H  H1373  1  0.431300  0.728200  0.512600  1.0
  H  H1374  1  0.081300  0.784400  0.512600  1.0
  H  H1375  1  0.728200  0.081300  0.512600  1.0
  H  H1376  1  0.784400  0.431300  0.512600  1.0
  H  H1377  1  0.568700  0.271800  0.487400  1.0
  H  H1378  1  0.918700  0.215600  0.487400  1.0
  H  H1379  1  0.271800  0.918700  0.487400  1.0
  H  H1380  1  0.215600  0.568700  0.487400  1.0
  H  H1381  1  0.458100  0.743900  0.486400  1.0
  H  H1382  1  0.028300  0.742500  0.486400  1.0
  H  H1383  1  0.743900  0.028300  0.486400  1.0
  H  H1384  1  0.742500  0.458100  0.486400  1.0
  H  H1385  1  0.541900  0.256100  0.513600  1.0
  H  H1386  1  0.971700  0.257500  0.513600  1.0
  H  H1387  1  0.256100  0.971700  0.513600  1.0
  H  H1388  1  0.257500  0.541900  0.513600  1.0
  H  H1389  1  0.415700  0.697800  0.542200  1.0
  H  H1390  1  0.126500  0.844400  0.542200  1.0
  H  H1391  1  0.697800  0.126500  0.542200  1.0
  H  H1392  1  0.844400  0.415700  0.542200  1.0
  H  H1393  1  0.584300  0.302200  0.457800  1.0
  H  H1394  1  0.873500  0.155600  0.457800  1.0
  H  H1395  1  0.302200  0.873500  0.457800  1.0
  H  H1396  1  0.155600  0.584300  0.457800  1.0
  H  H1397  1  0.405500  0.715700  0.597200  1.0
  H  H1398  1  0.191700  0.881500  0.597200  1.0
  H  H1399  1  0.715700  0.191700  0.597200  1.0
  H  H1400  1  0.881500  0.405500  0.597200  1.0
  H  H1401  1  0.594500  0.284300  0.402800  1.0
  H  H1402  1  0.808300  0.118500  0.402800  1.0
  H  H1403  1  0.284300  0.808300  0.402800  1.0
  H  H1404  1  0.118500  0.594500  0.402800  1.0
  H  H1405  1  0.506700  0.772200  0.644600  1.0
  H  H1406  1  0.137900  0.872400  0.644600  1.0
  H  H1407  1  0.772200  0.137900  0.644600  1.0
  H  H1408  1  0.872400  0.506700  0.644600  1.0
  H  H1409  1  0.493300  0.227800  0.355400  1.0
  H  H1410  1  0.862100  0.127600  0.355400  1.0
  H  H1411  1  0.227800  0.862100  0.355400  1.0
  H  H1412  1  0.127600  0.493300  0.355400  1.0
  H  H1413  1  0.419100  0.733100  0.660400  1.0
  H  H1414  1  0.241300  0.927300  0.660400  1.0
  H  H1415  1  0.733100  0.241300  0.660400  1.0
  H  H1416  1  0.927300  0.419100  0.660400  1.0
  H  H1417  1  0.580900  0.266900  0.339600  1.0
  H  H1418  1  0.758700  0.072700  0.339600  1.0
  H  H1419  1  0.266900  0.758700  0.339600  1.0
  H  H1420  1  0.072700  0.580900  0.339600  1.0
  H  H1421  1  0.438200  0.749800  0.723200  1.0
  H  H1422  1  0.285000  0.973400  0.723200  1.0
  H  H1423  1  0.749800  0.285000  0.723200  1.0
  H  H1424  1  0.973400  0.438200  0.723200  1.0
  H  H1425  1  0.561800  0.250200  0.276800  1.0
  H  H1426  1  0.715000  0.026600  0.276800  1.0
  H  H1427  1  0.250200  0.715000  0.276800  1.0
  H  H1428  1  0.026600  0.561800  0.276800  1.0
  H  H1429  1  0.539900  0.795800  0.759400  1.0
  H  H1430  1  0.219500  0.963600  0.759400  1.0
  H  H1431  1  0.795800  0.219500  0.759400  1.0
  H  H1432  1  0.963600  0.539900  0.759400  1.0
  H  H1433  1  0.460100  0.204200  0.240600  1.0
  H  H1434  1  0.780500  0.036400  0.240600  1.0
  H  H1435  1  0.204200  0.780500  0.240600  1.0
  H  H1436  1  0.036400  0.460100  0.240600  1.0
  H  H1437  1  0.520700  0.779100  0.696600  1.0
  H  H1438  1  0.175900  0.917500  0.696600  1.0
  H  H1439  1  0.779100  0.175900  0.696600  1.0
  H  H1440  1  0.917500  0.520700  0.696600  1.0
  H  H1441  1  0.479300  0.220900  0.303400  1.0
  H  H1442  1  0.824100  0.082500  0.303400  1.0
  H  H1443  1  0.220900  0.824100  0.303400  1.0
  H  H1444  1  0.082500  0.479300  0.303400  1.0
  H  H1445  1  0.539500  0.861500  0.829800  1.0
  H  H1446  1  0.290300  0.968300  0.829800  1.0
  H  H1447  1  0.861500  0.290300  0.829800  1.0
  H  H1448  1  0.968300  0.539500  0.829800  1.0
  H  H1449  1  0.460500  0.138500  0.170200  1.0
  H  H1450  1  0.709700  0.031700  0.170200  1.0
  H  H1451  1  0.138500  0.709700  0.170200  1.0
  H  H1452  1  0.031700  0.460500  0.170200  1.0
  H  H1453  1  0.534000  0.914600  0.829600  1.0
  H  H1454  1  0.295600  0.915000  0.829600  1.0
  H  H1455  1  0.914600  0.295600  0.829600  1.0
  H  H1456  1  0.915000  0.534000  0.829600  1.0
  H  H1457  1  0.466000  0.085400  0.170400  1.0
  H  H1458  1  0.704400  0.085000  0.170400  1.0
  H  H1459  1  0.085400  0.704400  0.170400  1.0
  H  H1460  1  0.085000  0.466000  0.170400  1.0
  H  H1461  1  0.425300  0.878700  0.774400  1.0
  H  H1462  1  0.349100  0.895700  0.774400  1.0
  H  H1463  1  0.878700  0.349100  0.774400  1.0
  H  H1464  1  0.895700  0.425300  0.774400  1.0
  H  H1465  1  0.574700  0.121300  0.225600  1.0
  H  H1466  1  0.650900  0.104300  0.225600  1.0
  H  H1467  1  0.121300  0.650900  0.225600  1.0
  H  H1468  1  0.104300  0.574700  0.225600  1.0
  H  H1469  1  0.430700  0.825500  0.774400  1.0
  H  H1470  1  0.343700  0.948900  0.774400  1.0
  H  H1471  1  0.825500  0.343700  0.774400  1.0
  H  H1472  1  0.948900  0.430700  0.774400  1.0
  H  H1473  1  0.569300  0.174500  0.225600  1.0
  H  H1474  1  0.656300  0.051100  0.225600  1.0
  H  H1475  1  0.174500  0.656300  0.225600  1.0
  H  H1476  1  0.051100  0.569300  0.225600  1.0
  H  H1477  1  0.406200  0.917100  0.767800  1.0
  H  H1478  1  0.361600  0.850700  0.767800  1.0
  H  H1479  1  0.917100  0.361600  0.767800  1.0
  H  H1480  1  0.850700  0.406200  0.767800  1.0
  H  H1481  1  0.593800  0.082900  0.232200  1.0
  H  H1482  1  0.638400  0.149300  0.232200  1.0
  H  H1483  1  0.082900  0.638400  0.232200  1.0
  H  H1484  1  0.149300  0.593800  0.232200  1.0
  H  H1485  1  0.417400  0.976300  0.770800  1.0
  H  H1486  1  0.353400  0.794500  0.770800  1.0
  H  H1487  1  0.976300  0.353400  0.770800  1.0
  H  H1488  1  0.794500  0.417400  0.770800  1.0
  H  H1489  1  0.582600  0.023700  0.229200  1.0
  H  H1490  1  0.646600  0.205500  0.229200  1.0
  H  H1491  1  0.023700  0.646600  0.229200  1.0
  H  H1492  1  0.205500  0.582600  0.229200  1.0
  H  H1493  1  0.517400  0.956400  0.817600  1.0
  H  H1494  1  0.300200  0.861200  0.817600  1.0
  H  H1495  1  0.956400  0.300200  0.817600  1.0
  H  H1496  1  0.861200  0.517400  0.817600  1.0
  H  H1497  1  0.482600  0.043600  0.182400  1.0
  H  H1498  1  0.699800  0.138800  0.182400  1.0
  H  H1499  1  0.043600  0.699800  0.182400  1.0
  H  H1500  1  0.138800  0.482600  0.182400  1.0
  H  H1501  1  0.540800  0.008700  0.826800  1.0
  H  H1502  1  0.286000  0.818100  0.826800  1.0
  H  H1503  1  0.008700  0.286000  0.826800  1.0
  H  H1504  1  0.818100  0.540800  0.826800  1.0
  H  H1505  1  0.459200  0.991300  0.173200  1.0
  H  H1506  1  0.714000  0.181900  0.173200  1.0
  H  H1507  1  0.991300  0.714000  0.173200  1.0
  H  H1508  1  0.181900  0.459200  0.173200  1.0
  H  H1509  1  0.565600  0.057500  0.828600  1.0
  H  H1510  1  0.263000  0.771100  0.828600  1.0
  H  H1511  1  0.057500  0.263000  0.828600  1.0
  H  H1512  1  0.771100  0.565600  0.828600  1.0
  H  H1513  1  0.434400  0.942500  0.171400  1.0
  H  H1514  1  0.737000  0.228900  0.171400  1.0
  H  H1515  1  0.942500  0.737000  0.171400  1.0
  H  H1516  1  0.228900  0.434400  0.171400  1.0
  H  H1517  1  0.466100  0.070600  0.778400  1.0
  H  H1518  1  0.312300  0.707800  0.778400  1.0
  H  H1519  1  0.070600  0.312300  0.778400  1.0
  H  H1520  1  0.707800  0.466100  0.778400  1.0
  H  H1521  1  0.533900  0.929400  0.221600  1.0
  H  H1522  1  0.687700  0.292200  0.221600  1.0
  H  H1523  1  0.929400  0.687700  0.221600  1.0
  H  H1524  1  0.292200  0.533900  0.221600  1.0
  H  H1525  1  0.441400  0.021900  0.776800  1.0
  H  H1526  1  0.335400  0.754900  0.776800  1.0
  H  H1527  1  0.021900  0.335400  0.776800  1.0
  H  H1528  1  0.754900  0.441400  0.776800  1.0
  H  H1529  1  0.558600  0.978100  0.223200  1.0
  H  H1530  1  0.664600  0.245100  0.223200  1.0
  H  H1531  1  0.978100  0.664600  0.223200  1.0
  H  H1532  1  0.245100  0.558600  0.223200  1.0
  H  H1533  1  0.481800  0.080800  0.723400  1.0
  H  H1534  1  0.241600  0.642600  0.723400  1.0
  H  H1535  1  0.080800  0.241600  0.723400  1.0
  H  H1536  1  0.642600  0.481800  0.723400  1.0
  H  H1537  1  0.518200  0.919200  0.276600  1.0
  H  H1538  1  0.758400  0.357400  0.276600  1.0
  H  H1539  1  0.919200  0.758400  0.276600  1.0
  H  H1540  1  0.357400  0.518200  0.276600  1.0
  H  H1541  1  0.458700  0.034500  0.659400  1.0
  H  H1542  1  0.200700  0.624900  0.659400  1.0
  H  H1543  1  0.034500  0.200700  0.659400  1.0
  H  H1544  1  0.624900  0.458700  0.659400  1.0
  H  H1545  1  0.541300  0.965500  0.340600  1.0
  H  H1546  1  0.799300  0.375100  0.340600  1.0
  H  H1547  1  0.965500  0.799300  0.340600  1.0
  H  H1548  1  0.375100  0.541300  0.340600  1.0
  H  H1549  1  0.547300  0.999300  0.693800  1.0
  H  H1550  1  0.146500  0.694500  0.693800  1.0
  H  H1551  1  0.999300  0.146500  0.693800  1.0
  H  H1552  1  0.694500  0.547300  0.693800  1.0
  H  H1553  1  0.452700  0.000700  0.306200  1.0
  H  H1554  1  0.853500  0.305500  0.306200  1.0
  H  H1555  1  0.000700  0.853500  0.306200  1.0
  H  H1556  1  0.305500  0.452700  0.306200  1.0
  H  H1557  1  0.570300  0.045600  0.757800  1.0
  H  H1558  1  0.187500  0.712200  0.757800  1.0
  H  H1559  1  0.045600  0.187500  0.757800  1.0
  H  H1560  1  0.712200  0.570300  0.757800  1.0
  H  H1561  1  0.429700  0.954400  0.242200  1.0
  H  H1562  1  0.812500  0.287800  0.242200  1.0
  H  H1563  1  0.954400  0.812500  0.242200  1.0
  H  H1564  1  0.287800  0.429700  0.242200  1.0
  H  H1565  1  0.446000  0.984800  0.592000  1.0
  H  H1566  1  0.146000  0.607200  0.592000  1.0
  H  H1567  1  0.984800  0.146000  0.592000  1.0
  H  H1568  1  0.607200  0.446000  0.592000  1.0
  H  H1569  1  0.554000  0.015200  0.408000  1.0
  H  H1570  1  0.854000  0.392800  0.408000  1.0
  H  H1571  1  0.015200  0.854000  0.408000  1.0
  H  H1572  1  0.392800  0.554000  0.408000  1.0
  H  H1573  1  0.441300  0.920300  0.546000  1.0
  H  H1574  1  0.104700  0.625700  0.546000  1.0
  H  H1575  1  0.920300  0.104700  0.546000  1.0
  H  H1576  1  0.625700  0.441300  0.546000  1.0
  H  H1577  1  0.558700  0.079700  0.454000  1.0
  H  H1578  1  0.895300  0.374300  0.454000  1.0
  H  H1579  1  0.079700  0.895300  0.454000  1.0
  H  H1580  1  0.374300  0.558700  0.454000  1.0
  H  H1581  1  0.532400  0.954800  0.651400  1.0
  H  H1582  1  0.119000  0.696600  0.651400  1.0
  H  H1583  1  0.954800  0.119000  0.651400  1.0
  H  H1584  1  0.696600  0.532400  0.651400  1.0
  H  H1585  1  0.467600  0.045200  0.348600  1.0
  H  H1586  1  0.881000  0.303400  0.348600  1.0
  H  H1587  1  0.045200  0.881000  0.348600  1.0
  H  H1588  1  0.303400  0.467600  0.348600  1.0
  H  H1589  1  0.454100  0.869400  0.514000  1.0
  H  H1590  1  0.059900  0.644600  0.514000  1.0
  H  H1591  1  0.869400  0.059900  0.514000  1.0
  H  H1592  1  0.644600  0.454100  0.514000  1.0
  H  H1593  1  0.545900  0.130600  0.486000  1.0
  H  H1594  1  0.940100  0.355400  0.486000  1.0
  H  H1595  1  0.130600  0.940100  0.486000  1.0
  H  H1596  1  0.355400  0.545900  0.486000  1.0
  H  H1597  1  0.471900  0.818100  0.487200  1.0
  H  H1598  1  0.015300  0.669100  0.487200  1.0
  H  H1599  1  0.818100  0.015300  0.487200  1.0
  H  H1600  1  0.669100  0.471900  0.487200  1.0
  H  H1601  1  0.528100  0.181900  0.512800  1.0
  H  H1602  1  0.984700  0.330900  0.512800  1.0
  H  H1603  1  0.181900  0.984700  0.512800  1.0
  H  H1604  1  0.330900  0.528100  0.512800  1.0
  H  H1605  1  0.565600  0.858300  0.590000  1.0
  H  H1606  1  0.024400  0.731700  0.590000  1.0
  H  H1607  1  0.858300  0.024400  0.590000  1.0
  H  H1608  1  0.731700  0.565600  0.590000  1.0
  H  H1609  1  0.434400  0.141700  0.410000  1.0
  H  H1610  1  0.975600  0.268300  0.410000  1.0
  H  H1611  1  0.141700  0.975600  0.410000  1.0
  H  H1612  1  0.268300  0.434400  0.410000  1.0
  H  H1613  1  0.547800  0.909600  0.616800  1.0
  H  H1614  1  0.069000  0.707200  0.616800  1.0
  H  H1615  1  0.909600  0.069000  0.616800  1.0
  H  H1616  1  0.707200  0.547800  0.616800  1.0
  H  H1617  1  0.452200  0.090400  0.383200  1.0
  H  H1618  1  0.931000  0.292800  0.383200  1.0
  H  H1619  1  0.090400  0.931000  0.383200  1.0
  H  H1620  1  0.292800  0.452200  0.383200  1.0
  H  H1621  1  0.506400  0.721000  0.451200  1.0
  H  H1622  1  0.944800  0.730200  0.451200  1.0
  H  H1623  1  0.721000  0.944800  0.451200  1.0
  H  H1624  1  0.730200  0.506400  0.451200  1.0
  H  H1625  1  0.493600  0.279000  0.548800  1.0
  H  H1626  1  0.055200  0.269800  0.548800  1.0
  H  H1627  1  0.279000  0.055200  0.548800  1.0
  H  H1628  1  0.269800  0.493600  0.548800  1.0
  H  H1629  1  0.516600  0.665100  0.421600  1.0
  H  H1630  1  0.905000  0.756500  0.421600  1.0
  H  H1631  1  0.665100  0.905000  0.421600  1.0
  H  H1632  1  0.756500  0.516600  0.421600  1.0
  H  H1633  1  0.483400  0.334900  0.578400  1.0
  H  H1634  1  0.095000  0.243500  0.578400  1.0
  H  H1635  1  0.334900  0.095000  0.578400  1.0
  H  H1636  1  0.243500  0.483400  0.578400  1.0
  H  H1637  1  0.613000  0.698300  0.520000  1.0
  H  H1638  1  0.907000  0.821700  0.520000  1.0
  H  H1639  1  0.698300  0.907000  0.520000  1.0
  H  H1640  1  0.821700  0.613000  0.520000  1.0
  H  H1641  1  0.387000  0.301700  0.480000  1.0
  H  H1642  1  0.093000  0.178300  0.480000  1.0
  H  H1643  1  0.301700  0.093000  0.480000  1.0
  H  H1644  1  0.178300  0.387000  0.480000  1.0
  H  H1645  1  0.602800  0.754200  0.549600  1.0
  H  H1646  1  0.946800  0.795400  0.549600  1.0
  H  H1647  1  0.754200  0.946800  0.549600  1.0
  H  H1648  1  0.795400  0.602800  0.549600  1.0
  H  H1649  1  0.397200  0.245800  0.450400  1.0
  H  H1650  1  0.053200  0.204600  0.450400  1.0
  H  H1651  1  0.245800  0.053200  0.450400  1.0
  H  H1652  1  0.204600  0.397200  0.450400  1.0
  H  H1653  1  0.627100  0.656300  0.509600  1.0
  H  H1654  1  0.882500  0.853300  0.509600  1.0
  H  H1655  1  0.656300  0.882500  0.509600  1.0
  H  H1656  1  0.853300  0.627100  0.509600  1.0
  H  H1657  1  0.372900  0.343700  0.490400  1.0
  H  H1658  1  0.117500  0.146700  0.490400  1.0
  H  H1659  1  0.343700  0.117500  0.490400  1.0
  H  H1660  1  0.146700  0.372900  0.490400  1.0
  H  H1661  1  0.531900  0.605900  0.402400  1.0
  H  H1662  1  0.870500  0.796500  0.402400  1.0
  H  H1663  1  0.605900  0.870500  0.402400  1.0
  H  H1664  1  0.796500  0.531900  0.402400  1.0
  H  H1665  1  0.468100  0.394100  0.597600  1.0
  H  H1666  1  0.129500  0.203500  0.597600  1.0
  H  H1667  1  0.394100  0.129500  0.597600  1.0
  H  H1668  1  0.203500  0.468100  0.597600  1.0
  H  H1669  1  0.514700  0.785200  0.452400  1.0
  H  H1670  1  0.937700  0.667200  0.452400  1.0
  H  H1671  1  0.785200  0.937700  0.452400  1.0
  H  H1672  1  0.667200  0.514700  0.452400  1.0
  H  H1673  1  0.485300  0.214800  0.547600  1.0
  H  H1674  1  0.062300  0.332800  0.547600  1.0
  H  H1675  1  0.214800  0.062300  0.547600  1.0
  H  H1676  1  0.332800  0.485300  0.547600  1.0
  H  H1677  1  0.535100  0.802500  0.422400  1.0
  H  H1678  1  0.887300  0.619900  0.422400  1.0
  H  H1679  1  0.802500  0.887300  0.422400  1.0
  H  H1680  1  0.619900  0.535100  0.422400  1.0
  H  H1681  1  0.464900  0.197500  0.577600  1.0
  H  H1682  1  0.112700  0.380100  0.577600  1.0
  H  H1683  1  0.197500  0.112700  0.577600  1.0
  H  H1684  1  0.380100  0.464900  0.577600  1.0
  H  H1685  1  0.633400  0.856100  0.521200  1.0
  H  H1686  1  0.887800  0.665100  0.521200  1.0
  H  H1687  1  0.856100  0.887800  0.521200  1.0
  H  H1688  1  0.665100  0.633400  0.521200  1.0
  H  H1689  1  0.366600  0.143900  0.478800  1.0
  H  H1690  1  0.112200  0.334900  0.478800  1.0
  H  H1691  1  0.143900  0.112200  0.478800  1.0
  H  H1692  1  0.334900  0.366600  0.478800  1.0
  H  H1693  1  0.613100  0.838800  0.551200  1.0
  H  H1694  1  0.938100  0.712400  0.551200  1.0
  H  H1695  1  0.838800  0.938100  0.551200  1.0
  H  H1696  1  0.712400  0.613100  0.551200  1.0
  H  H1697  1  0.386900  0.161200  0.448800  1.0
  H  H1698  1  0.061900  0.287600  0.448800  1.0
  H  H1699  1  0.161200  0.061900  0.448800  1.0
  H  H1700  1  0.287600  0.386900  0.448800  1.0
  H  H1701  1  0.566000  0.831600  0.405200  1.0
  H  H1702  1  0.839200  0.573600  0.405200  1.0
  H  H1703  1  0.831600  0.839200  0.405200  1.0
  H  H1704  1  0.573600  0.566000  0.405200  1.0
  H  H1705  1  0.434000  0.168400  0.594800  1.0
  H  H1706  1  0.160800  0.426400  0.594800  1.0
  H  H1707  1  0.168400  0.160800  0.594800  1.0
  H  H1708  1  0.426400  0.434000  0.594800  1.0
  H  H1709  1  0.563100  0.768000  0.816200  1.0
  H  H1710  1  0.253100  0.048200  0.816200  1.0
  H  H1711  1  0.768000  0.253100  0.816200  1.0
  H  H1712  1  0.048200  0.563100  0.816200  1.0
  H  H1713  1  0.436900  0.232000  0.183800  1.0
  H  H1714  1  0.746900  0.951800  0.183800  1.0
  H  H1715  1  0.232000  0.746900  0.183800  1.0
  H  H1716  1  0.951800  0.436900  0.183800  1.0
  H  H1717  1  0.581200  0.716700  0.813000  1.0
  H  H1718  1  0.231800  0.096300  0.813000  1.0
  H  H1719  1  0.716700  0.231800  0.813000  1.0
  H  H1720  1  0.096300  0.581200  0.813000  1.0
  H  H1721  1  0.418800  0.283300  0.187000  1.0
  H  H1722  1  0.768200  0.903700  0.187000  1.0
  H  H1723  1  0.283300  0.768200  0.187000  1.0
  H  H1724  1  0.903700  0.418800  0.187000  1.0
  H  H1725  1  0.479500  0.665500  0.771600  1.0
  H  H1726  1  0.292100  0.106100  0.771600  1.0
  H  H1727  1  0.665500  0.292100  0.771600  1.0
  H  H1728  1  0.106100  0.479500  0.771600  1.0
  H  H1729  1  0.520500  0.334500  0.228400  1.0
  H  H1730  1  0.707900  0.893900  0.228400  1.0
  H  H1731  1  0.334500  0.707900  0.228400  1.0
  H  H1732  1  0.893900  0.520500  0.228400  1.0
  H  H1733  1  0.461300  0.716600  0.774600  1.0
  H  H1734  1  0.313300  0.058000  0.774600  1.0
  H  H1735  1  0.716600  0.313300  0.774600  1.0
  H  H1736  1  0.058000  0.461300  0.774600  1.0
  H  H1737  1  0.538700  0.283400  0.225400  1.0
  H  H1738  1  0.686700  0.942000  0.225400  1.0
  H  H1739  1  0.283400  0.686700  0.225400  1.0
  H  H1740  1  0.942000  0.538700  0.225400  1.0
  H  H1741  1  0.492600  0.627300  0.777200  1.0
  H  H1742  1  0.284600  0.149900  0.777200  1.0
  H  H1743  1  0.627300  0.284600  0.777200  1.0
  H  H1744  1  0.149900  0.492600  0.777200  1.0
  H  H1745  1  0.507400  0.372700  0.222800  1.0
  H  H1746  1  0.715400  0.850100  0.222800  1.0
  H  H1747  1  0.372700  0.715400  0.222800  1.0
  H  H1748  1  0.850100  0.507400  0.222800  1.0
  H  H1749  1  0.579900  0.864600  0.944400  1.0
  H  H1750  1  0.364500  0.079800  0.944400  1.0
  H  H1751  1  0.864600  0.364500  0.944400  1.0
  H  H1752  1  0.079800  0.579900  0.944400  1.0
  H  H1753  1  0.420100  0.135400  0.055600  1.0
  H  H1754  1  0.635500  0.920200  0.055600  1.0
  H  H1755  1  0.135400  0.635500  0.055600  1.0
  H  H1756  1  0.920200  0.420100  0.055600  1.0
  H  H1757  1  0.477300  0.813700  0.901000  1.0
  H  H1758  1  0.423700  0.087300  0.901000  1.0
  H  H1759  1  0.813700  0.423700  0.901000  1.0
  H  H1760  1  0.087300  0.477300  0.901000  1.0
  H  H1761  1  0.522700  0.186300  0.099000  1.0
  H  H1762  1  0.576300  0.912700  0.099000  1.0
  H  H1763  1  0.186300  0.576300  0.099000  1.0
  H  H1764  1  0.912700  0.522700  0.099000  1.0
  H  H1765  1  0.463900  0.791900  0.838600  1.0
  H  H1766  1  0.374700  0.046700  0.838600  1.0
  H  H1767  1  0.791900  0.374700  0.838600  1.0
  H  H1768  1  0.046700  0.463900  0.838600  1.0
  H  H1769  1  0.536100  0.208100  0.161400  1.0
  H  H1770  1  0.625300  0.953300  0.161400  1.0
  H  H1771  1  0.208100  0.625300  0.161400  1.0
  H  H1772  1  0.953300  0.536100  0.161400  1.0
  H  H1773  1  0.598000  0.881700  1.000000  1.0
  H  H1774  1  0.402000  0.118300  0.000000  1.0
  H  H1775  1  0.881700  0.402000  1.000000  1.0
  H  H1776  1  0.118300  0.598000  0.000000  1.0
  H  H1777  1  0.492100  0.840600  0.963400  1.0
  H  H1778  1  0.471300  0.122800  0.963400  1.0
  H  H1779  1  0.840600  0.471300  0.963400  1.0
  H  H1780  1  0.122800  0.492100  0.963400  1.0
  H  H1781  1  0.507900  0.159400  0.036600  1.0
  H  H1782  1  0.528700  0.877200  0.036600  1.0
  H  H1783  1  0.159400  0.528700  0.036600  1.0
  H  H1784  1  0.877200  0.507900  0.036600  1.0
  H  H1785  1  0.600300  0.128300  0.877000  1.0
  H  H1786  1  0.276700  0.748700  0.877000  1.0
  H  H1787  1  0.128300  0.276700  0.877000  1.0
  H  H1788  1  0.748700  0.600300  0.877000  1.0
  H  H1789  1  0.399700  0.871700  0.123000  1.0
  H  H1790  1  0.723300  0.251300  0.123000  1.0
  H  H1791  1  0.871700  0.723300  0.123000  1.0
  H  H1792  1  0.251300  0.399700  0.123000  1.0
  H  H1793  1  0.620000  0.171800  0.941000  1.0
  H  H1794  1  0.321000  0.769200  0.941000  1.0
  H  H1795  1  0.171800  0.321000  0.941000  1.0
  H  H1796  1  0.769200  0.620000  0.941000  1.0
  H  H1797  1  0.380000  0.828200  0.059000  1.0
  H  H1798  1  0.679000  0.230800  0.059000  1.0
  H  H1799  1  0.828200  0.679000  0.059000  1.0
  H  H1800  1  0.230800  0.380000  0.059000  1.0
  H  H1801  1  0.532100  0.207200  0.904400  1.0
  H  H1802  1  0.372300  0.697200  0.904400  1.0
  H  H1803  1  0.207200  0.372300  0.904400  1.0
  H  H1804  1  0.697200  0.532100  0.904400  1.0
  H  H1805  1  0.467900  0.792800  0.095600  1.0
  H  H1806  1  0.627700  0.302800  0.095600  1.0
  H  H1807  1  0.792800  0.627700  0.095600  1.0
  H  H1808  1  0.302800  0.467900  0.095600  1.0
  H  H1809  1  0.512400  0.163800  0.840400  1.0
  H  H1810  1  0.328000  0.676600  0.840400  1.0
  H  H1811  1  0.163800  0.328000  0.840400  1.0
  H  H1812  1  0.676600  0.512400  0.840400  1.0
  H  H1813  1  0.487600  0.836200  0.159600  1.0
  H  H1814  1  0.672000  0.323400  0.159600  1.0
  H  H1815  1  0.836200  0.672000  0.159600  1.0
  H  H1816  1  0.323400  0.487600  0.159600  1.0
  H  H1817  1  0.519800  0.159300  0.776600  1.0
  H  H1818  1  0.256800  0.617300  0.776600  1.0
  H  H1819  1  0.159300  0.256800  0.776600  1.0
  H  H1820  1  0.617300  0.519800  0.776600  1.0
  H  H1821  1  0.480200  0.840700  0.223400  1.0
  H  H1822  1  0.743200  0.382700  0.223400  1.0
  H  H1823  1  0.840700  0.743200  0.223400  1.0
  H  H1824  1  0.382700  0.480200  0.223400  1.0
  H  H1825  1  0.545900  0.202500  0.772400  1.0
  H  H1826  1  0.226500  0.569900  0.772400  1.0
  H  H1827  1  0.202500  0.226500  0.772400  1.0
  H  H1828  1  0.569900  0.545900  0.772400  1.0
  H  H1829  1  0.454100  0.797500  0.227600  1.0
  H  H1830  1  0.773500  0.430100  0.227600  1.0
  H  H1831  1  0.797500  0.773500  0.227600  1.0
  H  H1832  1  0.430100  0.454100  0.227600  1.0
  H  H1833  1  0.640300  0.177000  0.810600  1.0
  H  H1834  1  0.170300  0.633600  0.810600  1.0
  H  H1835  1  0.177000  0.170300  0.810600  1.0
  H  H1836  1  0.633600  0.640300  0.810600  1.0
  H  H1837  1  0.359700  0.823000  0.189400  1.0
  H  H1838  1  0.829700  0.366400  0.189400  1.0
  H  H1839  1  0.823000  0.829700  0.189400  1.0
  H  H1840  1  0.366400  0.359700  0.189400  1.0
  H  H1841  1  0.614200  0.133800  0.814800  1.0
  H  H1842  1  0.200600  0.681000  0.814800  1.0
  H  H1843  1  0.133800  0.200600  0.814800  1.0
  H  H1844  1  0.681000  0.614200  0.814800  1.0
  H  H1845  1  0.385800  0.866200  0.185200  1.0
  H  H1846  1  0.799400  0.319000  0.185200  1.0
  H  H1847  1  0.866200  0.799400  0.185200  1.0
  H  H1848  1  0.319000  0.385800  0.185200  1.0
  H  H1849  1  0.575700  0.242700  0.763600  1.0
  H  H1850  1  0.187900  0.520900  0.763600  1.0
  H  H1851  1  0.242700  0.187900  0.763600  1.0
  H  H1852  1  0.520900  0.575700  0.763600  1.0
  H  H1853  1  0.424300  0.757300  0.236400  1.0
  H  H1854  1  0.812100  0.479100  0.236400  1.0
  H  H1855  1  0.757300  0.812100  0.236400  1.0
  H  H1856  1  0.479100  0.424300  0.236400  1.0
  H  H1857  1  0.663500  0.207100  0.803200  1.0
  H  H1858  1  0.139700  0.596100  0.803200  1.0
  H  H1859  1  0.207100  0.139700  0.803200  1.0
  H  H1860  1  0.596100  0.663500  0.803200  1.0
  H  H1861  1  0.336500  0.792900  0.196800  1.0
  H  H1862  1  0.860300  0.403900  0.196800  1.0
  H  H1863  1  0.792900  0.860300  0.196800  1.0
  H  H1864  1  0.403900  0.336500  0.196800  1.0
  H  H1865  1  0.641000  0.215200  0.000000  1.0
  H  H1866  1  0.359000  0.784800  0.000000  1.0
  H  H1867  1  0.215200  0.359000  1.000000  1.0
  H  H1868  1  0.784800  0.641000  1.000000  1.0
  H  H1869  1  0.549300  0.246200  0.964000  1.0
  H  H1870  1  0.414700  0.717800  0.964000  1.0
  H  H1871  1  0.246200  0.414700  0.964000  1.0
  H  H1872  1  0.717800  0.549300  0.964000  1.0
  H  H1873  1  0.450700  0.753800  0.036000  1.0
  H  H1874  1  0.585300  0.282200  0.036000  1.0
  H  H1875  1  0.753800  0.585300  0.036000  1.0
  H  H1876  1  0.282200  0.450700  0.036000  1.0
  N  N1877  1  0.509000  0.767400  0.534400  1.0
  N  N1878  1  0.025400  0.767000  0.534400  1.0
  N  N1879  1  0.767400  0.025400  0.534400  1.0
  N  N1880  1  0.767000  0.509000  0.534400  1.0
  N  N1881  1  0.491000  0.232600  0.465600  1.0
  N  N1882  1  0.974600  0.233000  0.465600  1.0
  N  N1883  1  0.232600  0.974600  0.465600  1.0
  N  N1884  1  0.233000  0.491000  0.465600  1.0
  N  N1885  1  0.490810  0.774410  0.747220  1.0
  N  N1886  1  0.256410  0.972810  0.747220  1.0
  N  N1887  1  0.774410  0.256410  0.747220  1.0
  N  N1888  1  0.972810  0.490810  0.747220  1.0
  N  N1889  1  0.509190  0.225590  0.252780  1.0
  N  N1890  1  0.743590  0.027190  0.252780  1.0
  N  N1891  1  0.225590  0.743590  0.252780  1.0
  N  N1892  1  0.027190  0.509190  0.252780  1.0
  N  N1893  1  0.485600  0.838500  0.802000  1.0
  N  N1894  1  0.316400  0.963500  0.802000  1.0
  N  N1895  1  0.838500  0.316400  0.802000  1.0
  N  N1896  1  0.963500  0.485600  0.802000  1.0
  N  N1897  1  0.514400  0.161500  0.198000  1.0
  N  N1898  1  0.683600  0.036500  0.198000  1.0
  N  N1899  1  0.161500  0.683600  0.198000  1.0
  N  N1900  1  0.036500  0.514400  0.198000  1.0
  N  N1901  1  0.518100  0.068600  0.803600  1.0
  N  N1902  1  0.285500  0.735000  0.803600  1.0
  N  N1903  1  0.068600  0.285500  0.803600  1.0
  N  N1904  1  0.735000  0.518100  0.803600  1.0
  N  N1905  1  0.481900  0.931400  0.196400  1.0
  N  N1906  1  0.714500  0.265000  0.196400  1.0
  N  N1907  1  0.931400  0.714500  0.196400  1.0
  N  N1908  1  0.265000  0.481900  0.196400  1.0
  N  N1909  1  0.528200  0.067500  0.746600  1.0
  N  N1910  1  0.218400  0.679100  0.746600  1.0
  N  N1911  1  0.067500  0.218400  0.746600  1.0
  N  N1912  1  0.679100  0.528200  0.746600  1.0
  N  N1913  1  0.471800  0.932500  0.253400  1.0
  N  N1914  1  0.781600  0.320900  0.253400  1.0
  N  N1915  1  0.932500  0.781600  0.253400  1.0
  N  N1916  1  0.320900  0.471800  0.253400  1.0
  N  N1917  1  0.520400  0.833300  0.536000  1.0
  N  N1918  1  0.015600  0.702700  0.536000  1.0
  N  N1919  1  0.833300  0.015600  0.536000  1.0
  N  N1920  1  0.702700  0.520400  0.536000  1.0
  N  N1921  1  0.479600  0.166700  0.464000  1.0
  N  N1922  1  0.984400  0.297300  0.464000  1.0
  N  N1923  1  0.166700  0.984400  0.464000  1.0
  N  N1924  1  0.297300  0.479600  0.464000  1.0
  N  N1925  1  0.553700  0.742800  0.503200  1.0
  N  N1926  1  0.949500  0.760400  0.503200  1.0
  N  N1927  1  0.742800  0.949500  0.503200  1.0
  N  N1928  1  0.760400  0.553700  0.503200  1.0
  N  N1929  1  0.446300  0.257200  0.496800  1.0
  N  N1930  1  0.050500  0.239600  0.496800  1.0
  N  N1931  1  0.257200  0.050500  0.496800  1.0
  N  N1932  1  0.239600  0.446300  0.496800  1.0
  N  N1933  1  0.562000  0.810400  0.504600  1.0
  N  N1934  1  0.942600  0.694200  0.504600  1.0
  N  N1935  1  0.810400  0.942600  0.504600  1.0
  N  N1936  1  0.694200  0.562000  0.504600  1.0
  N  N1937  1  0.438000  0.189600  0.495400  1.0
  N  N1938  1  0.057400  0.305800  0.495400  1.0
  N  N1939  1  0.189600  0.057400  0.495400  1.0
  N  N1940  1  0.305800  0.438000  0.495400  1.0
  N  N1941  1  0.510400  0.747000  0.795600  1.0
  N  N1942  1  0.285200  0.048600  0.795600  1.0
  N  N1943  1  0.747000  0.285200  0.795600  1.0
  N  N1944  1  0.048600  0.510400  0.795600  1.0
  N  N1945  1  0.489600  0.253000  0.204400  1.0
  N  N1946  1  0.714800  0.951400  0.204400  1.0
  N  N1947  1  0.253000  0.714800  0.204400  1.0
  N  N1948  1  0.951400  0.489600  0.204400  1.0
  N  N1949  1  0.513940  0.815340  0.854480  1.0
  N  N1950  1  0.340540  0.039140  0.854480  1.0
  N  N1951  1  0.815340  0.340540  0.854480  1.0
  N  N1952  1  0.039140  0.513940  0.854480  1.0
  N  N1953  1  0.486060  0.184660  0.145520  1.0
  N  N1954  1  0.659460  0.960860  0.145520  1.0
  N  N1955  1  0.184660  0.659460  0.145520  1.0
  N  N1956  1  0.960860  0.486060  0.145520  1.0
  N  N1957  1  0.554550  0.141950  0.852700  1.0
  N  N1958  1  0.298150  0.710750  0.852700  1.0
  N  N1959  1  0.141950  0.298150  0.852700  1.0
  N  N1960  1  0.710750  0.554550  0.852700  1.0
  N  N1961  1  0.445450  0.858050  0.147300  1.0
  N  N1962  1  0.701850  0.289250  0.147300  1.0
  N  N1963  1  0.858050  0.701850  0.147300  1.0
  N  N1964  1  0.289250  0.445450  0.147300  1.0
  N  N1965  1  0.564500  0.142400  0.796000  1.0
  N  N1966  1  0.231500  0.653600  0.796000  1.0
  N  N1967  1  0.142400  0.231500  0.796000  1.0
  N  N1968  1  0.653600  0.564500  0.796000  1.0
  N  N1969  1  0.435500  0.857600  0.204000  1.0
  N  N1970  1  0.768500  0.346400  0.204000  1.0
  N  N1971  1  0.857600  0.768500  0.204000  1.0
  N  N1972  1  0.346400  0.435500  0.204000  1.0
  Pd  Pd1973  1  0.534530  0.786710  0.517040  1.0
  Pd  Pd1974  1  0.982510  0.730330  0.517040  1.0
  Pd  Pd1975  1  0.786710  0.982510  0.517040  1.0
  Pd  Pd1976  1  0.730330  0.534530  0.517040  1.0
  Pd  Pd1977  1  0.465470  0.213290  0.482960  1.0
  Pd  Pd1978  1  0.017490  0.269670  0.482960  1.0
  Pd  Pd1979  1  0.213290  0.017490  0.482960  1.0
  Pd  Pd1980  1  0.269670  0.465470  0.482960  1.0
  Pd  Pd1981  1  0.498710  0.793270  0.799660  1.0
  Pd  Pd1982  1  0.300950  0.006390  0.799660  1.0
  Pd  Pd1983  1  0.793270  0.300950  0.799660  1.0
  Pd  Pd1984  1  0.006390  0.498710  0.799660  1.0
  Pd  Pd1985  1  0.501290  0.206730  0.200340  1.0
  Pd  Pd1986  1  0.699050  0.993610  0.200340  1.0
  Pd  Pd1987  1  0.206730  0.699050  0.200340  1.0
  Pd  Pd1988  1  0.993610  0.501290  0.200340  1.0
  Pd  Pd1989  1  0.540440  0.105830  0.799680  1.0
  Pd  Pd1990  1  0.259240  0.693850  0.799680  1.0
  Pd  Pd1991  1  0.105830  0.259240  0.799680  1.0
  Pd  Pd1992  1  0.693850  0.540440  0.799680  1.0
  Pd  Pd1993  1  0.459560  0.894170  0.200320  1.0
  Pd  Pd1994  1  0.740760  0.306150  0.200320  1.0
  Pd  Pd1995  1  0.894170  0.740760  0.200320  1.0
  Pd  Pd1996  1  0.306150  0.459560  0.200320  1.0
