
#######################################################################
#
#                 Cambridge Crystallographic Data Centre
#                                CCDC 
#
#######################################################################
#
# If this CIF has been generated from an entry in the Cambridge 
# Structural Database, then it will include bibliographic, chemical, 
# crystal, experimental, refinement or atomic coordinate data resulting 
# from the CCDC's data processing and validation procedures.
#
#######################################################################

data_HAWJEX
_chemical_formula_moiety         'C72 H60 N24 Pd3 6+,6(C1 F3 O3 S1 1-)'
_chemical_name_systematic        
"tris(\m-1,1'-[1,4-phenylenebis(methylene)]bis(1H-1,2,3-triazole))-tris(1,10-phenanthroline)-tri-palladium(ii) hexakis(trifluoromethanesulfonate) unknown solvate"
_symmetry_cell_setting           triclinic
_symmetry_space_group_name_H-M   'P -1'
_symmetry_Int_Tables_number      2
_space_group_name_Hall           '-P 1'
loop_
_symmetry_equiv_pos_site_id
_symmetry_equiv_pos_as_xyz
1 x,y,z
2 -x,-y,-z
_cell_length_a                   16.4080(4)
_cell_length_b                   18.7992(5)
_cell_length_c                   18.8710(5)
_cell_angle_alpha                106.9070(10)
_cell_angle_beta                 107.4860(10)
_cell_angle_gamma                103.4290(10)
_cell_volume                     4975.48
_exptl_crystal_colour            colorless
_exptl_crystal_description       block
_cell_formula_units_Z            2
loop_
_atom_site_label
_atom_site_type_symbol
_atom_site_fract_x
_atom_site_fract_y
_atom_site_fract_z
C1 C 1.0032(7) 0.3039(4) 0.4682(5)
H1 H 1.037585 0.271050 0.471354
C2 C 0.9500(9) 0.3096(5) 0.5135(5)
H2 H 0.950680 0.281402 0.546691
C3 C 0.8987(7) 0.3541(5) 0.5104(5)
H3 H 0.863836 0.357260 0.541252
C4 C 0.8971(6) 0.3977(5) 0.4589(5)
C5 C 0.8459(6) 0.4467(6) 0.4508(5)
H4 H 0.809054 0.452448 0.479581
C6 C 0.8492(7) 0.4852(6) 0.4026(6)
H5 H 0.813236 0.516569 0.397399
C7 C 0.9065(5) 0.4803(5) 0.3577(5)
C8 C 0.9131(6) 0.5200(5) 0.3052(6)
H6 H 0.878175 0.551632 0.296671
C9 C 0.9704(7) 0.5115(5) 0.2677(5)
H7 H 0.974231 0.536043 0.231950
C10 C 1.0225(6) 0.4668(5) 0.2826(5)
H8 H 1.063651 0.463779 0.258014
C11 C 0.9579(5) 0.4334(4) 0.3669(4)
C12 C 0.9543(6) 0.3891(4) 0.4169(4)
C13 C 1.1549(6) 0.2159(6) 0.3122(8)
H9 H 1.152830 0.216197 0.262461
C14 C 1.1807(8) 0.1633(8) 0.3487(12)
H10 H 1.195466 0.119206 0.327485
C15 C 1.1937(8) 0.1592(11) 0.4855(12)
H11 H 1.242411 0.197537 0.535929
H12 H 1.210418 0.113031 0.467378
C16 C 1.0998(9) 0.1344(11) 0.4973(12)
C17 C 1.0932(9) 0.1748(9) 0.5638(10)
H13 H 1.143636 0.217719 0.603644
C18 C 1.0119(9) 0.1550(6) 0.5767(6)
H14 H 1.008999 0.183418 0.624719
C19 C 0.9377(6) 0.0932(6) 0.5168(6)
C20 C 0.9460(7) 0.0507(6) 0.4477(6)
H15 H 0.896007 0.008314 0.406431
C21 C 1.0273(9) 0.0707(9) 0.4398(9)
H16 H 1.032949 0.040109 0.394163
C22 C 0.8478(7) 0.0710(6) 0.5293(6)
H17 H 0.827727 0.015174 0.520098
H18 H 0.858995 0.101222 0.584685
C23 C 1.2336(6) 0.4185(6) 0.3038(6)
H19 H 1.276507 0.449722 0.355986
C24 C 1.2446(6) 0.4171(6) 0.2370(6)
H20 H 1.295191 0.446200 0.231941
C25 C 1.1395(5) 0.3389(6) 0.0914(5)
H21 H 1.132105 0.283281 0.068444
H22 H 1.188308 0.369101 0.081419
C26 C 1.0522(5) 0.3503(5) 0.0497(4)
C27 C 1.0423(5) 0.4239(5) 0.0809(4)
H23 H 1.088014 0.464623 0.127371
C28 C 0.9623(5) 0.4345(4) 0.0406(4)
H24 H 0.954165 0.482279 0.062178
C29 C 0.6603(5) 0.3216(4) 0.2584(4)
H25 H 0.622084 0.327355 0.285787
C30 C 0.6672(7) 0.3645(5) 0.2094(5)
H26 H 0.634563 0.398543 0.205490
C31 C 0.7213(7) 0.3566(5) 0.1679(5)
H27 H 0.725104 0.384145 0.134596
C32 C 0.7711(6) 0.3066(4) 0.1757(4)
C33 C 0.8354(7) 0.2925(7) 0.1368(5)
H28 H 0.843156 0.318437 0.102886
C34 C 0.8820(6) 0.2455(6) 0.1475(5)
H29 H 0.922575 0.240131 0.122628
C35 C 0.8704(5) 0.2028(5) 0.1971(4)
C36 C 0.9153(6) 0.1524(6) 0.2090(5)
H30 H 0.955468 0.144421 0.184257
C37 C 0.9015(6) 0.1150(5) 0.2555(6)
H31 H 0.930998 0.079221 0.262123
C38 C 0.8420(5) 0.1280(4) 0.2967(5)
H32 H 0.833883 0.101256 0.329881
C39 C 0.8124(4) 0.2150(4) 0.2374(4)
C40 C 0.7632(5) 0.2653(4) 0.2262(4)
C41 C 0.6470(6) 0.0868(5) 0.4025(5)
H33 H 0.584968 0.075731 0.376083
C42 C 0.6866(6) 0.0529(5) 0.4531(6)
H34 H 0.657244 0.014797 0.468129
C43 C 0.6241(7) 0.2715(6) 0.4492(5)
H35 H 0.675914 0.286999 0.495719
C44 C 0.5434(8) 0.2791(7) 0.4468(5)
H36 H 0.527889 0.299453 0.489958
C45 C 0.3944(6) 0.2436(7) 0.3300(5)
H37 H 0.380884 0.282497 0.366885
H38 H 0.354606 0.191222 0.319171
C46 C 0.3765(6) 0.2565(6) 0.2522(5)
C47 C 0.4209(6) 0.3249(6) 0.2496(6)
H39 H 0.464009 0.365931 0.297243
C48 C 0.4041(6) 0.3359(6) 0.1779(6)
H40 H 0.436675 0.383480 0.177702
C49 C 0.3393(5) 0.2765(5) 0.1067(5)
C50 C 0.2921(6) 0.2069(6) 0.1095(5)
H41 H 0.247358 0.166439 0.062286
C51 C 0.3101(5) 0.1965(6) 0.1811(5)
H42 H 0.277800 0.149203 0.181877
C52 C 0.3224(6) 0.2856(6) 0.0275(5)
H43 H 0.272289 0.239651 -0.015406
H44 H 0.306198 0.332346 0.029589
C53 C 0.5056(5) 0.1353(4) 0.0945(4)
H45 H 0.473814 0.170111 0.091486
C54 C 0.4950(5) 0.0917(4) 0.1399(4)
H46 H 0.454092 0.095511 0.164701
C55 C 0.5442(5) 0.0416(4) 0.1498(4)
H47 H 0.538268 0.013097 0.181922
C56 C 0.6025(5) 0.0359(4) 0.1099(4)
C57 C 0.6576(6) -0.0132(5) 0.1147(5)
H48 H 0.654183 -0.043337 0.145696
C58 C 0.7122(6) -0.0168(5) 0.0769(5)
H49 H 0.746538 -0.049405 0.081837
C59 C 0.7209(5) 0.0281(4) 0.0276(5)
C60 C 0.7785(6) 0.0296(5) -0.0151(6)
H50 H 0.816957 0.000332 -0.011715
C61 C 0.7782(6) 0.0723(6) -0.0600(6)
H51 H 0.815004 0.071570 -0.089062
C62 C 0.7231(6) 0.1181(5) -0.0636(5)
H52 H 0.724354 0.147968 -0.095092
C63 C 0.6669(4) 0.0763(4) 0.0195(4)
C64 C 0.6094(4) 0.0801(4) 0.0640(4)
C65 C 0.5981(6) 0.2350(7) -0.1591(5)
H53 H 0.541829 0.199216 -0.198528
C66 C 0.6602(6) 0.2885(7) -0.1690(5)
H54 H 0.656164 0.296802 -0.216016
C67 C 0.5289(6) 0.3314(5) -0.0044(5)
H55 H 0.579075 0.361753 -0.009110
C68 C 0.4602(7) 0.3527(5) 0.0047(6)
H56 H 0.451927 0.400321 0.006069
C69 C 0.8122(5) 0.3938(5) -0.0723(5)
H57 H 0.810316 0.441865 -0.036664
H58 H 0.816163 0.402072 -0.119746
C70 C 0.8956(5) 0.3768(4) -0.0295(4)
C71 C 0.9091(6) 0.3044(5) -0.0579(5)
H59 H 0.864445 0.263730 -0.104986
C72 C 0.9849(6) 0.2919(5) -0.0190(5)
H60 H 0.991033 0.242938 -0.039293
N1 N 1.0067(5) 0.3430(4) 0.4214(3)
N2 N 1.0183(5) 0.4271(4) 0.3298(3)
N3 N 1.1340(5) 0.2659(5) 0.3675(5)
N4 N 1.1468(6) 0.2514(6) 0.4329(5)
N5 N 1.1779(6) 0.1948(8) 0.4234(9)
N6 N 1.1506(4) 0.3678(4) 0.2842(4)
N7 N 1.1092(4) 0.3335(4) 0.2067(4)
N8 N 1.1655(4) 0.3636(4) 0.1779(4)
N9 N 0.7048(4) 0.2746(3) 0.2668(3)
N10 N 0.7989(4) 0.1780(3) 0.2871(3)
N11 N 0.7150(4) 0.1382(3) 0.3990(3)
N12 N 0.7945(4) 0.1385(3) 0.4427(3)
N13 N 0.7753(5) 0.0864(3) 0.4754(4)
N14 N 0.6168(4) 0.2382(4) 0.3744(3)
N15 N 0.5350(4) 0.2246(4) 0.3241(3)
N16 N 0.4911(5) 0.2507(4) 0.3680(4)
N17 N 0.5593(3) 0.1299(3) 0.0549(3)
N18 N 0.6689(4) 0.1210(3) -0.0242(3)
N19 N 0.6335(4) 0.2433(4) -0.0801(3)
N20 N 0.7133(4) 0.3000(3) -0.0420(3)
N21 N 0.7287(4) 0.3269(4) -0.0961(3)
N22 N 0.5122(4) 0.2567(3) -0.0056(3)
N23 N 0.4364(4) 0.2331(3) 0.0037(3)
N24 N 0.4048(4) 0.2931(4) 0.0115(4)
Pd1 Pd 1.08020(4) 0.35033(3) 0.35233(3)
Pd2 Pd 0.70796(3) 0.20615(3) 0.33343(3)
Pd3 Pd 0.58915(3) 0.18750(3) -0.01627(3)
S1 S 0.7364(3) 0.5447(2) 0.0916(3)
O1 O 0.6940(12) 0.5465(8) 0.0145(7)
O2 O 0.6980(14) 0.5684(12) 0.1510(12)
O3 O 0.7684(7) 0.4810(5) 0.0885(7)
C73 C 0.8285(7) 0.6331(5) 0.1359(8)
F1 F 0.8081(10) 0.6920(5) 0.1290(8)
F2 F 0.8858(11) 0.6231(9) 0.1050(10)
F3 F 0.8744(10) 0.6538(7) 0.2093(7)
S2 S 0.2235(2) 0.63918(16) 0.31396(13)
O4 O 0.1588(7) 0.5845(4) 0.2338(3)
O5 O 0.2112(5) 0.6135(4) 0.3759(3)
O6 O 0.3157(6) 0.6746(7) 0.3245(6)
C74 C 0.1840(8) 0.7192(5) 0.3229(5)
F4 F 0.2281(8) 0.7764(5) 0.3930(5)
F5 F 0.1873(8) 0.7493(4) 0.2698(4)
F6 F 0.1007(7) 0.7008(6) 0.3197(6)
S3 S 0.6808(3) 0.89474(19) 0.2858(2)
O7 O 0.6995(10) 0.8825(7) 0.3589(6)
O8 O 0.5956(6) 0.8828(7) 0.2246(7)
O9 O 0.7459(6) 0.9709(4) 0.2997(5)
C75 C 0.7178(8) 0.8276(6) 0.2299(6)
F7 F 0.7270(7) 0.8374(6) 0.1673(5)
F8 F 0.6612(10) 0.7556(6) 0.2044(9)
F9 F 0.7936(8) 0.8259(8) 0.2678(5)
S4 S 0.6290(3) 0.9766(3) 0.7079(3)
O10 O 0.5809(7) 1.0032(8) 0.7577(7)
O11 O 0.7111(6) 0.9598(7) 0.7423(7)
O12 O 0.5657(7) 0.9195(6) 0.6249(5)
C76 C 0.6791(9) 1.0617(6) 0.6940(7)
F10 F 0.7322(7) 1.1178(5) 0.7630(6)
F11 F 0.7246(8) 1.0516(7) 0.6483(7)
F12 F 0.6180(10) 1.0853(8) 0.6561(9)
S5 S 0.6493(4) 0.5165(4) 0.4367(4)
O13 O 0.6335(10) 0.4974(10) 0.3533(5)
O14 O 0.7328(7) 0.5663(7) 0.5039(6)
O15 O 0.5965(12) 0.4490(9) 0.4492(12)
C77 C 0.5942(11) 0.5852(8) 0.4452(10)
F13 F 0.5081(10) 0.5460(10) 0.3989(10)
F14 F 0.6034(13) 0.6216(11) 0.5168(9)
F15 F 0.6274(15) 0.6391(10) 0.4228(16)
S6 S 0.0315(2) 0.0723(2) 0.8891(2)
O16 O 0.0559(11) 0.0058(7) 0.8755(9)
O17 O 0.1178(9) 0.1436(8) 0.9333(11)
O18 O -0.0302(9) 0.0821(10) 0.9267(9)
C78 C -0.0113(9) 0.0956(8) 0.8058(6)
F16 F -0.0677(9) 0.1309(8) 0.8112(7)
F17 F -0.0605(10) 0.0352(7) 0.7414(6)
F18 F 0.0458(11) 0.1404(11) 0.7907(11)
loop_
_geom_bond_atom_site_label_1
_geom_bond_atom_site_label_2
_geom_bond_site_symmetry_1
_geom_bond_site_symmetry_2
C1 H1 1_555 1_555
C2 C1 1_555 1_555
H2 C2 1_555 1_555
C3 C2 1_555 1_555
H3 C3 1_555 1_555
C4 C3 1_555 1_555
C5 C4 1_555 1_555
H4 C5 1_555 1_555
C6 C5 1_555 1_555
H5 C6 1_555 1_555
C7 C6 1_555 1_555
C8 C7 1_555 1_555
H6 C8 1_555 1_555
C9 C8 1_555 1_555
H7 C9 1_555 1_555
C10 C9 1_555 1_555
H8 C10 1_555 1_555
C11 C7 1_555 1_555
C12 C4 1_555 1_555
C13 H9 1_555 1_555
C14 C13 1_555 1_555
H10 C14 1_555 1_555
C15 H11 1_555 1_555
H12 C15 1_555 1_555
C16 C15 1_555 1_555
C17 C16 1_555 1_555
H13 C17 1_555 1_555
C18 C17 1_555 1_555
H14 C18 1_555 1_555
C19 C18 1_555 1_555
C20 C19 1_555 1_555
H15 C20 1_555 1_555
C21 C16 1_555 1_555
H16 C21 1_555 1_555
C22 C19 1_555 1_555
H17 C22 1_555 1_555
H18 C22 1_555 1_555
C23 H19 1_555 1_555
C24 C23 1_555 1_555
H20 C24 1_555 1_555
C25 H21 1_555 1_555
H22 C25 1_555 1_555
C26 C25 1_555 1_555
C27 C26 1_555 1_555
H23 C27 1_555 1_555
C28 C27 1_555 1_555
H24 C28 1_555 1_555
C29 H25 1_555 1_555
C30 C29 1_555 1_555
H26 C30 1_555 1_555
C31 C30 1_555 1_555
H27 C31 1_555 1_555
C32 C31 1_555 1_555
C33 C32 1_555 1_555
H28 C33 1_555 1_555
C34 C33 1_555 1_555
H29 C34 1_555 1_555
C35 C34 1_555 1_555
C36 C35 1_555 1_555
H30 C36 1_555 1_555
C37 C36 1_555 1_555
H31 C37 1_555 1_555
C38 C37 1_555 1_555
H32 C38 1_555 1_555
C39 C35 1_555 1_555
C40 C32 1_555 1_555
C41 H33 1_555 1_555
C42 C41 1_555 1_555
H34 C42 1_555 1_555
C43 H35 1_555 1_555
C44 C43 1_555 1_555
H36 C44 1_555 1_555
C45 H37 1_555 1_555
H38 C45 1_555 1_555
C46 C45 1_555 1_555
C47 C46 1_555 1_555
H39 C47 1_555 1_555
C48 C47 1_555 1_555
H40 C48 1_555 1_555
C49 C48 1_555 1_555
C50 C49 1_555 1_555
H41 C50 1_555 1_555
C51 C46 1_555 1_555
H42 C51 1_555 1_555
C52 C49 1_555 1_555
H43 C52 1_555 1_555
H44 C52 1_555 1_555
C53 H45 1_555 1_555
C54 C53 1_555 1_555
H46 C54 1_555 1_555
C55 C54 1_555 1_555
H47 C55 1_555 1_555
C56 C55 1_555 1_555
C57 C56 1_555 1_555
H48 C57 1_555 1_555
C58 C57 1_555 1_555
H49 C58 1_555 1_555
C59 C58 1_555 1_555
C60 C59 1_555 1_555
H50 C60 1_555 1_555
C61 C60 1_555 1_555
H51 C61 1_555 1_555
C62 C61 1_555 1_555
H52 C62 1_555 1_555
C63 C59 1_555 1_555
C64 C56 1_555 1_555
C65 H53 1_555 1_555
C66 C65 1_555 1_555
H54 C66 1_555 1_555
C67 H55 1_555 1_555
C68 C67 1_555 1_555
H56 C68 1_555 1_555
C69 H57 1_555 1_555
H58 C69 1_555 1_555
C70 C28 1_555 1_555
C71 C70 1_555 1_555
H59 C71 1_555 1_555
C72 C26 1_555 1_555
H60 C72 1_555 1_555
N1 C1 1_555 1_555
N2 C10 1_555 1_555
N3 C13 1_555 1_555
N4 N3 1_555 1_555
N5 C14 1_555 1_555
N6 C23 1_555 1_555
N7 N6 1_555 1_555
N8 C24 1_555 1_555
N9 C29 1_555 1_555
N10 C38 1_555 1_555
N11 C41 1_555 1_555
N12 N11 1_555 1_555
N13 C22 1_555 1_555
N14 C43 1_555 1_555
N15 N14 1_555 1_555
N16 C44 1_555 1_555
N17 C53 1_555 1_555
N18 C62 1_555 1_555
N19 C65 1_555 1_555
N20 N19 1_555 1_555
N21 C66 1_555 1_555
N22 C67 1_555 1_555
N23 N22 1_555 1_555
N24 C52 1_555 1_555
Pd1 N1 1_555 1_555
Pd2 N9 1_555 1_555
Pd3 N17 1_555 1_555
S1 O1 1_555 1_555
O2 S1 1_555 1_555
O3 S1 1_555 1_555
C73 S1 1_555 1_555
F1 C73 1_555 1_555
F2 C73 1_555 1_555
F3 C73 1_555 1_555
S2 O4 1_555 1_555
O5 S2 1_555 1_555
O6 S2 1_555 1_555
C74 S2 1_555 1_555
F4 C74 1_555 1_555
F5 C74 1_555 1_555
F6 C74 1_555 1_555
S3 O7 1_555 1_555
O8 S3 1_555 1_555
O9 S3 1_555 1_555
C75 S3 1_555 1_555
F7 C75 1_555 1_555
F8 C75 1_555 1_555
F9 C75 1_555 1_555
S4 O10 1_555 1_555
O11 S4 1_555 1_555
O12 S4 1_555 1_555
C76 S4 1_555 1_555
F10 C76 1_555 1_555
F11 C76 1_555 1_555
F12 C76 1_555 1_555
S5 O13 1_555 1_555
O14 S5 1_555 1_555
O15 S5 1_555 1_555
C77 S5 1_555 1_555
F13 C77 1_555 1_555
F14 C77 1_555 1_555
F15 C77 1_555 1_555
S6 O16 1_555 1_555
O17 S6 1_555 1_555
O18 S6 1_555 1_555
C78 S6 1_555 1_555
F16 C78 1_555 1_555
F17 C78 1_555 1_555
F18 C78 1_555 1_555
C11 C12 1_555 1_555
C11 N2 1_555 1_555
C12 N1 1_555 1_555
C15 N5 1_555 1_555
C20 C21 1_555 1_555
C25 N8 1_555 1_555
C39 C40 1_555 1_555
C39 N10 1_555 1_555
C40 N9 1_555 1_555
C42 N13 1_555 1_555
C45 N16 1_555 1_555
C50 C51 1_555 1_555
C63 C64 1_555 1_555
C63 N18 1_555 1_555
C64 N17 1_555 1_555
C68 N24 1_555 1_555
C69 C70 1_555 1_555
C69 N21 1_555 1_555
C71 C72 1_555 1_555
N2 Pd1 1_555 1_555
N3 Pd1 1_555 1_555
N4 N5 1_555 1_555
N6 Pd1 1_555 1_555
N7 N8 1_555 1_555
N10 Pd2 1_555 1_555
N11 Pd2 1_555 1_555
N12 N13 1_555 1_555
N14 Pd2 1_555 1_555
N15 N16 1_555 1_555
N18 Pd3 1_555 1_555
N19 Pd3 1_555 1_555
N20 N21 1_555 1_555
N22 Pd3 1_555 1_555
N23 N24 1_555 1_555

#END
