
#######################################################################
#
#                 Cambridge Crystallographic Data Centre
#                                CCDC 
#
#######################################################################
#
# If this CIF has been generated from an entry in the Cambridge 
# Structural Database, then it will include bibliographic, chemical, 
# crystal, experimental, refinement or atomic coordinate data resulting 
# from the CCDC's data processing and validation procedures.
#
#######################################################################

data_HAWMOK
_chemical_formula_moiety         'C48 H40 N16 Pd2 4+,4(C1 F3 O3 S1 1-),C2 H3 N1'
_chemical_name_systematic        
'bis(1,10-phenanthroline)-bis(\m-1-(4-((1H-1,2,3-triazol-1-yl)methyl)benzyl)-1H-1,2,3-triazole)-di-palladium(ii) tetrakis(trifluoromethanesulfonate) acetonitrile solvate'
_symmetry_cell_setting           monoclinic
_symmetry_space_group_name_H-M   'P 21/n'
_symmetry_Int_Tables_number      14
_space_group_name_Hall           '-P 2yn'
loop_
_symmetry_equiv_pos_site_id
_symmetry_equiv_pos_as_xyz
1 x,y,z
2 1/2-x,1/2+y,1/2-z
3 -x,-y,-z
4 1/2+x,1/2-y,1/2+z
_cell_length_a                   13.5806(12)
_cell_length_b                   13.2023(12)
_cell_length_c                   35.869(3)
_cell_angle_alpha                90
_cell_angle_beta                 92.719(3)
_cell_angle_gamma                90
_cell_volume                     6423.9
_exptl_crystal_colour            colorless
_exptl_crystal_description       block
_cell_formula_units_Z            4
loop_
_atom_site_label
_atom_site_type_symbol
_atom_site_fract_x
_atom_site_fract_y
_atom_site_fract_z
C1 C 0.7168(4) -0.1003(4) 0.13930(13)
H1 H 0.6705 -0.1330 0.1533
C2 C 0.7807(4) -0.1576(4) 0.11893(14)
H2 H 0.7762 -0.2279 0.1191
C3 C 0.8498(4) -0.1117(4) 0.09872(14)
H3 H 0.8937 -0.1504 0.0856
C4 C 0.8547(3) -0.0062(4) 0.09774(12)
C5 C 0.9215(3) 0.0509(5) 0.07645(13)
H4 H 0.9700 0.0172 0.0638
C6 C 0.9157(3) 0.1526(5) 0.07424(13)
H5 H 0.9601 0.1874 0.0600
C7 C 0.8431(3) 0.2084(4) 0.09316(11)
C8 C 0.8296(4) 0.3132(4) 0.09129(13)
H6 H 0.8683 0.3522 0.0761
C9 C 0.7600(4) 0.3583(4) 0.11164(13)
H7 H 0.7508 0.4281 0.1103
C10 C 0.7024(4) 0.2996(3) 0.13457(12)
H8 H 0.6553 0.3314 0.1485
C11 C 0.7806(3) 0.1543(3) 0.11618(10)
C12 C 0.7862(3) 0.0471(3) 0.11794(11)
C13 C 0.4692(3) 0.2126(4) 0.20063(12)
H9 H 0.4203 0.1775 0.1870
C14 C 0.4552(3) 0.2830(4) 0.22725(13)
H10 H 0.3955 0.3064 0.2355
C15 C 0.5720(4) 0.3870(4) 0.26784(15)
H11 H 0.5643 0.4545 0.2575
H12 H 0.6404 0.3782 0.2762
C16 C 0.5069(3) 0.3753(3) 0.30051(12)
C17 C 0.4397(4) 0.4487(4) 0.30825(14)
H13 H 0.4343 0.5062 0.2933
C18 C 0.3799(3) 0.4383(3) 0.33810(13)
H14 H 0.3353 0.4893 0.3432
C19 C 0.3856(3) 0.3542(3) 0.36020(11)
C20 C 0.4515(3) 0.2794(4) 0.35199(13)
H15 H 0.4550 0.2208 0.3664
C21 C 0.5124(3) 0.2901(4) 0.32271(14)
H16 H 0.5577 0.2395 0.3178
C22 C 0.3182(3) 0.3433(4) 0.39226(12)
H17 H 0.3554 0.3185 0.4141
H18 H 0.2909 0.4089 0.3983
C23 C 0.1909(3) 0.2595(4) 0.34926(12)
H19 H 0.2030 0.2932 0.3272
C24 C 0.1223(3) 0.1876(4) 0.35433(13)
H20 H 0.0778 0.1619 0.3362
C25 C -0.0395(4) 0.2403(3) 0.44138(13)
H21 H 0.0034 0.2763 0.4269
C26 C -0.1084(4) 0.2933(4) 0.46148(14)
H22 H -0.1104 0.3637 0.4605
C27 C -0.1726(4) 0.2421(4) 0.48243(14)
H23 H -0.2189 0.2772 0.4957
C28 C -0.1685(3) 0.1364(3) 0.48403(11)
C29 C -0.2318(3) 0.0748(4) 0.50507(13)
H24 H -0.2799 0.1055 0.5188
C30 C -0.2237(3) -0.0270(4) 0.50553(13)
H25 H -0.2651 -0.0651 0.5200
C31 C -0.1520(3) -0.0771(3) 0.48405(12)
C32 C -0.1409(3) -0.1819(4) 0.48246(13)
H26 H -0.1812 -0.2240 0.4959
C33 C -0.0702(4) -0.2221(4) 0.46102(14)
H27 H -0.0626 -0.2920 0.4596
C34 C -0.0093(3) -0.1589(3) 0.44126(13)
H28 H 0.0391 -0.1875 0.4271
C35 C -0.0895(3) -0.0182(3) 0.46335(11)
C36 C -0.0968(3) 0.0890(3) 0.46339(11)
C37 C 0.1320(3) -0.0951(4) 0.35689(13)
H29 H 0.0784 -0.0868 0.3401
C38 C 0.2124(3) -0.1554(4) 0.35225(13)
H30 H 0.2244 -0.1969 0.3320
C39 C 0.3635(3) -0.1904(4) 0.39345(12)
H31 H 0.3517 -0.2594 0.4015
H32 H 0.3952 -0.1541 0.4142
C40 C 0.4306(3) -0.1915(4) 0.36105(11)
C41 C 0.4583(3) -0.2805(4) 0.34560(12)
H33 H 0.4372 -0.3415 0.3555
C42 C 0.5180(3) -0.2811(3) 0.31514(12)
H34 H 0.5374 -0.3425 0.3051
C43 C 0.5485(3) -0.1926(3) 0.29987(12)
C44 C 0.5217(3) -0.1025(3) 0.31576(14)
H35 H 0.5429 -0.0415 0.3059
C45 C 0.4634(3) -0.1021(4) 0.34633(14)
H36 H 0.4462 -0.0408 0.3570
C46 C 0.6094(4) -0.1972(4) 0.26577(14)
H37 H 0.6772 -0.1798 0.2727
H38 H 0.6085 -0.2657 0.2560
C47 C 0.4809(4) -0.1225(4) 0.22091(13)
H39 H 0.4268 -0.1624 0.2261
C48 C 0.4844(3) -0.0473(4) 0.19559(13)
H40 H 0.4327 -0.0253 0.1797
N1 N 0.7201(2) 0.0001(3) 0.13925(9)
N2 N 0.7124(2) 0.2007(3) 0.13707(9)
N3 N 0.5673(2) 0.2027(3) 0.19761(9)
N4 N 0.6155(3) 0.2630(3) 0.22142(10)
N5 N 0.5454(3) 0.3116(3) 0.23907(10)
N6 N 0.2375(2) 0.2721(3) 0.38220(9)
N7 N 0.2011(3) 0.2118(3) 0.40777(9)
N8 N 0.1301(2) 0.1600(3) 0.39028(9)
N9 N -0.0335(2) 0.1409(2) 0.44234(9)
N10 N -0.0187(2) -0.0592(2) 0.44218(9)
N11 N 0.1454(2) -0.0503(3) 0.39019(10)
N12 N 0.2301(3) -0.0782(3) 0.40635(10)
N13 N 0.2691(2) -0.1416(3) 0.38279(9)
N14 N 0.5713(3) -0.1275(3) 0.23687(10)
N15 N 0.6312(3) -0.0590(3) 0.22301(10)
N16 N 0.5766(3) -0.0103(3) 0.19763(9)
Pd1 Pd 0.63998(2) 0.09955(2) 0.16796(2)
Pd2 Pd 0.05826(2) 0.04865(2) 0.41573(2)
C49 C 0.9830(5) 0.6228(4) 0.04870(15)
F1 F 0.9661(4) 0.5365(3) 0.03325(11)
F2 F 0.9049(3) 0.6438(3) 0.06775(12)
F3 F 1.0561(3) 0.6128(3) 0.07418(11)
O1 O 1.1020(3) 0.6984(4) 0.00318(13)
O2 O 0.9298(3) 0.7211(4) -0.01044(12)
O3 O 1.0106(3) 0.8121(3) 0.03928(11)
S1 S 1.00864(9) 0.72394(10) 0.01639(3)
C50 C 0.2114(5) 0.5674(4) 0.22735(18)
F4 F 0.2327(4) 0.4772(3) 0.23872(16)
F5 F 0.2202(3) 0.5689(3) 0.19074(11)
F6 F 0.1158(3) 0.5810(3) 0.23215(12)
O4 O 0.3846(3) 0.6376(3) 0.24179(11)
O5 O 0.2513(3) 0.7563(2) 0.23412(9)
O6 O 0.2626(3) 0.6525(3) 0.28897(9)
S2 S 0.28640(9) 0.66456(10) 0.25095(3)
C51 C 0.0657(4) 0.5061(4) 0.42272(16)
F7 F -0.0009(4) 0.4580(4) 0.40144(16)
F8 F 0.1273(3) 0.4346(2) 0.43511(10)
F9 F 0.0228(4) 0.5358(3) 0.45267(14)
O7 O 0.1701(4) 0.5561(4) 0.37033(13)
O8 O 0.0387(3) 0.6653(3) 0.38507(11)
O9 O 0.1778(4) 0.6555(4) 0.42696(13)
S3 S 0.12178(10) 0.60615(10) 0.39873(3)
C52 C 0.7730(5) 0.0731(6) 0.3006(2)
F10 F 0.8139(4) 0.0792(4) 0.26811(13)
F11 F 0.7421(4) -0.0227(4) 0.30306(14)
F12 F 0.7011(4) 0.1340(5) 0.29806(17)
O10 O 0.7949(6) 0.0972(4) 0.36953(15)
O11 O 0.8917(4) 0.2008(3) 0.3308(2)
O12 O 0.9264(3) 0.0229(4) 0.3378(2)
S4 S 0.85786(12) 0.10140(11) 0.33864(6)
N17 N 0.8011(4) 0.5505(5) 0.47515(18)
C53 C 0.7404(4) 0.5219(5) 0.49333(17)
C54 C 0.6619(4) 0.4857(5) 0.51564(18)
H41 H 0.6191 0.5411 0.5212
H42 H 0.6894 0.4575 0.5385
H43 H 0.6249 0.4346 0.5021
loop_
_geom_bond_atom_site_label_1
_geom_bond_atom_site_label_2
_geom_bond_site_symmetry_1
_geom_bond_site_symmetry_2
C1 H1 1_555 1_555
C2 C1 1_555 1_555
H2 C2 1_555 1_555
C3 C2 1_555 1_555
H3 C3 1_555 1_555
C4 C3 1_555 1_555
C5 C4 1_555 1_555
H4 C5 1_555 1_555
C6 C5 1_555 1_555
H5 C6 1_555 1_555
C7 C6 1_555 1_555
C8 C7 1_555 1_555
H6 C8 1_555 1_555
C9 C8 1_555 1_555
H7 C9 1_555 1_555
C10 C9 1_555 1_555
H8 C10 1_555 1_555
C11 C7 1_555 1_555
C12 C4 1_555 1_555
C13 H9 1_555 1_555
C14 C13 1_555 1_555
H10 C14 1_555 1_555
C15 H11 1_555 1_555
H12 C15 1_555 1_555
C16 C15 1_555 1_555
C17 C16 1_555 1_555
H13 C17 1_555 1_555
C18 C17 1_555 1_555
H14 C18 1_555 1_555
C19 C18 1_555 1_555
C20 C19 1_555 1_555
H15 C20 1_555 1_555
C21 C16 1_555 1_555
H16 C21 1_555 1_555
C22 C19 1_555 1_555
H17 C22 1_555 1_555
H18 C22 1_555 1_555
C23 H19 1_555 1_555
C24 C23 1_555 1_555
H20 C24 1_555 1_555
C25 H21 1_555 1_555
C26 C25 1_555 1_555
H22 C26 1_555 1_555
C27 C26 1_555 1_555
H23 C27 1_555 1_555
C28 C27 1_555 1_555
C29 C28 1_555 1_555
H24 C29 1_555 1_555
C30 C29 1_555 1_555
H25 C30 1_555 1_555
C31 C30 1_555 1_555
C32 C31 1_555 1_555
H26 C32 1_555 1_555
C33 C32 1_555 1_555
H27 C33 1_555 1_555
C34 C33 1_555 1_555
H28 C34 1_555 1_555
C35 C31 1_555 1_555
C36 C28 1_555 1_555
C37 H29 1_555 1_555
C38 C37 1_555 1_555
H30 C38 1_555 1_555
C39 H31 1_555 1_555
H32 C39 1_555 1_555
C40 C39 1_555 1_555
C41 C40 1_555 1_555
H33 C41 1_555 1_555
C42 C41 1_555 1_555
H34 C42 1_555 1_555
C43 C42 1_555 1_555
C44 C43 1_555 1_555
H35 C44 1_555 1_555
C45 C40 1_555 1_555
H36 C45 1_555 1_555
C46 C43 1_555 1_555
H37 C46 1_555 1_555
H38 C46 1_555 1_555
C47 H39 1_555 1_555
C48 C47 1_555 1_555
H40 C48 1_555 1_555
N1 C1 1_555 1_555
N2 C10 1_555 1_555
N3 C13 1_555 1_555
N4 N3 1_555 1_555
N5 C14 1_555 1_555
N6 C22 1_555 1_555
N7 N6 1_555 1_555
N8 C24 1_555 1_555
N9 C25 1_555 1_555
N10 C34 1_555 1_555
N11 C37 1_555 1_555
N12 N11 1_555 1_555
N13 C38 1_555 1_555
N14 C46 1_555 1_555
N15 N14 1_555 1_555
N16 C48 1_555 1_555
Pd1 N1 1_555 1_555
Pd2 N8 1_555 1_555
C49 F1 1_555 1_555
F2 C49 1_555 1_555
F3 C49 1_555 1_555
O1 S1 1_555 1_555
O2 S1 1_555 1_555
O3 S1 1_555 1_555
S1 C49 1_555 1_555
C50 F4 1_555 1_555
F5 C50 1_555 1_555
F6 C50 1_555 1_555
O4 S2 1_555 1_555
O5 S2 1_555 1_555
O6 S2 1_555 1_555
S2 C50 1_555 1_555
C51 F7 1_555 1_555
F8 C51 1_555 1_555
F9 C51 1_555 1_555
O7 S3 1_555 1_555
O8 S3 1_555 1_555
O9 S3 1_555 1_555
S3 C51 1_555 1_555
C52 F10 1_555 1_555
F11 C52 1_555 1_555
F12 C52 1_555 1_555
O10 S4 1_555 1_555
O11 S4 1_555 1_555
O12 S4 1_555 1_555
S4 C52 1_555 1_555
N17 C53 1_555 1_555
C53 C54 1_555 1_555
C54 H41 1_555 1_555
H42 C54 1_555 1_555
H43 C54 1_555 1_555
C11 C12 1_555 1_555
C11 N2 1_555 1_555
C12 N1 1_555 1_555
C15 N5 1_555 1_555
C20 C21 1_555 1_555
C23 N6 1_555 1_555
C35 C36 1_555 1_555
C35 N10 1_555 1_555
C36 N9 1_555 1_555
C39 N13 1_555 1_555
C44 C45 1_555 1_555
C47 N14 1_555 1_555
N2 Pd1 1_555 1_555
N3 Pd1 1_555 1_555
N4 N5 1_555 1_555
N7 N8 1_555 1_555
N9 Pd2 1_555 1_555
N10 Pd2 1_555 1_555
N11 Pd2 1_555 1_555
N12 N13 1_555 1_555
N15 N16 1_555 1_555
N16 Pd1 1_555 1_555

#END
