
#######################################################################
#
#                 Cambridge Crystallographic Data Centre
#                                CCDC 
#
#######################################################################
#
# If this CIF has been generated from an entry in the Cambridge 
# Structural Database, then it will include bibliographic, chemical, 
# crystal, experimental, refinement or atomic coordinate data resulting 
# from the CCDC's data processing and validation procedures.
#
#######################################################################

data_HEPWIL
_chemical_formula_moiety         
'C208 H160 N16 O16 Pd4 8+,8(N1 O3 1-),2(C4 H8 O1)'
_chemical_name_systematic        
"octakis(\m-4,4'-(9,10-dimethoxyphenanthrene-3,6-diyl)dipyridine)-tetra-palladium(ii) octakis(nitrate) tetrahydrofuran unknown solvate"
_symmetry_cell_setting           tetragonal
_symmetry_space_group_name_H-M   'P -4 n 2'
_symmetry_Int_Tables_number      118
_space_group_name_Hall           'P -4 -2n'
loop_
_symmetry_equiv_pos_site_id
_symmetry_equiv_pos_as_xyz
1 x,y,z
2 -x,-y,z
3 y,-x,-z
4 -y,x,-z
5 1/2+x,1/2-y,1/2+z
6 1/2-x,1/2+y,1/2+z
7 1/2+y,1/2+x,1/2-z
8 1/2-y,1/2-x,1/2-z
_cell_length_a                   24.778(4)
_cell_length_b                   24.778(4)
_cell_length_c                   22.718(5)
_cell_angle_alpha                90
_cell_angle_beta                 90
_cell_angle_gamma                90
_cell_volume                     13947.7
_exptl_crystal_colour            colorless
_exptl_crystal_description       plate
_cell_formula_units_Z            2
_chemical_properties_physical    Air-sensitive
_exptl_crystal_recrystallization_method 
'slow diffusion of THF into 0.175 mM solution of compound in CD3Cl'
loop_
_atom_site_label
_atom_site_type_symbol
_atom_site_fract_x
_atom_site_fract_y
_atom_site_fract_z
Pd1 Pd 0.74153(3) 0.47846(4) 0.31121(6)
C1 C 0.8349(4) 0.6208(4) 0.4123(5)
C2 C 0.7863(4) 0.6008(4) 0.4327(6)
H1 H 0.7695 0.6163 0.4663
C3 C 0.7620(4) 0.5575(4) 0.4032(6)
H2 H 0.7280 0.5448 0.4167
N1 N 0.7848(4) 0.5334(4) 0.3567(6)
C4 C 0.8322(4) 0.5531(5) 0.3380(6)
H3 H 0.8482 0.5368 0.3044
C5 C 0.8593(4) 0.5956(4) 0.3641(6)
H4 H 0.8934 0.6073 0.3498
C6 C 0.8593(4) 0.6714(4) 0.4373(6)
C7 C 0.9129(4) 0.6841(4) 0.4272(7)
H5 H 0.9353 0.6584 0.4080
C8 C 0.9348(4) 0.7323(4) 0.4438(8)
H6 H 0.9719 0.7396 0.4369
C9 C 0.9015(4) 0.7717(4) 0.4717(7)
C10 C 0.8470(3) 0.7587(4) 0.4851(6)
C11 C 0.8281(4) 0.7079(4) 0.4667(6)
H7 H 0.7917 0.6985 0.4753
C12 C 0.9215(4) 0.8237(4) 0.4857(7)
C13 C 0.8894(4) 0.8618(4) 0.5111(7)
C14 C 0.8347(4) 0.8502(3) 0.5250(6)
C15 C 0.8139(3) 0.7977(3) 0.5143(6)
C16 C 0.8002(4) 0.8898(4) 0.5488(7)
H8 H 0.8131 0.9258 0.5531
C17 C 0.7499(4) 0.8780(4) 0.5655(8)
H9 H 0.7276 0.9058 0.5809
C18 C 0.7293(4) 0.8255(4) 0.5609(6)
C19 C 0.7614(3) 0.7870(4) 0.5346(7)
H10 H 0.7474 0.7516 0.5300
C20 C 0.6763(3) 0.8098(3) 0.5864(5)
C21 C 0.6526(4) 0.8392(4) 0.6313(5)
H11 H 0.6682 0.8723 0.6435
C22 C 0.6063(4) 0.8206(4) 0.6583(5)
H12 H 0.5911 0.8408 0.6897
N2 N 0.5825(3) 0.7748(3) 0.6414(5)
C23 C 0.6027(4) 0.7482(4) 0.5956(6)
H13 H 0.5844 0.7168 0.5821
C24 C 0.6492(4) 0.7642(4) 0.5667(6)
H14 H 0.6624 0.7442 0.5340
O1 O 0.9744(3) 0.8354(4) 0.4732(8)
O2 O 0.9090(4) 0.9136(3) 0.5192(8)
C25 C 0.9807(9) 0.8657(10) 0.4198(11)
H15 H 1.0191 0.8729 0.4130
H16 H 0.9661 0.8450 0.3867
H17 H 0.9612 0.9000 0.4231
C26 C 0.9409(10) 0.9139(9) 0.5710(11)
H18 H 0.9552 0.9503 0.5776
H19 H 0.9186 0.9032 0.6047
H20 H 0.9708 0.8884 0.5666
C27 C 0.6559(4) 0.6244(5) 0.2054(6)
C28 C 0.7040(5) 0.6031(6) 0.1869(7)
H21 H 0.7213 0.6176 0.1531
C29 C 0.7280(5) 0.5603(6) 0.2172(7)
H22 H 0.7609 0.5460 0.2025
N3 N 0.7071(4) 0.5389(5) 0.2653(6)
C30 C 0.6602(4) 0.5608(5) 0.2843(6)
H23 H 0.6448 0.5475 0.3197
C31 C 0.6340(5) 0.6010(5) 0.2551(6)
H24 H 0.6001 0.6132 0.2693
C32 C 0.6300(5) 0.6687(5) 0.1728(6)
C33 C 0.6596(6) 0.7047(6) 0.1377(7)
H25 H 0.6971 0.6987 0.1320
C34 C 0.6359(6) 0.7478(6) 0.1121(8)
H26 H 0.6575 0.7726 0.0906
C35 C 0.5801(5) 0.7570(5) 0.1164(7)
C36 C 0.5487(5) 0.7191(5) 0.1486(6)
C37 C 0.5748(4) 0.6770(5) 0.1770(6)
H27 H 0.5540 0.6529 0.2004
C38 C 0.5534(5) 0.8004(6) 0.0878(7)
C39 C 0.4996(5) 0.8071(6) 0.0896(8)
C40 C 0.4661(5) 0.7701(6) 0.1191(7)
C41 C 0.4904(5) 0.7261(6) 0.1502(6)
C42 C 0.4085(6) 0.7746(7) 0.1222(8)
H28 H 0.3915 0.8030 0.1011
C43 C 0.3769(6) 0.7404(6) 0.1538(8)
H29 H 0.3391 0.7460 0.1567
C44 C 0.4021(5) 0.6965(6) 0.1821(7)
C45 C 0.4574(4) 0.6901(6) 0.1796(7)
H30 H 0.4733 0.6599 0.1988
C46 C 0.3674(4) 0.6574(5) 0.2147(6)
C47 C 0.3142(5) 0.6486(6) 0.1974(7)
H31 H 0.2984 0.6695 0.1668
C48 C 0.2844(5) 0.6086(6) 0.2258(7)
H32 H 0.2481 0.6030 0.2140
N4 N 0.3042(4) 0.5776(5) 0.2687(5)
C49 C 0.3551(4) 0.5875(5) 0.2854(6)
H33 H 0.3700 0.5666 0.3165
C50 C 0.3871(5) 0.6268(5) 0.2596(6)
H34 H 0.4229 0.6324 0.2732
O3 O 0.5875(6) 0.8334(6) 0.0551(7)
O4 O 0.4752(6) 0.8505(7) 0.0627(7)
C51 C 0.6079(14) 0.8745(11) 0.0922(12)
H35 H 0.6320 0.8980 0.0695
H36 H 0.5778 0.8958 0.1079
H37 H 0.6280 0.8581 0.1248
C52 C 0.4660(14) 0.8935(10) 0.1026(11)
H38 H 0.4486 0.9235 0.0819
H39 H 0.4424 0.8810 0.1345
H40 H 0.5004 0.9056 0.1191
Pd1A Pd 0.25847(3) 0.52154(4) 0.31121(6)
C1A C 0.1651(4) 0.3792(4) 0.4123(5)
C2A C 0.2137(4) 0.3992(4) 0.4327(6)
H1A H 0.2305 0.3837 0.4663
C3A C 0.2380(4) 0.4425(4) 0.4032(6)
H2A H 0.2720 0.4552 0.4167
N1A N 0.2152(4) 0.4666(4) 0.3567(6)
C4A C 0.1678(4) 0.4469(5) 0.3380(6)
H3A H 0.1518 0.4632 0.3044
C5A C 0.1407(4) 0.4044(4) 0.3641(6)
H4A H 0.1066 0.3927 0.3498
C6A C 0.1407(4) 0.3286(4) 0.4373(6)
C7A C 0.0871(4) 0.3159(4) 0.4272(7)
H5A H 0.0647 0.3416 0.4080
C8A C 0.0652(4) 0.2677(4) 0.4438(8)
H6A H 0.0281 0.2604 0.4369
C9A C 0.0985(4) 0.2283(4) 0.4717(7)
C10A C 0.1530(3) 0.2413(4) 0.4851(6)
C11A C 0.1719(4) 0.2921(4) 0.4667(6)
H7A H 0.2083 0.3015 0.4753
C12A C 0.0785(4) 0.1763(4) 0.4857(7)
C13A C 0.1106(4) 0.1382(4) 0.5111(7)
C14A C 0.1653(4) 0.1498(3) 0.5250(6)
C15A C 0.1861(3) 0.2023(3) 0.5143(6)
C16A C 0.1998(4) 0.1102(4) 0.5488(7)
H8A H 0.1869 0.0742 0.5531
C17A C 0.2501(4) 0.1220(4) 0.5655(8)
H9A H 0.2724 0.0942 0.5809
C18A C 0.2707(4) 0.1745(4) 0.5609(6)
C19A C 0.2386(3) 0.2130(4) 0.5346(7)
H10A H 0.2526 0.2484 0.5300
C20A C 0.3237(3) 0.1902(3) 0.5864(5)
C21A C 0.3474(4) 0.1608(4) 0.6313(5)
H11A H 0.3318 0.1277 0.6435
C22A C 0.3937(4) 0.1794(4) 0.6583(5)
H12A H 0.4089 0.1592 0.6897
N2A N 0.4175(3) 0.2252(3) 0.6414(5)
C23A C 0.3973(4) 0.2518(4) 0.5956(6)
H13A H 0.4156 0.2832 0.5821
C24A C 0.3508(4) 0.2358(4) 0.5667(6)
H14A H 0.3376 0.2558 0.5340
O1A O 0.0256(3) 0.1646(4) 0.4732(8)
O2A O 0.0910(4) 0.0864(3) 0.5192(8)
C25A C 0.0193(9) 0.1343(10) 0.4198(11)
H15A H -0.0191 0.1271 0.4130
H16A H 0.0339 0.1550 0.3867
H17A H 0.0388 0.1000 0.4231
C26A C 0.0591(10) 0.0861(9) 0.5710(11)
H18A H 0.0448 0.0497 0.5776
H19A H 0.0814 0.0968 0.6047
H20A H 0.0292 0.1116 0.5666
C27A C 0.3441(4) 0.3756(5) 0.2054(6)
C28A C 0.2960(5) 0.3969(6) 0.1869(7)
H21A H 0.2787 0.3824 0.1531
C29A C 0.2720(5) 0.4397(6) 0.2172(7)
H22A H 0.2391 0.4540 0.2025
N3A N 0.2929(4) 0.4611(5) 0.2653(6)
C30A C 0.3398(4) 0.4392(5) 0.2843(6)
H23A H 0.3552 0.4525 0.3197
C31A C 0.3660(5) 0.3990(5) 0.2551(6)
H24A H 0.3999 0.3868 0.2693
C32A C 0.3700(5) 0.3313(5) 0.1728(6)
C33A C 0.3404(6) 0.2953(6) 0.1377(7)
H25A H 0.3029 0.3013 0.1320
C34A C 0.3641(6) 0.2522(6) 0.1121(8)
H26A H 0.3425 0.2274 0.0906
C35A C 0.4199(5) 0.2430(5) 0.1164(7)
C36A C 0.4513(5) 0.2809(5) 0.1486(6)
C37A C 0.4252(4) 0.3230(5) 0.1770(6)
H27A H 0.4460 0.3471 0.2004
C38A C 0.4466(5) 0.1996(6) 0.0878(7)
C39A C 0.5004(5) 0.1929(6) 0.0896(8)
C40A C 0.5339(5) 0.2299(6) 0.1191(7)
C41A C 0.5096(5) 0.2739(6) 0.1502(6)
C42A C 0.5915(6) 0.2254(7) 0.1222(8)
H28A H 0.6085 0.1970 0.1011
C43A C 0.6231(6) 0.2596(6) 0.1538(8)
H29A H 0.6609 0.2540 0.1567
C44A C 0.5979(5) 0.3035(6) 0.1821(7)
C45A C 0.5426(4) 0.3099(6) 0.1796(7)
H30A H 0.5267 0.3401 0.1988
C46A C 0.6326(4) 0.3426(5) 0.2147(6)
C47A C 0.6858(5) 0.3514(6) 0.1974(7)
H31A H 0.7016 0.3305 0.1668
C48A C 0.7156(5) 0.3914(6) 0.2258(7)
H32A H 0.7519 0.3970 0.2140
N4A N 0.6958(4) 0.4224(5) 0.2687(5)
C49A C 0.6449(4) 0.4125(5) 0.2854(6)
H33A H 0.6300 0.4334 0.3165
C50A C 0.6129(5) 0.3732(5) 0.2596(6)
H34A H 0.5771 0.3676 0.2732
O3A O 0.4125(6) 0.1666(6) 0.0551(7)
O4A O 0.5248(6) 0.1495(7) 0.0627(7)
C51A C 0.3921(14) 0.1255(11) 0.0922(12)
H35A H 0.3680 0.1020 0.0695
H36A H 0.4222 0.1042 0.1079
H37A H 0.3720 0.1419 0.1248
C52A C 0.5340(14) 0.1065(10) 0.1026(11)
H38A H 0.5514 0.0765 0.0819
H39A H 0.5576 0.1190 0.1345
H40A H 0.4996 0.0944 0.1191
Pd1B Pd 0.47846(4) 0.25847(3) 0.68879(6)
C1B C 0.6208(4) 0.1651(4) 0.5877(5)
C2B C 0.6008(4) 0.2137(4) 0.5673(6)
H1B H 0.6163 0.2305 0.5337
C3B C 0.5575(4) 0.2380(4) 0.5968(6)
H2B H 0.5448 0.2720 0.5833
N1B N 0.5334(4) 0.2152(4) 0.6433(6)
C4B C 0.5531(5) 0.1678(4) 0.6620(6)
H3B H 0.5368 0.1518 0.6956
C5B C 0.5956(4) 0.1407(4) 0.6359(6)
H4B H 0.6073 0.1066 0.6502
C6B C 0.6714(4) 0.1407(4) 0.5627(6)
C7B C 0.6841(4) 0.0871(4) 0.5728(7)
H5B H 0.6584 0.0647 0.5920
C8B C 0.7323(4) 0.0652(4) 0.5562(8)
H6B H 0.7396 0.0281 0.5631
C9B C 0.7717(4) 0.0985(4) 0.5283(7)
C10B C 0.7587(4) 0.1530(3) 0.5149(6)
C11B C 0.7079(4) 0.1719(4) 0.5333(6)
H7B H 0.6985 0.2083 0.5247
C12B C 0.8237(4) 0.0785(4) 0.5143(7)
C13B C 0.8618(4) 0.1106(4) 0.4889(7)
C14B C 0.8502(3) 0.1653(4) 0.4750(6)
C15B C 0.7977(3) 0.1861(3) 0.4857(6)
C16B C 0.8898(4) 0.1998(4) 0.4512(7)
H8B H 0.9258 0.1869 0.4469
C17B C 0.8780(4) 0.2501(4) 0.4345(8)
H9B H 0.9058 0.2724 0.4191
C18B C 0.8255(4) 0.2707(4) 0.4391(6)
C19B C 0.7870(4) 0.2386(3) 0.4654(7)
H10B H 0.7516 0.2526 0.4700
C20B C 0.8098(3) 0.3237(3) 0.4136(5)
C21B C 0.8392(4) 0.3474(4) 0.3687(5)
H11B H 0.8723 0.3318 0.3565
C22B C 0.8206(4) 0.3937(4) 0.3417(5)
H12B H 0.8408 0.4089 0.3103
N2B N 0.7748(3) 0.4175(3) 0.3586(5)
C23B C 0.7482(4) 0.3973(4) 0.4044(6)
H13B H 0.7168 0.4156 0.4179
C24B C 0.7642(4) 0.3508(4) 0.4333(6)
H14B H 0.7442 0.3376 0.4660
O1B O 0.8354(4) 0.0256(3) 0.5268(8)
O2B O 0.9136(3) 0.0910(4) 0.4808(8)
C25B C 0.8657(10) 0.0193(9) 0.5802(11)
H15B H 0.8729 -0.0191 0.5870
H16B H 0.8450 0.0339 0.6133
H17B H 0.9000 0.0388 0.5769
C26B C 0.9139(9) 0.0591(10) 0.4290(11)
H18B H 0.9503 0.0448 0.4224
H19B H 0.9032 0.0814 0.3953
H20B H 0.8884 0.0292 0.4334
C27B C 0.6244(5) 0.3441(4) 0.7946(6)
C28B C 0.6031(6) 0.2960(5) 0.8131(7)
H21B H 0.6176 0.2787 0.8469
C29B C 0.5603(6) 0.2720(5) 0.7828(7)
H22B H 0.5460 0.2391 0.7975
N3B N 0.5389(5) 0.2929(4) 0.7347(6)
C30B C 0.5608(5) 0.3398(4) 0.7157(6)
H23B H 0.5475 0.3552 0.6803
C31B C 0.6010(5) 0.3660(5) 0.7449(6)
H24B H 0.6132 0.3999 0.7307
C32B C 0.6687(5) 0.3700(5) 0.8272(6)
C33B C 0.7047(6) 0.3404(6) 0.8623(7)
H25B H 0.6987 0.3029 0.8680
C34B C 0.7478(6) 0.3641(6) 0.8879(8)
H26B H 0.7726 0.3425 0.9094
C35B C 0.7570(5) 0.4199(5) 0.8836(7)
C36B C 0.7191(5) 0.4513(5) 0.8514(6)
C37B C 0.6770(5) 0.4252(4) 0.8230(6)
H27B H 0.6529 0.4460 0.7996
C38B C 0.8004(6) 0.4466(5) 0.9122(7)
C39B C 0.8071(6) 0.5004(5) 0.9104(8)
C40B C 0.7701(6) 0.5339(5) 0.8809(7)
C41B C 0.7261(6) 0.5096(5) 0.8498(6)
C42B C 0.7746(7) 0.5915(6) 0.8778(8)
H28B H 0.8030 0.6085 0.8989
C43B C 0.7404(6) 0.6231(6) 0.8462(8)
H29B H 0.7460 0.6609 0.8433
C44B C 0.6965(6) 0.5979(5) 0.8179(7)
C45B C 0.6901(6) 0.5426(4) 0.8204(7)
H30B H 0.6599 0.5267 0.8012
C46B C 0.6574(5) 0.6326(4) 0.7853(6)
C47B C 0.6486(6) 0.6858(5) 0.8026(7)
H31B H 0.6695 0.7016 0.8332
C48B C 0.6086(6) 0.7156(5) 0.7742(7)
H32B H 0.6030 0.7519 0.7860
N4B N 0.5776(5) 0.6958(4) 0.7313(5)
C49B C 0.5875(5) 0.6449(4) 0.7146(6)
H33B H 0.5666 0.6300 0.6835
C50B C 0.6268(5) 0.6129(5) 0.7404(6)
H34B H 0.6324 0.5771 0.7268
O3B O 0.8334(6) 0.4125(6) 0.9449(7)
O4B O 0.8505(7) 0.5248(6) 0.9373(7)
C51B C 0.8745(11) 0.3921(14) 0.9078(12)
H35B H 0.8980 0.3680 0.9305
H36B H 0.8958 0.4222 0.8921
H37B H 0.8581 0.3720 0.8752
C52B C 0.8935(10) 0.5340(14) 0.8974(11)
H38B H 0.9235 0.5514 0.9181
H39B H 0.8810 0.5576 0.8655
H40B H 0.9056 0.4996 0.8809
Pd1C Pd 0.52154(4) 0.74153(3) 0.68879(6)
C1C C 0.3792(4) 0.8349(4) 0.5877(5)
C2C C 0.3992(4) 0.7863(4) 0.5673(6)
H1C H 0.3837 0.7695 0.5337
C3C C 0.4425(4) 0.7620(4) 0.5968(6)
H2C H 0.4552 0.7280 0.5833
N1C N 0.4666(4) 0.7848(4) 0.6433(6)
C4C C 0.4469(5) 0.8322(4) 0.6620(6)
H3C H 0.4632 0.8482 0.6956
C5C C 0.4044(4) 0.8593(4) 0.6359(6)
H4C H 0.3927 0.8934 0.6502
C6C C 0.3286(4) 0.8593(4) 0.5627(6)
C7C C 0.3159(4) 0.9129(4) 0.5728(7)
H5C H 0.3416 0.9353 0.5920
C8C C 0.2677(4) 0.9348(4) 0.5562(8)
H6C H 0.2604 0.9719 0.5631
C9C C 0.2283(4) 0.9015(4) 0.5283(7)
C10C C 0.2413(4) 0.8470(3) 0.5149(6)
C11C C 0.2921(4) 0.8281(4) 0.5333(6)
H7C H 0.3015 0.7917 0.5247
C12C C 0.1763(4) 0.9215(4) 0.5143(7)
C13C C 0.1382(4) 0.8894(4) 0.4889(7)
C14C C 0.1498(3) 0.8347(4) 0.4750(6)
C15C C 0.2023(3) 0.8139(3) 0.4857(6)
C16C C 0.1102(4) 0.8002(4) 0.4512(7)
H8C H 0.0742 0.8131 0.4469
C17C C 0.1220(4) 0.7499(4) 0.4345(8)
H9C H 0.0942 0.7276 0.4191
C18C C 0.1745(4) 0.7293(4) 0.4391(6)
C19C C 0.2130(4) 0.7614(3) 0.4654(7)
H10C H 0.2484 0.7474 0.4700
C20C C 0.1902(3) 0.6763(3) 0.4136(5)
C21C C 0.1608(4) 0.6526(4) 0.3687(5)
H11C H 0.1277 0.6682 0.3565
C22C C 0.1794(4) 0.6063(4) 0.3417(5)
H12C H 0.1592 0.5911 0.3103
N2C N 0.2252(3) 0.5825(3) 0.3586(5)
C23C C 0.2518(4) 0.6027(4) 0.4044(6)
H13C H 0.2832 0.5844 0.4179
C24C C 0.2358(4) 0.6492(4) 0.4333(6)
H14C H 0.2558 0.6624 0.4660
O1C O 0.1646(4) 0.9744(3) 0.5268(8)
O2C O 0.0864(3) 0.9090(4) 0.4808(8)
C25C C 0.1343(10) 0.9807(9) 0.5802(11)
H15C H 0.1271 1.0191 0.5870
H16C H 0.1550 0.9661 0.6133
H17C H 0.1000 0.9612 0.5769
C26C C 0.0861(9) 0.9409(10) 0.4290(11)
H18C H 0.0497 0.9552 0.4224
H19C H 0.0968 0.9186 0.3953
H20C H 0.1116 0.9708 0.4334
C27C C 0.3756(5) 0.6559(4) 0.7946(6)
C28C C 0.3969(6) 0.7040(5) 0.8131(7)
H21C H 0.3824 0.7213 0.8469
C29C C 0.4397(6) 0.7280(5) 0.7828(7)
H22C H 0.4540 0.7609 0.7975
N3C N 0.4611(5) 0.7071(4) 0.7347(6)
C30C C 0.4392(5) 0.6602(4) 0.7157(6)
H23C H 0.4525 0.6448 0.6803
C31C C 0.3990(5) 0.6340(5) 0.7449(6)
H24C H 0.3868 0.6001 0.7307
C32C C 0.3313(5) 0.6300(5) 0.8272(6)
C33C C 0.2953(6) 0.6596(6) 0.8623(7)
H25C H 0.3013 0.6971 0.8680
C34C C 0.2522(6) 0.6359(6) 0.8879(8)
H26C H 0.2274 0.6575 0.9094
C35C C 0.2430(5) 0.5801(5) 0.8836(7)
C36C C 0.2809(5) 0.5487(5) 0.8514(6)
C37C C 0.3230(5) 0.5748(4) 0.8230(6)
H27C H 0.3471 0.5540 0.7996
C38C C 0.1996(6) 0.5534(5) 0.9122(7)
C39C C 0.1929(6) 0.4996(5) 0.9104(8)
C40C C 0.2299(6) 0.4661(5) 0.8809(7)
C41C C 0.2739(6) 0.4904(5) 0.8498(6)
C42C C 0.2254(7) 0.4085(6) 0.8778(8)
H28C H 0.1970 0.3915 0.8989
C43C C 0.2596(6) 0.3769(6) 0.8462(8)
H29C H 0.2540 0.3391 0.8433
C44C C 0.3035(6) 0.4021(5) 0.8179(7)
C45C C 0.3099(6) 0.4574(4) 0.8204(7)
H30C H 0.3401 0.4733 0.8012
C46C C 0.3426(5) 0.3674(4) 0.7853(6)
C47C C 0.3514(6) 0.3142(5) 0.8026(7)
H31C H 0.3305 0.2984 0.8332
C48C C 0.3914(6) 0.2844(5) 0.7742(7)
H32C H 0.3970 0.2481 0.7860
N4C N 0.4224(5) 0.3042(4) 0.7313(5)
C49C C 0.4125(5) 0.3551(4) 0.7146(6)
H33C H 0.4334 0.3700 0.6835
C50C C 0.3732(5) 0.3871(5) 0.7404(6)
H34C H 0.3676 0.4229 0.7268
O3C O 0.1666(6) 0.5875(6) 0.9449(7)
O4C O 0.1495(7) 0.4752(6) 0.9373(7)
C51C C 0.1255(11) 0.6079(14) 0.9078(12)
H35C H 0.1020 0.6320 0.9305
H36C H 0.1042 0.5778 0.8921
H37C H 0.1419 0.6280 0.8752
C52C C 0.1065(10) 0.4660(14) 0.8974(11)
H38C H 0.0765 0.4486 0.9181
H39C H 0.1190 0.4424 0.8655
H40C H 0.0944 0.5004 0.8809
O5 O 0.8345(7) 0.4492(6) 0.2226(8)
N5 N 0.8454(5) 0.4811(4) 0.1890(9)
O6 O 0.8367(10) 0.4705(6) 0.1370(9)
O7 O 0.8655(5) 0.5240(4) 0.2002(6)
O8 O 0.8154(7) 0.6846(7) 0.2500
C53 C 0.7728(9) 0.6942(10) 0.2943(10)
H41 H 0.7539 0.6600 0.3033
H42 H 0.7891 0.7080 0.3312
C54 C 0.7345(9) 0.7337(9) 0.2707(10)
H43 H 0.7042 0.7155 0.2505
H44 H 0.7199 0.7568 0.3025
C53G C 0.8058(10) 0.7272(9) 0.2057(10)
H41G H 0.8400 0.7461 0.1967
H42G H 0.7920 0.7109 0.1688
C54G C 0.7663(9) 0.7655(9) 0.2293(10)
H43G H 0.7845 0.7958 0.2495
H44G H 0.7432 0.7801 0.1975
loop_
_geom_bond_atom_site_label_1
_geom_bond_atom_site_label_2
_geom_bond_site_symmetry_1
_geom_bond_site_symmetry_2
Pd1 N1 1_555 1_555
C1 C2 1_555 1_555
C2 H1 1_555 1_555
C3 C2 1_555 1_555
H2 C3 1_555 1_555
N1 C3 1_555 1_555
C4 N1 1_555 1_555
H3 C4 1_555 1_555
C5 C1 1_555 1_555
H4 C5 1_555 1_555
C6 C1 1_555 1_555
C7 C6 1_555 1_555
H5 C7 1_555 1_555
C8 C7 1_555 1_555
H6 C8 1_555 1_555
C9 C8 1_555 1_555
C10 C9 1_555 1_555
C11 C6 1_555 1_555
H7 C11 1_555 1_555
C12 C9 1_555 1_555
C13 C12 1_555 1_555
C14 C13 1_555 1_555
C15 C10 1_555 1_555
C16 C14 1_555 1_555
H8 C16 1_555 1_555
C17 C16 1_555 1_555
H9 C17 1_555 1_555
C18 C17 1_555 1_555
C19 C15 1_555 1_555
H10 C19 1_555 1_555
C20 C18 1_555 1_555
C21 C20 1_555 1_555
H11 C21 1_555 1_555
C22 C21 1_555 1_555
H12 C22 1_555 1_555
N2 C22 1_555 1_555
C23 N2 1_555 1_555
H13 C23 1_555 1_555
C24 C20 1_555 1_555
H14 C24 1_555 1_555
O1 C12 1_555 1_555
O2 C13 1_555 1_555
C25 O1 1_555 1_555
H15 C25 1_555 1_555
H16 C25 1_555 1_555
H17 C25 1_555 1_555
C26 O2 1_555 1_555
H18 C26 1_555 1_555
H19 C26 1_555 1_555
H20 C26 1_555 1_555
C27 C28 1_555 1_555
C28 H21 1_555 1_555
C29 C28 1_555 1_555
H22 C29 1_555 1_555
N3 Pd1 1_555 1_555
C30 N3 1_555 1_555
H23 C30 1_555 1_555
C31 C27 1_555 1_555
H24 C31 1_555 1_555
C32 C27 1_555 1_555
C33 C32 1_555 1_555
H25 C33 1_555 1_555
C34 C33 1_555 1_555
H26 C34 1_555 1_555
C35 C34 1_555 1_555
C36 C35 1_555 1_555
C37 C32 1_555 1_555
H27 C37 1_555 1_555
C38 C35 1_555 1_555
C39 C38 1_555 1_555
C40 C39 1_555 1_555
C41 C36 1_555 1_555
C42 C40 1_555 1_555
H28 C42 1_555 1_555
C43 C42 1_555 1_555
H29 C43 1_555 1_555
C44 C43 1_555 1_555
C45 C41 1_555 1_555
H30 C45 1_555 1_555
C46 C44 1_555 1_555
C47 C46 1_555 1_555
H31 C47 1_555 1_555
C48 C47 1_555 1_555
H32 C48 1_555 1_555
N4 C48 1_555 1_555
C49 N4 1_555 1_555
H33 C49 1_555 1_555
C50 C46 1_555 1_555
H34 C50 1_555 1_555
O3 C38 1_555 1_555
O4 C39 1_555 1_555
C51 O3 1_555 1_555
H35 C51 1_555 1_555
H36 C51 1_555 1_555
H37 C51 1_555 1_555
C52 O4 1_555 1_555
H38 C52 1_555 1_555
H39 C52 1_555 1_555
H40 C52 1_555 1_555
O5 N5 1_555 1_555
N5 O6 1_555 1_555
O7 N5 1_555 1_555
O8 C53 1_555 1_555
C53 H41 1_555 1_555
H42 C53 1_555 1_555
C54 C53 1_555 1_555
H43 C54 1_555 1_555
H44 C54 1_555 1_555
Pd1A N4 1_555 1_555
C1A C2A 1_555 1_555
C2A H1A 1_555 1_555
C3A C2A 1_555 1_555
H2A C3A 1_555 1_555
N1A Pd1A 1_555 1_555
C4A N1A 1_555 1_555
H3A C4A 1_555 1_555
C5A C1A 1_555 1_555
H4A C5A 1_555 1_555
C6A C1A 1_555 1_555
C7A C6A 1_555 1_555
H5A C7A 1_555 1_555
C8A C7A 1_555 1_555
H6A C8A 1_555 1_555
C9A C8A 1_555 1_555
C10A C9A 1_555 1_555
C11A C6A 1_555 1_555
H7A C11A 1_555 1_555
C12A C9A 1_555 1_555
C13A C12A 1_555 1_555
C14A C13A 1_555 1_555
C15A C10A 1_555 1_555
C16A C14A 1_555 1_555
H8A C16A 1_555 1_555
C17A C16A 1_555 1_555
H9A C17A 1_555 1_555
C18A C17A 1_555 1_555
C19A C15A 1_555 1_555
H10A C19A 1_555 1_555
C20A C18A 1_555 1_555
C21A C20A 1_555 1_555
H11A C21A 1_555 1_555
C22A C21A 1_555 1_555
H12A C22A 1_555 1_555
N2A C22A 1_555 1_555
C23A N2A 1_555 1_555
H13A C23A 1_555 1_555
C24A C20A 1_555 1_555
H14A C24A 1_555 1_555
O1A C12A 1_555 1_555
O2A C13A 1_555 1_555
C25A O1A 1_555 1_555
H15A C25A 1_555 1_555
H16A C25A 1_555 1_555
H17A C25A 1_555 1_555
C26A O2A 1_555 1_555
H18A C26A 1_555 1_555
H19A C26A 1_555 1_555
H20A C26A 1_555 1_555
C27A C28A 1_555 1_555
C28A H21A 1_555 1_555
C29A C28A 1_555 1_555
H22A C29A 1_555 1_555
N3A Pd1A 1_555 1_555
C30A N3A 1_555 1_555
H23A C30A 1_555 1_555
C31A C27A 1_555 1_555
H24A C31A 1_555 1_555
C32A C27A 1_555 1_555
C33A C32A 1_555 1_555
H25A C33A 1_555 1_555
C34A C33A 1_555 1_555
H26A C34A 1_555 1_555
C35A C34A 1_555 1_555
C36A C35A 1_555 1_555
C37A C32A 1_555 1_555
H27A C37A 1_555 1_555
C38A C35A 1_555 1_555
C39A C38A 1_555 1_555
C40A C39A 1_555 1_555
C41A C36A 1_555 1_555
C42A C40A 1_555 1_555
H28A C42A 1_555 1_555
C43A C42A 1_555 1_555
H29A C43A 1_555 1_555
C44A C43A 1_555 1_555
C45A C41A 1_555 1_555
H30A C45A 1_555 1_555
C46A C44A 1_555 1_555
C47A C46A 1_555 1_555
H31A C47A 1_555 1_555
C48A C47A 1_555 1_555
H32A C48A 1_555 1_555
N4A Pd1 1_555 1_555
C49A N4A 1_555 1_555
H33A C49A 1_555 1_555
C50A C46A 1_555 1_555
H34A C50A 1_555 1_555
O3A C38A 1_555 1_555
O4A C39A 1_555 1_555
C51A O3A 1_555 1_555
H35A C51A 1_555 1_555
H36A C51A 1_555 1_555
H37A C51A 1_555 1_555
C52A O4A 1_555 1_555
H38A C52A 1_555 1_555
H39A C52A 1_555 1_555
H40A C52A 1_555 1_555
Pd1B N2A 1_555 1_555
C1B C2B 1_555 1_555
C2B H1B 1_555 1_555
C3B C2B 1_555 1_555
H2B C3B 1_555 1_555
N1B Pd1B 1_555 1_555
C4B N1B 1_555 1_555
H3B C4B 1_555 1_555
C5B C1B 1_555 1_555
H4B C5B 1_555 1_555
C6B C1B 1_555 1_555
C7B C6B 1_555 1_555
H5B C7B 1_555 1_555
C8B C7B 1_555 1_555
H6B C8B 1_555 1_555
C9B C8B 1_555 1_555
C10B C9B 1_555 1_555
C11B C6B 1_555 1_555
H7B C11B 1_555 1_555
C12B C9B 1_555 1_555
C13B C12B 1_555 1_555
C14B C13B 1_555 1_555
C15B C10B 1_555 1_555
C16B C14B 1_555 1_555
H8B C16B 1_555 1_555
C17B C16B 1_555 1_555
H9B C17B 1_555 1_555
C18B C17B 1_555 1_555
C19B C15B 1_555 1_555
H10B C19B 1_555 1_555
C20B C18B 1_555 1_555
C21B C20B 1_555 1_555
H11B C21B 1_555 1_555
C22B C21B 1_555 1_555
H12B C22B 1_555 1_555
N2B Pd1 1_555 1_555
C23B N2B 1_555 1_555
H13B C23B 1_555 1_555
C24B C20B 1_555 1_555
H14B C24B 1_555 1_555
O1B C12B 1_555 1_555
O2B C13B 1_555 1_555
C25B O1B 1_555 1_555
H15B C25B 1_555 1_555
H16B C25B 1_555 1_555
H17B C25B 1_555 1_555
C26B O2B 1_555 1_555
H18B C26B 1_555 1_555
H19B C26B 1_555 1_555
H20B C26B 1_555 1_555
C27B C28B 1_555 1_555
C28B H21B 1_555 1_555
C29B C28B 1_555 1_555
H22B C29B 1_555 1_555
N3B Pd1B 1_555 1_555
C30B N3B 1_555 1_555
H23B C30B 1_555 1_555
C31B C27B 1_555 1_555
H24B C31B 1_555 1_555
C32B C27B 1_555 1_555
C33B C32B 1_555 1_555
H25B C33B 1_555 1_555
C34B C33B 1_555 1_555
H26B C34B 1_555 1_555
C35B C34B 1_555 1_555
C36B C35B 1_555 1_555
C37B C32B 1_555 1_555
H27B C37B 1_555 1_555
C38B C35B 1_555 1_555
C39B C38B 1_555 1_555
C40B C39B 1_555 1_555
C41B C36B 1_555 1_555
C42B C40B 1_555 1_555
H28B C42B 1_555 1_555
C43B C42B 1_555 1_555
H29B C43B 1_555 1_555
C44B C43B 1_555 1_555
C45B C41B 1_555 1_555
H30B C45B 1_555 1_555
C46B C44B 1_555 1_555
C47B C46B 1_555 1_555
H31B C47B 1_555 1_555
C48B C47B 1_555 1_555
H32B C48B 1_555 1_555
N4B C48B 1_555 1_555
C49B N4B 1_555 1_555
H33B C49B 1_555 1_555
C50B C46B 1_555 1_555
H34B C50B 1_555 1_555
O3B C38B 1_555 1_555
O4B C39B 1_555 1_555
C51B O3B 1_555 1_555
H35B C51B 1_555 1_555
H36B C51B 1_555 1_555
H37B C51B 1_555 1_555
C52B O4B 1_555 1_555
H38B C52B 1_555 1_555
H39B C52B 1_555 1_555
H40B C52B 1_555 1_555
Pd1C N2 1_555 1_555
C1C C2C 1_555 1_555
C2C H1C 1_555 1_555
C3C C2C 1_555 1_555
H2C C3C 1_555 1_555
N1C Pd1C 1_555 1_555
C4C N1C 1_555 1_555
H3C C4C 1_555 1_555
C5C C1C 1_555 1_555
H4C C5C 1_555 1_555
C6C C1C 1_555 1_555
C7C C6C 1_555 1_555
H5C C7C 1_555 1_555
C8C C7C 1_555 1_555
H6C C8C 1_555 1_555
C9C C8C 1_555 1_555
C10C C9C 1_555 1_555
C11C C6C 1_555 1_555
H7C C11C 1_555 1_555
C12C C9C 1_555 1_555
C13C C12C 1_555 1_555
C14C C13C 1_555 1_555
C15C C10C 1_555 1_555
C16C C14C 1_555 1_555
H8C C16C 1_555 1_555
C17C C16C 1_555 1_555
H9C C17C 1_555 1_555
C18C C17C 1_555 1_555
C19C C15C 1_555 1_555
H10C C19C 1_555 1_555
C20C C18C 1_555 1_555
C21C C20C 1_555 1_555
H11C C21C 1_555 1_555
C22C C21C 1_555 1_555
H12C C22C 1_555 1_555
N2C Pd1A 1_555 1_555
C23C N2C 1_555 1_555
H13C C23C 1_555 1_555
C24C C20C 1_555 1_555
H14C C24C 1_555 1_555
O1C C12C 1_555 1_555
O2C C13C 1_555 1_555
C25C O1C 1_555 1_555
H15C C25C 1_555 1_555
H16C C25C 1_555 1_555
H17C C25C 1_555 1_555
C26C O2C 1_555 1_555
H18C C26C 1_555 1_555
H19C C26C 1_555 1_555
H20C C26C 1_555 1_555
C27C C28C 1_555 1_555
C28C H21C 1_555 1_555
C29C C28C 1_555 1_555
H22C C29C 1_555 1_555
N3C Pd1C 1_555 1_555
C30C N3C 1_555 1_555
H23C C30C 1_555 1_555
C31C C27C 1_555 1_555
H24C C31C 1_555 1_555
C32C C27C 1_555 1_555
C33C C32C 1_555 1_555
H25C C33C 1_555 1_555
C34C C33C 1_555 1_555
H26C C34C 1_555 1_555
C35C C34C 1_555 1_555
C36C C35C 1_555 1_555
C37C C32C 1_555 1_555
H27C C37C 1_555 1_555
C38C C35C 1_555 1_555
C39C C38C 1_555 1_555
C40C C39C 1_555 1_555
C41C C36C 1_555 1_555
C42C C40C 1_555 1_555
H28C C42C 1_555 1_555
C43C C42C 1_555 1_555
H29C C43C 1_555 1_555
C44C C43C 1_555 1_555
C45C C41C 1_555 1_555
H30C C45C 1_555 1_555
C46C C44C 1_555 1_555
C47C C46C 1_555 1_555
H31C C47C 1_555 1_555
C48C C47C 1_555 1_555
H32C C48C 1_555 1_555
N4C Pd1B 1_555 1_555
C49C N4C 1_555 1_555
H33C C49C 1_555 1_555
C50C C46C 1_555 1_555
H34C C50C 1_555 1_555
O3C C38C 1_555 1_555
O4C C39C 1_555 1_555
C51C O3C 1_555 1_555
H35C C51C 1_555 1_555
H36C C51C 1_555 1_555
H37C C51C 1_555 1_555
C52C O4C 1_555 1_555
H38C C52C 1_555 1_555
H39C C52C 1_555 1_555
H40C C52C 1_555 1_555
C53G O8 1_555 1_555
H41G C53G 1_555 1_555
H42G C53G 1_555 1_555
C54G C54 1_555 1_555
H43G C54G 1_555 1_555
H44G C54G 1_555 1_555
C4 C5 1_555 1_555
C10 C11 1_555 1_555
C14 C15 1_555 1_555
C18 C19 1_555 1_555
C23 C24 1_555 1_555
C29 N3 1_555 1_555
C30 C31 1_555 1_555
C36 C37 1_555 1_555
C40 C41 1_555 1_555
C44 C45 1_555 1_555
C49 C50 1_555 1_555
C3A N1A 1_555 1_555
C4A C5A 1_555 1_555
C10A C11A 1_555 1_555
C14A C15A 1_555 1_555
C18A C19A 1_555 1_555
C23A C24A 1_555 1_555
C29A N3A 1_555 1_555
C30A C31A 1_555 1_555
C36A C37A 1_555 1_555
C40A C41A 1_555 1_555
C44A C45A 1_555 1_555
C48A N4A 1_555 1_555
C49A C50A 1_555 1_555
C3B N1B 1_555 1_555
C4B C5B 1_555 1_555
C10B C11B 1_555 1_555
C14B C15B 1_555 1_555
C18B C19B 1_555 1_555
C22B N2B 1_555 1_555
C23B C24B 1_555 1_555
C29B N3B 1_555 1_555
C30B C31B 1_555 1_555
C36B C37B 1_555 1_555
C40B C41B 1_555 1_555
C44B C45B 1_555 1_555
N4B Pd1C 1_555 1_555
C49B C50B 1_555 1_555
C3C N1C 1_555 1_555
C4C C5C 1_555 1_555
C10C C11C 1_555 1_555
C14C C15C 1_555 1_555
C18C C19C 1_555 1_555
C22C N2C 1_555 1_555
C23C C24C 1_555 1_555
C29C N3C 1_555 1_555
C30C C31C 1_555 1_555
C36C C37C 1_555 1_555
C40C C41C 1_555 1_555
C44C C45C 1_555 1_555
C48C N4C 1_555 1_555
C49C C50C 1_555 1_555
C53G C54G 1_555 1_555

#END
