# generated using pymatgen
data_H112Pd2C120N11O17
_symmetry_space_group_name_H-M   'P 1'
_cell_length_a   25.48900000
_cell_length_b   26.03000000
_cell_length_c   93.91400000
_cell_angle_alpha   90.00000000
_cell_angle_beta   90.00000000
_cell_angle_gamma   93.00000000
_symmetry_Int_Tables_number   1
_chemical_formula_structural   H112Pd2C120N11O17
_chemical_formula_sum   'H1792 Pd32 C1920 N176 O272'
_cell_volume   62224.54221290
_cell_formula_units_Z   16
loop_
 _symmetry_equiv_pos_site_id
 _symmetry_equiv_pos_as_xyz
  1  'x, y, z'
loop_
 _atom_site_type_symbol
 _atom_site_label
 _atom_site_symmetry_multiplicity
 _atom_site_fract_x
 _atom_site_fract_y
 _atom_site_fract_z
 _atom_site_occupancy
  H  H1  1  0.431000  0.622800  0.409400  1.0
  H  H2  1  0.069000  0.877200  0.909400  1.0
  H  H3  1  0.569000  0.377200  0.590600  1.0
  H  H4  1  0.931000  0.122800  0.090600  1.0
  H  H5  1  0.446400  0.696400  0.422700  1.0
  H  H6  1  0.053600  0.803600  0.922700  1.0
  H  H7  1  0.553600  0.303600  0.577300  1.0
  H  H8  1  0.946400  0.196400  0.077300  1.0
  H  H9  1  0.295900  0.713400  0.427300  1.0
  H  H10  1  0.204100  0.786600  0.927300  1.0
  H  H11  1  0.704100  0.286600  0.572700  1.0
  H  H12  1  0.795900  0.213400  0.072700  1.0
  H  H13  1  0.275300  0.639600  0.414500  1.0
  H  H14  1  0.224700  0.860400  0.914500  1.0
  H  H15  1  0.724700  0.360400  0.585500  1.0
  H  H16  1  0.775300  0.139600  0.085500  1.0
  H  H17  1  0.275500  0.548000  0.413800  1.0
  H  H18  1  0.224500  0.952000  0.913800  1.0
  H  H19  1  0.724500  0.452000  0.586200  1.0
  H  H20  1  0.775500  0.048000  0.086200  1.0
  H  H21  1  0.254100  0.477100  0.400200  1.0
  H  H22  1  0.245900  0.022900  0.900200  1.0
  H  H23  1  0.745900  0.522900  0.599800  1.0
  H  H24  1  0.754100  0.977100  0.099800  1.0
  H  H25  1  0.398100  0.584600  0.388100  1.0
  H  H26  1  0.101900  0.915400  0.888100  1.0
  H  H27  1  0.601900  0.415400  0.611900  1.0
  H  H28  1  0.898100  0.084600  0.111900  1.0
  H  H29  1  0.390000  0.426300  0.342100  1.0
  H  H30  1  0.110000  0.073700  0.842100  1.0
  H  H31  1  0.610000  0.573700  0.657900  1.0
  H  H32  1  0.890000  0.926300  0.157900  1.0
  H  H33  1  0.460300  0.479500  0.335700  1.0
  H  H34  1  0.039700  0.020500  0.835700  1.0
  H  H35  1  0.539700  0.520500  0.664300  1.0
  H  H36  1  0.960300  0.979500  0.164300  1.0
  H  H37  1  0.439800  0.569100  0.369900  1.0
  H  H38  1  0.060200  0.930900  0.869900  1.0
  H  H39  1  0.560200  0.430900  0.630100  1.0
  H  H40  1  0.939800  0.069100  0.130100  1.0
  H  H41  1  0.490600  0.558600  0.326000  1.0
  H  H42  1  0.009400  0.941400  0.826000  1.0
  H  H43  1  0.509400  0.441400  0.674000  1.0
  H  H44  1  0.990600  0.058600  0.174000  1.0
  H  H45  1  0.563900  0.608000  0.319500  1.0
  H  H46  1  0.936100  0.892000  0.819500  1.0
  H  H47  1  0.436100  0.392000  0.680500  1.0
  H  H48  1  0.063900  0.108000  0.180500  1.0
  H  H49  1  0.601400  0.635300  0.359200  1.0
  H  H50  1  0.898600  0.864700  0.859200  1.0
  H  H51  1  0.398600  0.364700  0.640800  1.0
  H  H52  1  0.101400  0.135300  0.140800  1.0
  H  H53  1  0.529700  0.585800  0.367200  1.0
  H  H54  1  0.970300  0.914200  0.867200  1.0
  H  H55  1  0.470300  0.414200  0.632800  1.0
  H  H56  1  0.029700  0.085800  0.132800  1.0
  H  H57  1  0.219500  0.412500  0.361100  1.0
  H  H58  1  0.280500  0.087500  0.861100  1.0
  H  H59  1  0.780500  0.587500  0.638900  1.0
  H  H60  1  0.719500  0.912500  0.138900  1.0
  H  H61  1  0.200100  0.456300  0.371600  1.0
  H  H62  1  0.299900  0.043700  0.871600  1.0
  H  H63  1  0.799900  0.543700  0.628400  1.0
  H  H64  1  0.700100  0.956300  0.128400  1.0
  H  H65  1  0.305900  0.332300  0.369200  1.0
  H  H66  1  0.194100  0.167700  0.869200  1.0
  H  H67  1  0.694100  0.667700  0.630800  1.0
  H  H68  1  0.805900  0.832300  0.130800  1.0
  H  H69  1  0.365300  0.346300  0.364300  1.0
  H  H70  1  0.134700  0.153700  0.864300  1.0
  H  H71  1  0.634700  0.653700  0.635700  1.0
  H  H72  1  0.865300  0.846300  0.135700  1.0
  H  H73  1  0.176900  0.348500  0.377300  1.0
  H  H74  1  0.323100  0.151500  0.877300  1.0
  H  H75  1  0.823100  0.651500  0.622700  1.0
  H  H76  1  0.676900  0.848500  0.122700  1.0
  H  H77  1  0.135800  0.383500  0.369200  1.0
  H  H78  1  0.364200  0.116500  0.869200  1.0
  H  H79  1  0.864200  0.616500  0.630800  1.0
  H  H80  1  0.635800  0.883500  0.130800  1.0
  H  H81  1  0.304900  0.320900  0.340700  1.0
  H  H82  1  0.195100  0.179100  0.840700  1.0
  H  H83  1  0.695100  0.679100  0.659300  1.0
  H  H84  1  0.804900  0.820900  0.159300  1.0
  H  H85  1  0.357300  0.294800  0.345700  1.0
  H  H86  1  0.142700  0.205200  0.845700  1.0
  H  H87  1  0.642700  0.705200  0.654300  1.0
  H  H88  1  0.857300  0.794800  0.154300  1.0
  H  H89  1  0.119400  0.386100  0.394800  1.0
  H  H90  1  0.380600  0.113900  0.894800  1.0
  H  H91  1  0.880600  0.613900  0.605200  1.0
  H  H92  1  0.619400  0.886100  0.105200  1.0
  H  H93  1  0.178600  0.407700  0.397400  1.0
  H  H94  1  0.321400  0.092300  0.897400  1.0
  H  H95  1  0.821400  0.592300  0.602600  1.0
  H  H96  1  0.678600  0.907700  0.102600  1.0
  H  H97  1  0.137800  0.442400  0.389400  1.0
  H  H98  1  0.362200  0.057600  0.889400  1.0
  H  H99  1  0.862200  0.557600  0.610600  1.0
  H  H100  1  0.637800  0.942400  0.110600  1.0
  H  H101  1  0.288100  0.234100  0.344600  1.0
  H  H102  1  0.211900  0.265900  0.844600  1.0
  H  H103  1  0.711900  0.765900  0.655400  1.0
  H  H104  1  0.788100  0.734100  0.155400  1.0
  H  H105  1  0.307800  0.240300  0.360700  1.0
  H  H106  1  0.192200  0.259700  0.860700  1.0
  H  H107  1  0.692200  0.759700  0.639300  1.0
  H  H108  1  0.807800  0.740300  0.139300  1.0
  H  H109  1  0.255400  0.266500  0.355700  1.0
  H  H110  1  0.244600  0.233500  0.855700  1.0
  H  H111  1  0.744600  0.733500  0.644300  1.0
  H  H112  1  0.755400  0.766500  0.144300  1.0
  H  H113  1  0.045700  0.471400  0.379100  1.0
  H  H114  1  0.454300  0.028600  0.879100  1.0
  H  H115  1  0.954300  0.528600  0.620900  1.0
  H  H116  1  0.545700  0.971400  0.120900  1.0
  H  H117  1  0.075600  0.540900  0.392800  1.0
  H  H118  1  0.424400  0.959100  0.892800  1.0
  H  H119  1  0.924400  0.459100  0.607200  1.0
  H  H120  1  0.575600  0.040900  0.107200  1.0
  H  H121  1  0.931800  0.580800  0.399900  1.0
  H  H122  1  0.568200  0.919200  0.899900  1.0
  H  H123  1  0.068200  0.419200  0.600100  1.0
  H  H124  1  0.431800  0.080800  0.100100  1.0
  H  H125  1  0.896700  0.512600  0.386700  1.0
  H  H126  1  0.603300  0.987400  0.886700  1.0
  H  H127  1  0.103300  0.487400  0.613300  1.0
  H  H128  1  0.396700  0.012600  0.113300  1.0
  H  H129  1  0.003700  0.389700  0.378000  1.0
  H  H130  1  0.496300  0.110300  0.878000  1.0
  H  H131  1  0.996300  0.610300  0.622000  1.0
  H  H132  1  0.503700  0.889700  0.122000  1.0
  H  H133  1  0.971900  0.320500  0.364900  1.0
  H  H134  1  0.528100  0.179500  0.864900  1.0
  H  H135  1  0.028100  0.679500  0.635100  1.0
  H  H136  1  0.471900  0.820500  0.135100  1.0
  H  H137  1  0.884000  0.472600  0.365100  1.0
  H  H138  1  0.616000  0.027400  0.865100  1.0
  H  H139  1  0.116000  0.527400  0.634900  1.0
  H  H140  1  0.384000  0.972600  0.134900  1.0
  H  H141  1  0.757200  0.342000  0.325300  1.0
  H  H142  1  0.742800  0.158000  0.825300  1.0
  H  H143  1  0.242800  0.658000  0.674700  1.0
  H  H144  1  0.257200  0.842000  0.174700  1.0
  H  H145  1  0.720100  0.419400  0.323500  1.0
  H  H146  1  0.779900  0.080600  0.823500  1.0
  H  H147  1  0.279900  0.580600  0.676500  1.0
  H  H148  1  0.220100  0.919400  0.176500  1.0
  H  H149  1  0.822600  0.481300  0.351900  1.0
  H  H150  1  0.677400  0.018700  0.851900  1.0
  H  H151  1  0.177400  0.518700  0.648100  1.0
  H  H152  1  0.322600  0.981300  0.148100  1.0
  H  H153  1  0.727100  0.505800  0.314300  1.0
  H  H154  1  0.772900  0.994200  0.814300  1.0
  H  H155  1  0.272900  0.494200  0.685700  1.0
  H  H156  1  0.227100  0.005800  0.185700  1.0
  H  H157  1  0.682700  0.581100  0.313500  1.0
  H  H158  1  0.817300  0.918900  0.813500  1.0
  H  H159  1  0.317300  0.418900  0.686500  1.0
  H  H160  1  0.182700  0.081100  0.186500  1.0
  H  H161  1  0.710200  0.608600  0.353800  1.0
  H  H162  1  0.789800  0.891400  0.853800  1.0
  H  H163  1  0.289800  0.391400  0.646200  1.0
  H  H164  1  0.210200  0.108600  0.146200  1.0
  H  H165  1  0.753200  0.533100  0.356300  1.0
  H  H166  1  0.746800  0.966900  0.856300  1.0
  H  H167  1  0.246800  0.466900  0.643700  1.0
  H  H168  1  0.253200  0.033100  0.143700  1.0
  H  H169  1  0.972100  0.297700  0.337600  1.0
  H  H170  1  0.527900  0.202300  0.837600  1.0
  H  H171  1  0.027900  0.702300  0.662400  1.0
  H  H172  1  0.472100  0.797700  0.162400  1.0
  H  H173  1  0.936700  0.256000  0.328800  1.0
  H  H174  1  0.563300  0.244000  0.828800  1.0
  H  H175  1  0.063300  0.744000  0.671200  1.0
  H  H176  1  0.436700  0.756000  0.171200  1.0
  H  H177  1  0.824400  0.228400  0.348700  1.0
  H  H178  1  0.675600  0.271600  0.848700  1.0
  H  H179  1  0.175600  0.771600  0.651300  1.0
  H  H180  1  0.324400  0.728400  0.151300  1.0
  H  H181  1  0.813900  0.200300  0.333800  1.0
  H  H182  1  0.686100  0.299700  0.833800  1.0
  H  H183  1  0.186100  0.799700  0.666200  1.0
  H  H184  1  0.313900  0.700300  0.166200  1.0
  H  H185  1  0.012400  0.217700  0.334100  1.0
  H  H186  1  0.487600  0.282300  0.834100  1.0
  H  H187  1  0.987600  0.782300  0.665900  1.0
  H  H188  1  0.512400  0.717700  0.165900  1.0
  H  H189  1  0.967700  0.190700  0.343800  1.0
  H  H190  1  0.532300  0.309300  0.843800  1.0
  H  H191  1  0.032300  0.809300  0.656200  1.0
  H  H192  1  0.467700  0.690700  0.156200  1.0
  H  H193  1  0.742500  0.234200  0.353100  1.0
  H  H194  1  0.757500  0.265800  0.853100  1.0
  H  H195  1  0.257500  0.765800  0.646900  1.0
  H  H196  1  0.242500  0.734200  0.146900  1.0
  H  H197  1  0.728600  0.247600  0.337000  1.0
  H  H198  1  0.771400  0.252400  0.837000  1.0
  H  H199  1  0.271400  0.752400  0.663000  1.0
  H  H200  1  0.228600  0.747600  0.163000  1.0
  H  H201  1  0.044900  0.203800  0.356900  1.0
  H  H202  1  0.455100  0.296200  0.856900  1.0
  H  H203  1  0.955100  0.796200  0.643100  1.0
  H  H204  1  0.544900  0.703800  0.143100  1.0
  H  H205  1  0.045200  0.264400  0.353900  1.0
  H  H206  1  0.454800  0.235600  0.853900  1.0
  H  H207  1  0.954800  0.735600  0.646100  1.0
  H  H208  1  0.545200  0.764400  0.146100  1.0
  H  H209  1  0.000300  0.237300  0.363700  1.0
  H  H210  1  0.499700  0.262700  0.863700  1.0
  H  H211  1  0.999700  0.762700  0.636300  1.0
  H  H212  1  0.500300  0.737300  0.136300  1.0
  H  H213  1  0.685800  0.171700  0.343700  1.0
  H  H214  1  0.814200  0.328300  0.843700  1.0
  H  H215  1  0.314200  0.828300  0.656300  1.0
  H  H216  1  0.185800  0.671700  0.156300  1.0
  H  H217  1  0.726700  0.161000  0.331300  1.0
  H  H218  1  0.773300  0.339000  0.831300  1.0
  H  H219  1  0.273300  0.839000  0.668700  1.0
  H  H220  1  0.226700  0.661000  0.168700  1.0
  H  H221  1  0.740600  0.147500  0.347400  1.0
  H  H222  1  0.759400  0.352500  0.847400  1.0
  H  H223  1  0.259400  0.852500  0.652600  1.0
  H  H224  1  0.240600  0.647500  0.152600  1.0
  H  H225  1  0.154900  0.766100  0.429200  1.0
  H  H226  1  0.345100  0.733900  0.929200  1.0
  H  H227  1  0.845100  0.233900  0.570800  1.0
  H  H228  1  0.654900  0.266100  0.070800  1.0
  H  H229  1  0.130800  0.693800  0.416000  1.0
  H  H230  1  0.369200  0.806200  0.916000  1.0
  H  H231  1  0.869200  0.306200  0.584000  1.0
  H  H232  1  0.630800  0.193800  0.084000  1.0
  H  H233  1  0.982600  0.705300  0.425700  1.0
  H  H234  1  0.517400  0.794700  0.925700  1.0
  H  H235  1  0.017400  0.294700  0.574300  1.0
  H  H236  1  0.482600  0.205300  0.074300  1.0
  H  H237  1  0.002000  0.778200  0.439100  1.0
  H  H238  1  0.498000  0.721800  0.939100  1.0
  H  H239  1  0.998000  0.221800  0.560900  1.0
  H  H240  1  0.502000  0.278200  0.060900  1.0
  H  H241  1  0.157400  0.854200  0.432100  1.0
  H  H242  1  0.342600  0.645800  0.932100  1.0
  H  H243  1  0.842600  0.145800  0.567900  1.0
  H  H244  1  0.657400  0.354200  0.067900  1.0
  H  H245  1  0.181900  0.924200  0.445800  1.0
  H  H246  1  0.318100  0.575800  0.945800  1.0
  H  H247  1  0.818100  0.075800  0.554200  1.0
  H  H248  1  0.681900  0.424200  0.054200  1.0
  H  H249  1  0.037900  0.817900  0.458800  1.0
  H  H250  1  0.462100  0.682100  0.958800  1.0
  H  H251  1  0.962100  0.182100  0.541200  1.0
  H  H252  1  0.537900  0.317900  0.041200  1.0
  H  H253  1  0.049600  0.976800  0.504200  1.0
  H  H254  1  0.450400  0.523200  0.004200  1.0
  H  H255  1  0.950400  0.023200  0.495800  1.0
  H  H256  1  0.549600  0.476800  0.995800  1.0
  H  H257  1  0.975000  0.929700  0.510400  1.0
  H  H258  1  0.525000  0.570300  0.010400  1.0
  H  H259  1  0.025000  0.070300  0.489600  1.0
  H  H260  1  0.475000  0.429700  0.989600  1.0
  H  H261  1  0.989900  0.839300  0.476100  1.0
  H  H262  1  0.510100  0.660700  0.976100  1.0
  H  H263  1  0.010100  0.160700  0.523900  1.0
  H  H264  1  0.489900  0.339300  0.023900  1.0
  H  H265  1  0.929300  0.862100  0.519300  1.0
  H  H266  1  0.570700  0.637900  0.019300  1.0
  H  H267  1  0.070700  0.137900  0.480700  1.0
  H  H268  1  0.429300  0.362100  0.980700  1.0
  H  H269  1  0.851400  0.817000  0.525000  1.0
  H  H270  1  0.648600  0.683000  0.025000  1.0
  H  H271  1  0.148600  0.183000  0.475000  1.0
  H  H272  1  0.351400  0.317000  0.975000  1.0
  H  H273  1  0.824000  0.784300  0.484900  1.0
  H  H274  1  0.676000  0.715700  0.984900  1.0
  H  H275  1  0.176000  0.215700  0.515100  1.0
  H  H276  1  0.324000  0.284300  0.015100  1.0
  H  H277  1  0.901100  0.828400  0.477800  1.0
  H  H278  1  0.598900  0.671600  0.977800  1.0
  H  H279  1  0.098900  0.171600  0.522200  1.0
  H  H280  1  0.401100  0.328400  0.022200  1.0
  H  H281  1  0.177800  0.065600  0.471100  1.0
  H  H282  1  0.322200  0.434400  0.971100  1.0
  H  H283  1  0.822200  0.934400  0.528900  1.0
  H  H284  1  0.677800  0.565600  0.028900  1.0
  H  H285  1  0.124100  0.045500  0.463800  1.0
  H  H286  1  0.375900  0.454500  0.963800  1.0
  H  H287  1  0.875900  0.954500  0.536200  1.0
  H  H288  1  0.624100  0.545500  0.036200  1.0
  H  H289  1  0.204400  0.999700  0.492700  1.0
  H  H290  1  0.295600  0.500300  0.992700  1.0
  H  H291  1  0.795600  0.000300  0.507300  1.0
  H  H292  1  0.704400  0.499700  0.007300  1.0
  H  H293  1  0.168800  0.970200  0.504500  1.0
  H  H294  1  0.331200  0.529800  0.004500  1.0
  H  H295  1  0.831200  0.029800  0.495500  1.0
  H  H296  1  0.668800  0.470200  0.995500  1.0
  H  H297  1  0.146800  0.087500  0.445800  1.0
  H  H298  1  0.353200  0.412500  0.945800  1.0
  H  H299  1  0.853200  0.912500  0.554200  1.0
  H  H300  1  0.646800  0.587500  0.054200  1.0
  H  H301  1  0.203400  0.101100  0.452400  1.0
  H  H302  1  0.296600  0.398900  0.952400  1.0
  H  H303  1  0.796600  0.898900  0.547600  1.0
  H  H304  1  0.703400  0.601100  0.047600  1.0
  H  H305  1  0.172900  0.078800  0.503600  1.0
  H  H306  1  0.327100  0.421200  0.003600  1.0
  H  H307  1  0.827100  0.921200  0.496400  1.0
  H  H308  1  0.672900  0.578800  0.996400  1.0
  H  H309  1  0.219300  0.050400  0.511300  1.0
  H  H310  1  0.280700  0.449600  0.011300  1.0
  H  H311  1  0.780700  0.949600  0.488700  1.0
  H  H312  1  0.719300  0.550400  0.988700  1.0
  H  H313  1  0.210500  0.066800  0.430200  1.0
  H  H314  1  0.289500  0.433200  0.930200  1.0
  H  H315  1  0.789500  0.933200  0.569800  1.0
  H  H316  1  0.710500  0.566800  0.069800  1.0
  H  H317  1  0.234900  0.029200  0.441700  1.0
  H  H318  1  0.265100  0.470800  0.941700  1.0
  H  H319  1  0.765100  0.970800  0.558300  1.0
  H  H320  1  0.734900  0.529200  0.058300  1.0
  H  H321  1  0.177900  0.015600  0.435100  1.0
  H  H322  1  0.322100  0.484400  0.935100  1.0
  H  H323  1  0.822100  0.984400  0.564900  1.0
  H  H324  1  0.677900  0.515600  0.064900  1.0
  H  H325  1  0.154700  0.072100  0.528700  1.0
  H  H326  1  0.345300  0.427900  0.028700  1.0
  H  H327  1  0.845300  0.927900  0.471300  1.0
  H  H328  1  0.654700  0.572100  0.971300  1.0
  H  H329  1  0.110200  0.039100  0.520200  1.0
  H  H330  1  0.389800  0.460900  0.020200  1.0
  H  H331  1  0.889800  0.960900  0.479800  1.0
  H  H332  1  0.610200  0.539100  0.979800  1.0
  H  H333  1  0.156700  0.010800  0.527900  1.0
  H  H334  1  0.343300  0.489200  0.027900  1.0
  H  H335  1  0.843300  0.989200  0.472100  1.0
  H  H336  1  0.656700  0.510800  0.972100  1.0
  H  H337  1  0.377600  0.950200  0.459900  1.0
  H  H338  1  0.122400  0.549800  0.959900  1.0
  H  H339  1  0.622400  0.049800  0.540100  1.0
  H  H340  1  0.877600  0.450200  0.040100  1.0
  H  H341  1  0.348600  0.876600  0.448100  1.0
  H  H342  1  0.151400  0.623400  0.948100  1.0
  H  H343  1  0.651400  0.123400  0.551900  1.0
  H  H344  1  0.848600  0.376600  0.051900  1.0
  H  H345  1  0.482900  0.813700  0.454200  1.0
  H  H346  1  0.017100  0.686300  0.954200  1.0
  H  H347  1  0.517100  0.186300  0.545800  1.0
  H  H348  1  0.982900  0.313700  0.045800  1.0
  H  H349  1  0.517700  0.886600  0.465400  1.0
  H  H350  1  0.982300  0.613400  0.965400  1.0
  H  H351  1  0.482300  0.113400  0.534600  1.0
  H  H352  1  0.017700  0.386600  0.034600  1.0
  H  H353  1  0.420800  0.024500  0.463400  1.0
  H  H354  1  0.079200  0.475500  0.963400  1.0
  H  H355  1  0.579200  0.975500  0.536600  1.0
  H  H356  1  0.920800  0.524500  0.036600  1.0
  H  H357  1  0.456600  0.097800  0.473800  1.0
  H  H358  1  0.043400  0.402200  0.973800  1.0
  H  H359  1  0.543400  0.902200  0.526200  1.0
  H  H360  1  0.956600  0.597800  0.026200  1.0
  H  H361  1  0.533100  0.940900  0.480300  1.0
  H  H362  1  0.966900  0.559100  0.980300  1.0
  H  H363  1  0.466900  0.059100  0.519700  1.0
  H  H364  1  0.033100  0.440900  0.019700  1.0
  H  H365  1  0.667600  0.084800  0.515000  1.0
  H  H366  1  0.832400  0.415200  0.015000  1.0
  H  H367  1  0.332400  0.915200  0.485000  1.0
  H  H368  1  0.167600  0.584800  0.985000  1.0
  H  H369  1  0.707900  0.008700  0.517300  1.0
  H  H370  1  0.792100  0.491300  0.017300  1.0
  H  H371  1  0.292100  0.991300  0.482700  1.0
  H  H372  1  0.207900  0.508700  0.982700  1.0
  H  H373  1  0.599000  0.937500  0.492200  1.0
  H  H374  1  0.901000  0.562500  0.992200  1.0
  H  H375  1  0.401000  0.062500  0.507800  1.0
  H  H376  1  0.099000  0.437500  0.007800  1.0
  H  H377  1  0.674600  0.890500  0.486500  1.0
  H  H378  1  0.825400  0.609500  0.986500  1.0
  H  H379  1  0.325400  0.109500  0.513500  1.0
  H  H380  1  0.174600  0.390500  0.013500  1.0
  H  H381  1  0.712900  0.813500  0.489600  1.0
  H  H382  1  0.787100  0.686500  0.989600  1.0
  H  H383  1  0.287100  0.186500  0.510400  1.0
  H  H384  1  0.212900  0.313500  0.010400  1.0
  H  H385  1  0.735800  0.841700  0.530100  1.0
  H  H386  1  0.764200  0.658300  0.030100  1.0
  H  H387  1  0.264200  0.158300  0.469900  1.0
  H  H388  1  0.235800  0.341700  0.969900  1.0
  H  H389  1  0.697300  0.919300  0.528400  1.0
  H  H390  1  0.802700  0.580700  0.028400  1.0
  H  H391  1  0.302700  0.080700  0.471600  1.0
  H  H392  1  0.197300  0.419300  0.971600  1.0
  H  H393  1  0.519400  0.188400  0.507800  1.0
  H  H394  1  0.980600  0.311600  0.007800  1.0
  H  H395  1  0.480600  0.811600  0.492200  1.0
  H  H396  1  0.019400  0.688400  0.992200  1.0
  H  H397  1  0.469000  0.149700  0.505100  1.0
  H  H398  1  0.031000  0.350300  0.005100  1.0
  H  H399  1  0.531000  0.850300  0.494900  1.0
  H  H400  1  0.969000  0.649700  0.994900  1.0
  H  H401  1  0.617100  0.185700  0.487100  1.0
  H  H402  1  0.882900  0.314300  0.987100  1.0
  H  H403  1  0.382900  0.814300  0.512900  1.0
  H  H404  1  0.117100  0.685700  0.012900  1.0
  H  H405  1  0.670600  0.163700  0.492900  1.0
  H  H406  1  0.829400  0.336300  0.992900  1.0
  H  H407  1  0.329400  0.836300  0.507100  1.0
  H  H408  1  0.170600  0.663700  0.007100  1.0
  H  H409  1  0.446100  0.238100  0.503100  1.0
  H  H410  1  0.053900  0.261900  0.003100  1.0
  H  H411  1  0.553900  0.761900  0.496900  1.0
  H  H412  1  0.946100  0.738100  0.996900  1.0
  H  H413  1  0.487200  0.245700  0.490300  1.0
  H  H414  1  0.012800  0.254300  0.990300  1.0
  H  H415  1  0.512800  0.754300  0.509700  1.0
  H  H416  1  0.987200  0.745700  0.009700  1.0
  H  H417  1  0.680300  0.227900  0.509400  1.0
  H  H418  1  0.819700  0.272100  0.009400  1.0
  H  H419  1  0.319700  0.772100  0.490600  1.0
  H  H420  1  0.180300  0.727900  0.990600  1.0
  H  H421  1  0.622200  0.246700  0.506200  1.0
  H  H422  1  0.877800  0.253300  0.006200  1.0
  H  H423  1  0.377800  0.753300  0.493800  1.0
  H  H424  1  0.122200  0.746700  0.993800  1.0
  H  H425  1  0.402600  0.231100  0.481400  1.0
  H  H426  1  0.097400  0.268900  0.981400  1.0
  H  H427  1  0.597400  0.768900  0.518600  1.0
  H  H428  1  0.902600  0.731100  0.018600  1.0
  H  H429  1  0.438200  0.185000  0.476800  1.0
  H  H430  1  0.061800  0.315000  0.976800  1.0
  H  H431  1  0.561800  0.815000  0.523200  1.0
  H  H432  1  0.938200  0.685000  0.023200  1.0
  H  H433  1  0.397200  0.177300  0.489600  1.0
  H  H434  1  0.102800  0.322700  0.989600  1.0
  H  H435  1  0.602800  0.822700  0.510400  1.0
  H  H436  1  0.897200  0.677300  0.010400  1.0
  H  H437  1  0.685900  0.298500  0.492600  1.0
  H  H438  1  0.814100  0.201500  0.992600  1.0
  H  H439  1  0.314100  0.701500  0.507400  1.0
  H  H440  1  0.185900  0.798500  0.007400  1.0
  H  H441  1  0.705400  0.247600  0.485100  1.0
  H  H442  1  0.794600  0.252400  0.985100  1.0
  H  H443  1  0.294600  0.752400  0.514900  1.0
  H  H444  1  0.205400  0.747600  0.014900  1.0
  H  H445  1  0.647700  0.266300  0.482000  1.0
  H  H446  1  0.852300  0.233700  0.982000  1.0
  H  H447  1  0.352300  0.733700  0.518000  1.0
  H  H448  1  0.147700  0.766300  0.018000  1.0
  H  H449  1  0.303400  0.681600  0.478100  1.0
  H  H450  1  0.196600  0.818400  0.978100  1.0
  H  H451  1  0.696600  0.318400  0.521900  1.0
  H  H452  1  0.803400  0.181600  0.021900  1.0
  H  H453  1  0.310200  0.735400  0.458500  1.0
  H  H454  1  0.189800  0.764600  0.958500  1.0
  H  H455  1  0.689800  0.264600  0.541500  1.0
  H  H456  1  0.810200  0.235400  0.041500  1.0
  H  H457  1  0.462200  0.722700  0.456300  1.0
  H  H458  1  0.037800  0.777300  0.956300  1.0
  H  H459  1  0.537800  0.277300  0.543700  1.0
  H  H460  1  0.962200  0.222700  0.043700  1.0
  H  H461  1  0.460900  0.668100  0.475800  1.0
  H  H462  1  0.039100  0.831900  0.975800  1.0
  H  H463  1  0.539100  0.331900  0.524200  1.0
  H  H464  1  0.960900  0.168100  0.024200  1.0
  H  H465  1  0.306700  0.603600  0.488900  1.0
  H  H466  1  0.193300  0.896400  0.988900  1.0
  H  H467  1  0.693300  0.396400  0.511100  1.0
  H  H468  1  0.806700  0.103600  0.011100  1.0
  H  H469  1  0.303800  0.551100  0.508500  1.0
  H  H470  1  0.196200  0.948900  0.008500  1.0
  H  H471  1  0.696200  0.448900  0.491500  1.0
  H  H472  1  0.803800  0.051100  0.991500  1.0
  H  H473  1  0.453800  0.654700  0.498900  1.0
  H  H474  1  0.046200  0.845300  0.998900  1.0
  H  H475  1  0.546200  0.345300  0.501100  1.0
  H  H476  1  0.953800  0.154700  0.001100  1.0
  H  H477  1  0.503600  0.558800  0.554300  1.0
  H  H478  1  0.996400  0.941200  0.054300  1.0
  H  H479  1  0.496400  0.441200  0.445700  1.0
  H  H480  1  0.003600  0.058800  0.945700  1.0
  H  H481  1  0.582000  0.599400  0.547800  1.0
  H  H482  1  0.918000  0.900600  0.047800  1.0
  H  H483  1  0.418000  0.400600  0.452200  1.0
  H  H484  1  0.082000  0.099400  0.952200  1.0
  H  H485  1  0.518000  0.651700  0.511900  1.0
  H  H486  1  0.982000  0.848300  0.011900  1.0
  H  H487  1  0.482000  0.348300  0.488100  1.0
  H  H488  1  0.018000  0.151700  0.988100  1.0
  H  H489  1  0.602600  0.646200  0.503400  1.0
  H  H490  1  0.897400  0.853800  0.003400  1.0
  H  H491  1  0.397400  0.353800  0.496600  1.0
  H  H492  1  0.102600  0.146200  0.996600  1.0
  H  H493  1  0.678600  0.693200  0.497400  1.0
  H  H494  1  0.821400  0.806800  0.997400  1.0
  H  H495  1  0.321400  0.306800  0.502600  1.0
  H  H496  1  0.178600  0.193200  0.002600  1.0
  H  H497  1  0.710500  0.721200  0.537400  1.0
  H  H498  1  0.789500  0.778800  0.037400  1.0
  H  H499  1  0.289500  0.278800  0.462600  1.0
  H  H500  1  0.210500  0.221200  0.962600  1.0
  H  H501  1  0.634200  0.677900  0.544800  1.0
  H  H502  1  0.865800  0.822100  0.044800  1.0
  H  H503  1  0.365800  0.322100  0.455200  1.0
  H  H504  1  0.134200  0.177900  0.955200  1.0
  H  H505  1  0.360800  0.439400  0.534500  1.0
  H  H506  1  0.139200  0.060600  0.034500  1.0
  H  H507  1  0.639200  0.560600  0.465500  1.0
  H  H508  1  0.860800  0.939400  0.965500  1.0
  H  H509  1  0.364100  0.457700  0.518200  1.0
  H  H510  1  0.135900  0.042300  0.018200  1.0
  H  H511  1  0.635900  0.542300  0.481800  1.0
  H  H512  1  0.864100  0.957700  0.981800  1.0
  H  H513  1  0.345100  0.490100  0.556900  1.0
  H  H514  1  0.154900  0.009900  0.056900  1.0
  H  H515  1  0.654900  0.509900  0.443100  1.0
  H  H516  1  0.845100  0.990100  0.943100  1.0
  H  H517  1  0.353500  0.551200  0.557900  1.0
  H  H518  1  0.146500  0.948800  0.057900  1.0
  H  H519  1  0.646500  0.448800  0.442100  1.0
  H  H520  1  0.853500  0.051200  0.942100  1.0
  H  H521  1  0.297400  0.397400  0.517500  1.0
  H  H522  1  0.202600  0.102600  0.017500  1.0
  H  H523  1  0.702600  0.602600  0.482500  1.0
  H  H524  1  0.797400  0.897400  0.982500  1.0
  H  H525  1  0.266400  0.449400  0.518800  1.0
  H  H526  1  0.233600  0.050600  0.018800  1.0
  H  H527  1  0.733600  0.550600  0.481200  1.0
  H  H528  1  0.766400  0.949400  0.981200  1.0
  H  H529  1  0.402300  0.544100  0.578500  1.0
  H  H530  1  0.097700  0.955900  0.078500  1.0
  H  H531  1  0.597700  0.455900  0.421500  1.0
  H  H532  1  0.902300  0.044100  0.921500  1.0
  H  H533  1  0.396600  0.482400  0.577400  1.0
  H  H534  1  0.103400  0.017600  0.077400  1.0
  H  H535  1  0.603400  0.517600  0.422600  1.0
  H  H536  1  0.896600  0.982400  0.922600  1.0
  H  H537  1  0.234800  0.389100  0.536000  1.0
  H  H538  1  0.265200  0.110900  0.036000  1.0
  H  H539  1  0.765200  0.610900  0.464000  1.0
  H  H540  1  0.734800  0.889100  0.964000  1.0
  H  H541  1  0.292800  0.386600  0.542400  1.0
  H  H542  1  0.207200  0.113400  0.042400  1.0
  H  H543  1  0.707200  0.613400  0.457600  1.0
  H  H544  1  0.792800  0.886600  0.957600  1.0
  H  H545  1  0.261900  0.438300  0.543800  1.0
  H  H546  1  0.238100  0.061700  0.043800  1.0
  H  H547  1  0.738100  0.561700  0.456200  1.0
  H  H548  1  0.761900  0.938300  0.956200  1.0
  H  H549  1  0.329200  0.512700  0.592100  1.0
  H  H550  1  0.170800  0.987300  0.092100  1.0
  H  H551  1  0.670800  0.487300  0.407900  1.0
  H  H552  1  0.829200  0.012700  0.907900  1.0
  H  H553  1  0.309900  0.547300  0.579200  1.0
  H  H554  1  0.190100  0.952700  0.079200  1.0
  H  H555  1  0.690100  0.452700  0.420800  1.0
  H  H556  1  0.809900  0.047300  0.920800  1.0
  H  H557  1  0.304200  0.485900  0.578200  1.0
  H  H558  1  0.195800  0.014100  0.078200  1.0
  H  H559  1  0.695800  0.514100  0.421800  1.0
  H  H560  1  0.804200  0.985900  0.921800  1.0
  H  H561  1  0.839500  0.603900  0.488400  1.0
  H  H562  1  0.660500  0.896100  0.988400  1.0
  H  H563  1  0.160500  0.396100  0.511600  1.0
  H  H564  1  0.339500  0.103900  0.011600  1.0
  H  H565  1  0.798700  0.680900  0.490400  1.0
  H  H566  1  0.701300  0.819100  0.990400  1.0
  H  H567  1  0.201300  0.319100  0.509600  1.0
  H  H568  1  0.298700  0.180900  0.009600  1.0
  H  H569  1  0.816900  0.682400  0.531800  1.0
  H  H570  1  0.683100  0.817600  0.031800  1.0
  H  H571  1  0.183100  0.317600  0.468200  1.0
  H  H572  1  0.316900  0.182400  0.968200  1.0
  H  H573  1  0.855600  0.603900  0.531300  1.0
  H  H574  1  0.644400  0.896100  0.031300  1.0
  H  H575  1  0.144400  0.396100  0.468700  1.0
  H  H576  1  0.355600  0.103900  0.968700  1.0
  H  H577  1  0.843200  0.513800  0.527100  1.0
  H  H578  1  0.656800  0.986200  0.027100  1.0
  H  H579  1  0.156800  0.486200  0.472900  1.0
  H  H580  1  0.343200  0.013800  0.972900  1.0
  H  H581  1  0.878000  0.434800  0.526500  1.0
  H  H582  1  0.622000  0.065200  0.026500  1.0
  H  H583  1  0.122000  0.565200  0.473500  1.0
  H  H584  1  0.378000  0.934800  0.973500  1.0
  H  H585  1  0.915800  0.554100  0.490600  1.0
  H  H586  1  0.584200  0.945900  0.990600  1.0
  H  H587  1  0.084200  0.445900  0.509400  1.0
  H  H588  1  0.415800  0.054100  0.009400  1.0
  H  H589  1  0.031900  0.371300  0.473000  1.0
  H  H590  1  0.468100  0.128700  0.973000  1.0
  H  H591  1  0.968100  0.628700  0.527000  1.0
  H  H592  1  0.531900  0.871300  0.027000  1.0
  H  H593  1  0.045800  0.426000  0.454200  1.0
  H  H594  1  0.454200  0.074000  0.954200  1.0
  H  H595  1  0.954200  0.574000  0.545800  1.0
  H  H596  1  0.545800  0.926000  0.045800  1.0
  H  H597  1  0.960200  0.532400  0.473100  1.0
  H  H598  1  0.539800  0.967600  0.973100  1.0
  H  H599  1  0.039800  0.467600  0.526900  1.0
  H  H600  1  0.460200  0.032400  0.026900  1.0
  H  H601  1  0.950200  0.563400  0.452500  1.0
  H  H602  1  0.549800  0.936600  0.952500  1.0
  H  H603  1  0.049800  0.436600  0.547500  1.0
  H  H604  1  0.450200  0.063400  0.047500  1.0
  H  H605  1  0.966900  0.617700  0.433300  1.0
  H  H606  1  0.533100  0.882300  0.933300  1.0
  H  H607  1  0.033100  0.382300  0.566700  1.0
  H  H608  1  0.466900  0.117700  0.066700  1.0
  H  H609  1  0.092300  0.544800  0.423000  1.0
  H  H610  1  0.407700  0.955200  0.923000  1.0
  H  H611  1  0.907700  0.455200  0.577000  1.0
  H  H612  1  0.592300  0.044800  0.077000  1.0
  H  H613  1  0.081800  0.490600  0.442400  1.0
  H  H614  1  0.418200  0.009400  0.942400  1.0
  H  H615  1  0.918200  0.509400  0.557600  1.0
  H  H616  1  0.581800  0.990600  0.057600  1.0
  H  H617  1  0.993700  0.382700  0.530100  1.0
  H  H618  1  0.506300  0.117300  0.030100  1.0
  H  H619  1  0.006300  0.617300  0.469900  1.0
  H  H620  1  0.493700  0.882700  0.969900  1.0
  H  H621  1  0.003500  0.332000  0.520800  1.0
  H  H622  1  0.496500  0.168000  0.020800  1.0
  H  H623  1  0.996500  0.668000  0.479200  1.0
  H  H624  1  0.503500  0.832000  0.979200  1.0
  H  H625  1  0.946900  0.310800  0.479600  1.0
  H  H626  1  0.553100  0.189200  0.979600  1.0
  H  H627  1  0.053100  0.689200  0.520400  1.0
  H  H628  1  0.446900  0.810800  0.020400  1.0
  H  H629  1  0.938600  0.279200  0.494100  1.0
  H  H630  1  0.561400  0.220800  0.994100  1.0
  H  H631  1  0.061400  0.720800  0.505900  1.0
  H  H632  1  0.438600  0.779200  0.005900  1.0
  H  H633  1  0.948400  0.279900  0.534900  1.0
  H  H634  1  0.551600  0.220100  0.034900  1.0
  H  H635  1  0.051600  0.720100  0.465100  1.0
  H  H636  1  0.448400  0.779900  0.965100  1.0
  H  H637  1  0.974900  0.317200  0.546600  1.0
  H  H638  1  0.525100  0.182800  0.046600  1.0
  H  H639  1  0.025100  0.682800  0.453400  1.0
  H  H640  1  0.474900  0.817200  0.953400  1.0
  H  H641  1  0.022600  0.243800  0.490100  1.0
  H  H642  1  0.477400  0.256200  0.990100  1.0
  H  H643  1  0.977400  0.756200  0.509900  1.0
  H  H644  1  0.522600  0.743800  0.009900  1.0
  H  H645  1  0.023400  0.270500  0.474700  1.0
  H  H646  1  0.476600  0.229500  0.974700  1.0
  H  H647  1  0.976600  0.729500  0.525300  1.0
  H  H648  1  0.523400  0.770500  0.025300  1.0
  H  H649  1  0.882700  0.309100  0.550300  1.0
  H  H650  1  0.617300  0.190900  0.050300  1.0
  H  H651  1  0.117300  0.690900  0.449700  1.0
  H  H652  1  0.382700  0.809100  0.949700  1.0
  H  H653  1  0.899200  0.367600  0.546400  1.0
  H  H654  1  0.600800  0.132400  0.046400  1.0
  H  H655  1  0.100800  0.632400  0.453600  1.0
  H  H656  1  0.399200  0.867600  0.953600  1.0
  H  H657  1  0.872700  0.330300  0.534600  1.0
  H  H658  1  0.627300  0.169700  0.034600  1.0
  H  H659  1  0.127300  0.669700  0.465400  1.0
  H  H660  1  0.372700  0.830300  0.965400  1.0
  H  H661  1  0.991200  0.182500  0.472500  1.0
  H  H662  1  0.508800  0.317500  0.972500  1.0
  H  H663  1  0.008800  0.817500  0.527500  1.0
  H  H664  1  0.491200  0.682500  0.027500  1.0
  H  H665  1  0.944700  0.192600  0.483500  1.0
  H  H666  1  0.555300  0.307400  0.983500  1.0
  H  H667  1  0.055300  0.807400  0.516500  1.0
  H  H668  1  0.444700  0.692600  0.016500  1.0
  H  H669  1  0.945600  0.219300  0.468100  1.0
  H  H670  1  0.554400  0.280700  0.968100  1.0
  H  H671  1  0.054400  0.780700  0.531900  1.0
  H  H672  1  0.445600  0.719300  0.031900  1.0
  H  H673  1  0.790500  0.746200  0.300300  1.0
  H  H674  1  0.709500  0.753800  0.800300  1.0
  H  H675  1  0.209500  0.253800  0.699700  1.0
  H  H676  1  0.290500  0.246200  0.199700  1.0
  H  H677  1  0.710000  0.707900  0.306600  1.0
  H  H678  1  0.790000  0.792100  0.806600  1.0
  H  H679  1  0.290000  0.292100  0.693400  1.0
  H  H680  1  0.210000  0.207900  0.193400  1.0
  H  H681  1  0.744300  0.718600  0.347100  1.0
  H  H682  1  0.755700  0.781400  0.847100  1.0
  H  H683  1  0.255700  0.281400  0.652900  1.0
  H  H684  1  0.244300  0.218600  0.152900  1.0
  H  H685  1  0.826200  0.756900  0.342200  1.0
  H  H686  1  0.673800  0.743100  0.842200  1.0
  H  H687  1  0.173800  0.243100  0.657800  1.0
  H  H688  1  0.326200  0.256900  0.157800  1.0
  H  H689  1  0.844300  0.818400  0.299100  1.0
  H  H690  1  0.655700  0.681600  0.799100  1.0
  H  H691  1  0.155700  0.181600  0.700900  1.0
  H  H692  1  0.344300  0.318400  0.200900  1.0
  H  H693  1  0.922600  0.860000  0.293200  1.0
  H  H694  1  0.577400  0.640000  0.793200  1.0
  H  H695  1  0.077400  0.140000  0.706800  1.0
  H  H696  1  0.422600  0.360000  0.206800  1.0
  H  H697  1  0.909800  0.757000  0.333600  1.0
  H  H698  1  0.590200  0.743000  0.833600  1.0
  H  H699  1  0.090200  0.243000  0.666400  1.0
  H  H700  1  0.409800  0.257000  0.166400  1.0
  H  H701  1  0.131700  0.839100  0.334500  1.0
  H  H702  1  0.368300  0.660900  0.834500  1.0
  H  H703  1  0.868300  0.160900  0.665500  1.0
  H  H704  1  0.631700  0.339100  0.165500  1.0
  H  H705  1  0.124600  0.795200  0.355500  1.0
  H  H706  1  0.375400  0.704800  0.855500  1.0
  H  H707  1  0.875400  0.204800  0.644500  1.0
  H  H708  1  0.624600  0.295200  0.144500  1.0
  H  H709  1  0.974500  0.751100  0.346800  1.0
  H  H710  1  0.525500  0.748900  0.846800  1.0
  H  H711  1  0.025500  0.248900  0.653200  1.0
  H  H712  1  0.474500  0.251100  0.153200  1.0
  H  H713  1  0.120100  0.707800  0.364800  1.0
  H  H714  1  0.379900  0.792200  0.864800  1.0
  H  H715  1  0.879900  0.292200  0.635200  1.0
  H  H716  1  0.620100  0.207800  0.135200  1.0
  H  H717  1  0.113800  0.659000  0.385500  1.0
  H  H718  1  0.386200  0.841000  0.885500  1.0
  H  H719  1  0.886200  0.341000  0.614500  1.0
  H  H720  1  0.613800  0.159000  0.114500  1.0
  H  H721  1  0.970000  0.699000  0.392200  1.0
  H  H722  1  0.530000  0.801000  0.892200  1.0
  H  H723  1  0.030000  0.301000  0.607800  1.0
  H  H724  1  0.470000  0.199000  0.107800  1.0
  H  H725  1  0.972500  0.752700  0.372700  1.0
  H  H726  1  0.527500  0.747300  0.872700  1.0
  H  H727  1  0.027500  0.247300  0.627300  1.0
  H  H728  1  0.472500  0.252700  0.127300  1.0
  H  H729  1  0.089400  0.856400  0.290700  1.0
  H  H730  1  0.410600  0.643600  0.790700  1.0
  H  H731  1  0.910600  0.143600  0.709300  1.0
  H  H732  1  0.589400  0.356400  0.209300  1.0
  H  H733  1  0.081100  0.908700  0.282500  1.0
  H  H734  1  0.418900  0.591300  0.782500  1.0
  H  H735  1  0.918900  0.091300  0.717500  1.0
  H  H736  1  0.581100  0.408700  0.217500  1.0
  H  H737  1  0.103800  0.940900  0.320100  1.0
  H  H738  1  0.396200  0.559100  0.820100  1.0
  H  H739  1  0.896200  0.059100  0.679900  1.0
  H  H740  1  0.603800  0.440900  0.179900  1.0
  H  H741  1  0.089800  0.942100  0.303400  1.0
  H  H742  1  0.410200  0.557900  0.803400  1.0
  H  H743  1  0.910200  0.057900  0.696600  1.0
  H  H744  1  0.589800  0.442100  0.196600  1.0
  H  H745  1  0.095000  0.846000  0.266200  1.0
  H  H746  1  0.405000  0.654000  0.766200  1.0
  H  H747  1  0.905000  0.154000  0.733800  1.0
  H  H748  1  0.595000  0.346000  0.233800  1.0
  H  H749  1  0.035600  0.862600  0.264500  1.0
  H  H750  1  0.464400  0.637400  0.764500  1.0
  H  H751  1  0.964400  0.137400  0.735500  1.0
  H  H752  1  0.535600  0.362600  0.235500  1.0
  H  H753  1  0.177400  0.930500  0.297500  1.0
  H  H754  1  0.322600  0.569500  0.797500  1.0
  H  H755  1  0.822600  0.069500  0.702500  1.0
  H  H756  1  0.677400  0.430500  0.202500  1.0
  H  H757  1  0.192400  0.924200  0.313900  1.0
  H  H758  1  0.307600  0.575800  0.813900  1.0
  H  H759  1  0.807600  0.075800  0.686100  1.0
  H  H760  1  0.692400  0.424200  0.186100  1.0
  H  H761  1  0.037200  0.771100  0.265200  1.0
  H  H762  1  0.462800  0.728900  0.765200  1.0
  H  H763  1  0.962800  0.228900  0.734800  1.0
  H  H764  1  0.537200  0.271100  0.234800  1.0
  H  H765  1  0.065100  0.774500  0.280500  1.0
  H  H766  1  0.434900  0.725500  0.780500  1.0
  H  H767  1  0.934900  0.225500  0.719500  1.0
  H  H768  1  0.565100  0.274500  0.219500  1.0
  H  H769  1  0.005900  0.791000  0.278800  1.0
  H  H770  1  0.494100  0.709000  0.778800  1.0
  H  H771  1  0.994100  0.209000  0.721200  1.0
  H  H772  1  0.505900  0.291000  0.221200  1.0
  H  H773  1  0.219200  0.006800  0.305900  1.0
  H  H774  1  0.280800  0.493200  0.805900  1.0
  H  H775  1  0.780800  0.993200  0.694100  1.0
  H  H776  1  0.719200  0.506800  0.194100  1.0
  H  H777  1  0.160100  0.017400  0.301500  1.0
  H  H778  1  0.339900  0.482600  0.801500  1.0
  H  H779  1  0.839900  0.982600  0.698500  1.0
  H  H780  1  0.660100  0.517400  0.198500  1.0
  H  H781  1  0.175100  0.011100  0.318000  1.0
  H  H782  1  0.324900  0.488900  0.818000  1.0
  H  H783  1  0.824900  0.988900  0.682000  1.0
  H  H784  1  0.675100  0.511100  0.182000  1.0
  H  H785  1  0.447100  0.309500  0.386500  1.0
  H  H786  1  0.052900  0.190500  0.886500  1.0
  H  H787  1  0.552900  0.690500  0.613500  1.0
  H  H788  1  0.947100  0.809500  0.113500  1.0
  H  H789  1  0.496300  0.285300  0.367100  1.0
  H  H790  1  0.003700  0.214700  0.867100  1.0
  H  H791  1  0.503700  0.714700  0.632900  1.0
  H  H792  1  0.996300  0.785300  0.132900  1.0
  H  H793  1  0.540900  0.428600  0.358800  1.0
  H  H794  1  0.959100  0.071400  0.858800  1.0
  H  H795  1  0.459100  0.571400  0.641200  1.0
  H  H796  1  0.040900  0.928600  0.141200  1.0
  H  H797  1  0.491100  0.458100  0.377300  1.0
  H  H798  1  0.008900  0.041900  0.877300  1.0
  H  H799  1  0.508900  0.541900  0.622700  1.0
  H  H800  1  0.991100  0.958100  0.122700  1.0
  H  H801  1  0.373500  0.347300  0.394300  1.0
  H  H802  1  0.126500  0.152700  0.894300  1.0
  H  H803  1  0.626500  0.652700  0.605700  1.0
  H  H804  1  0.873500  0.847300  0.105700  1.0
  H  H805  1  0.323000  0.370400  0.413200  1.0
  H  H806  1  0.177000  0.129600  0.913200  1.0
  H  H807  1  0.677000  0.629600  0.586800  1.0
  H  H808  1  0.823000  0.870400  0.086800  1.0
  H  H809  1  0.478100  0.465200  0.402100  1.0
  H  H810  1  0.021900  0.034800  0.902100  1.0
  H  H811  1  0.521900  0.534800  0.597900  1.0
  H  H812  1  0.978100  0.965200  0.097900  1.0
  H  H813  1  0.396600  0.571200  0.453100  1.0
  H  H814  1  0.103400  0.928800  0.953100  1.0
  H  H815  1  0.603400  0.428800  0.546900  1.0
  H  H816  1  0.896600  0.071200  0.046900  1.0
  H  H817  1  0.475700  0.615000  0.449700  1.0
  H  H818  1  0.024300  0.885000  0.949700  1.0
  H  H819  1  0.524300  0.385000  0.550300  1.0
  H  H820  1  0.975700  0.115000  0.050300  1.0
  H  H821  1  0.504700  0.525300  0.416100  1.0
  H  H822  1  0.995300  0.974700  0.916100  1.0
  H  H823  1  0.495300  0.474700  0.583900  1.0
  H  H824  1  0.004700  0.025300  0.083900  1.0
  H  H825  1  0.546700  0.602800  0.408000  1.0
  H  H826  1  0.953300  0.897200  0.908000  1.0
  H  H827  1  0.453300  0.397200  0.592000  1.0
  H  H828  1  0.046700  0.102800  0.092000  1.0
  H  H829  1  0.624400  0.651500  0.404600  1.0
  H  H830  1  0.875600  0.848500  0.904600  1.0
  H  H831  1  0.375600  0.348500  0.595400  1.0
  H  H832  1  0.124400  0.151500  0.095400  1.0
  H  H833  1  0.645300  0.667100  0.445700  1.0
  H  H834  1  0.854700  0.832900  0.945700  1.0
  H  H835  1  0.354700  0.332900  0.554300  1.0
  H  H836  1  0.145300  0.167100  0.054300  1.0
  H  H837  1  0.569600  0.617300  0.450500  1.0
  H  H838  1  0.930400  0.882700  0.950500  1.0
  H  H839  1  0.430400  0.382700  0.549500  1.0
  H  H840  1  0.069600  0.117300  0.049500  1.0
  H  H841  1  0.240800  0.448000  0.424500  1.0
  H  H842  1  0.259200  0.052000  0.924500  1.0
  H  H843  1  0.759200  0.552000  0.575500  1.0
  H  H844  1  0.740800  0.948000  0.075500  1.0
  H  H845  1  0.242300  0.463300  0.441000  1.0
  H  H846  1  0.257700  0.036700  0.941000  1.0
  H  H847  1  0.757700  0.536700  0.559000  1.0
  H  H848  1  0.742300  0.963300  0.059000  1.0
  H  H849  1  0.356200  0.483800  0.468600  1.0
  H  H850  1  0.143800  0.016200  0.968600  1.0
  H  H851  1  0.643800  0.516200  0.531400  1.0
  H  H852  1  0.856200  0.983800  0.031400  1.0
  H  H853  1  0.320600  0.439000  0.461100  1.0
  H  H854  1  0.179400  0.061000  0.961100  1.0
  H  H855  1  0.679400  0.561000  0.538900  1.0
  H  H856  1  0.820600  0.939000  0.038900  1.0
  H  H857  1  0.172500  0.400800  0.432600  1.0
  H  H858  1  0.327500  0.099200  0.932600  1.0
  H  H859  1  0.827500  0.599200  0.567400  1.0
  H  H860  1  0.672500  0.900800  0.067400  1.0
  H  H861  1  0.199300  0.391500  0.447700  1.0
  H  H862  1  0.300700  0.108500  0.947700  1.0
  H  H863  1  0.800700  0.608500  0.552300  1.0
  H  H864  1  0.699300  0.891500  0.052300  1.0
  H  H865  1  0.244200  0.483000  0.467200  1.0
  H  H866  1  0.255800  0.017000  0.967200  1.0
  H  H867  1  0.755800  0.517000  0.532800  1.0
  H  H868  1  0.744200  0.983000  0.032800  1.0
  H  H869  1  0.280800  0.526100  0.475200  1.0
  H  H870  1  0.219200  0.973900  0.975200  1.0
  H  H871  1  0.719200  0.473900  0.524800  1.0
  H  H872  1  0.780800  0.026100  0.024800  1.0
  H  H873  1  0.192700  0.312800  0.434800  1.0
  H  H874  1  0.307300  0.187200  0.934800  1.0
  H  H875  1  0.807300  0.687200  0.565200  1.0
  H  H876  1  0.692700  0.812800  0.065200  1.0
  H  H877  1  0.226600  0.338400  0.422000  1.0
  H  H878  1  0.273400  0.161600  0.922000  1.0
  H  H879  1  0.773400  0.661600  0.578000  1.0
  H  H880  1  0.726600  0.838400  0.078000  1.0
  H  H881  1  0.253500  0.329200  0.437200  1.0
  H  H882  1  0.246500  0.170800  0.937200  1.0
  H  H883  1  0.746500  0.670800  0.562800  1.0
  H  H884  1  0.753500  0.829200  0.062800  1.0
  H  H885  1  0.251900  0.460100  0.491900  1.0
  H  H886  1  0.248100  0.039900  0.991900  1.0
  H  H887  1  0.748100  0.539900  0.508100  1.0
  H  H888  1  0.751900  0.960100  0.008100  1.0
  H  H889  1  0.278000  0.417800  0.482300  1.0
  H  H890  1  0.222000  0.082200  0.982300  1.0
  H  H891  1  0.722000  0.582200  0.517700  1.0
  H  H892  1  0.778000  0.917800  0.017700  1.0
  H  H893  1  0.314400  0.460600  0.490300  1.0
  H  H894  1  0.185600  0.039400  0.990300  1.0
  H  H895  1  0.685600  0.539400  0.509700  1.0
  H  H896  1  0.814400  0.960600  0.009700  1.0
  H  H897  1  0.627400  0.864800  0.440400  1.0
  H  H898  1  0.872600  0.635200  0.940400  1.0
  H  H899  1  0.372600  0.135200  0.559600  1.0
  H  H900  1  0.127400  0.364800  0.059600  1.0
  H  H901  1  0.676600  0.793000  0.440900  1.0
  H  H902  1  0.823400  0.707000  0.940900  1.0
  H  H903  1  0.323400  0.207000  0.559100  1.0
  H  H904  1  0.176600  0.293000  0.059100  1.0
  H  H905  1  0.650100  0.765600  0.400500  1.0
  H  H906  1  0.849900  0.734400  0.900500  1.0
  H  H907  1  0.349900  0.234400  0.599500  1.0
  H  H908  1  0.150100  0.265600  0.099500  1.0
  H  H909  1  0.599000  0.836000  0.398700  1.0
  H  H910  1  0.901000  0.664000  0.898700  1.0
  H  H911  1  0.401000  0.164000  0.601300  1.0
  H  H912  1  0.099000  0.336000  0.101300  1.0
  H  H913  1  0.547400  0.902600  0.438500  1.0
  H  H914  1  0.952600  0.597400  0.938500  1.0
  H  H915  1  0.452600  0.097400  0.561500  1.0
  H  H916  1  0.047400  0.402600  0.061500  1.0
  H  H917  1  0.494900  0.971400  0.436900  1.0
  H  H918  1  0.005100  0.528600  0.936900  1.0
  H  H919  1  0.505100  0.028600  0.563100  1.0
  H  H920  1  0.994900  0.471400  0.063100  1.0
  H  H921  1  0.593600  0.922900  0.397900  1.0
  H  H922  1  0.906400  0.577100  0.897900  1.0
  H  H923  1  0.406400  0.077100  0.602100  1.0
  H  H924  1  0.093600  0.422900  0.102100  1.0
  H  H925  1  0.479600  0.101600  0.376100  1.0
  H  H926  1  0.020400  0.398400  0.876100  1.0
  H  H927  1  0.520400  0.898400  0.623900  1.0
  H  H928  1  0.979600  0.601600  0.123900  1.0
  H  H929  1  0.533200  0.083600  0.357500  1.0
  H  H930  1  0.966800  0.416400  0.857500  1.0
  H  H931  1  0.466800  0.916400  0.642500  1.0
  H  H932  1  0.033200  0.583600  0.142500  1.0
  H  H933  1  0.593900  0.968600  0.379400  1.0
  H  H934  1  0.906100  0.531400  0.879400  1.0
  H  H935  1  0.406100  0.031400  0.620600  1.0
  H  H936  1  0.093900  0.468600  0.120600  1.0
  H  H937  1  0.608100  0.937500  0.356000  1.0
  H  H938  1  0.891900  0.562500  0.856000  1.0
  H  H939  1  0.391900  0.062500  0.644000  1.0
  H  H940  1  0.108100  0.437500  0.144000  1.0
  H  H941  1  0.667200  0.926800  0.338000  1.0
  H  H942  1  0.832800  0.573200  0.838000  1.0
  H  H943  1  0.332800  0.073200  0.662000  1.0
  H  H944  1  0.167200  0.426800  0.162000  1.0
  H  H945  1  0.676600  0.074200  0.330200  1.0
  H  H946  1  0.823400  0.425800  0.830200  1.0
  H  H947  1  0.323400  0.925800  0.669800  1.0
  H  H948  1  0.176600  0.574200  0.169800  1.0
  H  H949  1  0.617800  0.090200  0.347900  1.0
  H  H950  1  0.882200  0.409800  0.847900  1.0
  H  H951  1  0.382200  0.909800  0.652100  1.0
  H  H952  1  0.117800  0.590200  0.152100  1.0
  H  H953  1  0.434800  0.099300  0.439700  1.0
  H  H954  1  0.065200  0.400700  0.939700  1.0
  H  H955  1  0.565200  0.900700  0.560300  1.0
  H  H956  1  0.934800  0.599300  0.060300  1.0
  H  H957  1  0.458400  0.118400  0.424900  1.0
  H  H958  1  0.041600  0.381600  0.924900  1.0
  H  H959  1  0.541600  0.881600  0.575100  1.0
  H  H960  1  0.958400  0.618400  0.075100  1.0
  H  H961  1  0.377300  0.057900  0.407700  1.0
  H  H962  1  0.122700  0.442100  0.907700  1.0
  H  H963  1  0.622700  0.942100  0.592300  1.0
  H  H964  1  0.877300  0.557900  0.092300  1.0
  H  H965  1  0.381500  0.059500  0.390700  1.0
  H  H966  1  0.118500  0.440500  0.890700  1.0
  H  H967  1  0.618500  0.940500  0.609300  1.0
  H  H968  1  0.881500  0.559500  0.109300  1.0
  H  H969  1  0.520300  0.147100  0.438800  1.0
  H  H970  1  0.979700  0.352900  0.938800  1.0
  H  H971  1  0.479700  0.852900  0.561200  1.0
  H  H972  1  0.020300  0.647100  0.061200  1.0
  H  H973  1  0.510600  0.101900  0.450200  1.0
  H  H974  1  0.989400  0.398100  0.950200  1.0
  H  H975  1  0.489400  0.898100  0.549800  1.0
  H  H976  1  0.010600  0.601900  0.049800  1.0
  H  H977  1  0.348200  0.138100  0.389300  1.0
  H  H978  1  0.151800  0.361900  0.889300  1.0
  H  H979  1  0.651800  0.861900  0.610700  1.0
  H  H980  1  0.848200  0.638100  0.110700  1.0
  H  H981  1  0.362700  0.151700  0.405600  1.0
  H  H982  1  0.137300  0.348300  0.905600  1.0
  H  H983  1  0.637300  0.848300  0.594400  1.0
  H  H984  1  0.862700  0.651700  0.094400  1.0
  H  H985  1  0.591600  0.095900  0.439500  1.0
  H  H986  1  0.908400  0.404100  0.939500  1.0
  H  H987  1  0.408400  0.904100  0.560500  1.0
  H  H988  1  0.091600  0.595900  0.060500  1.0
  H  H989  1  0.554700  0.046400  0.435500  1.0
  H  H990  1  0.945300  0.453600  0.935500  1.0
  H  H991  1  0.445300  0.953600  0.564500  1.0
  H  H992  1  0.054700  0.546400  0.064500  1.0
  H  H993  1  0.564400  0.091600  0.424100  1.0
  H  H994  1  0.935600  0.408400  0.924100  1.0
  H  H995  1  0.435600  0.908400  0.575900  1.0
  H  H996  1  0.064400  0.591600  0.075900  1.0
  H  H997  1  0.270500  0.126200  0.403900  1.0
  H  H998  1  0.229500  0.373800  0.903900  1.0
  H  H999  1  0.729500  0.873800  0.596100  1.0
  H  H1000  1  0.770500  0.626200  0.096100  1.0
  H  H1001  1  0.285200  0.072100  0.397300  1.0
  H  H1002  1  0.214800  0.427900  0.897300  1.0
  H  H1003  1  0.714800  0.927900  0.602700  1.0
  H  H1004  1  0.785200  0.572100  0.102700  1.0
  H  H1005  1  0.299700  0.085600  0.413500  1.0
  H  H1006  1  0.200300  0.414400  0.913500  1.0
  H  H1007  1  0.700300  0.914400  0.586500  1.0
  H  H1008  1  0.799700  0.585600  0.086500  1.0
  H  H1009  1  0.775900  0.552300  0.398200  1.0
  H  H1010  1  0.724100  0.947700  0.898200  1.0
  H  H1011  1  0.224100  0.447700  0.601800  1.0
  H  H1012  1  0.275900  0.052300  0.101800  1.0
  H  H1013  1  0.730100  0.626000  0.401000  1.0
  H  H1014  1  0.769900  0.874000  0.901000  1.0
  H  H1015  1  0.269900  0.374000  0.599000  1.0
  H  H1016  1  0.230100  0.126000  0.099000  1.0
  H  H1017  1  0.780000  0.644400  0.440100  1.0
  H  H1018  1  0.720000  0.855600  0.940100  1.0
  H  H1019  1  0.220000  0.355600  0.559900  1.0
  H  H1020  1  0.280000  0.144400  0.059900  1.0
  H  H1021  1  0.822700  0.568600  0.439200  1.0
  H  H1022  1  0.677300  0.931400  0.939200  1.0
  H  H1023  1  0.177300  0.431400  0.560800  1.0
  H  H1024  1  0.322700  0.068600  0.060800  1.0
  H  H1025  1  0.896500  0.530500  0.430200  1.0
  H  H1026  1  0.603500  0.969500  0.930200  1.0
  H  H1027  1  0.103500  0.469500  0.569800  1.0
  H  H1028  1  0.396500  0.030500  0.069800  1.0
  H  H1029  1  0.945400  0.459400  0.429100  1.0
  H  H1030  1  0.554600  0.040600  0.929100  1.0
  H  H1031  1  0.054600  0.540600  0.570900  1.0
  H  H1032  1  0.445400  0.959400  0.070900  1.0
  H  H1033  1  0.790000  0.466800  0.403300  1.0
  H  H1034  1  0.710000  0.033200  0.903300  1.0
  H  H1035  1  0.210000  0.533200  0.596700  1.0
  H  H1036  1  0.290000  0.966800  0.096700  1.0
  H  H1037  1  0.865100  0.261600  0.388600  1.0
  H  H1038  1  0.634900  0.238400  0.888600  1.0
  H  H1039  1  0.134900  0.738400  0.611400  1.0
  H  H1040  1  0.365100  0.761600  0.111400  1.0
  H  H1041  1  0.792800  0.267000  0.374300  1.0
  H  H1042  1  0.707200  0.233000  0.874300  1.0
  H  H1043  1  0.207200  0.733000  0.625700  1.0
  H  H1044  1  0.292800  0.767000  0.125700  1.0
  H  H1045  1  0.768100  0.408900  0.389300  1.0
  H  H1046  1  0.731900  0.091100  0.889300  1.0
  H  H1047  1  0.231900  0.591100  0.610700  1.0
  H  H1048  1  0.268100  0.908900  0.110700  1.0
  H  H1049  1  0.700500  0.261800  0.376300  1.0
  H  H1050  1  0.799500  0.238200  0.876300  1.0
  H  H1051  1  0.299500  0.738200  0.623700  1.0
  H  H1052  1  0.200500  0.761800  0.123700  1.0
  H  H1053  1  0.623600  0.261000  0.363000  1.0
  H  H1054  1  0.876400  0.239000  0.863000  1.0
  H  H1055  1  0.376400  0.739000  0.637000  1.0
  H  H1056  1  0.123600  0.761000  0.137000  1.0
  H  H1057  1  0.649800  0.406100  0.353000  1.0
  H  H1058  1  0.850200  0.093900  0.853000  1.0
  H  H1059  1  0.350200  0.593900  0.647000  1.0
  H  H1060  1  0.149800  0.906100  0.147000  1.0
  H  H1061  1  0.726500  0.412300  0.366100  1.0
  H  H1062  1  0.773500  0.087700  0.866100  1.0
  H  H1063  1  0.273500  0.587700  0.633900  1.0
  H  H1064  1  0.226500  0.912300  0.133900  1.0
  H  H1065  1  0.021000  0.405700  0.407100  1.0
  H  H1066  1  0.479000  0.094300  0.907100  1.0
  H  H1067  1  0.979000  0.594300  0.592900  1.0
  H  H1068  1  0.521000  0.905700  0.092900  1.0
  H  H1069  1  0.021000  0.344000  0.406000  1.0
  H  H1070  1  0.479000  0.156000  0.906000  1.0
  H  H1071  1  0.979000  0.656000  0.594000  1.0
  H  H1072  1  0.521000  0.844000  0.094000  1.0
  H  H1073  1  0.889200  0.238300  0.413000  1.0
  H  H1074  1  0.610800  0.261700  0.913000  1.0
  H  H1075  1  0.110800  0.761700  0.587000  1.0
  H  H1076  1  0.389200  0.738300  0.087000  1.0
  H  H1077  1  0.938600  0.258200  0.422500  1.0
  H  H1078  1  0.561400  0.241800  0.922500  1.0
  H  H1079  1  0.061400  0.741800  0.577500  1.0
  H  H1080  1  0.438600  0.758200  0.077500  1.0
  H  H1081  1  0.063700  0.404100  0.429200  1.0
  H  H1082  1  0.436300  0.095900  0.929200  1.0
  H  H1083  1  0.936300  0.595900  0.570800  1.0
  H  H1084  1  0.563700  0.904100  0.070800  1.0
  H  H1085  1  0.098100  0.375600  0.417700  1.0
  H  H1086  1  0.401900  0.124400  0.917700  1.0
  H  H1087  1  0.901900  0.624400  0.582300  1.0
  H  H1088  1  0.598100  0.875600  0.082300  1.0
  H  H1089  1  0.984600  0.193400  0.414600  1.0
  H  H1090  1  0.515400  0.306600  0.914600  1.0
  H  H1091  1  0.015400  0.806600  0.585400  1.0
  H  H1092  1  0.484600  0.693400  0.085400  1.0
  H  H1093  1  0.977400  0.212700  0.398500  1.0
  H  H1094  1  0.522600  0.287300  0.898500  1.0
  H  H1095  1  0.022600  0.787300  0.601500  1.0
  H  H1096  1  0.477400  0.712700  0.101500  1.0
  H  H1097  1  0.091800  0.326000  0.438800  1.0
  H  H1098  1  0.408200  0.174000  0.938800  1.0
  H  H1099  1  0.908200  0.674000  0.561200  1.0
  H  H1100  1  0.591800  0.826000  0.061200  1.0
  H  H1101  1  0.029100  0.322900  0.437600  1.0
  H  H1102  1  0.470900  0.177100  0.937600  1.0
  H  H1103  1  0.970900  0.677100  0.562400  1.0
  H  H1104  1  0.529100  0.822900  0.062400  1.0
  H  H1105  1  0.063500  0.294500  0.426000  1.0
  H  H1106  1  0.436500  0.205500  0.926000  1.0
  H  H1107  1  0.936500  0.705500  0.574000  1.0
  H  H1108  1  0.563500  0.794500  0.074000  1.0
  H  H1109  1  0.935600  0.126900  0.401200  1.0
  H  H1110  1  0.564400  0.373100  0.901200  1.0
  H  H1111  1  0.064400  0.873100  0.598800  1.0
  H  H1112  1  0.435600  0.626900  0.098800  1.0
  H  H1113  1  0.899000  0.147500  0.413500  1.0
  H  H1114  1  0.601000  0.352500  0.913500  1.0
  H  H1115  1  0.101000  0.852500  0.586500  1.0
  H  H1116  1  0.399000  0.647500  0.086500  1.0
  H  H1117  1  0.891800  0.166700  0.397500  1.0
  H  H1118  1  0.608200  0.333300  0.897500  1.0
  H  H1119  1  0.108200  0.833300  0.602500  1.0
  H  H1120  1  0.391800  0.666700  0.102500  1.0
  H  H1121  1  0.662500  0.375100  0.299800  1.0
  H  H1122  1  0.837500  0.124900  0.799800  1.0
  H  H1123  1  0.337500  0.624900  0.700200  1.0
  H  H1124  1  0.162500  0.875100  0.200200  1.0
  H  H1125  1  0.614400  0.387700  0.320000  1.0
  H  H1126  1  0.885600  0.112300  0.820000  1.0
  H  H1127  1  0.385600  0.612300  0.680000  1.0
  H  H1128  1  0.114400  0.887700  0.180000  1.0
  H  H1129  1  0.617000  0.242000  0.330100  1.0
  H  H1130  1  0.883000  0.258000  0.830100  1.0
  H  H1131  1  0.383000  0.758000  0.669900  1.0
  H  H1132  1  0.117000  0.742000  0.169900  1.0
  H  H1133  1  0.659600  0.224000  0.309200  1.0
  H  H1134  1  0.840400  0.276000  0.809200  1.0
  H  H1135  1  0.340400  0.776000  0.690800  1.0
  H  H1136  1  0.159600  0.724000  0.190800  1.0
  H  H1137  1  0.737700  0.228500  0.295400  1.0
  H  H1138  1  0.762300  0.271500  0.795400  1.0
  H  H1139  1  0.262300  0.771500  0.704600  1.0
  H  H1140  1  0.237700  0.728500  0.204600  1.0
  H  H1141  1  0.780800  0.212100  0.274900  1.0
  H  H1142  1  0.719200  0.287900  0.774900  1.0
  H  H1143  1  0.219200  0.787900  0.725100  1.0
  H  H1144  1  0.280800  0.712100  0.225100  1.0
  H  H1145  1  0.672400  0.348700  0.277600  1.0
  H  H1146  1  0.827600  0.151300  0.777600  1.0
  H  H1147  1  0.327600  0.651300  0.722400  1.0
  H  H1148  1  0.172400  0.848700  0.222400  1.0
  H  H1149  1  0.758900  0.365700  0.218700  1.0
  H  H1150  1  0.741100  0.134300  0.718700  1.0
  H  H1151  1  0.241100  0.634300  0.781300  1.0
  H  H1152  1  0.258900  0.865700  0.281300  1.0
  H  H1153  1  0.717000  0.441100  0.221100  1.0
  H  H1154  1  0.783000  0.058900  0.721100  1.0
  H  H1155  1  0.283000  0.558900  0.778900  1.0
  H  H1156  1  0.217000  0.941100  0.278900  1.0
  H  H1157  1  0.675100  0.402900  0.261200  1.0
  H  H1158  1  0.824900  0.097100  0.761200  1.0
  H  H1159  1  0.324900  0.597100  0.738800  1.0
  H  H1160  1  0.175100  0.902900  0.238800  1.0
  H  H1161  1  0.636800  0.480900  0.222300  1.0
  H  H1162  1  0.863200  0.019100  0.722300  1.0
  H  H1163  1  0.363200  0.519100  0.777700  1.0
  H  H1164  1  0.136800  0.980900  0.277700  1.0
  H  H1165  1  0.594400  0.556500  0.224900  1.0
  H  H1166  1  0.905600  0.943500  0.724900  1.0
  H  H1167  1  0.405600  0.443500  0.775100  1.0
  H  H1168  1  0.094400  0.056500  0.275100  1.0
  H  H1169  1  0.630200  0.564700  0.265400  1.0
  H  H1170  1  0.869800  0.935300  0.765400  1.0
  H  H1171  1  0.369800  0.435300  0.734600  1.0
  H  H1172  1  0.130200  0.064700  0.234600  1.0
  H  H1173  1  0.677500  0.491600  0.263900  1.0
  H  H1174  1  0.822500  0.008400  0.763900  1.0
  H  H1175  1  0.322500  0.508400  0.736100  1.0
  H  H1176  1  0.177500  0.991600  0.236100  1.0
  H  H1177  1  0.784600  0.190100  0.231000  1.0
  H  H1178  1  0.715400  0.309900  0.731000  1.0
  H  H1179  1  0.215400  0.809900  0.769000  1.0
  H  H1180  1  0.284600  0.690100  0.269000  1.0
  H  H1181  1  0.759000  0.163700  0.245100  1.0
  H  H1182  1  0.741000  0.336300  0.745100  1.0
  H  H1183  1  0.241000  0.836300  0.754900  1.0
  H  H1184  1  0.259000  0.663700  0.254900  1.0
  H  H1185  1  0.880400  0.288400  0.229000  1.0
  H  H1186  1  0.619600  0.211600  0.729000  1.0
  H  H1187  1  0.119600  0.711600  0.771000  1.0
  H  H1188  1  0.380400  0.788400  0.271000  1.0
  H  H1189  1  0.856000  0.344000  0.228900  1.0
  H  H1190  1  0.644000  0.156000  0.728900  1.0
  H  H1191  1  0.144000  0.656000  0.771100  1.0
  H  H1192  1  0.356000  0.844000  0.271100  1.0
  H  H1193  1  0.843400  0.134700  0.251500  1.0
  H  H1194  1  0.656600  0.365300  0.751500  1.0
  H  H1195  1  0.156600  0.865300  0.748500  1.0
  H  H1196  1  0.343400  0.634700  0.248500  1.0
  H  H1197  1  0.822500  0.109300  0.236900  1.0
  H  H1198  1  0.677500  0.390700  0.736900  1.0
  H  H1199  1  0.177500  0.890700  0.763100  1.0
  H  H1200  1  0.322500  0.609300  0.263100  1.0
  H  H1201  1  0.848600  0.344700  0.205100  1.0
  H  H1202  1  0.651400  0.155300  0.705100  1.0
  H  H1203  1  0.151400  0.655300  0.794900  1.0
  H  H1204  1  0.348600  0.844700  0.294900  1.0
  H  H1205  1  0.852600  0.284000  0.203900  1.0
  H  H1206  1  0.647400  0.216000  0.703900  1.0
  H  H1207  1  0.147400  0.716000  0.796100  1.0
  H  H1208  1  0.352600  0.784000  0.296100  1.0
  H  H1209  1  0.911000  0.132500  0.235100  1.0
  H  H1210  1  0.589000  0.367500  0.735100  1.0
  H  H1211  1  0.089000  0.867500  0.764900  1.0
  H  H1212  1  0.411000  0.632500  0.264900  1.0
  H  H1213  1  0.878800  0.165600  0.224100  1.0
  H  H1214  1  0.621200  0.334400  0.724100  1.0
  H  H1215  1  0.121200  0.834400  0.775900  1.0
  H  H1216  1  0.378800  0.665600  0.275900  1.0
  H  H1217  1  0.899800  0.191000  0.238700  1.0
  H  H1218  1  0.600200  0.309000  0.738700  1.0
  H  H1219  1  0.100200  0.809000  0.761300  1.0
  H  H1220  1  0.399800  0.691000  0.261300  1.0
  H  H1221  1  0.927500  0.325800  0.194200  1.0
  H  H1222  1  0.572500  0.174200  0.694200  1.0
  H  H1223  1  0.072500  0.674200  0.805800  1.0
  H  H1224  1  0.427500  0.825800  0.305800  1.0
  H  H1225  1  0.940000  0.354300  0.209000  1.0
  H  H1226  1  0.560000  0.145700  0.709000  1.0
  H  H1227  1  0.060000  0.645700  0.791000  1.0
  H  H1228  1  0.440000  0.854300  0.291000  1.0
  H  H1229  1  0.944000  0.293300  0.207800  1.0
  H  H1230  1  0.556000  0.206700  0.707800  1.0
  H  H1231  1  0.056000  0.706700  0.792200  1.0
  H  H1232  1  0.444000  0.793300  0.292200  1.0
  H  H1233  1  0.405400  0.260700  0.320400  1.0
  H  H1234  1  0.094600  0.239300  0.820400  1.0
  H  H1235  1  0.594600  0.739300  0.679600  1.0
  H  H1236  1  0.905400  0.760700  0.179600  1.0
  H  H1237  1  0.480400  0.258000  0.334100  1.0
  H  H1238  1  0.019600  0.242000  0.834100  1.0
  H  H1239  1  0.519600  0.742000  0.665900  1.0
  H  H1240  1  0.980400  0.758000  0.165900  1.0
  H  H1241  1  0.512700  0.405100  0.328300  1.0
  H  H1242  1  0.987300  0.094900  0.828300  1.0
  H  H1243  1  0.487300  0.594900  0.671700  1.0
  H  H1244  1  0.012700  0.905100  0.171700  1.0
  H  H1245  1  0.438300  0.413100  0.315000  1.0
  H  H1246  1  0.061700  0.086900  0.815000  1.0
  H  H1247  1  0.561700  0.586900  0.685000  1.0
  H  H1248  1  0.938300  0.913100  0.185000  1.0
  H  H1249  1  0.323400  0.280400  0.315600  1.0
  H  H1250  1  0.176600  0.219600  0.815600  1.0
  H  H1251  1  0.676600  0.719600  0.684400  1.0
  H  H1252  1  0.823400  0.780400  0.184400  1.0
  H  H1253  1  0.248700  0.287100  0.302500  1.0
  H  H1254  1  0.251300  0.212900  0.802500  1.0
  H  H1255  1  0.751300  0.712900  0.697500  1.0
  H  H1256  1  0.748700  0.787100  0.197500  1.0
  H  H1257  1  0.391800  0.402600  0.295400  1.0
  H  H1258  1  0.108200  0.097400  0.795400  1.0
  H  H1259  1  0.608200  0.597400  0.704600  1.0
  H  H1260  1  0.891800  0.902600  0.204600  1.0
  H  H1261  1  0.236100  0.472600  0.253800  1.0
  H  H1262  1  0.263900  0.027400  0.753800  1.0
  H  H1263  1  0.763900  0.527400  0.746200  1.0
  H  H1264  1  0.736100  0.972600  0.246200  1.0
  H  H1265  1  0.309900  0.522200  0.248500  1.0
  H  H1266  1  0.190100  0.977800  0.748500  1.0
  H  H1267  1  0.690100  0.477800  0.751500  1.0
  H  H1268  1  0.809900  0.022200  0.251500  1.0
  H  H1269  1  0.390900  0.452400  0.278900  1.0
  H  H1270  1  0.109100  0.047600  0.778900  1.0
  H  H1271  1  0.609100  0.547600  0.721100  1.0
  H  H1272  1  0.890900  0.952400  0.221100  1.0
  H  H1273  1  0.390100  0.537800  0.238600  1.0
  H  H1274  1  0.109900  0.962200  0.738600  1.0
  H  H1275  1  0.609900  0.462200  0.761400  1.0
  H  H1276  1  0.890100  0.037800  0.261400  1.0
  H  H1277  1  0.465400  0.586900  0.233600  1.0
  H  H1278  1  0.034600  0.913100  0.733600  1.0
  H  H1279  1  0.534600  0.413100  0.766400  1.0
  H  H1280  1  0.965400  0.086900  0.266400  1.0
  H  H1281  1  0.515500  0.573900  0.272700  1.0
  H  H1282  1  0.984500  0.926100  0.772700  1.0
  H  H1283  1  0.484500  0.426100  0.727300  1.0
  H  H1284  1  0.015500  0.073900  0.227300  1.0
  H  H1285  1  0.442500  0.522600  0.278800  1.0
  H  H1286  1  0.057500  0.977400  0.778800  1.0
  H  H1287  1  0.557500  0.477400  0.721200  1.0
  H  H1288  1  0.942500  0.022600  0.221200  1.0
  H  H1289  1  0.128700  0.375300  0.288300  1.0
  H  H1290  1  0.371300  0.124700  0.788300  1.0
  H  H1291  1  0.871300  0.624700  0.711700  1.0
  H  H1292  1  0.628700  0.875300  0.211700  1.0
  H  H1293  1  0.154200  0.357800  0.303100  1.0
  H  H1294  1  0.345800  0.142200  0.803100  1.0
  H  H1295  1  0.845800  0.642200  0.696900  1.0
  H  H1296  1  0.654200  0.857800  0.196900  1.0
  H  H1297  1  0.157200  0.328800  0.256700  1.0
  H  H1298  1  0.342800  0.171200  0.756700  1.0
  H  H1299  1  0.842800  0.671200  0.743300  1.0
  H  H1300  1  0.657200  0.828800  0.243300  1.0
  H  H1301  1  0.206200  0.356500  0.248500  1.0
  H  H1302  1  0.293800  0.143500  0.748500  1.0
  H  H1303  1  0.793800  0.643500  0.751500  1.0
  H  H1304  1  0.706200  0.856500  0.251500  1.0
  H  H1305  1  0.064800  0.318300  0.296600  1.0
  H  H1306  1  0.435200  0.181700  0.796600  1.0
  H  H1307  1  0.935200  0.681700  0.703400  1.0
  H  H1308  1  0.564800  0.818300  0.203400  1.0
  H  H1309  1  0.096800  0.282600  0.286200  1.0
  H  H1310  1  0.403200  0.217400  0.786200  1.0
  H  H1311  1  0.903200  0.717400  0.713800  1.0
  H  H1312  1  0.596800  0.782600  0.213800  1.0
  H  H1313  1  0.134000  0.420300  0.243300  1.0
  H  H1314  1  0.366000  0.079700  0.743300  1.0
  H  H1315  1  0.866000  0.579700  0.756700  1.0
  H  H1316  1  0.634000  0.920300  0.256700  1.0
  H  H1317  1  0.099700  0.366900  0.243600  1.0
  H  H1318  1  0.400300  0.133100  0.743600  1.0
  H  H1319  1  0.900300  0.633100  0.756400  1.0
  H  H1320  1  0.599700  0.866900  0.256400  1.0
  H  H1321  1  0.082500  0.241100  0.308100  1.0
  H  H1322  1  0.417500  0.258900  0.808100  1.0
  H  H1323  1  0.917500  0.758900  0.691900  1.0
  H  H1324  1  0.582500  0.741100  0.191900  1.0
  H  H1325  1  0.144200  0.252700  0.305700  1.0
  H  H1326  1  0.355800  0.247300  0.805700  1.0
  H  H1327  1  0.855800  0.747300  0.694300  1.0
  H  H1328  1  0.644200  0.752700  0.194300  1.0
  H  H1329  1  0.112200  0.288300  0.316200  1.0
  H  H1330  1  0.387800  0.211700  0.816200  1.0
  H  H1331  1  0.887800  0.711700  0.683800  1.0
  H  H1332  1  0.612200  0.788300  0.183800  1.0
  H  H1333  1  0.129800  0.384300  0.220300  1.0
  H  H1334  1  0.370200  0.115700  0.720300  1.0
  H  H1335  1  0.870200  0.615700  0.779700  1.0
  H  H1336  1  0.629800  0.884300  0.279700  1.0
  H  H1337  1  0.189300  0.386600  0.225800  1.0
  H  H1338  1  0.310700  0.113400  0.725800  1.0
  H  H1339  1  0.810700  0.613400  0.774200  1.0
  H  H1340  1  0.689300  0.886600  0.274200  1.0
  H  H1341  1  0.155100  0.333333  0.226100  1.0
  H  H1342  1  0.344900  0.166667  0.726100  1.0
  H  H1343  1  0.844900  0.666667  0.773900  1.0
  H  H1344  1  0.655100  0.833333  0.273900  1.0
  H  H1345  1  0.445900  0.754600  0.226300  1.0
  H  H1346  1  0.054100  0.745400  0.726300  1.0
  H  H1347  1  0.554100  0.245400  0.773700  1.0
  H  H1348  1  0.945900  0.254600  0.273700  1.0
  H  H1349  1  0.492700  0.681400  0.226800  1.0
  H  H1350  1  0.007300  0.818600  0.726800  1.0
  H  H1351  1  0.507300  0.318600  0.773200  1.0
  H  H1352  1  0.992700  0.181400  0.273200  1.0
  H  H1353  1  0.549400  0.716400  0.264400  1.0
  H  H1354  1  0.950600  0.783600  0.764400  1.0
  H  H1355  1  0.450600  0.283600  0.735600  1.0
  H  H1356  1  0.049400  0.216400  0.235600  1.0
  H  H1357  1  0.503400  0.790400  0.265400  1.0
  H  H1358  1  0.996600  0.709600  0.765400  1.0
  H  H1359  1  0.496600  0.209600  0.734600  1.0
  H  H1360  1  0.003400  0.290400  0.234600  1.0
  H  H1361  1  0.382600  0.807600  0.231900  1.0
  H  H1362  1  0.117400  0.692400  0.731900  1.0
  H  H1363  1  0.617400  0.192400  0.768100  1.0
  H  H1364  1  0.882600  0.307600  0.268100  1.0
  H  H1365  1  0.340700  0.883100  0.231500  1.0
  H  H1366  1  0.159300  0.616900  0.731500  1.0
  H  H1367  1  0.659300  0.116900  0.768500  1.0
  H  H1368  1  0.840700  0.383100  0.268500  1.0
  H  H1369  1  0.490100  0.868400  0.259200  1.0
  H  H1370  1  0.009900  0.631600  0.759200  1.0
  H  H1371  1  0.509900  0.131600  0.740800  1.0
  H  H1372  1  0.990100  0.368400  0.240800  1.0
  H  H1373  1  0.440200  0.087200  0.266600  1.0
  H  H1374  1  0.059800  0.412800  0.766600  1.0
  H  H1375  1  0.559800  0.912800  0.733400  1.0
  H  H1376  1  0.940200  0.587200  0.233400  1.0
  H  H1377  1  0.515600  0.081600  0.279700  1.0
  H  H1378  1  0.984400  0.418400  0.779700  1.0
  H  H1379  1  0.484400  0.918400  0.720300  1.0
  H  H1380  1  0.015600  0.581600  0.220300  1.0
  H  H1381  1  0.521200  0.932000  0.269800  1.0
  H  H1382  1  0.978800  0.568000  0.769800  1.0
  H  H1383  1  0.478800  0.068000  0.730200  1.0
  H  H1384  1  0.021200  0.432000  0.230200  1.0
  H  H1385  1  0.604600  0.074000  0.283900  1.0
  H  H1386  1  0.895400  0.426000  0.783900  1.0
  H  H1387  1  0.395400  0.926000  0.716100  1.0
  H  H1388  1  0.104600  0.574000  0.216100  1.0
  H  H1389  1  0.677500  0.061800  0.297900  1.0
  H  H1390  1  0.822500  0.438200  0.797900  1.0
  H  H1391  1  0.322500  0.938200  0.702100  1.0
  H  H1392  1  0.177500  0.561800  0.202100  1.0
  H  H1393  1  0.633000  0.917700  0.304500  1.0
  H  H1394  1  0.867000  0.582300  0.804500  1.0
  H  H1395  1  0.367000  0.082300  0.695500  1.0
  H  H1396  1  0.133000  0.417700  0.195500  1.0
  H  H1397  1  0.558000  0.925100  0.290900  1.0
  H  H1398  1  0.942000  0.574900  0.790900  1.0
  H  H1399  1  0.442000  0.074900  0.709100  1.0
  H  H1400  1  0.058000  0.425100  0.209100  1.0
  H  H1401  1  0.362100  0.012400  0.221800  1.0
  H  H1402  1  0.137900  0.487600  0.721800  1.0
  H  H1403  1  0.637900  0.987600  0.778200  1.0
  H  H1404  1  0.862100  0.512400  0.278200  1.0
  H  H1405  1  0.302200  0.027400  0.222800  1.0
  H  H1406  1  0.197800  0.472600  0.722800  1.0
  H  H1407  1  0.697800  0.972600  0.777200  1.0
  H  H1408  1  0.802200  0.527400  0.277200  1.0
  H  H1409  1  0.346900  0.077000  0.232500  1.0
  H  H1410  1  0.153100  0.423000  0.732500  1.0
  H  H1411  1  0.653100  0.923000  0.767500  1.0
  H  H1412  1  0.846900  0.577000  0.267500  1.0
  H  H1413  1  0.405800  0.090100  0.237700  1.0
  H  H1414  1  0.094200  0.409900  0.737700  1.0
  H  H1415  1  0.594200  0.909900  0.762300  1.0
  H  H1416  1  0.905800  0.590100  0.262300  1.0
  H  H1417  1  0.322800  0.979700  0.201500  1.0
  H  H1418  1  0.177200  0.520300  0.701500  1.0
  H  H1419  1  0.677200  0.020300  0.798500  1.0
  H  H1420  1  0.822800  0.479700  0.298500  1.0
  H  H1421  1  0.330800  0.930800  0.211400  1.0
  H  H1422  1  0.169200  0.569200  0.711400  1.0
  H  H1423  1  0.669200  0.069200  0.788600  1.0
  H  H1424  1  0.830800  0.430800  0.288600  1.0
  H  H1425  1  0.379700  0.161200  0.250100  1.0
  H  H1426  1  0.120300  0.338800  0.750100  1.0
  H  H1427  1  0.620300  0.838800  0.749900  1.0
  H  H1428  1  0.879700  0.661200  0.249900  1.0
  H  H1429  1  0.319300  0.147000  0.246400  1.0
  H  H1430  1  0.180700  0.353000  0.746400  1.0
  H  H1431  1  0.680700  0.853000  0.753600  1.0
  H  H1432  1  0.819300  0.647000  0.253600  1.0
  H  H1433  1  0.245300  0.926100  0.201700  1.0
  H  H1434  1  0.254700  0.573900  0.701700  1.0
  H  H1435  1  0.754700  0.073900  0.798300  1.0
  H  H1436  1  0.745300  0.426100  0.298300  1.0
  H  H1437  1  0.241700  0.931500  0.218600  1.0
  H  H1438  1  0.258300  0.568500  0.718600  1.0
  H  H1439  1  0.758300  0.068500  0.781400  1.0
  H  H1440  1  0.741700  0.431500  0.281400  1.0
  H  H1441  1  0.233800  0.980400  0.208700  1.0
  H  H1442  1  0.266200  0.519600  0.708700  1.0
  H  H1443  1  0.766200  0.019600  0.791300  1.0
  H  H1444  1  0.733800  0.480400  0.291300  1.0
  H  H1445  1  0.353100  0.212600  0.230700  1.0
  H  H1446  1  0.146900  0.287400  0.730700  1.0
  H  H1447  1  0.646900  0.787400  0.769300  1.0
  H  H1448  1  0.853100  0.712600  0.269300  1.0
  H  H1449  1  0.397800  0.176100  0.225500  1.0
  H  H1450  1  0.102200  0.323900  0.725500  1.0
  H  H1451  1  0.602200  0.823900  0.774500  1.0
  H  H1452  1  0.897800  0.676100  0.274500  1.0
  H  H1453  1  0.337600  0.161900  0.221700  1.0
  H  H1454  1  0.162400  0.338100  0.721700  1.0
  H  H1455  1  0.662400  0.838100  0.778300  1.0
  H  H1456  1  0.837600  0.661900  0.278300  1.0
  H  H1457  1  0.875500  0.991400  0.281600  1.0
  H  H1458  1  0.624500  0.508600  0.781600  1.0
  H  H1459  1  0.124500  0.008600  0.718400  1.0
  H  H1460  1  0.375500  0.491400  0.218400  1.0
  H  H1461  1  0.819800  0.022600  0.298400  1.0
  H  H1462  1  0.680200  0.477400  0.798400  1.0
  H  H1463  1  0.180200  0.977400  0.701600  1.0
  H  H1464  1  0.319800  0.522600  0.201600  1.0
  H  H1465  1  0.734000  0.893700  0.298600  1.0
  H  H1466  1  0.766000  0.606300  0.798600  1.0
  H  H1467  1  0.266000  0.106300  0.701400  1.0
  H  H1468  1  0.234000  0.393700  0.201400  1.0
  H  H1469  1  0.787400  0.857900  0.281900  1.0
  H  H1470  1  0.712600  0.642100  0.781900  1.0
  H  H1471  1  0.212600  0.142100  0.718100  1.0
  H  H1472  1  0.287400  0.357900  0.218100  1.0
  H  H1473  1  0.936500  0.945500  0.271300  1.0
  H  H1474  1  0.563500  0.554500  0.771300  1.0
  H  H1475  1  0.063500  0.054500  0.728700  1.0
  H  H1476  1  0.436500  0.445500  0.228700  1.0
  H  H1477  1  0.988400  0.909600  0.254500  1.0
  H  H1478  1  0.511600  0.590400  0.754500  1.0
  H  H1479  1  0.011600  0.090400  0.745500  1.0
  H  H1480  1  0.488400  0.409600  0.245500  1.0
  H  H1481  1  0.814000  0.851700  0.259800  1.0
  H  H1482  1  0.686000  0.648300  0.759800  1.0
  H  H1483  1  0.186000  0.148300  0.740200  1.0
  H  H1484  1  0.314000  0.351700  0.240200  1.0
  H  H1485  1  0.886400  0.725800  0.211700  1.0
  H  H1486  1  0.613600  0.774200  0.711700  1.0
  H  H1487  1  0.113600  0.274200  0.788300  1.0
  H  H1488  1  0.386400  0.225800  0.288300  1.0
  H  H1489  1  0.802500  0.692700  0.215800  1.0
  H  H1490  1  0.697500  0.807300  0.715800  1.0
  H  H1491  1  0.197500  0.307300  0.784200  1.0
  H  H1492  1  0.302500  0.192700  0.284200  1.0
  H  H1493  1  0.783400  0.794300  0.247400  1.0
  H  H1494  1  0.716600  0.705700  0.747400  1.0
  H  H1495  1  0.216600  0.205700  0.752600  1.0
  H  H1496  1  0.283400  0.294300  0.252600  1.0
  H  H1497  1  0.708100  0.709000  0.214200  1.0
  H  H1498  1  0.791900  0.791000  0.714200  1.0
  H  H1499  1  0.291900  0.291000  0.785800  1.0
  H  H1500  1  0.208100  0.209000  0.285800  1.0
  H  H1501  1  0.626300  0.670700  0.218900  1.0
  H  H1502  1  0.873700  0.829300  0.718900  1.0
  H  H1503  1  0.373700  0.329300  0.781100  1.0
  H  H1504  1  0.126300  0.170700  0.281100  1.0
  H  H1505  1  0.651100  0.677100  0.259900  1.0
  H  H1506  1  0.848900  0.822900  0.759900  1.0
  H  H1507  1  0.348900  0.322900  0.740100  1.0
  H  H1508  1  0.151100  0.177100  0.240100  1.0
  H  H1509  1  0.735100  0.713200  0.256700  1.0
  H  H1510  1  0.764900  0.786800  0.756700  1.0
  H  H1511  1  0.264900  0.286800  0.743300  1.0
  H  H1512  1  0.235100  0.213200  0.243300  1.0
  H  H1513  1  0.997100  0.900600  0.216700  1.0
  H  H1514  1  0.502900  0.599400  0.716700  1.0
  H  H1515  1  0.002900  0.099400  0.783300  1.0
  H  H1516  1  0.497100  0.400600  0.283300  1.0
  H  H1517  1  0.036800  0.856600  0.213000  1.0
  H  H1518  1  0.463200  0.643400  0.713000  1.0
  H  H1519  1  0.963200  0.143400  0.787000  1.0
  H  H1520  1  0.536800  0.356600  0.287000  1.0
  H  H1521  1  0.976500  0.703600  0.216300  1.0
  H  H1522  1  0.523500  0.796400  0.716300  1.0
  H  H1523  1  0.023500  0.296400  0.783700  1.0
  H  H1524  1  0.476500  0.203600  0.283700  1.0
  H  H1525  1  0.995700  0.731900  0.230700  1.0
  H  H1526  1  0.504300  0.768100  0.730700  1.0
  H  H1527  1  0.004300  0.268100  0.769300  1.0
  H  H1528  1  0.495700  0.231900  0.269300  1.0
  H  H1529  1  0.105800  0.899900  0.223500  1.0
  H  H1530  1  0.394200  0.600100  0.723500  1.0
  H  H1531  1  0.894200  0.100100  0.776500  1.0
  H  H1532  1  0.605800  0.399900  0.276500  1.0
  H  H1533  1  0.077000  0.943800  0.215100  1.0
  H  H1534  1  0.423000  0.556200  0.715100  1.0
  H  H1535  1  0.923000  0.056200  0.784900  1.0
  H  H1536  1  0.577000  0.443800  0.284900  1.0
  H  H1537  1  0.069800  0.767500  0.216400  1.0
  H  H1538  1  0.430200  0.732500  0.716400  1.0
  H  H1539  1  0.930200  0.232500  0.783600  1.0
  H  H1540  1  0.569800  0.267500  0.283600  1.0
  H  H1541  1  0.053000  0.723400  0.205100  1.0
  H  H1542  1  0.447000  0.776600  0.705100  1.0
  H  H1543  1  0.947000  0.276600  0.794900  1.0
  H  H1544  1  0.553000  0.223400  0.294900  1.0
  H  H1545  1  0.094200  0.979100  0.236800  1.0
  H  H1546  1  0.405800  0.520900  0.736800  1.0
  H  H1547  1  0.905800  0.020900  0.763200  1.0
  H  H1548  1  0.594200  0.479100  0.263200  1.0
  H  H1549  1  0.076600  0.927200  0.245000  1.0
  H  H1550  1  0.423400  0.572800  0.745000  1.0
  H  H1551  1  0.923400  0.072800  0.755000  1.0
  H  H1552  1  0.576600  0.427200  0.255000  1.0
  H  H1553  1  0.033300  0.961200  0.237800  1.0
  H  H1554  1  0.466700  0.538800  0.737800  1.0
  H  H1555  1  0.966700  0.038800  0.762200  1.0
  H  H1556  1  0.533300  0.461200  0.262200  1.0
  H  H1557  1  0.117400  0.691500  0.221300  1.0
  H  H1558  1  0.382600  0.808500  0.721300  1.0
  H  H1559  1  0.882600  0.308500  0.778700  1.0
  H  H1560  1  0.617400  0.191500  0.278700  1.0
  H  H1561  1  0.079900  0.702400  0.234500  1.0
  H  H1562  1  0.420100  0.797600  0.734500  1.0
  H  H1563  1  0.920100  0.297600  0.765500  1.0
  H  H1564  1  0.579900  0.202400  0.265500  1.0
  H  H1565  1  0.063200  0.658400  0.223200  1.0
  H  H1566  1  0.436800  0.841600  0.723200  1.0
  H  H1567  1  0.936800  0.341600  0.776800  1.0
  H  H1568  1  0.563200  0.158400  0.276800  1.0
  H  H1569  1  0.907200  0.026200  0.338000  1.0
  H  H1570  1  0.592800  0.473800  0.838000  1.0
  H  H1571  1  0.092800  0.973800  0.662000  1.0
  H  H1572  1  0.407200  0.526200  0.162000  1.0
  H  H1573  1  0.829200  0.044900  0.327100  1.0
  H  H1574  1  0.670800  0.455100  0.827100  1.0
  H  H1575  1  0.170800  0.955100  0.672900  1.0
  H  H1576  1  0.329200  0.544900  0.172900  1.0
  H  H1577  1  0.767200  0.906900  0.334900  1.0
  H  H1578  1  0.732800  0.593100  0.834900  1.0
  H  H1579  1  0.232800  0.093100  0.665100  1.0
  H  H1580  1  0.267200  0.406900  0.165100  1.0
  H  H1581  1  0.842900  0.883200  0.346000  1.0
  H  H1582  1  0.657100  0.616800  0.846000  1.0
  H  H1583  1  0.157100  0.116800  0.654000  1.0
  H  H1584  1  0.342900  0.383200  0.154000  1.0
  H  H1585  1  0.985000  0.968800  0.336800  1.0
  H  H1586  1  0.515000  0.531200  0.836800  1.0
  H  H1587  1  0.015000  0.031200  0.663200  1.0
  H  H1588  1  0.485000  0.468800  0.163200  1.0
  H  H1589  1  0.059700  0.947000  0.348400  1.0
  H  H1590  1  0.440300  0.553000  0.848400  1.0
  H  H1591  1  0.940300  0.053000  0.651600  1.0
  H  H1592  1  0.559700  0.447000  0.151600  1.0
  H  H1593  1  0.894600  0.904000  0.367700  1.0
  H  H1594  1  0.605400  0.596000  0.867700  1.0
  H  H1595  1  0.105400  0.096000  0.632300  1.0
  H  H1596  1  0.394600  0.404000  0.132300  1.0
  H  H1597  1  0.041300  0.844200  0.413300  1.0
  H  H1598  1  0.458700  0.655800  0.913300  1.0
  H  H1599  1  0.958700  0.155800  0.586700  1.0
  H  H1600  1  0.541300  0.344200  0.086700  1.0
  H  H1601  1  0.961500  0.811500  0.421300  1.0
  H  H1602  1  0.538500  0.688500  0.921300  1.0
  H  H1603  1  0.038500  0.188500  0.578700  1.0
  H  H1604  1  0.461500  0.311500  0.078700  1.0
  H  H1605  1  0.889400  0.869400  0.387500  1.0
  H  H1606  1  0.610600  0.630600  0.887500  1.0
  H  H1607  1  0.110600  0.130600  0.612500  1.0
  H  H1608  1  0.389400  0.369400  0.112500  1.0
  H  H1609  1  0.836200  0.796400  0.389700  1.0
  H  H1610  1  0.663800  0.703600  0.889700  1.0
  H  H1611  1  0.163800  0.203600  0.610300  1.0
  H  H1612  1  0.336200  0.296400  0.110300  1.0
  H  H1613  1  0.763100  0.747600  0.396800  1.0
  H  H1614  1  0.736900  0.752400  0.896800  1.0
  H  H1615  1  0.236900  0.252400  0.603200  1.0
  H  H1616  1  0.263100  0.247600  0.103200  1.0
  H  H1617  1  0.802100  0.761800  0.436800  1.0
  H  H1618  1  0.697900  0.738200  0.936800  1.0
  H  H1619  1  0.197900  0.238200  0.563200  1.0
  H  H1620  1  0.302100  0.261800  0.063200  1.0
  H  H1621  1  0.878500  0.809100  0.431100  1.0
  H  H1622  1  0.621500  0.690900  0.931100  1.0
  H  H1623  1  0.121500  0.190900  0.568900  1.0
  H  H1624  1  0.378500  0.309100  0.068900  1.0
  H  H1625  1  0.162800  0.951700  0.382700  1.0
  H  H1626  1  0.337200  0.548300  0.882700  1.0
  H  H1627  1  0.837200  0.048300  0.617300  1.0
  H  H1628  1  0.662800  0.451700  0.117300  1.0
  H  H1629  1  0.117800  0.986800  0.376700  1.0
  H  H1630  1  0.382200  0.513200  0.876700  1.0
  H  H1631  1  0.882200  0.013200  0.623300  1.0
  H  H1632  1  0.617800  0.486800  0.123300  1.0
  H  H1633  1  0.130100  0.817600  0.383400  1.0
  H  H1634  1  0.369900  0.682400  0.883400  1.0
  H  H1635  1  0.869900  0.182400  0.616600  1.0
  H  H1636  1  0.630100  0.317600  0.116600  1.0
  H  H1637  1  0.111300  0.801700  0.399200  1.0
  H  H1638  1  0.388700  0.698300  0.899200  1.0
  H  H1639  1  0.888700  0.198300  0.600800  1.0
  H  H1640  1  0.611300  0.301700  0.100800  1.0
  H  H1641  1  0.192900  0.019900  0.365900  1.0
  H  H1642  1  0.307100  0.480100  0.865900  1.0
  H  H1643  1  0.807100  0.980100  0.634100  1.0
  H  H1644  1  0.692900  0.519900  0.134100  1.0
  H  H1645  1  0.164600  0.985300  0.353700  1.0
  H  H1646  1  0.335400  0.514700  0.853700  1.0
  H  H1647  1  0.835400  0.014700  0.646300  1.0
  H  H1648  1  0.664600  0.485300  0.146300  1.0
  H  H1649  1  0.187700  0.843500  0.408600  1.0
  H  H1650  1  0.312300  0.656500  0.908600  1.0
  H  H1651  1  0.812300  0.156500  0.591400  1.0
  H  H1652  1  0.687700  0.343500  0.091400  1.0
  H  H1653  1  0.206300  0.859800  0.392900  1.0
  H  H1654  1  0.293700  0.640200  0.892900  1.0
  H  H1655  1  0.793700  0.140200  0.607100  1.0
  H  H1656  1  0.706300  0.359800  0.107100  1.0
  H  H1657  1  0.254700  0.964900  0.355600  1.0
  H  H1658  1  0.245300  0.535100  0.855600  1.0
  H  H1659  1  0.745300  0.035100  0.644400  1.0
  H  H1660  1  0.754700  0.464900  0.144400  1.0
  H  H1661  1  0.246200  0.950000  0.372000  1.0
  H  H1662  1  0.253800  0.550000  0.872000  1.0
  H  H1663  1  0.753800  0.050000  0.628000  1.0
  H  H1664  1  0.746200  0.450000  0.128000  1.0
  H  H1665  1  0.217900  0.915500  0.359800  1.0
  H  H1666  1  0.282100  0.584500  0.859800  1.0
  H  H1667  1  0.782100  0.084500  0.640200  1.0
  H  H1668  1  0.717900  0.415500  0.140200  1.0
  H  H1669  1  0.254600  0.791700  0.401000  1.0
  H  H1670  1  0.245400  0.708300  0.901000  1.0
  H  H1671  1  0.745400  0.208300  0.599000  1.0
  H  H1672  1  0.754600  0.291700  0.099000  1.0
  H  H1673  1  0.201800  0.756600  0.403200  1.0
  H  H1674  1  0.298200  0.743400  0.903200  1.0
  H  H1675  1  0.798200  0.243400  0.596800  1.0
  H  H1676  1  0.701800  0.256600  0.096800  1.0
  H  H1677  1  0.220500  0.773000  0.387500  1.0
  H  H1678  1  0.279500  0.727000  0.887500  1.0
  H  H1679  1  0.779500  0.227000  0.612500  1.0
  H  H1680  1  0.720500  0.273000  0.112500  1.0
  H  H1681  1  0.327500  0.890900  0.400700  1.0
  H  H1682  1  0.172500  0.609100  0.900700  1.0
  H  H1683  1  0.672500  0.109100  0.599300  1.0
  H  H1684  1  0.827500  0.390900  0.099300  1.0
  H  H1685  1  0.324000  0.837200  0.420300  1.0
  H  H1686  1  0.176000  0.662800  0.920300  1.0
  H  H1687  1  0.676000  0.162800  0.579700  1.0
  H  H1688  1  0.824000  0.337200  0.079700  1.0
  H  H1689  1  0.474400  0.814100  0.417000  1.0
  H  H1690  1  0.025600  0.685900  0.917000  1.0
  H  H1691  1  0.525600  0.185900  0.583000  1.0
  H  H1692  1  0.974400  0.314100  0.083000  1.0
  H  H1693  1  0.482400  0.866700  0.397100  1.0
  H  H1694  1  0.017600  0.633300  0.897100  1.0
  H  H1695  1  0.517600  0.133300  0.602900  1.0
  H  H1696  1  0.982400  0.366700  0.102900  1.0
  H  H1697  1  0.362100  0.974000  0.391900  1.0
  H  H1698  1  0.137900  0.526000  0.891900  1.0
  H  H1699  1  0.637900  0.026000  0.608100  1.0
  H  H1700  1  0.862100  0.474000  0.108100  1.0
  H  H1701  1  0.362800  0.026400  0.372300  1.0
  H  H1702  1  0.137200  0.473600  0.872300  1.0
  H  H1703  1  0.637200  0.973600  0.627700  1.0
  H  H1704  1  0.862800  0.526400  0.127700  1.0
  H  H1705  1  0.455800  0.877100  0.372200  1.0
  H  H1706  1  0.044200  0.622900  0.872200  1.0
  H  H1707  1  0.544200  0.122900  0.627800  1.0
  H  H1708  1  0.955800  0.377100  0.127800  1.0
  H  H1709  1  0.501900  0.968600  0.315300  1.0
  H  H1710  1  0.998100  0.531400  0.815300  1.0
  H  H1711  1  0.498100  0.031400  0.684700  1.0
  H  H1712  1  0.001900  0.468600  0.184700  1.0
  H  H1713  1  0.546300  0.894200  0.314600  1.0
  H  H1714  1  0.953700  0.605800  0.814600  1.0
  H  H1715  1  0.453700  0.105800  0.685400  1.0
  H  H1716  1  0.046300  0.394200  0.185400  1.0
  H  H1717  1  0.504100  0.861900  0.355000  1.0
  H  H1718  1  0.995900  0.638100  0.855000  1.0
  H  H1719  1  0.495900  0.138100  0.645000  1.0
  H  H1720  1  0.004100  0.361900  0.145000  1.0
  H  H1721  1  0.541300  0.802400  0.313600  1.0
  H  H1722  1  0.958700  0.697600  0.813600  1.0
  H  H1723  1  0.458700  0.197600  0.686400  1.0
  H  H1724  1  0.041300  0.302400  0.186400  1.0
  H  H1725  1  0.589300  0.729400  0.313400  1.0
  H  H1726  1  0.910700  0.770600  0.813400  1.0
  H  H1727  1  0.410700  0.270600  0.686600  1.0
  H  H1728  1  0.089300  0.229400  0.186600  1.0
  H  H1729  1  0.631300  0.750500  0.353200  1.0
  H  H1730  1  0.868700  0.749500  0.853200  1.0
  H  H1731  1  0.368700  0.249500  0.646800  1.0
  H  H1732  1  0.131300  0.250500  0.146800  1.0
  H  H1733  1  0.587200  0.825500  0.354500  1.0
  H  H1734  1  0.912800  0.674500  0.854500  1.0
  H  H1735  1  0.412800  0.174500  0.645500  1.0
  H  H1736  1  0.087200  0.325500  0.145500  1.0
  H  H1737  1  0.310100  0.023000  0.344600  1.0
  H  H1738  1  0.189900  0.477000  0.844600  1.0
  H  H1739  1  0.689900  0.977000  0.655400  1.0
  H  H1740  1  0.810100  0.523000  0.155400  1.0
  H  H1741  1  0.340000  0.041700  0.330300  1.0
  H  H1742  1  0.160000  0.458300  0.830300  1.0
  H  H1743  1  0.660000  0.958300  0.669700  1.0
  H  H1744  1  0.840000  0.541700  0.169700  1.0
  H  H1745  1  0.521200  0.060700  0.327700  1.0
  H  H1746  1  0.978800  0.439300  0.827700  1.0
  H  H1747  1  0.478800  0.939300  0.672300  1.0
  H  H1748  1  0.021200  0.560700  0.172300  1.0
  H  H1749  1  0.479900  0.099900  0.333600  1.0
  H  H1750  1  0.020100  0.400100  0.833600  1.0
  H  H1751  1  0.520100  0.900100  0.666400  1.0
  H  H1752  1  0.979900  0.599900  0.166400  1.0
  H  H1753  1  0.278900  0.102800  0.333500  1.0
  H  H1754  1  0.221100  0.397200  0.833500  1.0
  H  H1755  1  0.721100  0.897200  0.666500  1.0
  H  H1756  1  0.778900  0.602800  0.166500  1.0
  H  H1757  1  0.332100  0.130700  0.339500  1.0
  H  H1758  1  0.167900  0.369300  0.839500  1.0
  H  H1759  1  0.667900  0.869300  0.660500  1.0
  H  H1760  1  0.832100  0.630700  0.160500  1.0
  H  H1761  1  0.467100  0.133900  0.312200  1.0
  H  H1762  1  0.032900  0.366100  0.812200  1.0
  H  H1763  1  0.532900  0.866100  0.687800  1.0
  H  H1764  1  0.967100  0.633900  0.187800  1.0
  H  H1765  1  0.483600  0.083100  0.304000  1.0
  H  H1766  1  0.016400  0.416900  0.804000  1.0
  H  H1767  1  0.516400  0.916900  0.696000  1.0
  H  H1768  1  0.983600  0.583100  0.196000  1.0
  H  H1769  1  0.263500  0.137600  0.356500  1.0
  H  H1770  1  0.236500  0.362400  0.856500  1.0
  H  H1771  1  0.736500  0.862400  0.643500  1.0
  H  H1772  1  0.763500  0.637600  0.143500  1.0
  H  H1773  1  0.255500  0.076300  0.357000  1.0
  H  H1774  1  0.244500  0.423700  0.857000  1.0
  H  H1775  1  0.744500  0.923700  0.643000  1.0
  H  H1776  1  0.755500  0.576300  0.143000  1.0
  H  H1777  1  0.308500  0.104100  0.363000  1.0
  H  H1778  1  0.191500  0.395900  0.863000  1.0
  H  H1779  1  0.691500  0.895900  0.637000  1.0
  H  H1780  1  0.808500  0.604100  0.137000  1.0
  H  H1781  1  0.552900  0.148300  0.302200  1.0
  H  H1782  1  0.947100  0.351700  0.802200  1.0
  H  H1783  1  0.447100  0.851700  0.697800  1.0
  H  H1784  1  0.052900  0.648300  0.197800  1.0
  H  H1785  1  0.556600  0.151100  0.319200  1.0
  H  H1786  1  0.943400  0.348900  0.819200  1.0
  H  H1787  1  0.443400  0.848900  0.680800  1.0
  H  H1788  1  0.056600  0.651100  0.180800  1.0
  H  H1789  1  0.573000  0.100500  0.311000  1.0
  H  H1790  1  0.927000  0.399500  0.811000  1.0
  H  H1791  1  0.427000  0.899500  0.689000  1.0
  H  H1792  1  0.073000  0.600500  0.189000  1.0
  Pd  Pd1793  1  0.391140  0.776170  0.437940  1.0
  Pd  Pd1794  1  0.108860  0.723830  0.937940  1.0
  Pd  Pd1795  1  0.608860  0.223830  0.562060  1.0
  Pd  Pd1796  1  0.891140  0.276170  0.062060  1.0
  Pd  Pd1797  1  0.766940  0.753710  0.510900  1.0
  Pd  Pd1798  1  0.733060  0.746290  0.010900  1.0
  Pd  Pd1799  1  0.233060  0.246290  0.489100  1.0
  Pd  Pd1800  1  0.266940  0.253710  0.989100  1.0
  Pd  Pd1801  1  0.034520  0.629010  0.408410  1.0
  Pd  Pd1802  1  0.465480  0.870990  0.908410  1.0
  Pd  Pd1803  1  0.965480  0.370990  0.591590  1.0
  Pd  Pd1804  1  0.534520  0.129010  0.091590  1.0
  Pd  Pd1805  1  0.654270  0.668040  0.332790  1.0
  Pd  Pd1806  1  0.845730  0.831960  0.832790  1.0
  Pd  Pd1807  1  0.345730  0.331960  0.667210  1.0
  Pd  Pd1808  1  0.154270  0.168040  0.167210  1.0
  Pd  Pd1809  1  0.708980  0.706870  0.421270  1.0
  Pd  Pd1810  1  0.791020  0.793130  0.921270  1.0
  Pd  Pd1811  1  0.291020  0.293130  0.578730  1.0
  Pd  Pd1812  1  0.208980  0.206870  0.078730  1.0
  Pd  Pd1813  1  0.724630  0.983400  0.316290  1.0
  Pd  Pd1814  1  0.775370  0.516600  0.816290  1.0
  Pd  Pd1815  1  0.275370  0.016600  0.683710  1.0
  Pd  Pd1816  1  0.224630  0.483400  0.183710  1.0
  Pd  Pd1817  1  0.565000  0.626700  0.245740  1.0
  Pd  Pd1818  1  0.935000  0.873300  0.745740  1.0
  Pd  Pd1819  1  0.435000  0.373300  0.754260  1.0
  Pd  Pd1820  1  0.065000  0.126700  0.254260  1.0
  Pd  Pd1821  1  0.567740  0.332120  0.344710  1.0
  Pd  Pd1822  1  0.932260  0.167880  0.844710  1.0
  Pd  Pd1823  1  0.432260  0.667880  0.655290  1.0
  Pd  Pd1824  1  0.067740  0.832120  0.155290  1.0
  C  C1825  1  0.351000  0.621600  0.410640  1.0
  C  C1826  1  0.149000  0.878400  0.910640  1.0
  C  C1827  1  0.649000  0.378400  0.589360  1.0
  C  C1828  1  0.851000  0.121600  0.089360  1.0
  C  C1829  1  0.402300  0.640300  0.413110  1.0
  C  C1830  1  0.097700  0.859700  0.913110  1.0
  C  C1831  1  0.597700  0.359700  0.586890  1.0
  C  C1832  1  0.902300  0.140300  0.086890  1.0
  C  C1833  1  0.411100  0.684600  0.420960  1.0
  C  C1834  1  0.088900  0.815400  0.920960  1.0
  C  C1835  1  0.588900  0.315400  0.579040  1.0
  C  C1836  1  0.911100  0.184600  0.079040  1.0
  C  C1837  1  0.323800  0.694300  0.423700  1.0
  C  C1838  1  0.176200  0.805700  0.923700  1.0
  C  C1839  1  0.676200  0.305700  0.576300  1.0
  C  C1840  1  0.823800  0.194300  0.076300  1.0
  C  C1841  1  0.311000  0.650300  0.416100  1.0
  C  C1842  1  0.189000  0.849700  0.916100  1.0
  C  C1843  1  0.689000  0.349700  0.583900  1.0
  C  C1844  1  0.811000  0.150300  0.083900  1.0
  C  C1845  1  0.339100  0.574100  0.402220  1.0
  C  C1846  1  0.160900  0.925900  0.902220  1.0
  C  C1847  1  0.660900  0.425900  0.597780  1.0
  C  C1848  1  0.839100  0.074100  0.097780  1.0
  C  C1849  1  0.296200  0.541000  0.405690  1.0
  C  C1850  1  0.203800  0.959000  0.905690  1.0
  C  C1851  1  0.703800  0.459000  0.594310  1.0
  C  C1852  1  0.796200  0.041000  0.094310  1.0
  C  C1853  1  0.283700  0.498800  0.397610  1.0
  C  C1854  1  0.216300  0.001200  0.897610  1.0
  C  C1855  1  0.716300  0.501200  0.602390  1.0
  C  C1856  1  0.783700  0.998800  0.102390  1.0
  C  C1857  1  0.313200  0.486200  0.385470  1.0
  C  C1858  1  0.186800  0.013800  0.885470  1.0
  C  C1859  1  0.686800  0.513800  0.614530  1.0
  C  C1860  1  0.813200  0.986200  0.114530  1.0
  C  C1861  1  0.356800  0.519500  0.381570  1.0
  C  C1862  1  0.143200  0.980500  0.881570  1.0
  C  C1863  1  0.643200  0.480500  0.618430  1.0
  C  C1864  1  0.856800  0.019500  0.118430  1.0
  C  C1865  1  0.368500  0.562500  0.390410  1.0
  C  C1866  1  0.131500  0.937500  0.890410  1.0
  C  C1867  1  0.631500  0.437500  0.609590  1.0
  C  C1868  1  0.868500  0.062500  0.109590  1.0
  C  C1869  1  0.299600  0.443200  0.376640  1.0
  C  C1870  1  0.200400  0.056800  0.876640  1.0
  C  C1871  1  0.700400  0.556800  0.623360  1.0
  C  C1872  1  0.799600  0.943200  0.123360  1.0
  C  C1873  1  0.326600  0.432900  0.364640  1.0
  C  C1874  1  0.173400  0.067100  0.864640  1.0
  C  C1875  1  0.673400  0.567100  0.635360  1.0
  C  C1876  1  0.826600  0.932900  0.135360  1.0
  C  C1877  1  0.370500  0.465000  0.360320  1.0
  C  C1878  1  0.129500  0.035000  0.860320  1.0
  C  C1879  1  0.629500  0.535000  0.639680  1.0
  C  C1880  1  0.870500  0.965000  0.139680  1.0
  C  C1881  1  0.385700  0.508500  0.368850  1.0
  C  C1882  1  0.114300  0.991500  0.868850  1.0
  C  C1883  1  0.614300  0.491500  0.631150  1.0
  C  C1884  1  0.885700  0.008500  0.131150  1.0
  C  C1885  1  0.399600  0.455300  0.347830  1.0
  C  C1886  1  0.100400  0.044700  0.847830  1.0
  C  C1887  1  0.600400  0.544700  0.652170  1.0
  C  C1888  1  0.899600  0.955300  0.152170  1.0
  C  C1889  1  0.441100  0.487000  0.344070  1.0
  C  C1890  1  0.058900  0.013000  0.844070  1.0
  C  C1891  1  0.558900  0.513000  0.655930  1.0
  C  C1892  1  0.941100  0.987000  0.155930  1.0
  C  C1893  1  0.456400  0.530200  0.352060  1.0
  C  C1894  1  0.043600  0.969800  0.852060  1.0
  C  C1895  1  0.543600  0.469800  0.647940  1.0
  C  C1896  1  0.956400  0.030200  0.147940  1.0
  C  C1897  1  0.429100  0.540000  0.364270  1.0
  C  C1898  1  0.070900  0.960000  0.864270  1.0
  C  C1899  1  0.570900  0.460000  0.635730  1.0
  C  C1900  1  0.929100  0.040000  0.135730  1.0
  C  C1901  1  0.501700  0.565100  0.347490  1.0
  C  C1902  1  0.998300  0.934900  0.847490  1.0
  C  C1903  1  0.498300  0.434900  0.652510  1.0
  C  C1904  1  0.001700  0.065100  0.152510  1.0
  C  C1905  1  0.513100  0.573500  0.333160  1.0
  C  C1906  1  0.986900  0.926500  0.833160  1.0
  C  C1907  1  0.486900  0.426500  0.666840  1.0
  C  C1908  1  0.013100  0.073500  0.166840  1.0
  C  C1909  1  0.556900  0.603300  0.329360  1.0
  C  C1910  1  0.943100  0.896700  0.829360  1.0
  C  C1911  1  0.443100  0.396700  0.670640  1.0
  C  C1912  1  0.056900  0.103300  0.170640  1.0
  C  C1913  1  0.578700  0.619000  0.352400  1.0
  C  C1914  1  0.921300  0.881000  0.852400  1.0
  C  C1915  1  0.421300  0.381000  0.647600  1.0
  C  C1916  1  0.078700  0.119000  0.147600  1.0
  C  C1917  1  0.535800  0.589500  0.357290  1.0
  C  C1918  1  0.964200  0.910500  0.857290  1.0
  C  C1919  1  0.464200  0.410500  0.642710  1.0
  C  C1920  1  0.035800  0.089500  0.142710  1.0
  C  C1921  1  0.210500  0.420200  0.371100  1.0
  C  C1922  1  0.289500  0.079800  0.871100  1.0
  C  C1923  1  0.789500  0.579800  0.628900  1.0
  C  C1924  1  0.710500  0.920200  0.128900  1.0
  C  C1925  1  0.328300  0.343500  0.361100  1.0
  C  C1926  1  0.171700  0.156500  0.861100  1.0
  C  C1927  1  0.671700  0.656500  0.638900  1.0
  C  C1928  1  0.828300  0.843500  0.138900  1.0
  C  C1929  1  0.165300  0.384000  0.376100  1.0
  C  C1930  1  0.334700  0.116000  0.876100  1.0
  C  C1931  1  0.834700  0.616000  0.623900  1.0
  C  C1932  1  0.665300  0.884000  0.123900  1.0
  C  C1933  1  0.322000  0.304400  0.348800  1.0
  C  C1934  1  0.178000  0.195600  0.848800  1.0
  C  C1935  1  0.678000  0.695600  0.651200  1.0
  C  C1936  1  0.822000  0.804400  0.151200  1.0
  C  C1937  1  0.148700  0.407000  0.390800  1.0
  C  C1938  1  0.351300  0.093000  0.890800  1.0
  C  C1939  1  0.851300  0.593000  0.609200  1.0
  C  C1940  1  0.648700  0.907000  0.109200  1.0
  C  C1941  1  0.291000  0.257400  0.352800  1.0
  C  C1942  1  0.209000  0.242600  0.852800  1.0
  C  C1943  1  0.709000  0.742600  0.647200  1.0
  C  C1944  1  0.791000  0.757400  0.147200  1.0
  C  C1945  1  0.967300  0.483500  0.381300  1.0
  C  C1946  1  0.532700  0.016500  0.881300  1.0
  C  C1947  1  0.032700  0.516500  0.618700  1.0
  C  C1948  1  0.467300  0.983500  0.118700  1.0
  C  C1949  1  0.021300  0.493200  0.383300  1.0
  C  C1950  1  0.478700  0.006800  0.883300  1.0
  C  C1951  1  0.978700  0.506800  0.616700  1.0
  C  C1952  1  0.521300  0.993200  0.116700  1.0
  C  C1953  1  0.038800  0.534900  0.391600  1.0
  C  C1954  1  0.461200  0.965100  0.891600  1.0
  C  C1955  1  0.961200  0.465100  0.608400  1.0
  C  C1956  1  0.538800  0.034900  0.108400  1.0
  C  C1957  1  0.955100  0.558000  0.395700  1.0
  C  C1958  1  0.544900  0.942000  0.895700  1.0
  C  C1959  1  0.044900  0.442000  0.604300  1.0
  C  C1960  1  0.455100  0.058000  0.104300  1.0
  C  C1961  1  0.933700  0.517400  0.387800  1.0
  C  C1962  1  0.566300  0.982600  0.887800  1.0
  C  C1963  1  0.066300  0.482600  0.612200  1.0
  C  C1964  1  0.433700  0.017400  0.112200  1.0
  C  C1965  1  0.946700  0.438400  0.372900  1.0
  C  C1966  1  0.553300  0.061600  0.872900  1.0
  C  C1967  1  0.053300  0.561600  0.627100  1.0
  C  C1968  1  0.446700  0.938400  0.127100  1.0
  C  C1969  1  0.972300  0.392400  0.372600  1.0
  C  C1970  1  0.527700  0.107600  0.872600  1.0
  C  C1971  1  0.027700  0.607600  0.627400  1.0
  C  C1972  1  0.472300  0.892400  0.127400  1.0
  C  C1973  1  0.953600  0.351300  0.364800  1.0
  C  C1974  1  0.546400  0.148700  0.864800  1.0
  C  C1975  1  0.046400  0.648700  0.635200  1.0
  C  C1976  1  0.453600  0.851300  0.135200  1.0
  C  C1977  1  0.907100  0.353900  0.356600  1.0
  C  C1978  1  0.592900  0.146100  0.856600  1.0
  C  C1979  1  0.092900  0.646100  0.643400  1.0
  C  C1980  1  0.407100  0.853900  0.143400  1.0
  C  C1981  1  0.881000  0.400800  0.356400  1.0
  C  C1982  1  0.619000  0.099200  0.856400  1.0
  C  C1983  1  0.119000  0.599200  0.643600  1.0
  C  C1984  1  0.381000  0.900800  0.143600  1.0
  C  C1985  1  0.901800  0.441500  0.364900  1.0
  C  C1986  1  0.598200  0.058500  0.864900  1.0
  C  C1987  1  0.098200  0.558500  0.635100  1.0
  C  C1988  1  0.401800  0.941500  0.135100  1.0
  C  C1989  1  0.886000  0.312400  0.348300  1.0
  C  C1990  1  0.614000  0.187600  0.848300  1.0
  C  C1991  1  0.114000  0.687600  0.651700  1.0
  C  C1992  1  0.386000  0.812400  0.151700  1.0
  C  C1993  1  0.842400  0.316700  0.340200  1.0
  C  C1994  1  0.657600  0.183300  0.840200  1.0
  C  C1995  1  0.157600  0.683300  0.659800  1.0
  C  C1996  1  0.342400  0.816700  0.159800  1.0
  C  C1997  1  0.816000  0.363500  0.339300  1.0
  C  C1998  1  0.684000  0.136500  0.839300  1.0
  C  C1999  1  0.184000  0.636500  0.660700  1.0
  C  C2000  1  0.316000  0.863500  0.160700  1.0
  C  C2001  1  0.835500  0.406200  0.347560  1.0
  C  C2002  1  0.664500  0.093800  0.847560  1.0
  C  C2003  1  0.164500  0.593800  0.652440  1.0
  C  C2004  1  0.335500  0.906200  0.152440  1.0
  C  C2005  1  0.771700  0.370300  0.330600  1.0
  C  C2006  1  0.728300  0.129700  0.830600  1.0
  C  C2007  1  0.228300  0.629700  0.669400  1.0
  C  C2008  1  0.271700  0.870300  0.169400  1.0
  C  C2009  1  0.749600  0.416300  0.329600  1.0
  C  C2010  1  0.750400  0.083700  0.829600  1.0
  C  C2011  1  0.250400  0.583700  0.670400  1.0
  C  C2012  1  0.249600  0.916300  0.170400  1.0
  C  C2013  1  0.768600  0.459400  0.337200  1.0
  C  C2014  1  0.731400  0.040600  0.837200  1.0
  C  C2015  1  0.231400  0.540600  0.662800  1.0
  C  C2016  1  0.268600  0.959400  0.162800  1.0
  C  C2017  1  0.810200  0.452800  0.346200  1.0
  C  C2018  1  0.689800  0.047200  0.846200  1.0
  C  C2019  1  0.189800  0.547200  0.653800  1.0
  C  C2020  1  0.310200  0.952800  0.153800  1.0
  C  C2021  1  0.744700  0.509800  0.335600  1.0
  C  C2022  1  0.755300  0.990200  0.835600  1.0
  C  C2023  1  0.255300  0.490200  0.664400  1.0
  C  C2024  1  0.244700  0.009800  0.164400  1.0
  C  C2025  1  0.723700  0.525800  0.322690  1.0
  C  C2026  1  0.776300  0.974200  0.822690  1.0
  C  C2027  1  0.276300  0.474200  0.677310  1.0
  C  C2028  1  0.223700  0.025800  0.177310  1.0
  C  C2029  1  0.697800  0.571300  0.322300  1.0
  C  C2030  1  0.802200  0.928700  0.822300  1.0
  C  C2031  1  0.302200  0.428700  0.677700  1.0
  C  C2032  1  0.197800  0.071300  0.177700  1.0
  C  C2033  1  0.713400  0.587100  0.345700  1.0
  C  C2034  1  0.786600  0.912900  0.845700  1.0
  C  C2035  1  0.286600  0.412900  0.654300  1.0
  C  C2036  1  0.213400  0.087100  0.154300  1.0
  C  C2037  1  0.739300  0.542000  0.347340  1.0
  C  C2038  1  0.760700  0.958000  0.847340  1.0
  C  C2039  1  0.260700  0.458000  0.652660  1.0
  C  C2040  1  0.239300  0.042000  0.152660  1.0
  C  C2041  1  0.952300  0.264100  0.338200  1.0
  C  C2042  1  0.547700  0.235900  0.838200  1.0
  C  C2043  1  0.047700  0.735900  0.661800  1.0
  C  C2044  1  0.452300  0.764100  0.161800  1.0
  C  C2045  1  0.804300  0.229900  0.339700  1.0
  C  C2046  1  0.695700  0.270100  0.839700  1.0
  C  C2047  1  0.195700  0.770100  0.660300  1.0
  C  C2048  1  0.304300  0.729900  0.160300  1.0
  C  C2049  1  0.989000  0.223000  0.342300  1.0
  C  C2050  1  0.511000  0.277000  0.842300  1.0
  C  C2051  1  0.011000  0.777000  0.657700  1.0
  C  C2052  1  0.489000  0.723000  0.157700  1.0
  C  C2053  1  0.747500  0.223700  0.343100  1.0
  C  C2054  1  0.752500  0.276300  0.843100  1.0
  C  C2055  1  0.252500  0.776300  0.656900  1.0
  C  C2056  1  0.247500  0.723700  0.156900  1.0
  C  C2057  1  0.023000  0.233000  0.355300  1.0
  C  C2058  1  0.477000  0.267000  0.855300  1.0
  C  C2059  1  0.977000  0.767000  0.644700  1.0
  C  C2060  1  0.523000  0.733000  0.144700  1.0
  C  C2061  1  0.723000  0.172000  0.341200  1.0
  C  C2062  1  0.777000  0.328000  0.841200  1.0
  C  C2063  1  0.277000  0.828000  0.658800  1.0
  C  C2064  1  0.223000  0.672000  0.158800  1.0
  C  C2065  1  0.080900  0.781400  0.435650  1.0
  C  C2066  1  0.419100  0.718600  0.935650  1.0
  C  C2067  1  0.919100  0.218600  0.564350  1.0
  C  C2068  1  0.580900  0.281400  0.064350  1.0
  C  C2069  1  0.119000  0.754700  0.428600  1.0
  C  C2070  1  0.381000  0.745300  0.928600  1.0
  C  C2071  1  0.881000  0.245300  0.571400  1.0
  C  C2072  1  0.619000  0.254700  0.071400  1.0
  C  C2073  1  0.104100  0.711400  0.420700  1.0
  C  C2074  1  0.395900  0.788600  0.920700  1.0
  C  C2075  1  0.895900  0.288600  0.579300  1.0
  C  C2076  1  0.604100  0.211400  0.079300  1.0
  C  C2077  1  0.018100  0.717900  0.426300  1.0
  C  C2078  1  0.481900  0.782100  0.926300  1.0
  C  C2079  1  0.981900  0.282100  0.573700  1.0
  C  C2080  1  0.518100  0.217900  0.073700  1.0
  C  C2081  1  0.029500  0.761700  0.434400  1.0
  C  C2082  1  0.470500  0.738300  0.934400  1.0
  C  C2083  1  0.970500  0.238300  0.565600  1.0
  C  C2084  1  0.529500  0.261700  0.065600  1.0
  C  C2085  1  0.095300  0.828100  0.444230  1.0
  C  C2086  1  0.404700  0.671900  0.944230  1.0
  C  C2087  1  0.904700  0.171900  0.555770  1.0
  C  C2088  1  0.595300  0.328100  0.055770  1.0
  C  C2089  1  0.138000  0.861100  0.440400  1.0
  C  C2090  1  0.362000  0.638900  0.940400  1.0
  C  C2091  1  0.862000  0.138900  0.559600  1.0
  C  C2092  1  0.638000  0.361100  0.059600  1.0
  C  C2093  1  0.152100  0.902900  0.448500  1.0
  C  C2094  1  0.347900  0.597100  0.948500  1.0
  C  C2095  1  0.847900  0.097100  0.551500  1.0
  C  C2096  1  0.652100  0.402900  0.051500  1.0
  C  C2097  1  0.123800  0.915600  0.460890  1.0
  C  C2098  1  0.376200  0.584400  0.960890  1.0
  C  C2099  1  0.876200  0.084400  0.539110  1.0
  C  C2100  1  0.623800  0.415600  0.039110  1.0
  C  C2101  1  0.079400  0.883400  0.464880  1.0
  C  C2102  1  0.420600  0.616600  0.964880  1.0
  C  C2103  1  0.920600  0.116600  0.535120  1.0
  C  C2104  1  0.579400  0.383400  0.035120  1.0
  C  C2105  1  0.067100  0.840100  0.456240  1.0
  C  C2106  1  0.432900  0.659900  0.956240  1.0
  C  C2107  1  0.932900  0.159900  0.543760  1.0
  C  C2108  1  0.567100  0.340100  0.043760  1.0
  C  C2109  1  0.138000  0.959100  0.469490  1.0
  C  C2110  1  0.362000  0.540900  0.969490  1.0
  C  C2111  1  0.862000  0.040900  0.530510  1.0
  C  C2112  1  0.638000  0.459100  0.030510  1.0
  C  C2113  1  0.111400  0.968500  0.481570  1.0
  C  C2114  1  0.388600  0.531500  0.981570  1.0
  C  C2115  1  0.888600  0.031500  0.518430  1.0
  C  C2116  1  0.611400  0.468500  0.018430  1.0
  C  C2117  1  0.066400  0.937800  0.485950  1.0
  C  C2118  1  0.433600  0.562200  0.985950  1.0
  C  C2119  1  0.933600  0.062200  0.514050  1.0
  C  C2120  1  0.566400  0.437800  0.014050  1.0
  C  C2121  1  0.049000  0.895000  0.477450  1.0
  C  C2122  1  0.451000  0.605000  0.977450  1.0
  C  C2123  1  0.951000  0.105000  0.522550  1.0
  C  C2124  1  0.549000  0.395000  0.022550  1.0
  C  C2125  1  0.037500  0.949000  0.498330  1.0
  C  C2126  1  0.462500  0.551000  0.998330  1.0
  C  C2127  1  0.962500  0.051000  0.501670  1.0
  C  C2128  1  0.537500  0.449000  0.001670  1.0
  C  C2129  1  0.993200  0.921100  0.502000  1.0
  C  C2130  1  0.506800  0.578900  0.002000  1.0
  C  C2131  1  0.006800  0.078900  0.498000  1.0
  C  C2132  1  0.493200  0.421100  0.998000  1.0
  C  C2133  1  0.973500  0.880100  0.493600  1.0
  C  C2134  1  0.526500  0.619900  0.993600  1.0
  C  C2135  1  0.026500  0.119900  0.506400  1.0
  C  C2136  1  0.473500  0.380100  0.006400  1.0
  C  C2137  1  0.002300  0.867700  0.481680  1.0
  C  C2138  1  0.497700  0.632300  0.981680  1.0
  C  C2139  1  0.997700  0.132300  0.518320  1.0
  C  C2140  1  0.502300  0.367700  0.018320  1.0
  C  C2141  1  0.924300  0.850800  0.497800  1.0
  C  C2142  1  0.575700  0.649200  0.997800  1.0
  C  C2143  1  0.075700  0.149200  0.502200  1.0
  C  C2144  1  0.424300  0.350800  0.002200  1.0
  C  C2145  1  0.908400  0.846400  0.511950  1.0
  C  C2146  1  0.591600  0.653600  0.011950  1.0
  C  C2147  1  0.091600  0.153600  0.488050  1.0
  C  C2148  1  0.408400  0.346400  0.988050  1.0
  C  C2149  1  0.862000  0.818900  0.515300  1.0
  C  C2150  1  0.638000  0.681100  0.015300  1.0
  C  C2151  1  0.138000  0.181100  0.484700  1.0
  C  C2152  1  0.362000  0.318900  0.984700  1.0
  C  C2153  1  0.846100  0.800000  0.492000  1.0
  C  C2154  1  0.653900  0.700000  0.992000  1.0
  C  C2155  1  0.153900  0.200000  0.508000  1.0
  C  C2156  1  0.346100  0.300000  0.008000  1.0
  C  C2157  1  0.892000  0.826700  0.487620  1.0
  C  C2158  1  0.608000  0.673300  0.987620  1.0
  C  C2159  1  0.108000  0.173300  0.512380  1.0
  C  C2160  1  0.392000  0.326700  0.012380  1.0
  C  C2161  1  0.162900  0.045200  0.463000  1.0
  C  C2162  1  0.337100  0.454800  0.963000  1.0
  C  C2163  1  0.837100  0.954800  0.537000  1.0
  C  C2164  1  0.662900  0.545200  0.037000  1.0
  C  C2165  1  0.173300  0.002300  0.498900  1.0
  C  C2166  1  0.326700  0.497700  0.998900  1.0
  C  C2167  1  0.826700  0.997700  0.501100  1.0
  C  C2168  1  0.673300  0.502300  0.001100  1.0
  C  C2169  1  0.178000  0.072200  0.449800  1.0
  C  C2170  1  0.322000  0.427800  0.949800  1.0
  C  C2171  1  0.822000  0.927800  0.550200  1.0
  C  C2172  1  0.678000  0.572200  0.050200  1.0
  C  C2173  1  0.181700  0.047000  0.508700  1.0
  C  C2174  1  0.318300  0.453000  0.008700  1.0
  C  C2175  1  0.818300  0.953000  0.491300  1.0
  C  C2176  1  0.681700  0.547000  0.991300  1.0
  C  C2177  1  0.202400  0.043600  0.438200  1.0
  C  C2178  1  0.297600  0.456400  0.938200  1.0
  C  C2179  1  0.797600  0.956400  0.561800  1.0
  C  C2180  1  0.702400  0.543600  0.061800  1.0
  C  C2181  1  0.147600  0.041700  0.522700  1.0
  C  C2182  1  0.352400  0.458300  0.022700  1.0
  C  C2183  1  0.852400  0.958300  0.477300  1.0
  C  C2184  1  0.647600  0.541700  0.977300  1.0
  C  C2185  1  0.451500  0.927800  0.463780  1.0
  C  C2186  1  0.048500  0.572200  0.963780  1.0
  C  C2187  1  0.548500  0.072200  0.536220  1.0
  C  C2188  1  0.951500  0.427800  0.036220  1.0
  C  C2189  1  0.400700  0.923000  0.458620  1.0
  C  C2190  1  0.099300  0.577000  0.958620  1.0
  C  C2191  1  0.599300  0.077000  0.541380  1.0
  C  C2192  1  0.900700  0.423000  0.041380  1.0
  C  C2193  1  0.383500  0.878600  0.451650  1.0
  C  C2194  1  0.116500  0.621400  0.951650  1.0
  C  C2195  1  0.616500  0.121400  0.548350  1.0
  C  C2196  1  0.883500  0.378600  0.048350  1.0
  C  C2197  1  0.461600  0.842400  0.455000  1.0
  C  C2198  1  0.038400  0.657600  0.955000  1.0
  C  C2199  1  0.538400  0.157600  0.545000  1.0
  C  C2200  1  0.961600  0.342400  0.045000  1.0
  C  C2201  1  0.482600  0.885600  0.461900  1.0
  C  C2202  1  0.017400  0.614400  0.961900  1.0
  C  C2203  1  0.517400  0.114400  0.538100  1.0
  C  C2204  1  0.982600  0.385600  0.038100  1.0
  C  C2205  1  0.473200  0.975100  0.470860  1.0
  C  C2206  1  0.026800  0.524900  0.970860  1.0
  C  C2207  1  0.526800  0.024900  0.529140  1.0
  C  C2208  1  0.973200  0.475100  0.029140  1.0
  C  C2209  1  0.451400  0.022500  0.469090  1.0
  C  C2210  1  0.048600  0.477500  0.969090  1.0
  C  C2211  1  0.548600  0.977500  0.530910  1.0
  C  C2212  1  0.951400  0.522500  0.030910  1.0
  C  C2213  1  0.472400  0.066000  0.475270  1.0
  C  C2214  1  0.027600  0.434000  0.975270  1.0
  C  C2215  1  0.527600  0.934000  0.524730  1.0
  C  C2216  1  0.972400  0.566000  0.024730  1.0
  C  C2217  1  0.517900  0.064500  0.483980  1.0
  C  C2218  1  0.982100  0.435500  0.983980  1.0
  C  C2219  1  0.482100  0.935500  0.516020  1.0
  C  C2220  1  0.017900  0.564500  0.016020  1.0
  C  C2221  1  0.541600  0.016800  0.485790  1.0
  C  C2222  1  0.958400  0.483200  0.985790  1.0
  C  C2223  1  0.458400  0.983200  0.514210  1.0
  C  C2224  1  0.041600  0.516800  0.014210  1.0
  C  C2225  1  0.517800  0.973100  0.479110  1.0
  C  C2226  1  0.982200  0.526900  0.979110  1.0
  C  C2227  1  0.482200  0.026900  0.520890  1.0
  C  C2228  1  0.017800  0.473100  0.020890  1.0
  C  C2229  1  0.540900  0.108800  0.490940  1.0
  C  C2230  1  0.959100  0.391200  0.990940  1.0
  C  C2231  1  0.459100  0.891200  0.509060  1.0
  C  C2232  1  0.040900  0.608800  0.009060  1.0
  C  C2233  1  0.584100  0.106300  0.499300  1.0
  C  C2234  1  0.915900  0.393700  0.999300  1.0
  C  C2235  1  0.415900  0.893700  0.500700  1.0
  C  C2236  1  0.084100  0.606300  0.000700  1.0
  C  C2237  1  0.608600  0.058900  0.501420  1.0
  C  C2238  1  0.891400  0.441100  0.001420  1.0
  C  C2239  1  0.391400  0.941100  0.498580  1.0
  C  C2240  1  0.108600  0.558900  0.998580  1.0
  C  C2241  1  0.587500  0.014000  0.494550  1.0
  C  C2242  1  0.912500  0.486000  0.994550  1.0
  C  C2243  1  0.412500  0.986000  0.505450  1.0
  C  C2244  1  0.087500  0.514000  0.005450  1.0
  C  C2245  1  0.653600  0.055100  0.510120  1.0
  C  C2246  1  0.846400  0.444900  0.010120  1.0
  C  C2247  1  0.346400  0.944900  0.489880  1.0
  C  C2248  1  0.153600  0.555100  0.989880  1.0
  C  C2249  1  0.677000  0.009700  0.511600  1.0
  C  C2250  1  0.823000  0.490300  0.011600  1.0
  C  C2251  1  0.323000  0.990300  0.488400  1.0
  C  C2252  1  0.177000  0.509700  0.988400  1.0
  C  C2253  1  0.657300  0.965000  0.505130  1.0
  C  C2254  1  0.842700  0.535000  0.005130  1.0
  C  C2255  1  0.342700  0.035000  0.494870  1.0
  C  C2256  1  0.157300  0.465000  0.994870  1.0
  C  C2257  1  0.612900  0.967900  0.496720  1.0
  C  C2258  1  0.887100  0.532100  0.996720  1.0
  C  C2259  1  0.387100  0.032100  0.503280  1.0
  C  C2260  1  0.112900  0.467900  0.003280  1.0
  C  C2261  1  0.681900  0.915000  0.507060  1.0
  C  C2262  1  0.818100  0.585000  0.007060  1.0
  C  C2263  1  0.318100  0.085000  0.492940  1.0
  C  C2264  1  0.181900  0.415000  0.992940  1.0
  C  C2265  1  0.687000  0.881500  0.495650  1.0
  C  C2266  1  0.813000  0.618500  0.995650  1.0
  C  C2267  1  0.313000  0.118500  0.504350  1.0
  C  C2268  1  0.187000  0.381500  0.004350  1.0
  C  C2269  1  0.709900  0.835500  0.497650  1.0
  C  C2270  1  0.790100  0.664500  0.997650  1.0
  C  C2271  1  0.290100  0.164500  0.502350  1.0
  C  C2272  1  0.209900  0.335500  0.002350  1.0
  C  C2273  1  0.722900  0.851800  0.521040  1.0
  C  C2274  1  0.777100  0.648200  0.021040  1.0
  C  C2275  1  0.277100  0.148200  0.478960  1.0
  C  C2276  1  0.222900  0.351800  0.978960  1.0
  C  C2277  1  0.700300  0.898500  0.520160  1.0
  C  C2278  1  0.799700  0.601500  0.020160  1.0
  C  C2279  1  0.299700  0.101500  0.479840  1.0
  C  C2280  1  0.200300  0.398500  0.979840  1.0
  C  C2281  1  0.493200  0.176100  0.500700  1.0
  C  C2282  1  0.006800  0.323900  0.000700  1.0
  C  C2283  1  0.506800  0.823900  0.499300  1.0
  C  C2284  1  0.993200  0.676100  0.999300  1.0
  C  C2285  1  0.638500  0.180900  0.495700  1.0
  C  C2286  1  0.861500  0.319100  0.995700  1.0
  C  C2287  1  0.361500  0.819100  0.504300  1.0
  C  C2288  1  0.138500  0.680900  0.004300  1.0
  C  C2289  1  0.462700  0.220500  0.495000  1.0
  C  C2290  1  0.037300  0.279500  0.995000  1.0
  C  C2291  1  0.537300  0.779500  0.505000  1.0
  C  C2292  1  0.962700  0.720500  0.005000  1.0
  C  C2293  1  0.653100  0.231100  0.502000  1.0
  C  C2294  1  0.846900  0.268900  0.002000  1.0
  C  C2295  1  0.346900  0.768900  0.498000  1.0
  C  C2296  1  0.153100  0.731100  0.998000  1.0
  C  C2297  1  0.421700  0.201900  0.484800  1.0
  C  C2298  1  0.078300  0.298100  0.984800  1.0
  C  C2299  1  0.578300  0.798100  0.515200  1.0
  C  C2300  1  0.921700  0.701900  0.015200  1.0
  C  C2301  1  0.675000  0.263900  0.489200  1.0
  C  C2302  1  0.825000  0.236100  0.989200  1.0
  C  C2303  1  0.325000  0.736100  0.510800  1.0
  C  C2304  1  0.175000  0.763900  0.010800  1.0
  C  C2305  1  0.382100  0.668900  0.479310  1.0
  C  C2306  1  0.117900  0.831100  0.979310  1.0
  C  C2307  1  0.617900  0.331100  0.520690  1.0
  C  C2308  1  0.882100  0.168900  0.020690  1.0
  C  C2309  1  0.336700  0.689400  0.473800  1.0
  C  C2310  1  0.163300  0.810600  0.973800  1.0
  C  C2311  1  0.663300  0.310600  0.526200  1.0
  C  C2312  1  0.836700  0.189400  0.026200  1.0
  C  C2313  1  0.341200  0.721300  0.462060  1.0
  C  C2314  1  0.158800  0.778700  0.962060  1.0
  C  C2315  1  0.658800  0.278700  0.537940  1.0
  C  C2316  1  0.841200  0.221300  0.037940  1.0
  C  C2317  1  0.429500  0.713900  0.460770  1.0
  C  C2318  1  0.070500  0.786100  0.960770  1.0
  C  C2319  1  0.570500  0.286100  0.539230  1.0
  C  C2320  1  0.929500  0.213900  0.039230  1.0
  C  C2321  1  0.429200  0.681600  0.472460  1.0
  C  C2322  1  0.070800  0.818400  0.972460  1.0
  C  C2323  1  0.570800  0.318400  0.527540  1.0
  C  C2324  1  0.929200  0.181600  0.027540  1.0
  C  C2325  1  0.380600  0.634800  0.492010  1.0
  C  C2326  1  0.119400  0.865200  0.992010  1.0
  C  C2327  1  0.619400  0.365200  0.507990  1.0
  C  C2328  1  0.880600  0.134800  0.007990  1.0
  C  C2329  1  0.336200  0.603500  0.495100  1.0
  C  C2330  1  0.163800  0.896500  0.995100  1.0
  C  C2331  1  0.663800  0.396500  0.504900  1.0
  C  C2332  1  0.836200  0.103500  0.004900  1.0
  C  C2333  1  0.334300  0.572700  0.506760  1.0
  C  C2334  1  0.165700  0.927300  0.006760  1.0
  C  C2335  1  0.665700  0.427300  0.493240  1.0
  C  C2336  1  0.834300  0.072700  0.993240  1.0
  C  C2337  1  0.377200  0.572000  0.516440  1.0
  C  C2338  1  0.122800  0.928000  0.016440  1.0
  C  C2339  1  0.622800  0.428000  0.483560  1.0
  C  C2340  1  0.877200  0.072000  0.983560  1.0
  C  C2341  1  0.423100  0.602900  0.513440  1.0
  C  C2342  1  0.076900  0.897100  0.013440  1.0
  C  C2343  1  0.576900  0.397100  0.486560  1.0
  C  C2344  1  0.923100  0.102900  0.986560  1.0
  C  C2345  1  0.423200  0.633800  0.501060  1.0
  C  C2346  1  0.076800  0.866200  0.001060  1.0
  C  C2347  1  0.576800  0.366200  0.498940  1.0
  C  C2348  1  0.923200  0.133800  0.998940  1.0
  C  C2349  1  0.375200  0.542400  0.529200  1.0
  C  C2350  1  0.124800  0.957600  0.029200  1.0
  C  C2351  1  0.624800  0.457600  0.470800  1.0
  C  C2352  1  0.875200  0.042400  0.970800  1.0
  C  C2353  1  0.415600  0.545200  0.538660  1.0
  C  C2354  1  0.084400  0.954800  0.038660  1.0
  C  C2355  1  0.584400  0.454800  0.461340  1.0
  C  C2356  1  0.915600  0.045200  0.961340  1.0
  C  C2357  1  0.462600  0.575700  0.536070  1.0
  C  C2358  1  0.037400  0.924300  0.036070  1.0
  C  C2359  1  0.537400  0.424300  0.463930  1.0
  C  C2360  1  0.962600  0.075700  0.963930  1.0
  C  C2361  1  0.466900  0.604100  0.523210  1.0
  C  C2362  1  0.033100  0.895900  0.023210  1.0
  C  C2363  1  0.533100  0.395900  0.476790  1.0
  C  C2364  1  0.966900  0.104100  0.976790  1.0
  C  C2365  1  0.506500  0.576000  0.545370  1.0
  C  C2366  1  0.993500  0.924000  0.045370  1.0
  C  C2367  1  0.493500  0.424000  0.454630  1.0
  C  C2368  1  0.006500  0.076000  0.954630  1.0
  C  C2369  1  0.552700  0.601000  0.541610  1.0
  C  C2370  1  0.947300  0.899000  0.041610  1.0
  C  C2371  1  0.447300  0.399000  0.458390  1.0
  C  C2372  1  0.052700  0.101000  0.958390  1.0
  C  C2373  1  0.558500  0.628700  0.529020  1.0
  C  C2374  1  0.941500  0.871300  0.029020  1.0
  C  C2375  1  0.441500  0.371300  0.470980  1.0
  C  C2376  1  0.058500  0.128700  0.970980  1.0
  C  C2377  1  0.515200  0.631100  0.520250  1.0
  C  C2378  1  0.984800  0.868900  0.020250  1.0
  C  C2379  1  0.484800  0.368900  0.479750  1.0
  C  C2380  1  0.015200  0.131100  0.979750  1.0
  C  C2381  1  0.608700  0.656500  0.524890  1.0
  C  C2382  1  0.891300  0.843500  0.024890  1.0
  C  C2383  1  0.391300  0.343500  0.475110  1.0
  C  C2384  1  0.108700  0.156500  0.975110  1.0
  C  C2385  1  0.623800  0.661900  0.510710  1.0
  C  C2386  1  0.876200  0.838100  0.010710  1.0
  C  C2387  1  0.376200  0.338100  0.489290  1.0
  C  C2388  1  0.123800  0.161900  0.989290  1.0
  C  C2389  1  0.669500  0.689900  0.507140  1.0
  C  C2390  1  0.830500  0.810100  0.007140  1.0
  C  C2391  1  0.330500  0.310100  0.492860  1.0
  C  C2392  1  0.169500  0.189900  0.992860  1.0
  C  C2393  1  0.687600  0.706400  0.530390  1.0
  C  C2394  1  0.812400  0.793600  0.030390  1.0
  C  C2395  1  0.312400  0.293600  0.469610  1.0
  C  C2396  1  0.187600  0.206400  0.969610  1.0
  C  C2397  1  0.642400  0.680000  0.534910  1.0
  C  C2398  1  0.857600  0.820000  0.034910  1.0
  C  C2399  1  0.357600  0.320000  0.465090  1.0
  C  C2400  1  0.142400  0.180000  0.965090  1.0
  C  C2401  1  0.341800  0.456700  0.526800  1.0
  C  C2402  1  0.158200  0.043300  0.026800  1.0
  C  C2403  1  0.658200  0.543300  0.473200  1.0
  C  C2404  1  0.841800  0.956700  0.973200  1.0
  C  C2405  1  0.370400  0.518500  0.559700  1.0
  C  C2406  1  0.129600  0.981500  0.059700  1.0
  C  C2407  1  0.629600  0.481500  0.440300  1.0
  C  C2408  1  0.870400  0.018500  0.940300  1.0
  C  C2409  1  0.291100  0.427100  0.523700  1.0
  C  C2410  1  0.208900  0.072900  0.023700  1.0
  C  C2411  1  0.708900  0.572900  0.476300  1.0
  C  C2412  1  0.791100  0.927100  0.976300  1.0
  C  C2413  1  0.379600  0.514600  0.575100  1.0
  C  C2414  1  0.120400  0.985400  0.075100  1.0
  C  C2415  1  0.620400  0.485400  0.424900  1.0
  C  C2416  1  0.879600  0.014600  0.924900  1.0
  C  C2417  1  0.268100  0.408700  0.537700  1.0
  C  C2418  1  0.231900  0.091300  0.037700  1.0
  C  C2419  1  0.731900  0.591300  0.462300  1.0
  C  C2420  1  0.768100  0.908700  0.962300  1.0
  C  C2421  1  0.326100  0.515000  0.581700  1.0
  C  C2422  1  0.173900  0.985000  0.081700  1.0
  C  C2423  1  0.673900  0.485000  0.418300  1.0
  C  C2424  1  0.826100  0.015000  0.918300  1.0
  C  C2425  1  0.851900  0.593900  0.509700  1.0
  C  C2426  1  0.648100  0.906100  0.009700  1.0
  C  C2427  1  0.148100  0.406100  0.490300  1.0
  C  C2428  1  0.351900  0.093900  0.990300  1.0
  C  C2429  1  0.834800  0.618800  0.497500  1.0
  C  C2430  1  0.665200  0.881200  0.997500  1.0
  C  C2431  1  0.165200  0.381200  0.502500  1.0
  C  C2432  1  0.334800  0.118800  0.002500  1.0
  C  C2433  1  0.811000  0.665300  0.498800  1.0
  C  C2434  1  0.689000  0.834700  0.998800  1.0
  C  C2435  1  0.189000  0.334700  0.501200  1.0
  C  C2436  1  0.311000  0.165300  0.001200  1.0
  C  C2437  1  0.821200  0.666000  0.522800  1.0
  C  C2438  1  0.678800  0.834000  0.022800  1.0
  C  C2439  1  0.178800  0.334000  0.477200  1.0
  C  C2440  1  0.321200  0.166000  0.977200  1.0
  C  C2441  1  0.844600  0.618900  0.522610  1.0
  C  C2442  1  0.655400  0.881100  0.022610  1.0
  C  C2443  1  0.155400  0.381100  0.477390  1.0
  C  C2444  1  0.344600  0.118900  0.977390  1.0
  C  C2445  1  0.875200  0.542800  0.508800  1.0
  C  C2446  1  0.624800  0.957200  0.008800  1.0
  C  C2447  1  0.124800  0.457200  0.491200  1.0
  C  C2448  1  0.375200  0.042800  0.991200  1.0
  C  C2449  1  0.865400  0.505700  0.519300  1.0
  C  C2450  1  0.634600  0.994300  0.019300  1.0
  C  C2451  1  0.134600  0.494300  0.480700  1.0
  C  C2452  1  0.365400  0.005700  0.980700  1.0
  C  C2453  1  0.886100  0.458600  0.519100  1.0
  C  C2454  1  0.613900  0.041400  0.019100  1.0
  C  C2455  1  0.113900  0.541400  0.480900  1.0
  C  C2456  1  0.386100  0.958600  0.980900  1.0
  C  C2457  1  0.919600  0.444400  0.507790  1.0
  C  C2458  1  0.580400  0.055600  0.007790  1.0
  C  C2459  1  0.080400  0.555600  0.492210  1.0
  C  C2460  1  0.419600  0.944400  0.992210  1.0
  C  C2461  1  0.930300  0.480900  0.496740  1.0
  C  C2462  1  0.569700  0.019100  0.996740  1.0
  C  C2463  1  0.069700  0.519100  0.503260  1.0
  C  C2464  1  0.430300  0.980900  0.003260  1.0
  C  C2465  1  0.907900  0.529400  0.497850  1.0
  C  C2466  1  0.592100  0.970600  0.997850  1.0
  C  C2467  1  0.092100  0.470600  0.502150  1.0
  C  C2468  1  0.407900  0.029400  0.002150  1.0
  C  C2469  1  0.942300  0.396000  0.507010  1.0
  C  C2470  1  0.557700  0.104000  0.007010  1.0
  C  C2471  1  0.057700  0.604000  0.492990  1.0
  C  C2472  1  0.442300  0.896000  0.992990  1.0
  C  C2473  1  0.973800  0.382700  0.496110  1.0
  C  C2474  1  0.526200  0.117300  0.996110  1.0
  C  C2475  1  0.026200  0.617300  0.503890  1.0
  C  C2476  1  0.473800  0.882700  0.003890  1.0
  C  C2477  1  0.985200  0.417700  0.484800  1.0
  C  C2478  1  0.514800  0.082300  0.984800  1.0
  C  C2479  1  0.014800  0.582300  0.515200  1.0
  C  C2480  1  0.485200  0.917700  0.015200  1.0
  C  C2481  1  0.963400  0.466800  0.485010  1.0
  C  C2482  1  0.536600  0.033200  0.985010  1.0
  C  C2483  1  0.036600  0.533200  0.514990  1.0
  C  C2484  1  0.463400  0.966800  0.014990  1.0
  C  C2485  1  0.016700  0.403900  0.473100  1.0
  C  C2486  1  0.483300  0.096100  0.973100  1.0
  C  C2487  1  0.983300  0.596100  0.526900  1.0
  C  C2488  1  0.516700  0.903900  0.026900  1.0
  C  C2489  1  0.025200  0.436400  0.462000  1.0
  C  C2490  1  0.474800  0.063600  0.962000  1.0
  C  C2491  1  0.974800  0.563600  0.538000  1.0
  C  C2492  1  0.525200  0.936400  0.038000  1.0
  C  C2493  1  0.004400  0.485100  0.461840  1.0
  C  C2494  1  0.495600  0.014900  0.961840  1.0
  C  C2495  1  0.995600  0.514900  0.538160  1.0
  C  C2496  1  0.504400  0.985100  0.038160  1.0
  C  C2497  1  0.974300  0.499300  0.473190  1.0
  C  C2498  1  0.525700  0.000700  0.973190  1.0
  C  C2499  1  0.025700  0.500700  0.526810  1.0
  C  C2500  1  0.474300  0.999300  0.026810  1.0
  C  C2501  1  0.014300  0.520400  0.449670  1.0
  C  C2502  1  0.485700  0.979600  0.949670  1.0
  C  C2503  1  0.985700  0.479600  0.550330  1.0
  C  C2504  1  0.514300  0.020400  0.050330  1.0
  C  C2505  1  0.980100  0.559100  0.446700  1.0
  C  C2506  1  0.519900  0.940900  0.946700  1.0
  C  C2507  1  0.019900  0.440900  0.553300  1.0
  C  C2508  1  0.480100  0.059100  0.053300  1.0
  C  C2509  1  0.990100  0.591000  0.435100  1.0
  C  C2510  1  0.509900  0.909000  0.935100  1.0
  C  C2511  1  0.009900  0.409000  0.564900  1.0
  C  C2512  1  0.490100  0.091000  0.064900  1.0
  C  C2513  1  0.063400  0.548800  0.429200  1.0
  C  C2514  1  0.436600  0.951200  0.929200  1.0
  C  C2515  1  0.936600  0.451200  0.570800  1.0
  C  C2516  1  0.563400  0.048800  0.070800  1.0
  C  C2517  1  0.057100  0.516000  0.440700  1.0
  C  C2518  1  0.442900  0.984000  0.940700  1.0
  C  C2519  1  0.942900  0.484000  0.559300  1.0
  C  C2520  1  0.557100  0.016000  0.059300  1.0
  C  C2521  1  0.977100  0.350500  0.526200  1.0
  C  C2522  1  0.522900  0.149500  0.026200  1.0
  C  C2523  1  0.022900  0.649500  0.473800  1.0
  C  C2524  1  0.477100  0.850500  0.973800  1.0
  C  C2525  1  0.965400  0.295500  0.487700  1.0
  C  C2526  1  0.534600  0.204500  0.987700  1.0
  C  C2527  1  0.034600  0.704500  0.512300  1.0
  C  C2528  1  0.465400  0.795500  0.012300  1.0
  C  C2529  1  0.951400  0.315900  0.538200  1.0
  C  C2530  1  0.548600  0.184100  0.038200  1.0
  C  C2531  1  0.048600  0.684100  0.461800  1.0
  C  C2532  1  0.451400  0.815900  0.961800  1.0
  C  C2533  1  0.000100  0.255400  0.482200  1.0
  C  C2534  1  0.499900  0.244600  0.982200  1.0
  C  C2535  1  0.999900  0.744600  0.517800  1.0
  C  C2536  1  0.500100  0.755400  0.017800  1.0
  C  C2537  1  0.896000  0.332000  0.542800  1.0
  C  C2538  1  0.604000  0.168000  0.042800  1.0
  C  C2539  1  0.104000  0.668000  0.457200  1.0
  C  C2540  1  0.396000  0.832000  0.957200  1.0
  C  C2541  1  0.967000  0.208000  0.476000  1.0
  C  C2542  1  0.533000  0.292000  0.976000  1.0
  C  C2543  1  0.033000  0.792000  0.524000  1.0
  C  C2544  1  0.467000  0.708000  0.024000  1.0
  C  C2545  1  0.817800  0.756500  0.320600  1.0
  C  C2546  1  0.682200  0.743500  0.820600  1.0
  C  C2547  1  0.182200  0.243500  0.679400  1.0
  C  C2548  1  0.317800  0.256500  0.179400  1.0
  C  C2549  1  0.782000  0.741000  0.310000  1.0
  C  C2550  1  0.718000  0.759000  0.810000  1.0
  C  C2551  1  0.218000  0.259000  0.690000  1.0
  C  C2552  1  0.282000  0.241000  0.190000  1.0
  C  C2553  1  0.734000  0.718000  0.313900  1.0
  C  C2554  1  0.766000  0.782000  0.813900  1.0
  C  C2555  1  0.266000  0.282000  0.686100  1.0
  C  C2556  1  0.234000  0.218000  0.186100  1.0
  C  C2557  1  0.754000  0.724200  0.337400  1.0
  C  C2558  1  0.746000  0.775800  0.837400  1.0
  C  C2559  1  0.246000  0.275800  0.662600  1.0
  C  C2560  1  0.254000  0.224200  0.162600  1.0
  C  C2561  1  0.803000  0.747400  0.334600  1.0
  C  C2562  1  0.697000  0.752600  0.834600  1.0
  C  C2563  1  0.197000  0.252600  0.665400  1.0
  C  C2564  1  0.303000  0.247400  0.165400  1.0
  C  C2565  1  0.869200  0.782900  0.317000  1.0
  C  C2566  1  0.630800  0.717100  0.817000  1.0
  C  C2567  1  0.130800  0.217100  0.683000  1.0
  C  C2568  1  0.369200  0.282900  0.183000  1.0
  C  C2569  1  0.874200  0.814100  0.305000  1.0
  C  C2570  1  0.625800  0.685900  0.805000  1.0
  C  C2571  1  0.125800  0.185900  0.695000  1.0
  C  C2572  1  0.374200  0.314100  0.195000  1.0
  C  C2573  1  0.920700  0.838500  0.301400  1.0
  C  C2574  1  0.579300  0.661500  0.801400  1.0
  C  C2575  1  0.079300  0.161500  0.698600  1.0
  C  C2576  1  0.420700  0.338500  0.198600  1.0
  C  C2577  1  0.966700  0.832600  0.309600  1.0
  C  C2578  1  0.533300  0.667400  0.809600  1.0
  C  C2579  1  0.033300  0.167400  0.690400  1.0
  C  C2580  1  0.466700  0.332600  0.190400  1.0
  C  C2581  1  0.962600  0.801800  0.322100  1.0
  C  C2582  1  0.537400  0.698200  0.822100  1.0
  C  C2583  1  0.037400  0.198200  0.677900  1.0
  C  C2584  1  0.462600  0.301800  0.177900  1.0
  C  C2585  1  0.913000  0.777800  0.325300  1.0
  C  C2586  1  0.587000  0.722200  0.825300  1.0
  C  C2587  1  0.087000  0.222200  0.674700  1.0
  C  C2588  1  0.413000  0.277800  0.174700  1.0
  C  C2589  1  0.016200  0.856500  0.305900  1.0
  C  C2590  1  0.483800  0.643500  0.805900  1.0
  C  C2591  1  0.983800  0.143500  0.694100  1.0
  C  C2592  1  0.516200  0.356500  0.194100  1.0
  C  C2593  1  0.058800  0.852100  0.314500  1.0
  C  C2594  1  0.441200  0.647900  0.814500  1.0
  C  C2595  1  0.941200  0.147900  0.685500  1.0
  C  C2596  1  0.558800  0.352100  0.185500  1.0
  C  C2597  1  0.055900  0.823900  0.327400  1.0
  C  C2598  1  0.444100  0.676100  0.827400  1.0
  C  C2599  1  0.944100  0.176100  0.672600  1.0
  C  C2600  1  0.555900  0.323900  0.172600  1.0
  C  C2601  1  0.007800  0.797600  0.331200  1.0
  C  C2602  1  0.492200  0.702400  0.831200  1.0
  C  C2603  1  0.992200  0.202400  0.668800  1.0
  C  C2604  1  0.507800  0.297600  0.168800  1.0
  C  C2605  1  0.099300  0.821700  0.336900  1.0
  C  C2606  1  0.400700  0.678300  0.836900  1.0
  C  C2607  1  0.900700  0.178300  0.663100  1.0
  C  C2608  1  0.599300  0.321700  0.163100  1.0
  C  C2609  1  0.095200  0.795200  0.349300  1.0
  C  C2610  1  0.404800  0.704800  0.849300  1.0
  C  C2611  1  0.904800  0.204800  0.650700  1.0
  C  C2612  1  0.595200  0.295200  0.150700  1.0
  C  C2613  1  0.048800  0.767800  0.353200  1.0
  C  C2614  1  0.451200  0.732200  0.853200  1.0
  C  C2615  1  0.951200  0.232200  0.646800  1.0
  C  C2616  1  0.548800  0.267800  0.146800  1.0
  C  C2617  1  0.006200  0.769500  0.344200  1.0
  C  C2618  1  0.493800  0.730500  0.844200  1.0
  C  C2619  1  0.993800  0.230500  0.655800  1.0
  C  C2620  1  0.506200  0.269500  0.155800  1.0
  C  C2621  1  0.047000  0.736300  0.366400  1.0
  C  C2622  1  0.453000  0.763700  0.866400  1.0
  C  C2623  1  0.953000  0.263700  0.633600  1.0
  C  C2624  1  0.547000  0.236300  0.133600  1.0
  C  C2625  1  0.088900  0.707300  0.370400  1.0
  C  C2626  1  0.411100  0.792700  0.870400  1.0
  C  C2627  1  0.911100  0.292700  0.629600  1.0
  C  C2628  1  0.588900  0.207300  0.129600  1.0
  C  C2629  1  0.084600  0.677700  0.382600  1.0
  C  C2630  1  0.415400  0.822300  0.882600  1.0
  C  C2631  1  0.915400  0.322300  0.617400  1.0
  C  C2632  1  0.584600  0.177700  0.117400  1.0
  C  C2633  1  0.001100  0.701500  0.386600  1.0
  C  C2634  1  0.498900  0.798500  0.886600  1.0
  C  C2635  1  0.998900  0.298500  0.613400  1.0
  C  C2636  1  0.501100  0.201500  0.113400  1.0
  C  C2637  1  0.001900  0.733300  0.374900  1.0
  C  C2638  1  0.498100  0.766700  0.874900  1.0
  C  C2639  1  0.998100  0.266700  0.625100  1.0
  C  C2640  1  0.501900  0.233300  0.125100  1.0
  C  C2641  1  0.064500  0.874000  0.284600  1.0
  C  C2642  1  0.435500  0.626000  0.784600  1.0
  C  C2643  1  0.935500  0.126000  0.715400  1.0
  C  C2644  1  0.564500  0.374000  0.215400  1.0
  C  C2645  1  0.113200  0.927500  0.310600  1.0
  C  C2646  1  0.386800  0.572500  0.810600  1.0
  C  C2647  1  0.886800  0.072500  0.689400  1.0
  C  C2648  1  0.613200  0.427500  0.189400  1.0
  C  C2649  1  0.060000  0.846000  0.270900  1.0
  C  C2650  1  0.440000  0.654000  0.770900  1.0
  C  C2651  1  0.940000  0.154000  0.729100  1.0
  C  C2652  1  0.560000  0.346000  0.229100  1.0
  C  C2653  1  0.169500  0.942000  0.307200  1.0
  C  C2654  1  0.330500  0.558000  0.807200  1.0
  C  C2655  1  0.830500  0.058000  0.692800  1.0
  C  C2656  1  0.669500  0.442000  0.192800  1.0
  C  C2657  1  0.040000  0.791000  0.274100  1.0
  C  C2658  1  0.460000  0.709000  0.774100  1.0
  C  C2659  1  0.960000  0.209000  0.725900  1.0
  C  C2660  1  0.540000  0.291000  0.225900  1.0
  C  C2661  1  0.182000  0.999000  0.308300  1.0
  C  C2662  1  0.318000  0.501000  0.808300  1.0
  C  C2663  1  0.818000  0.001000  0.691700  1.0
  C  C2664  1  0.682000  0.499000  0.191700  1.0
  C  C2665  1  0.463600  0.387200  0.384220  1.0
  C  C2666  1  0.036400  0.112800  0.884220  1.0
  C  C2667  1  0.536400  0.612800  0.615780  1.0
  C  C2668  1  0.963600  0.887200  0.115780  1.0
  C  C2669  1  0.465700  0.334900  0.380900  1.0
  C  C2670  1  0.034300  0.165100  0.880900  1.0
  C  C2671  1  0.534300  0.665100  0.619100  1.0
  C  C2672  1  0.965700  0.834900  0.119100  1.0
  C  C2673  1  0.495500  0.320800  0.369300  1.0
  C  C2674  1  0.004500  0.179200  0.869300  1.0
  C  C2675  1  0.504500  0.679200  0.630700  1.0
  C  C2676  1  0.995500  0.820800  0.130700  1.0
  C  C2677  1  0.521100  0.404300  0.364500  1.0
  C  C2678  1  0.978900  0.095700  0.864500  1.0
  C  C2679  1  0.478900  0.595700  0.635500  1.0
  C  C2680  1  0.021100  0.904300  0.135500  1.0
  C  C2681  1  0.491900  0.422200  0.375600  1.0
  C  C2682  1  0.008100  0.077800  0.875600  1.0
  C  C2683  1  0.508100  0.577800  0.624400  1.0
  C  C2684  1  0.991900  0.922200  0.124400  1.0
  C  C2685  1  0.431300  0.403800  0.396350  1.0
  C  C2686  1  0.068700  0.096200  0.896350  1.0
  C  C2687  1  0.568700  0.596200  0.603650  1.0
  C  C2688  1  0.931300  0.903800  0.103650  1.0
  C  C2689  1  0.384600  0.376300  0.399900  1.0
  C  C2690  1  0.115400  0.123700  0.899900  1.0
  C  C2691  1  0.615400  0.623700  0.600100  1.0
  C  C2692  1  0.884600  0.876300  0.100100  1.0
  C  C2693  1  0.354600  0.389900  0.411090  1.0
  C  C2694  1  0.145400  0.110100  0.911090  1.0
  C  C2695  1  0.645400  0.610100  0.588910  1.0
  C  C2696  1  0.854600  0.889900  0.088910  1.0
  C  C2697  1  0.370100  0.433100  0.419670  1.0
  C  C2698  1  0.129900  0.066900  0.919670  1.0
  C  C2699  1  0.629900  0.566900  0.580330  1.0
  C  C2700  1  0.870100  0.933100  0.080330  1.0
  C  C2701  1  0.417400  0.461900  0.416390  1.0
  C  C2702  1  0.082600  0.038100  0.916390  1.0
  C  C2703  1  0.582600  0.538100  0.583610  1.0
  C  C2704  1  0.917400  0.961900  0.083610  1.0
  C  C2705  1  0.446600  0.446000  0.404570  1.0
  C  C2706  1  0.053400  0.054000  0.904570  1.0
  C  C2707  1  0.553400  0.554000  0.595430  1.0
  C  C2708  1  0.946600  0.946000  0.095430  1.0
  C  C2709  1  0.339900  0.447500  0.431660  1.0
  C  C2710  1  0.160100  0.052500  0.931660  1.0
  C  C2711  1  0.660100  0.552500  0.568340  1.0
  C  C2712  1  0.839900  0.947500  0.068340  1.0
  C  C2713  1  0.354700  0.489300  0.439640  1.0
  C  C2714  1  0.145300  0.010700  0.939640  1.0
  C  C2715  1  0.645300  0.510700  0.560360  1.0
  C  C2716  1  0.854700  0.989300  0.060360  1.0
  C  C2717  1  0.402000  0.519400  0.436840  1.0
  C  C2718  1  0.098000  0.980600  0.936840  1.0
  C  C2719  1  0.598000  0.480600  0.563160  1.0
  C  C2720  1  0.902000  0.019400  0.063160  1.0
  C  C2721  1  0.434300  0.505700  0.425200  1.0
  C  C2722  1  0.065700  0.994300  0.925200  1.0
  C  C2723  1  0.565700  0.494300  0.574800  1.0
  C  C2724  1  0.934300  0.005700  0.074800  1.0
  C  C2725  1  0.418700  0.561200  0.445590  1.0
  C  C2726  1  0.081300  0.938800  0.945590  1.0
  C  C2727  1  0.581300  0.438800  0.554410  1.0
  C  C2728  1  0.918700  0.061200  0.054410  1.0
  C  C2729  1  0.465400  0.587400  0.443500  1.0
  C  C2730  1  0.034600  0.912600  0.943500  1.0
  C  C2731  1  0.534600  0.412600  0.556500  1.0
  C  C2732  1  0.965400  0.087400  0.056500  1.0
  C  C2733  1  0.498800  0.574600  0.432410  1.0
  C  C2734  1  0.001200  0.925400  0.932410  1.0
  C  C2735  1  0.501200  0.425400  0.567590  1.0
  C  C2736  1  0.998800  0.074600  0.067590  1.0
  C  C2737  1  0.482200  0.534300  0.423640  1.0
  C  C2738  1  0.017800  0.965700  0.923640  1.0
  C  C2739  1  0.517800  0.465700  0.576360  1.0
  C  C2740  1  0.982200  0.034300  0.076360  1.0
  C  C2741  1  0.548600  0.604800  0.429750  1.0
  C  C2742  1  0.951400  0.895200  0.929750  1.0
  C  C2743  1  0.451400  0.395200  0.570250  1.0
  C  C2744  1  0.048600  0.104800  0.070250  1.0
  C  C2745  1  0.566200  0.615500  0.415990  1.0
  C  C2746  1  0.933800  0.884500  0.915990  1.0
  C  C2747  1  0.433800  0.384500  0.584010  1.0
  C  C2748  1  0.066200  0.115500  0.084010  1.0
  C  C2749  1  0.612500  0.645000  0.414050  1.0
  C  C2750  1  0.887500  0.855000  0.914050  1.0
  C  C2751  1  0.387500  0.355000  0.585950  1.0
  C  C2752  1  0.112500  0.145000  0.085950  1.0
  C  C2753  1  0.624800  0.653800  0.437970  1.0
  C  C2754  1  0.875200  0.846200  0.937970  1.0
  C  C2755  1  0.375200  0.346200  0.562030  1.0
  C  C2756  1  0.124800  0.153800  0.062030  1.0
  C  C2757  1  0.579600  0.624300  0.440930  1.0
  C  C2758  1  0.920400  0.875700  0.940930  1.0
  C  C2759  1  0.420400  0.375700  0.559070  1.0
  C  C2760  1  0.079600  0.124300  0.059070  1.0
  C  C2761  1  0.246100  0.434600  0.434200  1.0
  C  C2762  1  0.253900  0.065400  0.934200  1.0
  C  C2763  1  0.753900  0.565400  0.565800  1.0
  C  C2764  1  0.746100  0.934600  0.065800  1.0
  C  C2765  1  0.323100  0.476200  0.463400  1.0
  C  C2766  1  0.176900  0.023800  0.963400  1.0
  C  C2767  1  0.676900  0.523800  0.536600  1.0
  C  C2768  1  0.823100  0.976200  0.036600  1.0
  C  C2769  1  0.205800  0.392500  0.437300  1.0
  C  C2770  1  0.294200  0.107500  0.937300  1.0
  C  C2771  1  0.794200  0.607500  0.562700  1.0
  C  C2772  1  0.705800  0.892500  0.062700  1.0
  C  C2773  1  0.277700  0.489500  0.472300  1.0
  C  C2774  1  0.222300  0.010500  0.972300  1.0
  C  C2775  1  0.722300  0.510500  0.527700  1.0
  C  C2776  1  0.777700  0.989500  0.027700  1.0
  C  C2777  1  0.221100  0.338200  0.432400  1.0
  C  C2778  1  0.278900  0.161800  0.932400  1.0
  C  C2779  1  0.778900  0.661800  0.567600  1.0
  C  C2780  1  0.721100  0.838200  0.067600  1.0
  C  C2781  1  0.280800  0.453700  0.485400  1.0
  C  C2782  1  0.219200  0.046300  0.985400  1.0
  C  C2783  1  0.719200  0.546300  0.514600  1.0
  C  C2784  1  0.780800  0.953700  0.014600  1.0
  C  C2785  1  0.607500  0.859500  0.419270  1.0
  C  C2786  1  0.892500  0.640500  0.919270  1.0
  C  C2787  1  0.392500  0.140500  0.580730  1.0
  C  C2788  1  0.107500  0.359500  0.080730  1.0
  C  C2789  1  0.631400  0.845100  0.431940  1.0
  C  C2790  1  0.868600  0.654900  0.931940  1.0
  C  C2791  1  0.368600  0.154900  0.568060  1.0
  C  C2792  1  0.131400  0.345100  0.068060  1.0
  C  C2793  1  0.660900  0.802200  0.432160  1.0
  C  C2794  1  0.839100  0.697800  0.932160  1.0
  C  C2795  1  0.339100  0.197800  0.567840  1.0
  C  C2796  1  0.160900  0.302200  0.067840  1.0
  C  C2797  1  0.645500  0.786200  0.408700  1.0
  C  C2798  1  0.854500  0.713800  0.908700  1.0
  C  C2799  1  0.354500  0.213800  0.591300  1.0
  C  C2800  1  0.145500  0.286200  0.091300  1.0
  C  C2801  1  0.614900  0.828400  0.407510  1.0
  C  C2802  1  0.885100  0.671600  0.907510  1.0
  C  C2803  1  0.385100  0.171600  0.592490  1.0
  C  C2804  1  0.114900  0.328400  0.092490  1.0
  C  C2805  1  0.575400  0.905300  0.418210  1.0
  C  C2806  1  0.924600  0.594700  0.918210  1.0
  C  C2807  1  0.424600  0.094700  0.581790  1.0
  C  C2808  1  0.075400  0.405300  0.081790  1.0
  C  C2809  1  0.545900  0.921000  0.429800  1.0
  C  C2810  1  0.954100  0.579000  0.929800  1.0
  C  C2811  1  0.454100  0.079000  0.570200  1.0
  C  C2812  1  0.045900  0.421000  0.070200  1.0
  C  C2813  1  0.514900  0.962000  0.428880  1.0
  C  C2814  1  0.985100  0.538000  0.928880  1.0
  C  C2815  1  0.485100  0.038000  0.571120  1.0
  C  C2816  1  0.014900  0.462000  0.071120  1.0
  C  C2817  1  0.512200  0.990700  0.416060  1.0
  C  C2818  1  0.987800  0.509300  0.916060  1.0
  C  C2819  1  0.487800  0.009300  0.583940  1.0
  C  C2820  1  0.012200  0.490700  0.083940  1.0
  C  C2821  1  0.542400  0.976400  0.404150  1.0
  C  C2822  1  0.957600  0.523600  0.904150  1.0
  C  C2823  1  0.457600  0.023600  0.595850  1.0
  C  C2824  1  0.042400  0.476400  0.095850  1.0
  C  C2825  1  0.573300  0.933200  0.405750  1.0
  C  C2826  1  0.926700  0.566800  0.905750  1.0
  C  C2827  1  0.426700  0.066800  0.594250  1.0
  C  C2828  1  0.073300  0.433200  0.094250  1.0
  C  C2829  1  0.477700  0.031500  0.414430  1.0
  C  C2830  1  0.022300  0.468500  0.914430  1.0
  C  C2831  1  0.522300  0.968500  0.585570  1.0
  C  C2832  1  0.977700  0.531500  0.085570  1.0
  C  C2833  1  0.473200  0.057200  0.401920  1.0
  C  C2834  1  0.026800  0.442800  0.901920  1.0
  C  C2835  1  0.526800  0.942800  0.598080  1.0
  C  C2836  1  0.973200  0.557200  0.098080  1.0
  C  C2837  1  0.503400  0.045200  0.389810  1.0
  C  C2838  1  0.996600  0.454800  0.889810  1.0
  C  C2839  1  0.496600  0.954800  0.610190  1.0
  C  C2840  1  0.003400  0.545200  0.110190  1.0
  C  C2841  1  0.538400  0.004700  0.390830  1.0
  C  C2842  1  0.961600  0.495300  0.890830  1.0
  C  C2843  1  0.461600  0.995300  0.609170  1.0
  C  C2844  1  0.038400  0.504700  0.109170  1.0
  C  C2845  1  0.502800  0.074300  0.376950  1.0
  C  C2846  1  0.997200  0.425700  0.876950  1.0
  C  C2847  1  0.497200  0.925700  0.623050  1.0
  C  C2848  1  0.002800  0.574300  0.123050  1.0
  C  C2849  1  0.534800  0.063600  0.365930  1.0
  C  C2850  1  0.965200  0.436400  0.865930  1.0
  C  C2851  1  0.465200  0.936400  0.634070  1.0
  C  C2852  1  0.034800  0.563600  0.134070  1.0
  C  C2853  1  0.569900  0.024400  0.366530  1.0
  C  C2854  1  0.930100  0.475600  0.866530  1.0
  C  C2855  1  0.430100  0.975600  0.633470  1.0
  C  C2856  1  0.069900  0.524400  0.133470  1.0
  C  C2857  1  0.570600  0.995800  0.378910  1.0
  C  C2858  1  0.929400  0.504200  0.878910  1.0
  C  C2859  1  0.429400  0.004200  0.621090  1.0
  C  C2860  1  0.070600  0.495800  0.121090  1.0
  C  C2861  1  0.606300  0.015500  0.354500  1.0
  C  C2862  1  0.893700  0.484500  0.854500  1.0
  C  C2863  1  0.393700  0.984500  0.645500  1.0
  C  C2864  1  0.106300  0.515500  0.145500  1.0
  C  C2865  1  0.622000  0.966800  0.350900  1.0
  C  C2866  1  0.878000  0.533200  0.850900  1.0
  C  C2867  1  0.378000  0.033200  0.649100  1.0
  C  C2868  1  0.122000  0.466800  0.149100  1.0
  C  C2869  1  0.657600  0.960700  0.340100  1.0
  C  C2870  1  0.842400  0.539300  0.840100  1.0
  C  C2871  1  0.342400  0.039300  0.659900  1.0
  C  C2872  1  0.157600  0.460700  0.159900  1.0
  C  C2873  1  0.663000  0.045800  0.335600  1.0
  C  C2874  1  0.837000  0.454200  0.835600  1.0
  C  C2875  1  0.337000  0.954200  0.664400  1.0
  C  C2876  1  0.163000  0.545800  0.164400  1.0
  C  C2877  1  0.627600  0.056000  0.346200  1.0
  C  C2878  1  0.872400  0.444000  0.846200  1.0
  C  C2879  1  0.372400  0.944000  0.653800  1.0
  C  C2880  1  0.127600  0.556000  0.153800  1.0
  C  C2881  1  0.462900  0.093400  0.432700  1.0
  C  C2882  1  0.037100  0.406600  0.932700  1.0
  C  C2883  1  0.537100  0.906600  0.567300  1.0
  C  C2884  1  0.962900  0.593400  0.067300  1.0
  C  C2885  1  0.386500  0.080300  0.399500  1.0
  C  C2886  1  0.113500  0.419700  0.899500  1.0
  C  C2887  1  0.613500  0.919700  0.600500  1.0
  C  C2888  1  0.886500  0.580300  0.100500  1.0
  C  C2889  1  0.514000  0.109000  0.439900  1.0
  C  C2890  1  0.986000  0.391000  0.939900  1.0
  C  C2891  1  0.486000  0.891000  0.560100  1.0
  C  C2892  1  0.014000  0.609000  0.060100  1.0
  C  C2893  1  0.350400  0.123800  0.399100  1.0
  C  C2894  1  0.149600  0.376200  0.899100  1.0
  C  C2895  1  0.649600  0.876200  0.600900  1.0
  C  C2896  1  0.850400  0.623800  0.100900  1.0
  C  C2897  1  0.560000  0.084000  0.434300  1.0
  C  C2898  1  0.940000  0.416000  0.934300  1.0
  C  C2899  1  0.440000  0.916000  0.565700  1.0
  C  C2900  1  0.060000  0.584000  0.065700  1.0
  C  C2901  1  0.296500  0.100000  0.403900  1.0
  C  C2902  1  0.203500  0.400000  0.903900  1.0
  C  C2903  1  0.703500  0.900000  0.596100  1.0
  C  C2904  1  0.796500  0.600000  0.096100  1.0
  C  C2905  1  0.805700  0.551700  0.418400  1.0
  C  C2906  1  0.694300  0.948300  0.918400  1.0
  C  C2907  1  0.194300  0.448300  0.581600  1.0
  C  C2908  1  0.305700  0.051700  0.081600  1.0
  C  C2909  1  0.777000  0.570100  0.407040  1.0
  C  C2910  1  0.723000  0.929900  0.907040  1.0
  C  C2911  1  0.223000  0.429900  0.592960  1.0
  C  C2912  1  0.277000  0.070100  0.092960  1.0
  C  C2913  1  0.750100  0.614400  0.408800  1.0
  C  C2914  1  0.749900  0.885600  0.908800  1.0
  C  C2915  1  0.249900  0.385600  0.591200  1.0
  C  C2916  1  0.250100  0.114400  0.091200  1.0
  C  C2917  1  0.778400  0.624800  0.431600  1.0
  C  C2918  1  0.721600  0.875200  0.931600  1.0
  C  C2919  1  0.221600  0.375200  0.568400  1.0
  C  C2920  1  0.278400  0.124800  0.068400  1.0
  C  C2921  1  0.804900  0.580100  0.430960  1.0
  C  C2922  1  0.695100  0.919900  0.930960  1.0
  C  C2923  1  0.195100  0.419900  0.569040  1.0
  C  C2924  1  0.304900  0.080100  0.069040  1.0
  C  C2925  1  0.837400  0.505700  0.417000  1.0
  C  C2926  1  0.662600  0.994300  0.917000  1.0
  C  C2927  1  0.162600  0.494300  0.583000  1.0
  C  C2928  1  0.337400  0.005700  0.083000  1.0
  C  C2929  1  0.884400  0.502300  0.424500  1.0
  C  C2930  1  0.615600  0.997700  0.924500  1.0
  C  C2931  1  0.115600  0.497700  0.575500  1.0
  C  C2932  1  0.384400  0.002300  0.075500  1.0
  C  C2933  1  0.913700  0.460100  0.423800  1.0
  C  C2934  1  0.586300  0.039900  0.923800  1.0
  C  C2935  1  0.086300  0.539900  0.576200  1.0
  C  C2936  1  0.413700  0.960100  0.076200  1.0
  C  C2937  1  0.897300  0.417200  0.415300  1.0
  C  C2938  1  0.602700  0.082800  0.915300  1.0
  C  C2939  1  0.102700  0.582800  0.584700  1.0
  C  C2940  1  0.397300  0.917200  0.084700  1.0
  C  C2941  1  0.849900  0.419900  0.407350  1.0
  C  C2942  1  0.650100  0.080100  0.907350  1.0
  C  C2943  1  0.150100  0.580100  0.592650  1.0
  C  C2944  1  0.349900  0.919900  0.092650  1.0
  C  C2945  1  0.821700  0.464800  0.408600  1.0
  C  C2946  1  0.678300  0.035200  0.908600  1.0
  C  C2947  1  0.178300  0.535200  0.591400  1.0
  C  C2948  1  0.321700  0.964800  0.091400  1.0
  C  C2949  1  0.926100  0.372500  0.413900  1.0
  C  C2950  1  0.573900  0.127500  0.913900  1.0
  C  C2951  1  0.073900  0.627500  0.586100  1.0
  C  C2952  1  0.426100  0.872500  0.086100  1.0
  C  C2953  1  0.909600  0.332500  0.405500  1.0
  C  C2954  1  0.590400  0.167500  0.905500  1.0
  C  C2955  1  0.090400  0.667500  0.594500  1.0
  C  C2956  1  0.409600  0.832500  0.094500  1.0
  C  C2957  1  0.861700  0.333200  0.397800  1.0
  C  C2958  1  0.638300  0.166800  0.897800  1.0
  C  C2959  1  0.138300  0.666800  0.602200  1.0
  C  C2960  1  0.361700  0.833200  0.102200  1.0
  C  C2961  1  0.832200  0.377900  0.398400  1.0
  C  C2962  1  0.667800  0.122100  0.898400  1.0
  C  C2963  1  0.167800  0.622100  0.601600  1.0
  C  C2964  1  0.332200  0.877900  0.101600  1.0
  C  C2965  1  0.845600  0.291700  0.388800  1.0
  C  C2966  1  0.654400  0.208300  0.888800  1.0
  C  C2967  1  0.154400  0.708300  0.611200  1.0
  C  C2968  1  0.345600  0.791700  0.111200  1.0
  C  C2969  1  0.802700  0.294800  0.380500  1.0
  C  C2970  1  0.697300  0.205200  0.880500  1.0
  C  C2971  1  0.197300  0.705200  0.619500  1.0
  C  C2972  1  0.302700  0.794800  0.119500  1.0
  C  C2973  1  0.772400  0.338000  0.380800  1.0
  C  C2974  1  0.727600  0.162000  0.880800  1.0
  C  C2975  1  0.227600  0.662000  0.619200  1.0
  C  C2976  1  0.272400  0.838000  0.119200  1.0
  C  C2977  1  0.787900  0.379000  0.389400  1.0
  C  C2978  1  0.712100  0.121000  0.889400  1.0
  C  C2979  1  0.212100  0.621000  0.610600  1.0
  C  C2980  1  0.287900  0.879000  0.110600  1.0
  C  C2981  1  0.722600  0.337200  0.372590  1.0
  C  C2982  1  0.777400  0.162800  0.872590  1.0
  C  C2983  1  0.277400  0.662800  0.627410  1.0
  C  C2984  1  0.222600  0.837200  0.127410  1.0
  C  C2985  1  0.690800  0.292200  0.371600  1.0
  C  C2986  1  0.809200  0.207800  0.871600  1.0
  C  C2987  1  0.309200  0.707800  0.628400  1.0
  C  C2988  1  0.190800  0.792200  0.128400  1.0
  C  C2989  1  0.644900  0.292000  0.363700  1.0
  C  C2990  1  0.855100  0.208000  0.863700  1.0
  C  C2991  1  0.355100  0.708000  0.636300  1.0
  C  C2992  1  0.144900  0.792000  0.136300  1.0
  C  C2993  1  0.660200  0.376500  0.357900  1.0
  C  C2994  1  0.839800  0.123500  0.857900  1.0
  C  C2995  1  0.339800  0.623500  0.642100  1.0
  C  C2996  1  0.160200  0.876500  0.142100  1.0
  C  C2997  1  0.706400  0.380600  0.365600  1.0
  C  C2998  1  0.793600  0.119400  0.865600  1.0
  C  C2999  1  0.293600  0.619400  0.634400  1.0
  C  C3000  1  0.206400  0.880600  0.134400  1.0
  C  C3001  1  0.019700  0.373000  0.412700  1.0
  C  C3002  1  0.480300  0.127000  0.912700  1.0
  C  C3003  1  0.980300  0.627000  0.587300  1.0
  C  C3004  1  0.519700  0.873000  0.087300  1.0
  C  C3005  1  0.927300  0.248100  0.412800  1.0
  C  C3006  1  0.572700  0.251900  0.912800  1.0
  C  C3007  1  0.072700  0.751900  0.587200  1.0
  C  C3008  1  0.427300  0.748100  0.087200  1.0
  C  C3009  1  0.064600  0.373000  0.423000  1.0
  C  C3010  1  0.435400  0.127000  0.923000  1.0
  C  C3011  1  0.935400  0.627000  0.577000  1.0
  C  C3012  1  0.564600  0.873000  0.077000  1.0
  C  C3013  1  0.958500  0.203000  0.407400  1.0
  C  C3014  1  0.541500  0.297000  0.907400  1.0
  C  C3015  1  0.041500  0.797000  0.592600  1.0
  C  C3016  1  0.458500  0.703000  0.092600  1.0
  C  C3017  1  0.062000  0.325000  0.432200  1.0
  C  C3018  1  0.438000  0.175000  0.932200  1.0
  C  C3019  1  0.938000  0.675000  0.567800  1.0
  C  C3020  1  0.562000  0.825000  0.067800  1.0
  C  C3021  1  0.917000  0.156600  0.404600  1.0
  C  C3022  1  0.583000  0.343400  0.904600  1.0
  C  C3023  1  0.083000  0.843400  0.595400  1.0
  C  C3024  1  0.417000  0.656600  0.095400  1.0
  C  C3025  1  0.668200  0.297600  0.302000  1.0
  C  C3026  1  0.831800  0.202400  0.802000  1.0
  C  C3027  1  0.331800  0.702400  0.698000  1.0
  C  C3028  1  0.168200  0.797600  0.198000  1.0
  C  C3029  1  0.653200  0.346600  0.305800  1.0
  C  C3030  1  0.846800  0.153400  0.805800  1.0
  C  C3031  1  0.346800  0.653400  0.694200  1.0
  C  C3032  1  0.153200  0.846600  0.194200  1.0
  C  C3033  1  0.625200  0.354000  0.318000  1.0
  C  C3034  1  0.874800  0.146000  0.818000  1.0
  C  C3035  1  0.374800  0.646000  0.682000  1.0
  C  C3036  1  0.125200  0.854000  0.182000  1.0
  C  C3037  1  0.625900  0.269600  0.323800  1.0
  C  C3038  1  0.874100  0.230400  0.823800  1.0
  C  C3039  1  0.374100  0.730400  0.676200  1.0
  C  C3040  1  0.125900  0.769600  0.176200  1.0
  C  C3041  1  0.652300  0.258600  0.311300  1.0
  C  C3042  1  0.847700  0.241400  0.811300  1.0
  C  C3043  1  0.347700  0.741400  0.688700  1.0
  C  C3044  1  0.152300  0.758600  0.188700  1.0
  C  C3045  1  0.698700  0.289600  0.288760  1.0
  C  C3046  1  0.801300  0.210400  0.788760  1.0
  C  C3047  1  0.301300  0.710400  0.711240  1.0
  C  C3048  1  0.198700  0.789600  0.211240  1.0
  C  C3049  1  0.732600  0.250100  0.287400  1.0
  C  C3050  1  0.767400  0.249900  0.787400  1.0
  C  C3051  1  0.267400  0.749900  0.712600  1.0
  C  C3052  1  0.232600  0.750100  0.212600  1.0
  C  C3053  1  0.759100  0.240700  0.275200  1.0
  C  C3054  1  0.740900  0.259300  0.775200  1.0
  C  C3055  1  0.240900  0.759300  0.724800  1.0
  C  C3056  1  0.259100  0.740700  0.224800  1.0
  C  C3057  1  0.755100  0.272400  0.262990  1.0
  C  C3058  1  0.744900  0.227600  0.762990  1.0
  C  C3059  1  0.244900  0.727600  0.737010  1.0
  C  C3060  1  0.255100  0.772400  0.237010  1.0
  C  C3061  1  0.722600  0.314900  0.264010  1.0
  C  C3062  1  0.777400  0.185100  0.764010  1.0
  C  C3063  1  0.277400  0.685100  0.735990  1.0
  C  C3064  1  0.222600  0.814900  0.235990  1.0
  C  C3065  1  0.695100  0.321000  0.276940  1.0
  C  C3066  1  0.804900  0.179000  0.776940  1.0
  C  C3067  1  0.304900  0.679000  0.723060  1.0
  C  C3068  1  0.195100  0.821000  0.223060  1.0
  C  C3069  1  0.781800  0.263900  0.249990  1.0
  C  C3070  1  0.718200  0.236100  0.749990  1.0
  C  C3071  1  0.218200  0.736100  0.750010  1.0
  C  C3072  1  0.281800  0.763900  0.250010  1.0
  C  C3073  1  0.777200  0.294800  0.238460  1.0
  C  C3074  1  0.722800  0.205200  0.738460  1.0
  C  C3075  1  0.222800  0.705200  0.761540  1.0
  C  C3076  1  0.277200  0.794800  0.261540  1.0
  C  C3077  1  0.745600  0.338300  0.239010  1.0
  C  C3078  1  0.754400  0.161700  0.739010  1.0
  C  C3079  1  0.254400  0.661700  0.760990  1.0
  C  C3080  1  0.245600  0.838300  0.260990  1.0
  C  C3081  1  0.719300  0.349000  0.251950  1.0
  C  C3082  1  0.780700  0.151000  0.751950  1.0
  C  C3083  1  0.280700  0.651000  0.748050  1.0
  C  C3084  1  0.219300  0.849000  0.248050  1.0
  C  C3085  1  0.742800  0.373400  0.227500  1.0
  C  C3086  1  0.757200  0.126600  0.727500  1.0
  C  C3087  1  0.257200  0.626600  0.772500  1.0
  C  C3088  1  0.242800  0.873400  0.272500  1.0
  C  C3089  1  0.717300  0.417800  0.228900  1.0
  C  C3090  1  0.782700  0.082200  0.728900  1.0
  C  C3091  1  0.282700  0.582200  0.771100  1.0
  C  C3092  1  0.217300  0.917800  0.271100  1.0
  C  C3093  1  0.691700  0.429500  0.241500  1.0
  C  C3094  1  0.808300  0.070500  0.741500  1.0
  C  C3095  1  0.308300  0.570500  0.758500  1.0
  C  C3096  1  0.191700  0.929500  0.258500  1.0
  C  C3097  1  0.693000  0.395100  0.252600  1.0
  C  C3098  1  0.807000  0.104900  0.752600  1.0
  C  C3099  1  0.307000  0.604900  0.747400  1.0
  C  C3100  1  0.193000  0.895100  0.247400  1.0
  C  C3101  1  0.662600  0.477300  0.242900  1.0
  C  C3102  1  0.837400  0.022700  0.742900  1.0
  C  C3103  1  0.337400  0.522700  0.757100  1.0
  C  C3104  1  0.162600  0.977300  0.257100  1.0
  C  C3105  1  0.636700  0.497700  0.231300  1.0
  C  C3106  1  0.863300  0.002300  0.731300  1.0
  C  C3107  1  0.363300  0.502300  0.768700  1.0
  C  C3108  1  0.136700  0.997700  0.268700  1.0
  C  C3109  1  0.610900  0.542500  0.233000  1.0
  C  C3110  1  0.889100  0.957500  0.733000  1.0
  C  C3111  1  0.389100  0.457500  0.767000  1.0
  C  C3112  1  0.110900  0.042500  0.267000  1.0
  C  C3113  1  0.632100  0.547600  0.256500  1.0
  C  C3114  1  0.867900  0.952400  0.756500  1.0
  C  C3115  1  0.367900  0.452400  0.743500  1.0
  C  C3116  1  0.132100  0.047600  0.243500  1.0
  C  C3117  1  0.660100  0.503700  0.255700  1.0
  C  C3118  1  0.839900  0.996300  0.755700  1.0
  C  C3119  1  0.339900  0.496300  0.744300  1.0
  C  C3120  1  0.160100  0.003700  0.244300  1.0
  C  C3121  1  0.791700  0.179300  0.240900  1.0
  C  C3122  1  0.708300  0.320700  0.740900  1.0
  C  C3123  1  0.208300  0.820700  0.759100  1.0
  C  C3124  1  0.291700  0.679300  0.259100  1.0
  C  C3125  1  0.854400  0.309700  0.224300  1.0
  C  C3126  1  0.645600  0.190300  0.724300  1.0
  C  C3127  1  0.145600  0.690300  0.775700  1.0
  C  C3128  1  0.354400  0.809700  0.275700  1.0
  C  C3129  1  0.836000  0.142100  0.241400  1.0
  C  C3130  1  0.664000  0.357900  0.741400  1.0
  C  C3131  1  0.164000  0.857900  0.758600  1.0
  C  C3132  1  0.336000  0.642100  0.258600  1.0
  C  C3133  1  0.867300  0.315000  0.208800  1.0
  C  C3134  1  0.632700  0.185000  0.708800  1.0
  C  C3135  1  0.132700  0.685000  0.791200  1.0
  C  C3136  1  0.367300  0.815000  0.291200  1.0
  C  C3137  1  0.886000  0.159000  0.234200  1.0
  C  C3138  1  0.614000  0.341000  0.734200  1.0
  C  C3139  1  0.114000  0.841000  0.765800  1.0
  C  C3140  1  0.386000  0.659000  0.265800  1.0
  C  C3141  1  0.924800  0.323000  0.204600  1.0
  C  C3142  1  0.575200  0.177000  0.704600  1.0
  C  C3143  1  0.075200  0.677000  0.795400  1.0
  C  C3144  1  0.424800  0.823000  0.295400  1.0
  C  C3145  1  0.412700  0.337600  0.316010  1.0
  C  C3146  1  0.087300  0.162400  0.816010  1.0
  C  C3147  1  0.587300  0.662400  0.683990  1.0
  C  C3148  1  0.912700  0.837600  0.183990  1.0
  C  C3149  1  0.426700  0.291300  0.321900  1.0
  C  C3150  1  0.073300  0.208700  0.821900  1.0
  C  C3151  1  0.573300  0.708700  0.678100  1.0
  C  C3152  1  0.926700  0.791300  0.178100  1.0
  C  C3153  1  0.471800  0.290000  0.330000  1.0
  C  C3154  1  0.028200  0.210000  0.830000  1.0
  C  C3155  1  0.528200  0.710000  0.670000  1.0
  C  C3156  1  0.971800  0.790000  0.170000  1.0
  C  C3157  1  0.490300  0.375300  0.326800  1.0
  C  C3158  1  0.009700  0.124700  0.826800  1.0
  C  C3159  1  0.509700  0.624700  0.673200  1.0
  C  C3160  1  0.990300  0.875300  0.173200  1.0
  C  C3161  1  0.446100  0.380500  0.318700  1.0
  C  C3162  1  0.053900  0.119500  0.818700  1.0
  C  C3163  1  0.553900  0.619500  0.681300  1.0
  C  C3164  1  0.946100  0.880500  0.181300  1.0
  C  C3165  1  0.365200  0.341600  0.307100  1.0
  C  C3166  1  0.134800  0.158400  0.807100  1.0
  C  C3167  1  0.634800  0.658400  0.692900  1.0
  C  C3168  1  0.865200  0.841600  0.192900  1.0
  C  C3169  1  0.321800  0.307100  0.308700  1.0
  C  C3170  1  0.178200  0.192900  0.808700  1.0
  C  C3171  1  0.678200  0.692900  0.691300  1.0
  C  C3172  1  0.821800  0.807100  0.191300  1.0
  C  C3173  1  0.277600  0.310900  0.300900  1.0
  C  C3174  1  0.222400  0.189100  0.800900  1.0
  C  C3175  1  0.722400  0.689100  0.699100  1.0
  C  C3176  1  0.777600  0.810900  0.199100  1.0
  C  C3177  1  0.273600  0.349500  0.290400  1.0
  C  C3178  1  0.226400  0.150500  0.790400  1.0
  C  C3179  1  0.726400  0.650500  0.709600  1.0
  C  C3180  1  0.773600  0.849500  0.209600  1.0
  C  C3181  1  0.317800  0.383900  0.288000  1.0
  C  C3182  1  0.182200  0.116100  0.788000  1.0
  C  C3183  1  0.682200  0.616100  0.712000  1.0
  C  C3184  1  0.817800  0.883900  0.212000  1.0
  C  C3185  1  0.362400  0.379100  0.296700  1.0
  C  C3186  1  0.137600  0.120900  0.796700  1.0
  C  C3187  1  0.637600  0.620900  0.703300  1.0
  C  C3188  1  0.862400  0.879100  0.203300  1.0
  C  C3189  1  0.226800  0.356400  0.282500  1.0
  C  C3190  1  0.273200  0.143600  0.782500  1.0
  C  C3191  1  0.773200  0.643600  0.717500  1.0
  C  C3192  1  0.726800  0.856400  0.217500  1.0
  C  C3193  1  0.224400  0.394000  0.272500  1.0
  C  C3194  1  0.275600  0.106000  0.772500  1.0
  C  C3195  1  0.775600  0.606000  0.727500  1.0
  C  C3196  1  0.724400  0.894000  0.227500  1.0
  C  C3197  1  0.267900  0.428500  0.269500  1.0
  C  C3198  1  0.232100  0.071500  0.769500  1.0
  C  C3199  1  0.732100  0.571500  0.730500  1.0
  C  C3200  1  0.767900  0.928500  0.230500  1.0
  C  C3201  1  0.315200  0.423100  0.277190  1.0
  C  C3202  1  0.184800  0.076900  0.777190  1.0
  C  C3203  1  0.684800  0.576900  0.722810  1.0
  C  C3204  1  0.815200  0.923100  0.222810  1.0
  C  C3205  1  0.267600  0.467400  0.258900  1.0
  C  C3206  1  0.232400  0.032600  0.758900  1.0
  C  C3207  1  0.732400  0.532600  0.741100  1.0
  C  C3208  1  0.767600  0.967400  0.241100  1.0
  C  C3209  1  0.311400  0.497200  0.255800  1.0
  C  C3210  1  0.188600  0.002800  0.755800  1.0
  C  C3211  1  0.688600  0.502800  0.744200  1.0
  C  C3212  1  0.811400  0.997200  0.244200  1.0
  C  C3213  1  0.358700  0.492300  0.263100  1.0
  C  C3214  1  0.141300  0.007700  0.763100  1.0
  C  C3215  1  0.641300  0.507700  0.736900  1.0
  C  C3216  1  0.858700  0.992300  0.236900  1.0
  C  C3217  1  0.359300  0.455700  0.273700  1.0
  C  C3218  1  0.140700  0.044300  0.773700  1.0
  C  C3219  1  0.640700  0.544300  0.726300  1.0
  C  C3220  1  0.859300  0.955700  0.226300  1.0
  C  C3221  1  0.406700  0.524200  0.259400  1.0
  C  C3222  1  0.093300  0.975800  0.759400  1.0
  C  C3223  1  0.593300  0.475800  0.740600  1.0
  C  C3224  1  0.906700  0.024200  0.240600  1.0
  C  C3225  1  0.415400  0.544400  0.245900  1.0
  C  C3226  1  0.084600  0.955600  0.745900  1.0
  C  C3227  1  0.584600  0.455600  0.754100  1.0
  C  C3228  1  0.915400  0.044400  0.254100  1.0
  C  C3229  1  0.460500  0.574000  0.243000  1.0
  C  C3230  1  0.039500  0.926000  0.743000  1.0
  C  C3231  1  0.539500  0.426000  0.757000  1.0
  C  C3232  1  0.960500  0.074000  0.257000  1.0
  C  C3233  1  0.489600  0.566300  0.265600  1.0
  C  C3234  1  0.010400  0.933700  0.765600  1.0
  C  C3235  1  0.510400  0.433700  0.734400  1.0
  C  C3236  1  0.989600  0.066300  0.234400  1.0
  C  C3237  1  0.445900  0.535700  0.269400  1.0
  C  C3238  1  0.054100  0.964300  0.769400  1.0
  C  C3239  1  0.554100  0.464300  0.730600  1.0
  C  C3240  1  0.945900  0.035700  0.230600  1.0
  C  C3241  1  0.142000  0.345700  0.293600  1.0
  C  C3242  1  0.358000  0.154300  0.793600  1.0
  C  C3243  1  0.858000  0.654300  0.706400  1.0
  C  C3244  1  0.642000  0.845700  0.206400  1.0
  C  C3245  1  0.171900  0.362200  0.253000  1.0
  C  C3246  1  0.328100  0.137800  0.753000  1.0
  C  C3247  1  0.828100  0.637800  0.747000  1.0
  C  C3248  1  0.671900  0.862200  0.247000  1.0
  C  C3249  1  0.099100  0.303000  0.295100  1.0
  C  C3250  1  0.400900  0.197000  0.795100  1.0
  C  C3251  1  0.900900  0.697000  0.704900  1.0
  C  C3252  1  0.599100  0.803000  0.204900  1.0
  C  C3253  1  0.136000  0.383000  0.242200  1.0
  C  C3254  1  0.364000  0.117000  0.742200  1.0
  C  C3255  1  0.864000  0.617000  0.757800  1.0
  C  C3256  1  0.636000  0.883000  0.257800  1.0
  C  C3257  1  0.110000  0.268000  0.307300  1.0
  C  C3258  1  0.390000  0.232000  0.807300  1.0
  C  C3259  1  0.890000  0.732000  0.692700  1.0
  C  C3260  1  0.610000  0.768000  0.192700  1.0
  C  C3261  1  0.154000  0.371000  0.227300  1.0
  C  C3262  1  0.346000  0.129000  0.727300  1.0
  C  C3263  1  0.846000  0.629000  0.772700  1.0
  C  C3264  1  0.654000  0.871000  0.272700  1.0
  C  C3265  1  0.469100  0.781700  0.245800  1.0
  C  C3266  1  0.030900  0.718300  0.745800  1.0
  C  C3267  1  0.530900  0.218300  0.754200  1.0
  C  C3268  1  0.969100  0.281700  0.254200  1.0
  C  C3269  1  0.466800  0.747700  0.234300  1.0
  C  C3270  1  0.033200  0.752300  0.734300  1.0
  C  C3271  1  0.533200  0.252300  0.765700  1.0
  C  C3272  1  0.966800  0.247700  0.265700  1.0
  C  C3273  1  0.495000  0.703900  0.234700  1.0
  C  C3274  1  0.005000  0.796100  0.734700  1.0
  C  C3275  1  0.505000  0.296100  0.765300  1.0
  C  C3276  1  0.995000  0.203900  0.265300  1.0
  C  C3277  1  0.527600  0.724200  0.256600  1.0
  C  C3278  1  0.972400  0.775800  0.756600  1.0
  C  C3279  1  0.472400  0.275800  0.743400  1.0
  C  C3280  1  0.027600  0.224200  0.243400  1.0
  C  C3281  1  0.500600  0.768800  0.257200  1.0
  C  C3282  1  0.999400  0.731200  0.757200  1.0
  C  C3283  1  0.499400  0.231200  0.742800  1.0
  C  C3284  1  0.000600  0.268800  0.242800  1.0
  C  C3285  1  0.441000  0.830200  0.245600  1.0
  C  C3286  1  0.059000  0.669800  0.745600  1.0
  C  C3287  1  0.559000  0.169800  0.754400  1.0
  C  C3288  1  0.941000  0.330200  0.254400  1.0
  C  C3289  1  0.396200  0.835800  0.237400  1.0
  C  C3290  1  0.103800  0.664200  0.737400  1.0
  C  C3291  1  0.603800  0.164200  0.762600  1.0
  C  C3292  1  0.896200  0.335800  0.262600  1.0
  C  C3293  1  0.371300  0.880700  0.237100  1.0
  C  C3294  1  0.128700  0.619300  0.737100  1.0
  C  C3295  1  0.628700  0.119300  0.762900  1.0
  C  C3296  1  0.871300  0.380700  0.262900  1.0
  C  C3297  1  0.390100  0.924100  0.245100  1.0
  C  C3298  1  0.109900  0.575900  0.745100  1.0
  C  C3299  1  0.609900  0.075900  0.754900  1.0
  C  C3300  1  0.890100  0.424100  0.254900  1.0
  C  C3301  1  0.436100  0.919800  0.253500  1.0
  C  C3302  1  0.063900  0.580200  0.753500  1.0
  C  C3303  1  0.563900  0.080200  0.746500  1.0
  C  C3304  1  0.936100  0.419800  0.246500  1.0
  C  C3305  1  0.459700  0.872000  0.253500  1.0
  C  C3306  1  0.040300  0.628000  0.753500  1.0
  C  C3307  1  0.540300  0.128000  0.746500  1.0
  C  C3308  1  0.959700  0.372000  0.246500  1.0
  C  C3309  1  0.365700  0.972000  0.244700  1.0
  C  C3310  1  0.134300  0.528000  0.744700  1.0
  C  C3311  1  0.634300  0.028000  0.755300  1.0
  C  C3312  1  0.865700  0.472000  0.255300  1.0
  C  C3313  1  0.385700  0.013500  0.252000  1.0
  C  C3314  1  0.114300  0.486500  0.752000  1.0
  C  C3315  1  0.614300  0.986500  0.748000  1.0
  C  C3316  1  0.885700  0.513500  0.248000  1.0
  C  C3317  1  0.432400  0.011600  0.260200  1.0
  C  C3318  1  0.067600  0.488400  0.760200  1.0
  C  C3319  1  0.567600  0.988400  0.739800  1.0
  C  C3320  1  0.932400  0.511600  0.239800  1.0
  C  C3321  1  0.457600  0.964200  0.261100  1.0
  C  C3322  1  0.042400  0.535800  0.761100  1.0
  C  C3323  1  0.542400  0.035800  0.738900  1.0
  C  C3324  1  0.957600  0.464200  0.238900  1.0
  C  C3325  1  0.456000  0.055100  0.267300  1.0
  C  C3326  1  0.044000  0.444900  0.767300  1.0
  C  C3327  1  0.544000  0.944900  0.732700  1.0
  C  C3328  1  0.956000  0.555100  0.232700  1.0
  C  C3329  1  0.501000  0.051700  0.275100  1.0
  C  C3330  1  0.999000  0.448300  0.775100  1.0
  C  C3331  1  0.499000  0.948300  0.724900  1.0
  C  C3332  1  0.001000  0.551700  0.224900  1.0
  C  C3333  1  0.525800  0.005700  0.276400  1.0
  C  C3334  1  0.974200  0.494300  0.776400  1.0
  C  C3335  1  0.474200  0.994300  0.723600  1.0
  C  C3336  1  0.025800  0.505700  0.223600  1.0
  C  C3337  1  0.503900  0.963400  0.269200  1.0
  C  C3338  1  0.996100  0.536600  0.769200  1.0
  C  C3339  1  0.496100  0.036600  0.730800  1.0
  C  C3340  1  0.003900  0.463400  0.230800  1.0
  C  C3341  1  0.572700  0.000800  0.285600  1.0
  C  C3342  1  0.927300  0.499200  0.785600  1.0
  C  C3343  1  0.427300  0.999200  0.714400  1.0
  C  C3344  1  0.072700  0.500800  0.214400  1.0
  C  C3345  1  0.609300  0.041200  0.288000  1.0
  C  C3346  1  0.890700  0.458800  0.788000  1.0
  C  C3347  1  0.390700  0.958800  0.712000  1.0
  C  C3348  1  0.109300  0.541200  0.212000  1.0
  C  C3349  1  0.653000  0.033600  0.296400  1.0
  C  C3350  1  0.847000  0.466400  0.796400  1.0
  C  C3351  1  0.347000  0.966400  0.703600  1.0
  C  C3352  1  0.153000  0.533600  0.203600  1.0
  C  C3353  1  0.627000  0.950000  0.300200  1.0
  C  C3354  1  0.873000  0.550000  0.800200  1.0
  C  C3355  1  0.373000  0.050000  0.699800  1.0
  C  C3356  1  0.127000  0.450000  0.199800  1.0
  C  C3357  1  0.582100  0.954000  0.292100  1.0
  C  C3358  1  0.917900  0.546000  0.792100  1.0
  C  C3359  1  0.417900  0.046000  0.707900  1.0
  C  C3360  1  0.082100  0.454000  0.207900  1.0
  C  C3361  1  0.326000  0.998300  0.222900  1.0
  C  C3362  1  0.174000  0.501700  0.722900  1.0
  C  C3363  1  0.674000  0.001700  0.777100  1.0
  C  C3364  1  0.826000  0.498300  0.277100  1.0
  C  C3365  1  0.368000  0.091100  0.240500  1.0
  C  C3366  1  0.132000  0.408900  0.740500  1.0
  C  C3367  1  0.632000  0.908900  0.759500  1.0
  C  C3368  1  0.868000  0.591100  0.259500  1.0
  C  C3369  1  0.312000  0.963000  0.210500  1.0
  C  C3370  1  0.188000  0.537000  0.710500  1.0
  C  C3371  1  0.688000  0.037000  0.789500  1.0
  C  C3372  1  0.812000  0.463000  0.289500  1.0
  C  C3373  1  0.356000  0.145700  0.242800  1.0
  C  C3374  1  0.144000  0.354300  0.742800  1.0
  C  C3375  1  0.644000  0.854300  0.757200  1.0
  C  C3376  1  0.856000  0.645700  0.257200  1.0
  C  C3377  1  0.253000  0.949000  0.209800  1.0
  C  C3378  1  0.247000  0.551000  0.709800  1.0
  C  C3379  1  0.747000  0.051000  0.790200  1.0
  C  C3380  1  0.753000  0.449000  0.290200  1.0
  C  C3381  1  0.362000  0.177000  0.228900  1.0
  C  C3382  1  0.138000  0.323000  0.728900  1.0
  C  C3383  1  0.638000  0.823000  0.771100  1.0
  C  C3384  1  0.862000  0.677000  0.271100  1.0
  C  C3385  1  0.837100  0.921300  0.279200  1.0
  C  C3386  1  0.662900  0.578700  0.779200  1.0
  C  C3387  1  0.162900  0.078700  0.720800  1.0
  C  C3388  1  0.337100  0.421300  0.220800  1.0
  C  C3389  1  0.846200  0.970500  0.284700  1.0
  C  C3390  1  0.653800  0.529500  0.784700  1.0
  C  C3391  1  0.153800  0.029500  0.715300  1.0
  C  C3392  1  0.346200  0.470500  0.215300  1.0
  C  C3393  1  0.812600  0.988900  0.294800  1.0
  C  C3394  1  0.687400  0.511100  0.794800  1.0
  C  C3395  1  0.187400  0.011100  0.705200  1.0
  C  C3396  1  0.312600  0.488900  0.205200  1.0
  C  C3397  1  0.763000  0.914100  0.294900  1.0
  C  C3398  1  0.737000  0.585900  0.794900  1.0
  C  C3399  1  0.237000  0.085900  0.705100  1.0
  C  C3400  1  0.263000  0.414100  0.205100  1.0
  C  C3401  1  0.794600  0.892400  0.284900  1.0
  C  C3402  1  0.705400  0.607600  0.784900  1.0
  C  C3403  1  0.205400  0.107600  0.715100  1.0
  C  C3404  1  0.294600  0.392400  0.215100  1.0
  C  C3405  1  0.869900  0.901300  0.267530  1.0
  C  C3406  1  0.630100  0.598700  0.767530  1.0
  C  C3407  1  0.130100  0.098700  0.732470  1.0
  C  C3408  1  0.369900  0.401300  0.232470  1.0
  C  C3409  1  0.922000  0.918500  0.265500  1.0
  C  C3410  1  0.578000  0.581500  0.765500  1.0
  C  C3411  1  0.078000  0.081500  0.734500  1.0
  C  C3412  1  0.422000  0.418500  0.234500  1.0
  C  C3413  1  0.952700  0.897700  0.255400  1.0
  C  C3414  1  0.547300  0.602300  0.755400  1.0
  C  C3415  1  0.047300  0.102300  0.744600  1.0
  C  C3416  1  0.452700  0.397700  0.244600  1.0
  C  C3417  1  0.932400  0.858400  0.246200  1.0
  C  C3418  1  0.567600  0.641600  0.746200  1.0
  C  C3419  1  0.067600  0.141600  0.753800  1.0
  C  C3420  1  0.432400  0.358400  0.253800  1.0
  C  C3421  1  0.879100  0.840700  0.247820  1.0
  C  C3422  1  0.620900  0.659300  0.747820  1.0
  C  C3423  1  0.120900  0.159300  0.752180  1.0
  C  C3424  1  0.379100  0.340700  0.252180  1.0
  C  C3425  1  0.849700  0.863300  0.258600  1.0
  C  C3426  1  0.650300  0.636700  0.758600  1.0
  C  C3427  1  0.150300  0.136700  0.741400  1.0
  C  C3428  1  0.349700  0.363300  0.241400  1.0
  C  C3429  1  0.962000  0.836900  0.235000  1.0
  C  C3430  1  0.538000  0.663100  0.735000  1.0
  C  C3431  1  0.038000  0.163100  0.765000  1.0
  C  C3432  1  0.462000  0.336900  0.265000  1.0
  C  C3433  1  0.940600  0.800100  0.226200  1.0
  C  C3434  1  0.559400  0.699900  0.726200  1.0
  C  C3435  1  0.059400  0.199900  0.773800  1.0
  C  C3436  1  0.440600  0.300100  0.273800  1.0
  C  C3437  1  0.887900  0.780700  0.227600  1.0
  C  C3438  1  0.612100  0.719300  0.727600  1.0
  C  C3439  1  0.112100  0.219300  0.772400  1.0
  C  C3440  1  0.387900  0.280700  0.272400  1.0
  C  C3441  1  0.856600  0.801400  0.238500  1.0
  C  C3442  1  0.643400  0.698600  0.738500  1.0
  C  C3443  1  0.143400  0.198600  0.761500  1.0
  C  C3444  1  0.356600  0.301400  0.261500  1.0
  C  C3445  1  0.866100  0.739700  0.219100  1.0
  C  C3446  1  0.633900  0.760300  0.719100  1.0
  C  C3447  1  0.133900  0.260300  0.780900  1.0
  C  C3448  1  0.366100  0.239700  0.280900  1.0
  C  C3449  1  0.816300  0.720400  0.221500  1.0
  C  C3450  1  0.683700  0.779600  0.721500  1.0
  C  C3451  1  0.183700  0.279600  0.778500  1.0
  C  C3452  1  0.316300  0.220400  0.278500  1.0
  C  C3453  1  0.784800  0.740000  0.232200  1.0
  C  C3454  1  0.715200  0.760000  0.732200  1.0
  C  C3455  1  0.215200  0.260000  0.767800  1.0
  C  C3456  1  0.284800  0.240000  0.267800  1.0
  C  C3457  1  0.805000  0.780300  0.240300  1.0
  C  C3458  1  0.695000  0.719700  0.740300  1.0
  C  C3459  1  0.195000  0.219700  0.759700  1.0
  C  C3460  1  0.305000  0.280300  0.259700  1.0
  C  C3461  1  0.731400  0.716200  0.235000  1.0
  C  C3462  1  0.768600  0.783800  0.735000  1.0
  C  C3463  1  0.268600  0.283800  0.765000  1.0
  C  C3464  1  0.231400  0.216200  0.265000  1.0
  C  C3465  1  0.697500  0.702800  0.223800  1.0
  C  C3466  1  0.802500  0.797200  0.723800  1.0
  C  C3467  1  0.302500  0.297200  0.776200  1.0
  C  C3468  1  0.197500  0.202800  0.276200  1.0
  C  C3469  1  0.648400  0.680200  0.226700  1.0
  C  C3470  1  0.851600  0.819800  0.726700  1.0
  C  C3471  1  0.351600  0.319800  0.773300  1.0
  C  C3472  1  0.148400  0.180200  0.273300  1.0
  C  C3473  1  0.663100  0.683600  0.250500  1.0
  C  C3474  1  0.836900  0.816400  0.750500  1.0
  C  C3475  1  0.336900  0.316400  0.749500  1.0
  C  C3476  1  0.163100  0.183600  0.249500  1.0
  C  C3477  1  0.713300  0.705500  0.248700  1.0
  C  C3478  1  0.786700  0.794500  0.748700  1.0
  C  C3479  1  0.286700  0.294500  0.751300  1.0
  C  C3480  1  0.213300  0.205500  0.251300  1.0
  C  C3481  1  0.027000  0.882000  0.220300  1.0
  C  C3482  1  0.473000  0.618000  0.720300  1.0
  C  C3483  1  0.973000  0.118000  0.779700  1.0
  C  C3484  1  0.527000  0.382000  0.279700  1.0
  C  C3485  1  0.996500  0.734200  0.220100  1.0
  C  C3486  1  0.503500  0.765800  0.720100  1.0
  C  C3487  1  0.003500  0.265800  0.779900  1.0
  C  C3488  1  0.496500  0.234200  0.279900  1.0
  C  C3489  1  0.073000  0.919000  0.223200  1.0
  C  C3490  1  0.427000  0.581000  0.723200  1.0
  C  C3491  1  0.927000  0.081000  0.776800  1.0
  C  C3492  1  0.573000  0.419000  0.276800  1.0
  C  C3493  1  0.052000  0.733000  0.215300  1.0
  C  C3494  1  0.448000  0.767000  0.715300  1.0
  C  C3495  1  0.948000  0.267000  0.784700  1.0
  C  C3496  1  0.552000  0.233000  0.284700  1.0
  C  C3497  1  0.069000  0.949000  0.236900  1.0
  C  C3498  1  0.431000  0.551000  0.736900  1.0
  C  C3499  1  0.931000  0.051000  0.763100  1.0
  C  C3500  1  0.569000  0.449000  0.263100  1.0
  C  C3501  1  0.081000  0.692000  0.224400  1.0
  C  C3502  1  0.419000  0.808000  0.724400  1.0
  C  C3503  1  0.919000  0.308000  0.775600  1.0
  C  C3504  1  0.581000  0.192000  0.275600  1.0
  C  C3505  1  0.884000  0.952100  0.343400  1.0
  C  C3506  1  0.616000  0.547900  0.843400  1.0
  C  C3507  1  0.116000  0.047900  0.656600  1.0
  C  C3508  1  0.384000  0.452100  0.156600  1.0
  C  C3509  1  0.879000  0.000800  0.337500  1.0
  C  C3510  1  0.621000  0.499200  0.837500  1.0
  C  C3511  1  0.121000  0.999200  0.662500  1.0
  C  C3512  1  0.379000  0.500800  0.162500  1.0
  C  C3513  1  0.832200  0.011500  0.331000  1.0
  C  C3514  1  0.667800  0.488500  0.831000  1.0
  C  C3515  1  0.167800  0.988500  0.669000  1.0
  C  C3516  1  0.332200  0.511500  0.169000  1.0
  C  C3517  1  0.796100  0.931400  0.335500  1.0
  C  C3518  1  0.703900  0.568600  0.835500  1.0
  C  C3519  1  0.203900  0.068600  0.664500  1.0
  C  C3520  1  0.296100  0.431400  0.164500  1.0
  C  C3521  1  0.841100  0.916900  0.342200  1.0
  C  C3522  1  0.658900  0.583100  0.842200  1.0
  C  C3523  1  0.158900  0.083100  0.657800  1.0
  C  C3524  1  0.341100  0.416900  0.157800  1.0
  C  C3525  1  0.932300  0.938500  0.351100  1.0
  C  C3526  1  0.567700  0.561500  0.851100  1.0
  C  C3527  1  0.067700  0.061500  0.648900  1.0
  C  C3528  1  0.432300  0.438500  0.148900  1.0
  C  C3529  1  0.982000  0.951100  0.345600  1.0
  C  C3530  1  0.518000  0.548900  0.845600  1.0
  C  C3531  1  0.018000  0.048900  0.654400  1.0
  C  C3532  1  0.482000  0.451100  0.154400  1.0
  C  C3533  1  0.026300  0.938700  0.352600  1.0
  C  C3534  1  0.473700  0.561300  0.852600  1.0
  C  C3535  1  0.973700  0.061300  0.647400  1.0
  C  C3536  1  0.526300  0.438700  0.147400  1.0
  C  C3537  1  0.023400  0.913600  0.366000  1.0
  C  C3538  1  0.476600  0.586400  0.866000  1.0
  C  C3539  1  0.976600  0.086400  0.634000  1.0
  C  C3540  1  0.523400  0.413600  0.134000  1.0
  C  C3541  1  0.973200  0.901000  0.371900  1.0
  C  C3542  1  0.526800  0.599000  0.871900  1.0
  C  C3543  1  0.026800  0.099000  0.628100  1.0
  C  C3544  1  0.473200  0.401000  0.128100  1.0
  C  C3545  1  0.928400  0.913300  0.364000  1.0
  C  C3546  1  0.571600  0.586700  0.864000  1.0
  C  C3547  1  0.071600  0.086700  0.636000  1.0
  C  C3548  1  0.428400  0.413300  0.136000  1.0
  C  C3549  1  0.068800  0.904000  0.374200  1.0
  C  C3550  1  0.431200  0.596000  0.874200  1.0
  C  C3551  1  0.931200  0.096000  0.625800  1.0
  C  C3552  1  0.568800  0.404000  0.125800  1.0
  C  C3553  1  0.065100  0.884800  0.387600  1.0
  C  C3554  1  0.434900  0.615200  0.887600  1.0
  C  C3555  1  0.934900  0.115200  0.612400  1.0
  C  C3556  1  0.565100  0.384800  0.112400  1.0
  C  C3557  1  0.015800  0.871500  0.394000  1.0
  C  C3558  1  0.484200  0.628500  0.894000  1.0
  C  C3559  1  0.984200  0.128500  0.606000  1.0
  C  C3560  1  0.515800  0.371500  0.106000  1.0
  C  C3561  1  0.969200  0.879100  0.386200  1.0
  C  C3562  1  0.530800  0.620900  0.886200  1.0
  C  C3563  1  0.030800  0.120900  0.613800  1.0
  C  C3564  1  0.469200  0.379100  0.113800  1.0
  C  C3565  1  0.010900  0.847500  0.407600  1.0
  C  C3566  1  0.489100  0.652500  0.907600  1.0
  C  C3567  1  0.989100  0.152500  0.592400  1.0
  C  C3568  1  0.510900  0.347500  0.092400  1.0
  C  C3569  1  0.963200  0.829000  0.412500  1.0
  C  C3570  1  0.536800  0.671000  0.912500  1.0
  C  C3571  1  0.036800  0.171000  0.587500  1.0
  C  C3572  1  0.463200  0.329000  0.087500  1.0
  C  C3573  1  0.917000  0.835000  0.404900  1.0
  C  C3574  1  0.583000  0.665000  0.904900  1.0
  C  C3575  1  0.083000  0.165000  0.595100  1.0
  C  C3576  1  0.417000  0.335000  0.095100  1.0
  C  C3577  1  0.920900  0.861900  0.392300  1.0
  C  C3578  1  0.579100  0.638100  0.892300  1.0
  C  C3579  1  0.079100  0.138100  0.607700  1.0
  C  C3580  1  0.420900  0.361900  0.107700  1.0
  C  C3581  1  0.867000  0.808400  0.409500  1.0
  C  C3582  1  0.633000  0.691600  0.909500  1.0
  C  C3583  1  0.133000  0.191600  0.590500  1.0
  C  C3584  1  0.367000  0.308400  0.090500  1.0
  C  C3585  1  0.830700  0.789400  0.399510  1.0
  C  C3586  1  0.669300  0.710600  0.899510  1.0
  C  C3587  1  0.169300  0.210600  0.600490  1.0
  C  C3588  1  0.330700  0.289400  0.100490  1.0
  C  C3589  1  0.786700  0.760700  0.403900  1.0
  C  C3590  1  0.713300  0.739300  0.903900  1.0
  C  C3591  1  0.213300  0.239300  0.596100  1.0
  C  C3592  1  0.286700  0.260700  0.096100  1.0
  C  C3593  1  0.809500  0.768600  0.427000  1.0
  C  C3594  1  0.690500  0.731400  0.927000  1.0
  C  C3595  1  0.190500  0.231400  0.573000  1.0
  C  C3596  1  0.309500  0.268600  0.073000  1.0
  C  C3597  1  0.855400  0.797200  0.423800  1.0
  C  C3598  1  0.644600  0.702800  0.923800  1.0
  C  C3599  1  0.144600  0.202800  0.576200  1.0
  C  C3600  1  0.355400  0.297200  0.076200  1.0
  C  C3601  1  0.143600  0.961300  0.374100  1.0
  C  C3602  1  0.356400  0.538700  0.874100  1.0
  C  C3603  1  0.856400  0.038700  0.625900  1.0
  C  C3604  1  0.643600  0.461300  0.125900  1.0
  C  C3605  1  0.131600  0.827900  0.393500  1.0
  C  C3606  1  0.368400  0.672100  0.893500  1.0
  C  C3607  1  0.868400  0.172100  0.606500  1.0
  C  C3608  1  0.631600  0.327900  0.106500  1.0
  C  C3609  1  0.181700  0.984000  0.363200  1.0
  C  C3610  1  0.318300  0.516000  0.863200  1.0
  C  C3611  1  0.818300  0.016000  0.636800  1.0
  C  C3612  1  0.681700  0.484000  0.136800  1.0
  C  C3613  1  0.187600  0.832000  0.398500  1.0
  C  C3614  1  0.312400  0.668000  0.898500  1.0
  C  C3615  1  0.812400  0.168000  0.601500  1.0
  C  C3616  1  0.687600  0.332000  0.101500  1.0
  C  C3617  1  0.229000  0.951000  0.362600  1.0
  C  C3618  1  0.271000  0.549000  0.862600  1.0
  C  C3619  1  0.771000  0.049000  0.637400  1.0
  C  C3620  1  0.729000  0.451000  0.137400  1.0
  C  C3621  1  0.218900  0.784000  0.397500  1.0
  C  C3622  1  0.281100  0.716000  0.897500  1.0
  C  C3623  1  0.781100  0.216000  0.602500  1.0
  C  C3624  1  0.718900  0.284000  0.102500  1.0
  C  C3625  1  0.405200  0.885200  0.396600  1.0
  C  C3626  1  0.094800  0.614800  0.896600  1.0
  C  C3627  1  0.594800  0.114800  0.603400  1.0
  C  C3628  1  0.905200  0.385200  0.103400  1.0
  C  C3629  1  0.358500  0.875500  0.403820  1.0
  C  C3630  1  0.141500  0.624500  0.903820  1.0
  C  C3631  1  0.641500  0.124500  0.596180  1.0
  C  C3632  1  0.858500  0.375500  0.096180  1.0
  C  C3633  1  0.356500  0.843300  0.415520  1.0
  C  C3634  1  0.143500  0.656700  0.915520  1.0
  C  C3635  1  0.643500  0.156700  0.584480  1.0
  C  C3636  1  0.856500  0.343300  0.084480  1.0
  C  C3637  1  0.444200  0.829900  0.413530  1.0
  C  C3638  1  0.055800  0.670100  0.913530  1.0
  C  C3639  1  0.555800  0.170100  0.586470  1.0
  C  C3640  1  0.944200  0.329900  0.086470  1.0
  C  C3641  1  0.449300  0.861400  0.401680  1.0
  C  C3642  1  0.050700  0.638600  0.901680  1.0
  C  C3643  1  0.550700  0.138600  0.598320  1.0
  C  C3644  1  0.949300  0.361400  0.098320  1.0
  C  C3645  1  0.408500  0.920000  0.384040  1.0
  C  C3646  1  0.091500  0.580000  0.884040  1.0
  C  C3647  1  0.591500  0.080000  0.615960  1.0
  C  C3648  1  0.908500  0.420000  0.115960  1.0
  C  C3649  1  0.381700  0.965000  0.383800  1.0
  C  C3650  1  0.118300  0.535000  0.883800  1.0
  C  C3651  1  0.618300  0.035000  0.616200  1.0
  C  C3652  1  0.881700  0.465000  0.116200  1.0
  C  C3653  1  0.382600  0.996500  0.372200  1.0
  C  C3654  1  0.117400  0.503500  0.872200  1.0
  C  C3655  1  0.617400  0.003500  0.627800  1.0
  C  C3656  1  0.882600  0.496500  0.127800  1.0
  C  C3657  1  0.412700  0.985000  0.360110  1.0
  C  C3658  1  0.087300  0.515000  0.860110  1.0
  C  C3659  1  0.587300  0.015000  0.639890  1.0
  C  C3660  1  0.912700  0.485000  0.139890  1.0
  C  C3661  1  0.442400  0.940300  0.360150  1.0
  C  C3662  1  0.057600  0.559700  0.860150  1.0
  C  C3663  1  0.557600  0.059700  0.639850  1.0
  C  C3664  1  0.942400  0.440300  0.139850  1.0
  C  C3665  1  0.437900  0.908200  0.372220  1.0
  C  C3666  1  0.062100  0.591800  0.872220  1.0
  C  C3667  1  0.562100  0.091800  0.627780  1.0
  C  C3668  1  0.937900  0.408200  0.127780  1.0
  C  C3669  1  0.413600  0.016600  0.347710  1.0
  C  C3670  1  0.086400  0.483400  0.847710  1.0
  C  C3671  1  0.586400  0.983400  0.652290  1.0
  C  C3672  1  0.913600  0.516600  0.152290  1.0
  C  C3673  1  0.443000  0.004800  0.336260  1.0
  C  C3674  1  0.057000  0.495200  0.836260  1.0
  C  C3675  1  0.557000  0.995200  0.663740  1.0
  C  C3676  1  0.943000  0.504800  0.163740  1.0
  C  C3677  1  0.473100  0.960500  0.335740  1.0
  C  C3678  1  0.026900  0.539500  0.835740  1.0
  C  C3679  1  0.526900  0.039500  0.664260  1.0
  C  C3680  1  0.973100  0.460500  0.164260  1.0
  C  C3681  1  0.473600  0.927900  0.347860  1.0
  C  C3682  1  0.026400  0.572100  0.847860  1.0
  C  C3683  1  0.526400  0.072100  0.652140  1.0
  C  C3684  1  0.973600  0.427900  0.152140  1.0
  C  C3685  1  0.501400  0.946700  0.323400  1.0
  C  C3686  1  0.998600  0.553300  0.823400  1.0
  C  C3687  1  0.498600  0.053300  0.676600  1.0
  C  C3688  1  0.001400  0.446700  0.176600  1.0
  C  C3689  1  0.527900  0.902700  0.323040  1.0
  C  C3690  1  0.972100  0.597300  0.823040  1.0
  C  C3691  1  0.472100  0.097300  0.676960  1.0
  C  C3692  1  0.027900  0.402700  0.176960  1.0
  C  C3693  1  0.528600  0.869900  0.334740  1.0
  C  C3694  1  0.971400  0.630100  0.834740  1.0
  C  C3695  1  0.471400  0.130100  0.665260  1.0
  C  C3696  1  0.028600  0.369900  0.165260  1.0
  C  C3697  1  0.502500  0.883500  0.346850  1.0
  C  C3698  1  0.997500  0.616500  0.846850  1.0
  C  C3699  1  0.497500  0.116500  0.653150  1.0
  C  C3700  1  0.002500  0.383500  0.153150  1.0
  C  C3701  1  0.558400  0.822400  0.334230  1.0
  C  C3702  1  0.941600  0.677600  0.834230  1.0
  C  C3703  1  0.441600  0.177600  0.665770  1.0
  C  C3704  1  0.058400  0.322400  0.165770  1.0
  C  C3705  1  0.559800  0.792800  0.321900  1.0
  C  C3706  1  0.940200  0.707200  0.821900  1.0
  C  C3707  1  0.440200  0.207200  0.678100  1.0
  C  C3708  1  0.059800  0.292800  0.178100  1.0
  C  C3709  1  0.588500  0.749100  0.321900  1.0
  C  C3710  1  0.911500  0.750900  0.821900  1.0
  C  C3711  1  0.411500  0.250900  0.678100  1.0
  C  C3712  1  0.088500  0.249100  0.178100  1.0
  C  C3713  1  0.613200  0.761600  0.345000  1.0
  C  C3714  1  0.886800  0.738400  0.845000  1.0
  C  C3715  1  0.386800  0.238400  0.655000  1.0
  C  C3716  1  0.113200  0.261600  0.155000  1.0
  C  C3717  1  0.586500  0.806200  0.345960  1.0
  C  C3718  1  0.913500  0.693800  0.845960  1.0
  C  C3719  1  0.413500  0.193800  0.654040  1.0
  C  C3720  1  0.086500  0.306200  0.154040  1.0
  C  C3721  1  0.332900  0.050900  0.340300  1.0
  C  C3722  1  0.167100  0.449100  0.840300  1.0
  C  C3723  1  0.667100  0.949100  0.659700  1.0
  C  C3724  1  0.832900  0.550900  0.159700  1.0
  C  C3725  1  0.487500  0.076400  0.325700  1.0
  C  C3726  1  0.012500  0.423600  0.825700  1.0
  C  C3727  1  0.512500  0.923600  0.674300  1.0
  C  C3728  1  0.987500  0.576400  0.174300  1.0
  C  C3729  1  0.306000  0.102000  0.341000  1.0
  C  C3730  1  0.194000  0.398000  0.841000  1.0
  C  C3731  1  0.694000  0.898000  0.659000  1.0
  C  C3732  1  0.806000  0.602000  0.159000  1.0
  C  C3733  1  0.492000  0.106000  0.312200  1.0
  C  C3734  1  0.008000  0.394000  0.812200  1.0
  C  C3735  1  0.508000  0.894000  0.687800  1.0
  C  C3736  1  0.992000  0.606000  0.187800  1.0
  C  C3737  1  0.281000  0.105000  0.355700  1.0
  C  C3738  1  0.219000  0.395000  0.855700  1.0
  C  C3739  1  0.719000  0.895000  0.644300  1.0
  C  C3740  1  0.781000  0.605000  0.144300  1.0
  C  C3741  1  0.549000  0.128000  0.311000  1.0
  C  C3742  1  0.951000  0.372000  0.811000  1.0
  C  C3743  1  0.451000  0.872000  0.689000  1.0
  C  C3744  1  0.049000  0.628000  0.189000  1.0
  N  N3745  1  0.372800  0.711800  0.426340  1.0
  N  N3746  1  0.127200  0.788200  0.926340  1.0
  N  N3747  1  0.627200  0.288200  0.573660  1.0
  N  N3748  1  0.872800  0.211800  0.073660  1.0
  N  N3749  1  0.590000  0.625900  0.338600  1.0
  N  N3750  1  0.910000  0.874100  0.838600  1.0
  N  N3751  1  0.410000  0.374100  0.661400  1.0
  N  N3752  1  0.090000  0.125900  0.161400  1.0
  N  N3753  1  0.006500  0.567100  0.397800  1.0
  N  N3754  1  0.493500  0.932900  0.897800  1.0
  N  N3755  1  0.993500  0.432900  0.602200  1.0
  N  N3756  1  0.506500  0.067100  0.102200  1.0
  N  N3757  1  0.692700  0.602200  0.333500  1.0
  N  N3758  1  0.807300  0.897800  0.833500  1.0
  N  N3759  1  0.307300  0.397800  0.666500  1.0
  N  N3760  1  0.192700  0.102200  0.166500  1.0
  N  N3761  1  0.054300  0.692600  0.419400  1.0
  N  N3762  1  0.445700  0.807400  0.919400  1.0
  N  N3763  1  0.945700  0.307400  0.580600  1.0
  N  N3764  1  0.554300  0.192600  0.080600  1.0
  N  N3765  1  0.831500  0.795100  0.505500  1.0
  N  N3766  1  0.668500  0.704900  0.005500  1.0
  N  N3767  1  0.168500  0.204900  0.494500  1.0
  N  N3768  1  0.331500  0.295100  0.994500  1.0
  N  N3769  1  0.413000  0.838300  0.449520  1.0
  N  N3770  1  0.087000  0.661700  0.949520  1.0
  N  N3771  1  0.587000  0.161700  0.550480  1.0
  N  N3772  1  0.913000  0.338300  0.050480  1.0
  N  N3773  1  0.728000  0.819800  0.510100  1.0
  N  N3774  1  0.772000  0.680200  0.010100  1.0
  N  N3775  1  0.272000  0.180200  0.489900  1.0
  N  N3776  1  0.228000  0.319800  0.989900  1.0
  N  N3777  1  0.386500  0.733500  0.455440  1.0
  N  N3778  1  0.113500  0.766500  0.955440  1.0
  N  N3779  1  0.613500  0.266500  0.544560  1.0
  N  N3780  1  0.886500  0.233500  0.044560  1.0
  N  N3781  1  0.701500  0.712500  0.516820  1.0
  N  N3782  1  0.798500  0.787500  0.016820  1.0
  N  N3783  1  0.298500  0.287500  0.483180  1.0
  N  N3784  1  0.201500  0.212500  0.983180  1.0
  N  N3785  1  0.804300  0.689300  0.511200  1.0
  N  N3786  1  0.695700  0.810700  0.011200  1.0
  N  N3787  1  0.195700  0.310700  0.488800  1.0
  N  N3788  1  0.304300  0.189300  0.988800  1.0
  N  N3789  1  0.030800  0.585900  0.426400  1.0
  N  N3790  1  0.469200  0.914100  0.926400  1.0
  N  N3791  1  0.969200  0.414100  0.573600  1.0
  N  N3792  1  0.530800  0.085900  0.073600  1.0
  N  N3793  1  0.719400  0.709300  0.327400  1.0
  N  N3794  1  0.780600  0.790700  0.827400  1.0
  N  N3795  1  0.280600  0.290700  0.672600  1.0
  N  N3796  1  0.219400  0.209300  0.172600  1.0
  N  N3797  1  0.041400  0.674200  0.390600  1.0
  N  N3798  1  0.458600  0.825800  0.890600  1.0
  N  N3799  1  0.958600  0.325800  0.609400  1.0
  N  N3800  1  0.541400  0.174200  0.109400  1.0
  N  N3801  1  0.523100  0.354400  0.361210  1.0
  N  N3802  1  0.976900  0.145600  0.861210  1.0
  N  N3803  1  0.476900  0.645600  0.638790  1.0
  N  N3804  1  0.023100  0.854400  0.138790  1.0
  N  N3805  1  0.641000  0.664600  0.424760  1.0
  N  N3806  1  0.859000  0.835400  0.924760  1.0
  N  N3807  1  0.359000  0.335400  0.575240  1.0
  N  N3808  1  0.141000  0.164600  0.075240  1.0
  N  N3809  1  0.668700  0.773100  0.420800  1.0
  N  N3810  1  0.831300  0.726900  0.920800  1.0
  N  N3811  1  0.331300  0.226900  0.579200  1.0
  N  N3812  1  0.168700  0.273100  0.079200  1.0
  N  N3813  1  0.679700  0.999700  0.332370  1.0
  N  N3814  1  0.820300  0.500300  0.832370  1.0
  N  N3815  1  0.320300  0.000300  0.667630  1.0
  N  N3816  1  0.179700  0.499700  0.167630  1.0
  N  N3817  1  0.750600  0.641700  0.420700  1.0
  N  N3818  1  0.749400  0.858300  0.920700  1.0
  N  N3819  1  0.249400  0.358300  0.579300  1.0
  N  N3820  1  0.250600  0.141700  0.079300  1.0
  N  N3821  1  0.629400  0.333900  0.357000  1.0
  N  N3822  1  0.870600  0.166100  0.857000  1.0
  N  N3823  1  0.370600  0.666100  0.643000  1.0
  N  N3824  1  0.129400  0.833900  0.143000  1.0
  N  N3825  1  0.612100  0.316600  0.327400  1.0
  N  N3826  1  0.887900  0.183400  0.827400  1.0
  N  N3827  1  0.387900  0.683400  0.672600  1.0
  N  N3828  1  0.112100  0.816600  0.172600  1.0
  N  N3829  1  0.607700  0.567400  0.245300  1.0
  N  N3830  1  0.892300  0.932600  0.745300  1.0
  N  N3831  1  0.392300  0.432600  0.754700  1.0
  N  N3832  1  0.107700  0.067400  0.254700  1.0
  N  N3833  1  0.504000  0.331300  0.332500  1.0
  N  N3834  1  0.996000  0.168700  0.832500  1.0
  N  N3835  1  0.496000  0.668700  0.667500  1.0
  N  N3836  1  0.004000  0.831300  0.167500  1.0
  N  N3837  1  0.497600  0.585800  0.252600  1.0
  N  N3838  1  0.002400  0.914200  0.752600  1.0
  N  N3839  1  0.502400  0.414200  0.747400  1.0
  N  N3840  1  0.997600  0.085800  0.247400  1.0
  N  N3841  1  0.525200  0.691400  0.245600  1.0
  N  N3842  1  0.974800  0.808600  0.745600  1.0
  N  N3843  1  0.474800  0.308600  0.754400  1.0
  N  N3844  1  0.025200  0.191400  0.254400  1.0
  N  N3845  1  0.662400  0.988700  0.302400  1.0
  N  N3846  1  0.837600  0.511300  0.802400  1.0
  N  N3847  1  0.337600  0.011300  0.697600  1.0
  N  N3848  1  0.162400  0.488700  0.197600  1.0
  N  N3849  1  0.770500  0.962000  0.299900  1.0
  N  N3850  1  0.729500  0.538000  0.799900  1.0
  N  N3851  1  0.229500  0.038000  0.700100  1.0
  N  N3852  1  0.270500  0.462000  0.200100  1.0
  N  N3853  1  0.630300  0.671000  0.239800  1.0
  N  N3854  1  0.869700  0.829000  0.739800  1.0
  N  N3855  1  0.369700  0.329000  0.760200  1.0
  N  N3856  1  0.130300  0.171000  0.260200  1.0
  N  N3857  1  0.790800  0.978000  0.329900  1.0
  N  N3858  1  0.709200  0.522000  0.829900  1.0
  N  N3859  1  0.209200  0.022000  0.670100  1.0
  N  N3860  1  0.290800  0.478000  0.170100  1.0
  N  N3861  1  0.775300  0.750000  0.417400  1.0
  N  N3862  1  0.724700  0.750000  0.917400  1.0
  N  N3863  1  0.224700  0.250000  0.582600  1.0
  N  N3864  1  0.275300  0.250000  0.082600  1.0
  N  N3865  1  0.398600  0.820700  0.420320  1.0
  N  N3866  1  0.101400  0.679300  0.920320  1.0
  N  N3867  1  0.601400  0.179300  0.579680  1.0
  N  N3868  1  0.898600  0.320700  0.079680  1.0
  N  N3869  1  0.615300  0.733100  0.333200  1.0
  N  N3870  1  0.884700  0.766900  0.833200  1.0
  N  N3871  1  0.384700  0.266900  0.666800  1.0
  N  N3872  1  0.115300  0.233100  0.166800  1.0
  N  N3873  1  0.757900  0.124400  0.308100  1.0
  N  N3874  1  0.742100  0.375600  0.808100  1.0
  N  N3875  1  0.242100  0.875600  0.691900  1.0
  N  N3876  1  0.257900  0.624400  0.191900  1.0
  N  N3877  1  0.622000  0.639300  0.288400  1.0
  N  N3878  1  0.878000  0.860700  0.788400  1.0
  N  N3879  1  0.378000  0.360700  0.711600  1.0
  N  N3880  1  0.122000  0.139300  0.211600  1.0
  N  N3881  1  0.549200  0.189700  0.352400  1.0
  N  N3882  1  0.950800  0.310300  0.852400  1.0
  N  N3883  1  0.450800  0.810300  0.647600  1.0
  N  N3884  1  0.049200  0.689700  0.147600  1.0
  N  N3885  1  0.742000  0.726100  0.464900  1.0
  N  N3886  1  0.758000  0.773900  0.964900  1.0
  N  N3887  1  0.258000  0.273900  0.535100  1.0
  N  N3888  1  0.242000  0.226100  0.035100  1.0
  N  N3889  1  0.176400  0.603400  0.408100  1.0
  N  N3890  1  0.323600  0.896600  0.908100  1.0
  N  N3891  1  0.823600  0.396600  0.591900  1.0
  N  N3892  1  0.676400  0.103400  0.091900  1.0
  N  N3893  1  0.618300  0.846400  0.467900  1.0
  N  N3894  1  0.881700  0.653600  0.967900  1.0
  N  N3895  1  0.381700  0.153600  0.532100  1.0
  N  N3896  1  0.118300  0.346400  0.032100  1.0
  N  N3897  1  0.601600  0.487700  0.340900  1.0
  N  N3898  1  0.898400  0.012300  0.840900  1.0
  N  N3899  1  0.398400  0.512300  0.659100  1.0
  N  N3900  1  0.101600  0.987700  0.159100  1.0
  N  N3901  1  0.672000  0.690300  0.377300  1.0
  N  N3902  1  0.828000  0.809700  0.877300  1.0
  N  N3903  1  0.328000  0.309700  0.622700  1.0
  N  N3904  1  0.172000  0.190300  0.122700  1.0
  N  N3905  1  0.257900  0.818700  0.439400  1.0
  N  N3906  1  0.242100  0.681300  0.939400  1.0
  N  N3907  1  0.742100  0.181300  0.560600  1.0
  N  N3908  1  0.757900  0.318700  0.060600  1.0
  N  N3909  1  0.893900  0.669300  0.413800  1.0
  N  N3910  1  0.606100  0.830700  0.913800  1.0
  N  N3911  1  0.106100  0.330700  0.586200  1.0
  N  N3912  1  0.393900  0.169300  0.086200  1.0
  N  N3913  1  0.820700  0.568000  0.371400  1.0
  N  N3914  1  0.679300  0.932000  0.871400  1.0
  N  N3915  1  0.179300  0.432000  0.628600  1.0
  N  N3916  1  0.320700  0.068000  0.128600  1.0
  N  N3917  1  0.773000  0.776700  0.555700  1.0
  N  N3918  1  0.727000  0.723300  0.055700  1.0
  N  N3919  1  0.227000  0.223300  0.444300  1.0
  N  N3920  1  0.273000  0.276700  0.944300  1.0
  O  O3921  1  0.255400  0.413400  0.380200  1.0
  O  O3922  1  0.244600  0.086600  0.880200  1.0
  O  O3923  1  0.744600  0.586600  0.619800  1.0
  O  O3924  1  0.755400  0.913400  0.119800  1.0
  O  O3925  1  0.312900  0.391900  0.355800  1.0
  O  O3926  1  0.187100  0.108100  0.855800  1.0
  O  O3927  1  0.687100  0.608100  0.644200  1.0
  O  O3928  1  0.812900  0.891900  0.144200  1.0
  O  O3929  1  0.911400  0.266900  0.348600  1.0
  O  O3930  1  0.588600  0.233100  0.848600  1.0
  O  O3931  1  0.088600  0.733100  0.651400  1.0
  O  O3932  1  0.411400  0.766900  0.151400  1.0
  O  O3933  1  0.820200  0.276200  0.332400  1.0
  O  O3934  1  0.679800  0.223800  0.832400  1.0
  O  O3935  1  0.179800  0.723800  0.667600  1.0
  O  O3936  1  0.320200  0.776200  0.167600  1.0
  O  O3937  1  0.177400  0.993400  0.464800  1.0
  O  O3938  1  0.322600  0.506600  0.964800  1.0
  O  O3939  1  0.822600  0.006600  0.535200  1.0
  O  O3940  1  0.677400  0.493400  0.035200  1.0
  O  O3941  1  0.127300  0.008600  0.490230  1.0
  O  O3942  1  0.372700  0.491400  0.990230  1.0
  O  O3943  1  0.872700  0.991400  0.509770  1.0
  O  O3944  1  0.627300  0.508600  0.009770  1.0
  O  O3945  1  0.518800  0.154900  0.488530  1.0
  O  O3946  1  0.981200  0.345100  0.988530  1.0
  O  O3947  1  0.481200  0.845100  0.511470  1.0
  O  O3948  1  0.018800  0.654900  0.011470  1.0
  O  O3949  1  0.608500  0.148700  0.505800  1.0
  O  O3950  1  0.891500  0.351300  0.005800  1.0
  O  O3951  1  0.391500  0.851300  0.494200  1.0
  O  O3952  1  0.108500  0.648700  0.994200  1.0
  O  O3953  1  0.331700  0.509000  0.531100  1.0
  O  O3954  1  0.168300  0.991000  0.031100  1.0
  O  O3955  1  0.668300  0.491000  0.468900  1.0
  O  O3956  1  0.831700  0.009000  0.968900  1.0
  O  O3957  1  0.415100  0.516500  0.550950  1.0
  O  O3958  1  0.084900  0.983500  0.050950  1.0
  O  O3959  1  0.584900  0.483500  0.449050  1.0
  O  O3960  1  0.915100  0.016500  0.949050  1.0
  O  O3961  1  0.932300  0.360500  0.517600  1.0
  O  O3962  1  0.567700  0.139500  0.017600  1.0
  O  O3963  1  0.067700  0.639500  0.482400  1.0
  O  O3964  1  0.432300  0.860500  0.982400  1.0
  O  O3965  1  0.994800  0.335100  0.495100  1.0
  O  O3966  1  0.505200  0.164900  0.995100  1.0
  O  O3967  1  0.005200  0.664900  0.504900  1.0
  O  O3968  1  0.494800  0.835100  0.004900  1.0
  O  O3969  1  0.018900  0.882100  0.293000  1.0
  O  O3970  1  0.481100  0.617900  0.793000  1.0
  O  O3971  1  0.981100  0.117900  0.707000  1.0
  O  O3972  1  0.518900  0.382100  0.207000  1.0
  O  O3973  1  0.107600  0.872400  0.310500  1.0
  O  O3974  1  0.392400  0.627600  0.810500  1.0
  O  O3975  1  0.892400  0.127600  0.689500  1.0
  O  O3976  1  0.607600  0.372400  0.189500  1.0
  O  O3977  1  0.297400  0.415600  0.435400  1.0
  O  O3978  1  0.202600  0.084400  0.935400  1.0
  O  O3979  1  0.702600  0.584400  0.564600  1.0
  O  O3980  1  0.797400  0.915600  0.064600  1.0
  O  O3981  1  0.323400  0.505500  0.450420  1.0
  O  O3982  1  0.176600  0.994500  0.950420  1.0
  O  O3983  1  0.676600  0.494500  0.549580  1.0
  O  O3984  1  0.823400  0.005500  0.049580  1.0
  O  O3985  1  0.451000  0.043900  0.426700  1.0
  O  O3986  1  0.049000  0.456100  0.926700  1.0
  O  O3987  1  0.549000  0.956100  0.573300  1.0
  O  O3988  1  0.951000  0.543900  0.073300  1.0
  O  O3989  1  0.440800  0.098100  0.400500  1.0
  O  O3990  1  0.059200  0.401900  0.900500  1.0
  O  O3991  1  0.559200  0.901900  0.599500  1.0
  O  O3992  1  0.940800  0.598100  0.099500  1.0
  O  O3993  1  0.972700  0.369200  0.421100  1.0
  O  O3994  1  0.527300  0.130800  0.921100  1.0
  O  O3995  1  0.027300  0.630800  0.578900  1.0
  O  O3996  1  0.472700  0.869200  0.078900  1.0
  O  O3997  1  0.937800  0.289800  0.403100  1.0
  O  O3998  1  0.562200  0.210200  0.903100  1.0
  O  O3999  1  0.062200  0.710200  0.596900  1.0
  O  O4000  1  0.437800  0.789800  0.096900  1.0
  O  O4001  1  0.811900  0.221700  0.249300  1.0
  O  O4002  1  0.688100  0.278300  0.749300  1.0
  O  O4003  1  0.188100  0.778300  0.750700  1.0
  O  O4004  1  0.311900  0.721700  0.250700  1.0
  O  O4005  1  0.802600  0.285800  0.225800  1.0
  O  O4006  1  0.697400  0.214200  0.725800  1.0
  O  O4007  1  0.197400  0.714200  0.774200  1.0
  O  O4008  1  0.302600  0.785800  0.274200  1.0
  O  O4009  1  0.184200  0.324000  0.285900  1.0
  O  O4010  1  0.315800  0.176000  0.785900  1.0
  O  O4011  1  0.815800  0.676000  0.714100  1.0
  O  O4012  1  0.684200  0.824000  0.214100  1.0
  O  O4013  1  0.179200  0.398100  0.264700  1.0
  O  O4014  1  0.320800  0.101900  0.764700  1.0
  O  O4015  1  0.820800  0.601900  0.735300  1.0
  O  O4016  1  0.679200  0.898100  0.235300  1.0
  O  O4017  1  0.320900  0.972600  0.236500  1.0
  O  O4018  1  0.179100  0.527400  0.736500  1.0
  O  O4019  1  0.679100  0.027400  0.763500  1.0
  O  O4020  1  0.820900  0.472600  0.263500  1.0
  O  O4021  1  0.359500  0.058500  0.252700  1.0
  O  O4022  1  0.140500  0.441500  0.752700  1.0
  O  O4023  1  0.640500  0.941500  0.747300  1.0
  O  O4024  1  0.859500  0.558500  0.247300  1.0
  O  O4025  1  0.013000  0.855700  0.233200  1.0
  O  O4026  1  0.487000  0.644300  0.733200  1.0
  O  O4027  1  0.987000  0.144300  0.766800  1.0
  O  O4028  1  0.513000  0.355700  0.266800  1.0
  O  O4029  1  0.971000  0.779700  0.215800  1.0
  O  O4030  1  0.529000  0.720300  0.715800  1.0
  O  O4031  1  0.029000  0.220300  0.784200  1.0
  O  O4032  1  0.471000  0.279700  0.284200  1.0
  O  O4033  1  0.117000  0.916600  0.368000  1.0
  O  O4034  1  0.383000  0.583400  0.868000  1.0
  O  O4035  1  0.883000  0.083400  0.632000  1.0
  O  O4036  1  0.617000  0.416600  0.132000  1.0
  O  O4037  1  0.110200  0.877500  0.395300  1.0
  O  O4038  1  0.389800  0.622500  0.895300  1.0
  O  O4039  1  0.889800  0.122500  0.604700  1.0
  O  O4040  1  0.610200  0.377500  0.104700  1.0
  O  O4041  1  0.381200  0.057200  0.348100  1.0
  O  O4042  1  0.118800  0.442800  0.848100  1.0
  O  O4043  1  0.618800  0.942800  0.651900  1.0
  O  O4044  1  0.881200  0.557200  0.151900  1.0
  O  O4045  1  0.446200  0.036700  0.324600  1.0
  O  O4046  1  0.053800  0.463300  0.824600  1.0
  O  O4047  1  0.553800  0.963300  0.675400  1.0
  O  O4048  1  0.946200  0.536700  0.175400  1.0
  O  O4049  1  0.787100  0.158500  0.302700  1.0
  O  O4050  1  0.712900  0.341500  0.802700  1.0
  O  O4051  1  0.212900  0.841500  0.697300  1.0
  O  O4052  1  0.287100  0.658500  0.197300  1.0
  O  O4053  1  0.711300  0.136200  0.311900  1.0
  O  O4054  1  0.788700  0.363800  0.811900  1.0
  O  O4055  1  0.288700  0.863800  0.688100  1.0
  O  O4056  1  0.211300  0.636200  0.188100  1.0
  O  O4057  1  0.768800  0.081100  0.309700  1.0
  O  O4058  1  0.731200  0.418900  0.809700  1.0
  O  O4059  1  0.231200  0.918900  0.690300  1.0
  O  O4060  1  0.268800  0.581100  0.190300  1.0
  O  O4061  1  0.669800  0.633100  0.284900  1.0
  O  O4062  1  0.830200  0.866900  0.784900  1.0
  O  O4063  1  0.330200  0.366900  0.715100  1.0
  O  O4064  1  0.169800  0.133100  0.215100  1.0
  O  O4065  1  0.618900  0.649400  0.301400  1.0
  O  O4066  1  0.881100  0.850600  0.801400  1.0
  O  O4067  1  0.381100  0.350600  0.698600  1.0
  O  O4068  1  0.118900  0.149400  0.198600  1.0
  O  O4069  1  0.586200  0.634100  0.280200  1.0
  O  O4070  1  0.913800  0.865900  0.780200  1.0
  O  O4071  1  0.413800  0.365900  0.719800  1.0
  O  O4072  1  0.086200  0.134100  0.219800  1.0
  O  O4073  1  0.594300  0.183100  0.348800  1.0
  O  O4074  1  0.905700  0.316900  0.848800  1.0
  O  O4075  1  0.405700  0.816900  0.651200  1.0
  O  O4076  1  0.094300  0.683100  0.151200  1.0
  O  O4077  1  0.538000  0.202500  0.365700  1.0
  O  O4078  1  0.962000  0.297500  0.865700  1.0
  O  O4079  1  0.462000  0.797500  0.634300  1.0
  O  O4080  1  0.038000  0.702500  0.134300  1.0
  O  O4081  1  0.511600  0.180900  0.344800  1.0
  O  O4082  1  0.988400  0.319100  0.844800  1.0
  O  O4083  1  0.488400  0.819100  0.655200  1.0
  O  O4084  1  0.011600  0.680900  0.155200  1.0
  O  O4085  1  0.730800  0.734500  0.476900  1.0
  O  O4086  1  0.769200  0.765500  0.976900  1.0
  O  O4087  1  0.269200  0.265500  0.523100  1.0
  O  O4088  1  0.230800  0.234500  0.023100  1.0
  O  O4089  1  0.791800  0.712900  0.462400  1.0
  O  O4090  1  0.708200  0.787100  0.962400  1.0
  O  O4091  1  0.208200  0.287100  0.537600  1.0
  O  O4092  1  0.291800  0.212900  0.037600  1.0
  O  O4093  1  0.720200  0.723700  0.453800  1.0
  O  O4094  1  0.779800  0.776300  0.953800  1.0
  O  O4095  1  0.279800  0.276300  0.546200  1.0
  O  O4096  1  0.220200  0.223700  0.046200  1.0
  O  O4097  1  0.149600  0.576600  0.400400  1.0
  O  O4098  1  0.350400  0.923400  0.900400  1.0
  O  O4099  1  0.850400  0.423400  0.599600  1.0
  O  O4100  1  0.649600  0.076600  0.099600  1.0
  O  O4101  1  0.184400  0.588300  0.420400  1.0
  O  O4102  1  0.315600  0.911700  0.920400  1.0
  O  O4103  1  0.815600  0.411700  0.579600  1.0
  O  O4104  1  0.684400  0.088300  0.079600  1.0
  O  O4105  1  0.197200  0.643400  0.403700  1.0
  O  O4106  1  0.302800  0.856600  0.903700  1.0
  O  O4107  1  0.802800  0.356600  0.596300  1.0
  O  O4108  1  0.697200  0.143400  0.096300  1.0
  O  O4109  1  0.661600  0.827500  0.466000  1.0
  O  O4110  1  0.838400  0.672500  0.966000  1.0
  O  O4111  1  0.338400  0.172500  0.534000  1.0
  O  O4112  1  0.161600  0.327500  0.034000  1.0
  O  O4113  1  0.581400  0.816400  0.471300  1.0
  O  O4114  1  0.918600  0.683600  0.971300  1.0
  O  O4115  1  0.418600  0.183600  0.528700  1.0
  O  O4116  1  0.081400  0.316400  0.028700  1.0
  O  O4117  1  0.611000  0.892200  0.466100  1.0
  O  O4118  1  0.889000  0.607800  0.966100  1.0
  O  O4119  1  0.389000  0.107800  0.533900  1.0
  O  O4120  1  0.111000  0.392200  0.033900  1.0
  O  O4121  1  0.590800  0.446600  0.336400  1.0
  O  O4122  1  0.909200  0.053400  0.836400  1.0
  O  O4123  1  0.409200  0.553400  0.663600  1.0
  O  O4124  1  0.090800  0.946600  0.163600  1.0
  O  O4125  1  0.611400  0.495700  0.354400  1.0
  O  O4126  1  0.888600  0.004300  0.854400  1.0
  O  O4127  1  0.388600  0.504300  0.645600  1.0
  O  O4128  1  0.111400  0.995700  0.145600  1.0
  O  O4129  1  0.601500  0.523900  0.332600  1.0
  O  O4130  1  0.898500  0.976100  0.832600  1.0
  O  O4131  1  0.398500  0.476100  0.667400  1.0
  O  O4132  1  0.101500  0.023900  0.167400  1.0
  O  O4133  1  0.698800  0.691800  0.387700  1.0
  O  O4134  1  0.801200  0.808200  0.887700  1.0
  O  O4135  1  0.301200  0.308200  0.612300  1.0
  O  O4136  1  0.198800  0.191800  0.112300  1.0
  O  O4137  1  0.685900  0.681600  0.365500  1.0
  O  O4138  1  0.814100  0.818400  0.865500  1.0
  O  O4139  1  0.314100  0.318400  0.634500  1.0
  O  O4140  1  0.185900  0.181600  0.134500  1.0
  O  O4141  1  0.624400  0.700900  0.379500  1.0
  O  O4142  1  0.875600  0.799100  0.879500  1.0
  O  O4143  1  0.375600  0.299100  0.620500  1.0
  O  O4144  1  0.124400  0.200900  0.120500  1.0
  O  O4145  1  0.242400  0.786300  0.431800  1.0
  O  O4146  1  0.257600  0.713700  0.931800  1.0
  O  O4147  1  0.757600  0.213700  0.568200  1.0
  O  O4148  1  0.742400  0.286300  0.068200  1.0
  O  O4149  1  0.254400  0.872200  0.437000  1.0
  O  O4150  1  0.245600  0.627800  0.937000  1.0
  O  O4151  1  0.745600  0.127800  0.563000  1.0
  O  O4152  1  0.754400  0.372200  0.063000  1.0
  O  O4153  1  0.279400  0.812300  0.450800  1.0
  O  O4154  1  0.220600  0.687700  0.950800  1.0
  O  O4155  1  0.720600  0.187700  0.549200  1.0
  O  O4156  1  0.779400  0.312300  0.049200  1.0
  O  O4157  1  0.894200  0.676100  0.426600  1.0
  O  O4158  1  0.605800  0.823900  0.926600  1.0
  O  O4159  1  0.105800  0.323900  0.573400  1.0
  O  O4160  1  0.394200  0.176100  0.073400  1.0
  O  O4161  1  0.855300  0.676600  0.405200  1.0
  O  O4162  1  0.644700  0.823400  0.905200  1.0
  O  O4163  1  0.144700  0.323400  0.594800  1.0
  O  O4164  1  0.355300  0.176600  0.094800  1.0
  O  O4165  1  0.929900  0.653300  0.406900  1.0
  O  O4166  1  0.570100  0.846700  0.906900  1.0
  O  O4167  1  0.070100  0.346700  0.593100  1.0
  O  O4168  1  0.429900  0.153300  0.093100  1.0
  O  O4169  1  0.812000  0.524000  0.375900  1.0
  O  O4170  1  0.688000  0.976000  0.875900  1.0
  O  O4171  1  0.188000  0.476000  0.624100  1.0
  O  O4172  1  0.312000  0.024000  0.124100  1.0
  O  O4173  1  0.793000  0.603000  0.377200  1.0
  O  O4174  1  0.707000  0.897000  0.877200  1.0
  O  O4175  1  0.207000  0.397000  0.622800  1.0
  O  O4176  1  0.293000  0.103000  0.122800  1.0
  O  O4177  1  0.851000  0.583000  0.361900  1.0
  O  O4178  1  0.649000  0.917000  0.861900  1.0
  O  O4179  1  0.149000  0.417000  0.638100  1.0
  O  O4180  1  0.351000  0.083000  0.138100  1.0
  O  O4181  1  0.743000  0.809000  0.559300  1.0
  O  O4182  1  0.757000  0.691000  0.059300  1.0
  O  O4183  1  0.257000  0.191000  0.440700  1.0
  O  O4184  1  0.243000  0.309000  0.940700  1.0
  O  O4185  1  0.801000  0.777000  0.544300  1.0
  O  O4186  1  0.699000  0.723000  0.044300  1.0
  O  O4187  1  0.199000  0.223000  0.455700  1.0
  O  O4188  1  0.301000  0.277000  0.955700  1.0
  O  O4189  1  0.777000  0.736500  0.562700  1.0
  O  O4190  1  0.723000  0.763500  0.062700  1.0
  O  O4191  1  0.223000  0.263500  0.437300  1.0
  O  O4192  1  0.277000  0.236500  0.937300  1.0
