# generated using pymatgen
data_H88Pd2C108(N2O3)5
_symmetry_space_group_name_H-M   'P 1'
_cell_length_a   22.71800000
_cell_length_b   24.77800000
_cell_length_c   24.77800000
_cell_angle_alpha   90.00000000
_cell_angle_beta   90.00000000
_cell_angle_gamma   90.00000000
_symmetry_Int_Tables_number   1
_chemical_formula_structural   H88Pd2C108(N2O3)5
_chemical_formula_sum   'H352 Pd8 C432 N40 O60'
_cell_volume   13947.69983391
_cell_formula_units_Z   4
loop_
 _symmetry_equiv_pos_site_id
 _symmetry_equiv_pos_as_xyz
  1  'x, y, z'
loop_
 _atom_site_type_symbol
 _atom_site_label
 _atom_site_symmetry_multiplicity
 _atom_site_fract_x
 _atom_site_fract_y
 _atom_site_fract_z
 _atom_site_occupancy
  H  H1  1  0.303300  0.753900  0.660000  1.0
  H  H2  1  0.303300  0.246100  0.340000  1.0
  H  H3  1  0.696700  0.660000  0.246100  1.0
  H  H4  1  0.696700  0.340000  0.753900  1.0
  H  H5  1  0.803300  0.253900  0.840000  1.0
  H  H6  1  0.803300  0.746100  0.160000  1.0
  H  H7  1  0.196700  0.160000  0.253900  1.0
  H  H8  1  0.196700  0.840000  0.746100  1.0
  H  H9  1  0.331200  0.789100  0.708000  1.0
  H  H10  1  0.331200  0.210900  0.292000  1.0
  H  H11  1  0.668800  0.708000  0.210900  1.0
  H  H12  1  0.668800  0.292000  0.789100  1.0
  H  H13  1  0.831200  0.289100  0.792000  1.0
  H  H14  1  0.831200  0.710900  0.208000  1.0
  H  H15  1  0.168800  0.208000  0.289100  1.0
  H  H16  1  0.168800  0.792000  0.710900  1.0
  H  H17  1  0.250500  0.704200  0.715500  1.0
  H  H18  1  0.250500  0.295800  0.284500  1.0
  H  H19  1  0.749500  0.715500  0.295800  1.0
  H  H20  1  0.749500  0.284500  0.704200  1.0
  H  H21  1  0.750500  0.204200  0.784500  1.0
  H  H22  1  0.750500  0.795800  0.215500  1.0
  H  H23  1  0.249500  0.215500  0.204200  1.0
  H  H24  1  0.249500  0.784500  0.795800  1.0
  H  H25  1  0.302500  0.719900  0.756800  1.0
  H  H26  1  0.302500  0.280100  0.243200  1.0
  H  H27  1  0.697500  0.756800  0.280100  1.0
  H  H28  1  0.697500  0.243200  0.719900  1.0
  H  H29  1  0.802500  0.219900  0.743200  1.0
  H  H30  1  0.802500  0.780100  0.256800  1.0
  H  H31  1  0.197500  0.256800  0.219900  1.0
  H  H32  1  0.197500  0.743200  0.780100  1.0
  H  H33  1  0.466300  0.769500  0.616300  1.0
  H  H34  1  0.466300  0.230500  0.383700  1.0
  H  H35  1  0.533700  0.616300  0.230500  1.0
  H  H36  1  0.533700  0.383700  0.769500  1.0
  H  H37  1  0.966300  0.269500  0.883700  1.0
  H  H38  1  0.966300  0.730500  0.116300  1.0
  H  H39  1  0.033700  0.116300  0.269500  1.0
  H  H40  1  0.033700  0.883700  0.730500  1.0
  H  H41  1  0.416700  0.728000  0.544800  1.0
  H  H42  1  0.416700  0.272000  0.455200  1.0
  H  H43  1  0.583300  0.544800  0.272000  1.0
  H  H44  1  0.583300  0.455200  0.728000  1.0
  H  H45  1  0.916700  0.228000  0.955200  1.0
  H  H46  1  0.916700  0.772000  0.044800  1.0
  H  H47  1  0.083300  0.044800  0.228000  1.0
  H  H48  1  0.083300  0.955200  0.772000  1.0
  H  H49  1  0.304400  0.848200  0.536800  1.0
  H  H50  1  0.304400  0.151800  0.463200  1.0
  H  H51  1  0.695600  0.536800  0.151800  1.0
  H  H52  1  0.695600  0.463200  0.848200  1.0
  H  H53  1  0.804400  0.348200  0.963200  1.0
  H  H54  1  0.804400  0.651800  0.036800  1.0
  H  H55  1  0.195600  0.036800  0.348200  1.0
  H  H56  1  0.195600  0.963200  0.651800  1.0
  H  H57  1  0.349800  0.893400  0.607300  1.0
  H  H58  1  0.349800  0.106600  0.392700  1.0
  H  H59  1  0.650200  0.607300  0.106600  1.0
  H  H60  1  0.650200  0.392700  0.893400  1.0
  H  H61  1  0.849800  0.393400  0.892700  1.0
  H  H62  1  0.849800  0.606600  0.107300  1.0
  H  H63  1  0.150200  0.107300  0.393400  1.0
  H  H64  1  0.150200  0.892700  0.606600  1.0
  H  H65  1  0.408000  0.935300  0.658400  1.0
  H  H66  1  0.408000  0.064700  0.341600  1.0
  H  H67  1  0.592000  0.658400  0.064700  1.0
  H  H68  1  0.592000  0.341600  0.935300  1.0
  H  H69  1  0.908000  0.435300  0.841600  1.0
  H  H70  1  0.908000  0.564700  0.158400  1.0
  H  H71  1  0.092000  0.158400  0.435300  1.0
  H  H72  1  0.092000  0.841600  0.564700  1.0
  H  H73  1  0.436900  0.971900  0.739600  1.0
  H  H74  1  0.436900  0.028100  0.260400  1.0
  H  H75  1  0.563100  0.739600  0.028100  1.0
  H  H76  1  0.563100  0.260400  0.971900  1.0
  H  H77  1  0.936900  0.471900  0.760400  1.0
  H  H78  1  0.936900  0.528100  0.239600  1.0
  H  H79  1  0.063100  0.239600  0.471900  1.0
  H  H80  1  0.063100  0.760400  0.528100  1.0
  H  H81  1  0.475300  0.791700  0.698500  1.0
  H  H82  1  0.475300  0.208300  0.301500  1.0
  H  H83  1  0.524700  0.698500  0.208300  1.0
  H  H84  1  0.524700  0.301500  0.791700  1.0
  H  H85  1  0.975300  0.291700  0.801500  1.0
  H  H86  1  0.975300  0.708300  0.198500  1.0
  H  H87  1  0.024700  0.198500  0.291700  1.0
  H  H88  1  0.024700  0.801500  0.708300  1.0
  H  H89  1  0.553100  0.813100  0.925800  1.0
  H  H90  1  0.553100  0.186900  0.074200  1.0
  H  H91  1  0.446900  0.925800  0.186900  1.0
  H  H92  1  0.446900  0.074200  0.813100  1.0
  H  H93  1  0.053100  0.313100  0.574200  1.0
  H  H94  1  0.053100  0.686900  0.425800  1.0
  H  H95  1  0.946900  0.425800  0.313100  1.0
  H  H96  1  0.946900  0.574200  0.686900  1.0
  H  H97  1  0.580900  0.727600  0.905800  1.0
  H  H98  1  0.580900  0.272400  0.094200  1.0
  H  H99  1  0.419100  0.905800  0.272400  1.0
  H  H100  1  0.419100  0.094200  0.727600  1.0
  H  H101  1  0.080900  0.227600  0.594200  1.0
  H  H102  1  0.080900  0.772400  0.405800  1.0
  H  H103  1  0.919100  0.405800  0.227600  1.0
  H  H104  1  0.919100  0.594200  0.772400  1.0
  H  H105  1  0.530000  0.747400  0.751600  1.0
  H  H106  1  0.530000  0.252600  0.248400  1.0
  H  H107  1  0.470000  0.751600  0.252600  1.0
  H  H108  1  0.470000  0.248400  0.747400  1.0
  H  H109  1  0.030000  0.247400  0.748400  1.0
  H  H110  1  0.030000  0.752600  0.251600  1.0
  H  H111  1  0.970000  0.251600  0.247400  1.0
  H  H112  1  0.970000  0.748400  0.752600  1.0
  H  H113  1  0.643500  0.668200  0.872300  1.0
  H  H114  1  0.643500  0.331800  0.127700  1.0
  H  H115  1  0.356500  0.872300  0.331800  1.0
  H  H116  1  0.356500  0.127700  0.668200  1.0
  H  H117  1  0.143500  0.168200  0.627700  1.0
  H  H118  1  0.143500  0.831800  0.372300  1.0
  H  H119  1  0.856500  0.372300  0.168200  1.0
  H  H120  1  0.856500  0.627700  0.831800  1.0
  H  H121  1  0.689700  0.591100  0.840800  1.0
  H  H122  1  0.689700  0.408900  0.159200  1.0
  H  H123  1  0.310300  0.840800  0.408900  1.0
  H  H124  1  0.310300  0.159200  0.591100  1.0
  H  H125  1  0.189700  0.091100  0.659200  1.0
  H  H126  1  0.189700  0.908900  0.340800  1.0
  H  H127  1  0.810300  0.340800  0.091100  1.0
  H  H128  1  0.810300  0.659200  0.908900  1.0
  H  H129  1  0.582100  0.584400  0.716800  1.0
  H  H130  1  0.582100  0.415600  0.283200  1.0
  H  H131  1  0.417900  0.716800  0.415600  1.0
  H  H132  1  0.417900  0.283200  0.584400  1.0
  H  H133  1  0.082100  0.084400  0.783200  1.0
  H  H134  1  0.082100  0.915600  0.216800  1.0
  H  H135  1  0.917900  0.216800  0.084400  1.0
  H  H136  1  0.917900  0.783200  0.915600  1.0
  H  H137  1  0.534000  0.662400  0.744200  1.0
  H  H138  1  0.534000  0.337600  0.255800  1.0
  H  H139  1  0.466000  0.744200  0.337600  1.0
  H  H140  1  0.466000  0.255800  0.662400  1.0
  H  H141  1  0.034000  0.162400  0.755800  1.0
  H  H142  1  0.034000  0.837600  0.244200  1.0
  H  H143  1  0.966000  0.244200  0.162400  1.0
  H  H144  1  0.966000  0.755800  0.837600  1.0
  H  H145  1  0.413000  0.019100  0.872900  1.0
  H  H146  1  0.413000  0.980900  0.127100  1.0
  H  H147  1  0.587000  0.872900  0.980900  1.0
  H  H148  1  0.587000  0.127100  0.019100  1.0
  H  H149  1  0.913000  0.519100  0.627100  1.0
  H  H150  1  0.913000  0.480900  0.372900  1.0
  H  H151  1  0.087000  0.372900  0.519100  1.0
  H  H152  1  0.087000  0.627100  0.480900  1.0
  H  H153  1  0.386700  0.966100  0.845000  1.0
  H  H154  1  0.386700  0.033900  0.155000  1.0
  H  H155  1  0.613300  0.845000  0.033900  1.0
  H  H156  1  0.613300  0.155000  0.966100  1.0
  H  H157  1  0.886700  0.466100  0.655000  1.0
  H  H158  1  0.886700  0.533900  0.345000  1.0
  H  H159  1  0.113300  0.345000  0.466100  1.0
  H  H160  1  0.113300  0.655000  0.533900  1.0
  H  H161  1  0.423100  0.961200  0.900000  1.0
  H  H162  1  0.423100  0.038800  0.100000  1.0
  H  H163  1  0.576900  0.900000  0.038800  1.0
  H  H164  1  0.576900  0.100000  0.961200  1.0
  H  H165  1  0.923100  0.461200  0.600000  1.0
  H  H166  1  0.923100  0.538800  0.400000  1.0
  H  H167  1  0.076900  0.400000  0.461200  1.0
  H  H168  1  0.076900  0.600000  0.538800  1.0
  H  H169  1  0.577600  0.955200  0.950300  1.0
  H  H170  1  0.577600  0.044800  0.049700  1.0
  H  H171  1  0.422400  0.950300  0.044800  1.0
  H  H172  1  0.422400  0.049700  0.955200  1.0
  H  H173  1  0.077600  0.455200  0.549700  1.0
  H  H174  1  0.077600  0.544800  0.450300  1.0
  H  H175  1  0.922400  0.450300  0.455200  1.0
  H  H176  1  0.922400  0.549700  0.544800  1.0
  H  H177  1  0.604700  0.918600  0.903200  1.0
  H  H178  1  0.604700  0.081400  0.096800  1.0
  H  H179  1  0.395300  0.903200  0.081400  1.0
  H  H180  1  0.395300  0.096800  0.918600  1.0
  H  H181  1  0.104700  0.418600  0.596800  1.0
  H  H182  1  0.104700  0.581400  0.403200  1.0
  H  H183  1  0.895300  0.403200  0.418600  1.0
  H  H184  1  0.895300  0.596800  0.581400  1.0
  H  H185  1  0.566600  0.970800  0.888400  1.0
  H  H186  1  0.566600  0.029200  0.111600  1.0
  H  H187  1  0.433400  0.888400  0.029200  1.0
  H  H188  1  0.433400  0.111600  0.970800  1.0
  H  H189  1  0.066600  0.470800  0.611600  1.0
  H  H190  1  0.066600  0.529200  0.388400  1.0
  H  H191  1  0.933400  0.388400  0.470800  1.0
  H  H192  1  0.933400  0.611600  0.529200  1.0
  H  H193  1  0.153100  0.721300  0.617600  1.0
  H  H194  1  0.153100  0.278700  0.382400  1.0
  H  H195  1  0.846900  0.617600  0.278700  1.0
  H  H196  1  0.846900  0.382400  0.721300  1.0
  H  H197  1  0.653100  0.221300  0.882400  1.0
  H  H198  1  0.653100  0.778700  0.117600  1.0
  H  H199  1  0.346900  0.117600  0.221300  1.0
  H  H200  1  0.346900  0.882400  0.778700  1.0
  H  H201  1  0.202500  0.760900  0.546000  1.0
  H  H202  1  0.202500  0.239100  0.454000  1.0
  H  H203  1  0.797500  0.546000  0.239100  1.0
  H  H204  1  0.797500  0.454000  0.760900  1.0
  H  H205  1  0.702500  0.260900  0.954000  1.0
  H  H206  1  0.702500  0.739100  0.046000  1.0
  H  H207  1  0.297500  0.046000  0.260900  1.0
  H  H208  1  0.297500  0.954000  0.739100  1.0
  H  H209  1  0.319700  0.644800  0.547500  1.0
  H  H210  1  0.319700  0.355200  0.452500  1.0
  H  H211  1  0.680300  0.547500  0.355200  1.0
  H  H212  1  0.680300  0.452500  0.644800  1.0
  H  H213  1  0.819700  0.144800  0.952500  1.0
  H  H214  1  0.819700  0.855200  0.047500  1.0
  H  H215  1  0.180300  0.047500  0.144800  1.0
  H  H216  1  0.180300  0.952500  0.855200  1.0
  H  H217  1  0.269300  0.600100  0.613200  1.0
  H  H218  1  0.269300  0.399900  0.386800  1.0
  H  H219  1  0.730700  0.613200  0.399900  1.0
  H  H220  1  0.730700  0.386800  0.600100  1.0
  H  H221  1  0.769300  0.100100  0.886800  1.0
  H  H222  1  0.769300  0.899900  0.113200  1.0
  H  H223  1  0.230700  0.113200  0.100100  1.0
  H  H224  1  0.230700  0.886800  0.899900  1.0
  H  H225  1  0.132000  0.697100  0.698700  1.0
  H  H226  1  0.132000  0.302900  0.301300  1.0
  H  H227  1  0.868000  0.698700  0.302900  1.0
  H  H228  1  0.868000  0.301300  0.697100  1.0
  H  H229  1  0.632000  0.197100  0.801300  1.0
  H  H230  1  0.632000  0.802900  0.198700  1.0
  H  H231  1  0.368000  0.198700  0.197100  1.0
  H  H232  1  0.368000  0.801300  0.802900  1.0
  H  H233  1  0.090600  0.657500  0.772600  1.0
  H  H234  1  0.090600  0.342500  0.227400  1.0
  H  H235  1  0.909400  0.772600  0.342500  1.0
  H  H236  1  0.909400  0.227400  0.657500  1.0
  H  H237  1  0.590600  0.157500  0.727400  1.0
  H  H238  1  0.590600  0.842500  0.272600  1.0
  H  H239  1  0.409400  0.272600  0.157500  1.0
  H  H240  1  0.409400  0.727400  0.842500  1.0
  H  H241  1  0.200400  0.554000  0.652900  1.0
  H  H242  1  0.200400  0.446000  0.347100  1.0
  H  H243  1  0.799600  0.652900  0.446000  1.0
  H  H244  1  0.799600  0.347100  0.554000  1.0
  H  H245  1  0.700400  0.054000  0.847100  1.0
  H  H246  1  0.700400  0.946000  0.152900  1.0
  H  H247  1  0.299600  0.152900  0.054000  1.0
  H  H248  1  0.299600  0.847100  0.946000  1.0
  H  H249  1  0.101100  0.391500  0.803000  1.0
  H  H250  1  0.101100  0.608500  0.197000  1.0
  H  H251  1  0.898900  0.803000  0.608500  1.0
  H  H252  1  0.898900  0.197000  0.391500  1.0
  H  H253  1  0.601100  0.891500  0.697000  1.0
  H  H254  1  0.601100  0.108500  0.303000  1.0
  H  H255  1  0.398900  0.303000  0.891500  1.0
  H  H256  1  0.398900  0.697000  0.108500  1.0
  H  H257  1  0.156700  0.339100  0.746000  1.0
  H  H258  1  0.156700  0.660900  0.254000  1.0
  H  H259  1  0.843300  0.746000  0.660900  1.0
  H  H260  1  0.843300  0.254000  0.339100  1.0
  H  H261  1  0.656700  0.839100  0.754000  1.0
  H  H262  1  0.656700  0.160900  0.246000  1.0
  H  H263  1  0.343300  0.246000  0.839100  1.0
  H  H264  1  0.343300  0.754000  0.160900  1.0
  H  H265  1  0.198800  0.473300  0.659900  1.0
  H  H266  1  0.198800  0.526700  0.340100  1.0
  H  H267  1  0.801200  0.659900  0.526700  1.0
  H  H268  1  0.801200  0.340100  0.473300  1.0
  H  H269  1  0.698800  0.973300  0.840100  1.0
  H  H270  1  0.698800  0.026700  0.159900  1.0
  H  H271  1  0.301200  0.159900  0.973300  1.0
  H  H272  1  0.301200  0.840100  0.026700  1.0
  H  H273  1  0.166800  0.298400  0.669500  1.0
  H  H274  1  0.166800  0.701600  0.330500  1.0
  H  H275  1  0.833200  0.669500  0.701600  1.0
  H  H276  1  0.833200  0.330500  0.298400  1.0
  H  H277  1  0.666800  0.798400  0.830500  1.0
  H  H278  1  0.666800  0.201600  0.169500  1.0
  H  H279  1  0.333200  0.169500  0.798400  1.0
  H  H280  1  0.333200  0.830500  0.201600  1.0
  H  H281  1  0.214000  0.248100  0.603000  1.0
  H  H282  1  0.214000  0.751900  0.397000  1.0
  H  H283  1  0.786000  0.603000  0.751900  1.0
  H  H284  1  0.786000  0.397000  0.248100  1.0
  H  H285  1  0.714000  0.748100  0.897000  1.0
  H  H286  1  0.714000  0.251900  0.103000  1.0
  H  H287  1  0.286000  0.103000  0.748100  1.0
  H  H288  1  0.286000  0.897000  0.251900  1.0
  H  H289  1  0.316500  0.370000  0.566600  1.0
  H  H290  1  0.316500  0.630000  0.433400  1.0
  H  H291  1  0.683500  0.566600  0.630000  1.0
  H  H292  1  0.683500  0.433400  0.370000  1.0
  H  H293  1  0.816500  0.870000  0.933400  1.0
  H  H294  1  0.816500  0.130000  0.066600  1.0
  H  H295  1  0.183500  0.066600  0.870000  1.0
  H  H296  1  0.183500  0.933400  0.130000  1.0
  H  H297  1  0.273200  0.422900  0.632400  1.0
  H  H298  1  0.273200  0.577100  0.367600  1.0
  H  H299  1  0.726800  0.632400  0.577100  1.0
  H  H300  1  0.726800  0.367600  0.422900  1.0
  H  H301  1  0.773200  0.922900  0.867600  1.0
  H  H302  1  0.773200  0.077100  0.132400  1.0
  H  H303  1  0.226800  0.132400  0.922900  1.0
  H  H304  1  0.226800  0.867600  0.077100  1.0
  H  H305  1  0.069500  0.632000  0.898000  1.0
  H  H306  1  0.069500  0.368000  0.102000  1.0
  H  H307  1  0.930500  0.898000  0.368000  1.0
  H  H308  1  0.930500  0.102000  0.632000  1.0
  H  H309  1  0.569500  0.132000  0.602000  1.0
  H  H310  1  0.569500  0.868000  0.398000  1.0
  H  H311  1  0.430500  0.398000  0.132000  1.0
  H  H312  1  0.430500  0.602000  0.868000  1.0
  H  H313  1  0.107900  0.577800  0.895800  1.0
  H  H314  1  0.107900  0.422200  0.104200  1.0
  H  H315  1  0.892100  0.895800  0.422200  1.0
  H  H316  1  0.892100  0.104200  0.577800  1.0
  H  H317  1  0.607900  0.077800  0.604200  1.0
  H  H318  1  0.607900  0.922200  0.395800  1.0
  H  H319  1  0.392100  0.395800  0.077800  1.0
  H  H320  1  0.392100  0.604200  0.922200  1.0
  H  H321  1  0.124800  0.628000  0.858100  1.0
  H  H322  1  0.124800  0.372000  0.141900  1.0
  H  H323  1  0.875200  0.858100  0.372000  1.0
  H  H324  1  0.875200  0.141900  0.628000  1.0
  H  H325  1  0.624800  0.128000  0.641900  1.0
  H  H326  1  0.624800  0.872000  0.358100  1.0
  H  H327  1  0.375200  0.358100  0.128000  1.0
  H  H328  1  0.375200  0.641900  0.872000  1.0
  H  H329  1  0.081900  0.448600  0.923500  1.0
  H  H330  1  0.081900  0.551400  0.076500  1.0
  H  H331  1  0.918100  0.923500  0.551400  1.0
  H  H332  1  0.918100  0.076500  0.448600  1.0
  H  H333  1  0.581900  0.948600  0.576500  1.0
  H  H334  1  0.581900  0.051400  0.423500  1.0
  H  H335  1  0.418100  0.423500  0.948600  1.0
  H  H336  1  0.418100  0.576500  0.051400  1.0
  H  H337  1  0.134500  0.442400  0.881000  1.0
  H  H338  1  0.134500  0.557600  0.119000  1.0
  H  H339  1  0.865500  0.881000  0.557600  1.0
  H  H340  1  0.865500  0.119000  0.442400  1.0
  H  H341  1  0.634500  0.942400  0.619000  1.0
  H  H342  1  0.634500  0.057600  0.381000  1.0
  H  H343  1  0.365500  0.381000  0.942400  1.0
  H  H344  1  0.365500  0.619000  0.057600  1.0
  H  H345  1  0.119100  0.500400  0.905600  1.0
  H  H346  1  0.119100  0.499600  0.094400  1.0
  H  H347  1  0.880900  0.905600  0.499600  1.0
  H  H348  1  0.880900  0.094400  0.500400  1.0
  H  H349  1  0.619100  0.000400  0.594400  1.0
  H  H350  1  0.619100  0.999600  0.405600  1.0
  H  H351  1  0.380900  0.405600  0.000400  1.0
  H  H352  1  0.380900  0.594400  0.999600  1.0
  Pd  Pd353  1  0.311210  0.741530  0.478460  1.0
  Pd  Pd354  1  0.311210  0.258470  0.521540  1.0
  Pd  Pd355  1  0.688790  0.478460  0.258470  1.0
  Pd  Pd356  1  0.688790  0.521540  0.741530  1.0
  Pd  Pd357  1  0.811210  0.241530  0.021540  1.0
  Pd  Pd358  1  0.811210  0.758470  0.978460  1.0
  Pd  Pd359  1  0.188790  0.978460  0.241530  1.0
  Pd  Pd360  1  0.188790  0.021540  0.758470  1.0
  C  C361  1  0.294300  0.772800  0.694200  1.0
  C  C362  1  0.294300  0.227200  0.305800  1.0
  C  C363  1  0.705700  0.694200  0.227200  1.0
  C  C364  1  0.705700  0.305800  0.772800  1.0
  C  C365  1  0.794300  0.272800  0.805800  1.0
  C  C366  1  0.794300  0.727200  0.194200  1.0
  C  C367  1  0.205700  0.194200  0.272800  1.0
  C  C368  1  0.205700  0.805800  0.727200  1.0
  C  C369  1  0.270700  0.734500  0.733700  1.0
  C  C370  1  0.270700  0.265500  0.266300  1.0
  C  C371  1  0.729300  0.733700  0.265500  1.0
  C  C372  1  0.729300  0.266300  0.734500  1.0
  C  C373  1  0.770700  0.234500  0.766300  1.0
  C  C374  1  0.770700  0.765500  0.233700  1.0
  C  C375  1  0.229300  0.233700  0.234500  1.0
  C  C376  1  0.229300  0.766300  0.765500  1.0
  C  C377  1  0.412300  0.834900  0.620800  1.0
  C  C378  1  0.412300  0.165100  0.379200  1.0
  C  C379  1  0.587700  0.620800  0.165100  1.0
  C  C380  1  0.587700  0.379200  0.834900  1.0
  C  C381  1  0.912300  0.334900  0.879200  1.0
  C  C382  1  0.912300  0.665100  0.120800  1.0
  C  C383  1  0.087700  0.120800  0.334900  1.0
  C  C384  1  0.087700  0.879200  0.665100  1.0
  C  C385  1  0.432700  0.786300  0.600800  1.0
  C  C386  1  0.432700  0.213700  0.399200  1.0
  C  C387  1  0.567300  0.600800  0.213700  1.0
  C  C388  1  0.567300  0.399200  0.786300  1.0
  C  C389  1  0.932700  0.286300  0.899200  1.0
  C  C390  1  0.932700  0.713700  0.100800  1.0
  C  C391  1  0.067300  0.100800  0.286300  1.0
  C  C392  1  0.067300  0.899200  0.713700  1.0
  C  C393  1  0.403200  0.762000  0.557500  1.0
  C  C394  1  0.403200  0.238000  0.442500  1.0
  C  C395  1  0.596800  0.557500  0.238000  1.0
  C  C396  1  0.596800  0.442500  0.762000  1.0
  C  C397  1  0.903200  0.262000  0.942500  1.0
  C  C398  1  0.903200  0.738000  0.057500  1.0
  C  C399  1  0.096800  0.057500  0.262000  1.0
  C  C400  1  0.096800  0.942500  0.738000  1.0
  C  C401  1  0.338000  0.832200  0.553100  1.0
  C  C402  1  0.338000  0.167800  0.446900  1.0
  C  C403  1  0.662000  0.553100  0.167800  1.0
  C  C404  1  0.662000  0.446900  0.832200  1.0
  C  C405  1  0.838000  0.332200  0.946900  1.0
  C  C406  1  0.838000  0.667800  0.053100  1.0
  C  C407  1  0.162000  0.053100  0.332200  1.0
  C  C408  1  0.162000  0.946900  0.667800  1.0
  C  C409  1  0.364100  0.859300  0.595600  1.0
  C  C410  1  0.364100  0.140700  0.404400  1.0
  C  C411  1  0.635900  0.595600  0.140700  1.0
  C  C412  1  0.635900  0.404400  0.859300  1.0
  C  C413  1  0.864100  0.359300  0.904400  1.0
  C  C414  1  0.864100  0.640700  0.095600  1.0
  C  C415  1  0.135900  0.095600  0.359300  1.0
  C  C416  1  0.135900  0.904400  0.640700  1.0
  C  C417  1  0.437300  0.859300  0.671400  1.0
  C  C418  1  0.437300  0.140700  0.328600  1.0
  C  C419  1  0.562700  0.671400  0.140700  1.0
  C  C420  1  0.562700  0.328600  0.859300  1.0
  C  C421  1  0.937300  0.359300  0.828600  1.0
  C  C422  1  0.937300  0.640700  0.171400  1.0
  C  C423  1  0.062700  0.171400  0.359300  1.0
  C  C424  1  0.062700  0.828600  0.640700  1.0
  C  C425  1  0.427200  0.912900  0.684100  1.0
  C  C426  1  0.427200  0.087100  0.315900  1.0
  C  C427  1  0.572800  0.684100  0.087100  1.0
  C  C428  1  0.572800  0.315900  0.912900  1.0
  C  C429  1  0.927200  0.412900  0.815900  1.0
  C  C430  1  0.927200  0.587100  0.184100  1.0
  C  C431  1  0.072800  0.184100  0.412900  1.0
  C  C432  1  0.072800  0.815900  0.587100  1.0
  C  C433  1  0.443800  0.934800  0.732300  1.0
  C  C434  1  0.443800  0.065200  0.267700  1.0
  C  C435  1  0.556200  0.732300  0.065200  1.0
  C  C436  1  0.556200  0.267700  0.934800  1.0
  C  C437  1  0.943800  0.434800  0.767700  1.0
  C  C438  1  0.943800  0.565200  0.232300  1.0
  C  C439  1  0.056200  0.232300  0.434800  1.0
  C  C440  1  0.056200  0.767700  0.565200  1.0
  C  C441  1  0.471700  0.901500  0.771700  1.0
  C  C442  1  0.471700  0.098500  0.228300  1.0
  C  C443  1  0.528300  0.771700  0.098500  1.0
  C  C444  1  0.528300  0.228300  0.901500  1.0
  C  C445  1  0.971700  0.401500  0.728300  1.0
  C  C446  1  0.971700  0.598500  0.271700  1.0
  C  C447  1  0.028300  0.271700  0.401500  1.0
  C  C448  1  0.028300  0.728300  0.598500  1.0
  C  C449  1  0.485100  0.847000  0.758700  1.0
  C  C450  1  0.485100  0.153000  0.241300  1.0
  C  C451  1  0.514900  0.758700  0.153000  1.0
  C  C452  1  0.514900  0.241300  0.847000  1.0
  C  C453  1  0.985100  0.347000  0.741300  1.0
  C  C454  1  0.985100  0.653000  0.258700  1.0
  C  C455  1  0.014900  0.258700  0.347000  1.0
  C  C456  1  0.014900  0.741300  0.653000  1.0
  C  C457  1  0.466700  0.828100  0.707900  1.0
  C  C458  1  0.466700  0.171900  0.292100  1.0
  C  C459  1  0.533300  0.707900  0.171900  1.0
  C  C460  1  0.533300  0.292100  0.828100  1.0
  C  C461  1  0.966700  0.328100  0.792100  1.0
  C  C462  1  0.966700  0.671900  0.207900  1.0
  C  C463  1  0.033300  0.207900  0.328100  1.0
  C  C464  1  0.033300  0.792100  0.671900  1.0
  C  C465  1  0.485700  0.921500  0.823700  1.0
  C  C466  1  0.485700  0.078500  0.176300  1.0
  C  C467  1  0.514300  0.823700  0.078500  1.0
  C  C468  1  0.514300  0.176300  0.921500  1.0
  C  C469  1  0.985700  0.421500  0.676300  1.0
  C  C470  1  0.985700  0.578500  0.323700  1.0
  C  C471  1  0.014300  0.323700  0.421500  1.0
  C  C472  1  0.014300  0.676300  0.578500  1.0
  C  C473  1  0.511100  0.889400  0.861800  1.0
  C  C474  1  0.511100  0.110600  0.138200  1.0
  C  C475  1  0.488900  0.861800  0.110600  1.0
  C  C476  1  0.488900  0.138200  0.889400  1.0
  C  C477  1  0.011100  0.389400  0.638200  1.0
  C  C478  1  0.011100  0.610600  0.361800  1.0
  C  C479  1  0.988900  0.361800  0.389400  1.0
  C  C480  1  0.988900  0.638200  0.610600  1.0
  C  C481  1  0.525000  0.834700  0.850200  1.0
  C  C482  1  0.525000  0.165300  0.149800  1.0
  C  C483  1  0.475000  0.850200  0.165300  1.0
  C  C484  1  0.475000  0.149800  0.834700  1.0
  C  C485  1  0.025000  0.334700  0.649800  1.0
  C  C486  1  0.025000  0.665300  0.350200  1.0
  C  C487  1  0.975000  0.350200  0.334700  1.0
  C  C488  1  0.975000  0.649800  0.665300  1.0
  C  C489  1  0.514300  0.813900  0.797700  1.0
  C  C490  1  0.514300  0.186100  0.202300  1.0
  C  C491  1  0.485700  0.797700  0.186100  1.0
  C  C492  1  0.485700  0.202300  0.813900  1.0
  C  C493  1  0.014300  0.313900  0.702300  1.0
  C  C494  1  0.014300  0.686100  0.297700  1.0
  C  C495  1  0.985700  0.297700  0.313900  1.0
  C  C496  1  0.985700  0.702300  0.686100  1.0
  C  C497  1  0.548800  0.800200  0.889800  1.0
  C  C498  1  0.548800  0.199800  0.110200  1.0
  C  C499  1  0.451200  0.889800  0.199800  1.0
  C  C500  1  0.451200  0.110200  0.800200  1.0
  C  C501  1  0.048800  0.300200  0.610200  1.0
  C  C502  1  0.048800  0.699800  0.389800  1.0
  C  C503  1  0.951200  0.389800  0.300200  1.0
  C  C504  1  0.951200  0.610200  0.699800  1.0
  C  C505  1  0.565500  0.749900  0.878000  1.0
  C  C506  1  0.565500  0.250100  0.122000  1.0
  C  C507  1  0.434500  0.878000  0.250100  1.0
  C  C508  1  0.434500  0.122000  0.749900  1.0
  C  C509  1  0.065500  0.249900  0.622000  1.0
  C  C510  1  0.065500  0.750100  0.378000  1.0
  C  C511  1  0.934500  0.378000  0.249900  1.0
  C  C512  1  0.934500  0.622000  0.750100  1.0
  C  C513  1  0.560900  0.729300  0.825500  1.0
  C  C514  1  0.560900  0.270700  0.174500  1.0
  C  C515  1  0.439100  0.825500  0.270700  1.0
  C  C516  1  0.439100  0.174500  0.729300  1.0
  C  C517  1  0.060900  0.229300  0.674500  1.0
  C  C518  1  0.060900  0.770700  0.325500  1.0
  C  C519  1  0.939100  0.325500  0.229300  1.0
  C  C520  1  0.939100  0.674500  0.770700  1.0
  C  C521  1  0.534600  0.761400  0.787000  1.0
  C  C522  1  0.534600  0.238600  0.213000  1.0
  C  C523  1  0.465400  0.787000  0.238600  1.0
  C  C524  1  0.465400  0.213000  0.761400  1.0
  C  C525  1  0.034600  0.261400  0.713000  1.0
  C  C526  1  0.034600  0.738600  0.287000  1.0
  C  C527  1  0.965400  0.287000  0.261400  1.0
  C  C528  1  0.965400  0.713000  0.738600  1.0
  C  C529  1  0.586400  0.676300  0.809800  1.0
  C  C530  1  0.586400  0.323700  0.190200  1.0
  C  C531  1  0.413600  0.809800  0.323700  1.0
  C  C532  1  0.413600  0.190200  0.676300  1.0
  C  C533  1  0.086400  0.176300  0.690200  1.0
  C  C534  1  0.086400  0.823700  0.309800  1.0
  C  C535  1  0.913600  0.309800  0.176300  1.0
  C  C536  1  0.913600  0.690200  0.823700  1.0
  C  C537  1  0.631300  0.652600  0.839200  1.0
  C  C538  1  0.631300  0.347400  0.160800  1.0
  C  C539  1  0.368700  0.839200  0.347400  1.0
  C  C540  1  0.368700  0.160800  0.652600  1.0
  C  C541  1  0.131300  0.152600  0.660800  1.0
  C  C542  1  0.131300  0.847400  0.339200  1.0
  C  C543  1  0.868700  0.339200  0.152600  1.0
  C  C544  1  0.868700  0.660800  0.847400  1.0
  C  C545  1  0.658300  0.606300  0.820600  1.0
  C  C546  1  0.658300  0.393700  0.179400  1.0
  C  C547  1  0.341700  0.820600  0.393700  1.0
  C  C548  1  0.341700  0.179400  0.606300  1.0
  C  C549  1  0.158300  0.106300  0.679400  1.0
  C  C550  1  0.158300  0.893700  0.320600  1.0
  C  C551  1  0.841700  0.320600  0.106300  1.0
  C  C552  1  0.841700  0.679400  0.893700  1.0
  C  C553  1  0.595600  0.602700  0.748200  1.0
  C  C554  1  0.595600  0.397300  0.251800  1.0
  C  C555  1  0.404400  0.748200  0.397300  1.0
  C  C556  1  0.404400  0.251800  0.602700  1.0
  C  C557  1  0.095600  0.102700  0.751800  1.0
  C  C558  1  0.095600  0.897300  0.248200  1.0
  C  C559  1  0.904400  0.248200  0.102700  1.0
  C  C560  1  0.904400  0.751800  0.897300  1.0
  C  C561  1  0.566700  0.649200  0.764200  1.0
  C  C562  1  0.566700  0.350800  0.235800  1.0
  C  C563  1  0.433300  0.764200  0.350800  1.0
  C  C564  1  0.433300  0.235800  0.649200  1.0
  C  C565  1  0.066700  0.149200  0.735800  1.0
  C  C566  1  0.066700  0.850800  0.264200  1.0
  C  C567  1  0.933300  0.264200  0.149200  1.0
  C  C568  1  0.933300  0.735800  0.850800  1.0
  C  C569  1  0.419800  0.980700  0.865700  1.0
  C  C570  1  0.419800  0.019300  0.134300  1.0
  C  C571  1  0.580200  0.865700  0.019300  1.0
  C  C572  1  0.580200  0.134300  0.980700  1.0
  C  C573  1  0.919800  0.480700  0.634300  1.0
  C  C574  1  0.919800  0.519300  0.365700  1.0
  C  C575  1  0.080200  0.365700  0.480700  1.0
  C  C576  1  0.080200  0.634300  0.519300  1.0
  C  C577  1  0.571000  0.940900  0.913900  1.0
  C  C578  1  0.571000  0.059100  0.086100  1.0
  C  C579  1  0.429000  0.913900  0.059100  1.0
  C  C580  1  0.429000  0.086100  0.940900  1.0
  C  C581  1  0.071000  0.440900  0.586100  1.0
  C  C582  1  0.071000  0.559100  0.413900  1.0
  C  C583  1  0.929000  0.413900  0.440900  1.0
  C  C584  1  0.929000  0.586100  0.559100  1.0
  C  C585  1  0.205400  0.655900  0.624400  1.0
  C  C586  1  0.205400  0.344100  0.375600  1.0
  C  C587  1  0.794600  0.624400  0.344100  1.0
  C  C588  1  0.794600  0.375600  0.655900  1.0
  C  C589  1  0.705400  0.155900  0.875600  1.0
  C  C590  1  0.705400  0.844100  0.124400  1.0
  C  C591  1  0.294600  0.124400  0.155900  1.0
  C  C592  1  0.294600  0.875600  0.844100  1.0
  C  C593  1  0.186900  0.704000  0.603100  1.0
  C  C594  1  0.186900  0.296000  0.396900  1.0
  C  C595  1  0.813100  0.603100  0.296000  1.0
  C  C596  1  0.813100  0.396900  0.704000  1.0
  C  C597  1  0.686900  0.204000  0.896900  1.0
  C  C598  1  0.686900  0.796000  0.103100  1.0
  C  C599  1  0.313100  0.103100  0.204000  1.0
  C  C600  1  0.313100  0.896900  0.796000  1.0
  C  C601  1  0.217200  0.728000  0.560300  1.0
  C  C602  1  0.217200  0.272000  0.439700  1.0
  C  C603  1  0.782800  0.560300  0.272000  1.0
  C  C604  1  0.782800  0.439700  0.728000  1.0
  C  C605  1  0.717200  0.228000  0.939700  1.0
  C  C606  1  0.717200  0.772000  0.060300  1.0
  C  C607  1  0.282800  0.060300  0.228000  1.0
  C  C608  1  0.282800  0.939700  0.772000  1.0
  C  C609  1  0.284300  0.660200  0.560800  1.0
  C  C610  1  0.284300  0.339800  0.439200  1.0
  C  C611  1  0.715700  0.560800  0.339800  1.0
  C  C612  1  0.715700  0.439200  0.660200  1.0
  C  C613  1  0.784300  0.160200  0.939200  1.0
  C  C614  1  0.784300  0.839800  0.060800  1.0
  C  C615  1  0.215700  0.060800  0.160200  1.0
  C  C616  1  0.215700  0.939200  0.839800  1.0
  C  C617  1  0.255100  0.634000  0.601000  1.0
  C  C618  1  0.255100  0.366000  0.399000  1.0
  C  C619  1  0.744900  0.601000  0.366000  1.0
  C  C620  1  0.744900  0.399000  0.634000  1.0
  C  C621  1  0.755100  0.134000  0.899000  1.0
  C  C622  1  0.755100  0.866000  0.101000  1.0
  C  C623  1  0.244900  0.101000  0.134000  1.0
  C  C624  1  0.244900  0.899000  0.866000  1.0
  C  C625  1  0.172800  0.630000  0.668700  1.0
  C  C626  1  0.172800  0.370000  0.331300  1.0
  C  C627  1  0.827200  0.668700  0.370000  1.0
  C  C628  1  0.827200  0.331300  0.630000  1.0
  C  C629  1  0.672800  0.130000  0.831300  1.0
  C  C630  1  0.672800  0.870000  0.168700  1.0
  C  C631  1  0.327200  0.168700  0.130000  1.0
  C  C632  1  0.327200  0.831300  0.870000  1.0
  C  C633  1  0.137700  0.659600  0.704700  1.0
  C  C634  1  0.137700  0.340400  0.295300  1.0
  C  C635  1  0.862300  0.704700  0.340400  1.0
  C  C636  1  0.862300  0.295300  0.659600  1.0
  C  C637  1  0.637700  0.159600  0.795300  1.0
  C  C638  1  0.637700  0.840400  0.204700  1.0
  C  C639  1  0.362300  0.204700  0.159600  1.0
  C  C640  1  0.362300  0.795300  0.840400  1.0
  C  C641  1  0.112100  0.635900  0.747800  1.0
  C  C642  1  0.112100  0.364100  0.252200  1.0
  C  C643  1  0.887900  0.747800  0.364100  1.0
  C  C644  1  0.887900  0.252200  0.635900  1.0
  C  C645  1  0.612100  0.135900  0.752200  1.0
  C  C646  1  0.612100  0.864100  0.247800  1.0
  C  C647  1  0.387900  0.247800  0.135900  1.0
  C  C648  1  0.387900  0.752200  0.864100  1.0
  C  C649  1  0.116400  0.580100  0.757000  1.0
  C  C650  1  0.116400  0.419900  0.243000  1.0
  C  C651  1  0.883600  0.757000  0.419900  1.0
  C  C652  1  0.883600  0.243000  0.580100  1.0
  C  C653  1  0.616400  0.080100  0.743000  1.0
  C  C654  1  0.616400  0.919900  0.257000  1.0
  C  C655  1  0.383600  0.257000  0.080100  1.0
  C  C656  1  0.383600  0.743000  0.919900  1.0
  C  C657  1  0.148600  0.548700  0.719100  1.0
  C  C658  1  0.148600  0.451300  0.280900  1.0
  C  C659  1  0.851400  0.719100  0.451300  1.0
  C  C660  1  0.851400  0.280900  0.548700  1.0
  C  C661  1  0.648600  0.048700  0.780900  1.0
  C  C662  1  0.648600  0.951300  0.219100  1.0
  C  C663  1  0.351400  0.219100  0.048700  1.0
  C  C664  1  0.351400  0.780900  0.951300  1.0
  C  C665  1  0.177000  0.574800  0.677000  1.0
  C  C666  1  0.177000  0.425200  0.323000  1.0
  C  C667  1  0.823000  0.677000  0.425200  1.0
  C  C668  1  0.823000  0.323000  0.574800  1.0
  C  C669  1  0.677000  0.074800  0.823000  1.0
  C  C670  1  0.677000  0.925200  0.177000  1.0
  C  C671  1  0.323000  0.177000  0.074800  1.0
  C  C672  1  0.323000  0.823000  0.925200  1.0
  C  C673  1  0.087800  0.553400  0.800400  1.0
  C  C674  1  0.087800  0.446600  0.199600  1.0
  C  C675  1  0.912200  0.800400  0.446600  1.0
  C  C676  1  0.912200  0.199600  0.553400  1.0
  C  C677  1  0.587800  0.053400  0.699600  1.0
  C  C678  1  0.587800  0.946600  0.300400  1.0
  C  C679  1  0.412200  0.300400  0.053400  1.0
  C  C680  1  0.412200  0.699600  0.946600  1.0
  C  C681  1  0.089600  0.499600  0.807100  1.0
  C  C682  1  0.089600  0.500400  0.192900  1.0
  C  C683  1  0.910400  0.807100  0.500400  1.0
  C  C684  1  0.910400  0.192900  0.499600  1.0
  C  C685  1  0.589600  0.999600  0.692900  1.0
  C  C686  1  0.589600  0.000400  0.307100  1.0
  C  C687  1  0.410400  0.307100  0.999600  1.0
  C  C688  1  0.410400  0.692900  0.000400  1.0
  C  C689  1  0.119100  0.466100  0.770100  1.0
  C  C690  1  0.119100  0.533900  0.229900  1.0
  C  C691  1  0.880900  0.770100  0.533900  1.0
  C  C692  1  0.880900  0.229900  0.466100  1.0
  C  C693  1  0.619100  0.966100  0.729900  1.0
  C  C694  1  0.619100  0.033900  0.270100  1.0
  C  C695  1  0.380900  0.270100  0.966100  1.0
  C  C696  1  0.380900  0.729900  0.033900  1.0
  C  C697  1  0.150200  0.490400  0.726100  1.0
  C  C698  1  0.150200  0.509600  0.273900  1.0
  C  C699  1  0.849800  0.726100  0.509600  1.0
  C  C700  1  0.849800  0.273900  0.490400  1.0
  C  C701  1  0.650200  0.990400  0.773900  1.0
  C  C702  1  0.650200  0.009600  0.226100  1.0
  C  C703  1  0.349800  0.226100  0.990400  1.0
  C  C704  1  0.349800  0.773900  0.009600  1.0
  C  C705  1  0.122200  0.408500  0.774600  1.0
  C  C706  1  0.122200  0.591500  0.225400  1.0
  C  C707  1  0.877800  0.774600  0.591500  1.0
  C  C708  1  0.877800  0.225400  0.408500  1.0
  C  C709  1  0.622200  0.908500  0.725400  1.0
  C  C710  1  0.622200  0.091500  0.274600  1.0
  C  C711  1  0.377800  0.274600  0.908500  1.0
  C  C712  1  0.377800  0.725400  0.091500  1.0
  C  C713  1  0.153800  0.376900  0.740400  1.0
  C  C714  1  0.153800  0.623100  0.259600  1.0
  C  C715  1  0.846200  0.740400  0.623100  1.0
  C  C716  1  0.846200  0.259600  0.376900  1.0
  C  C717  1  0.653800  0.876900  0.759600  1.0
  C  C718  1  0.653800  0.123100  0.240400  1.0
  C  C719  1  0.346200  0.240400  0.876900  1.0
  C  C720  1  0.346200  0.759600  0.123100  1.0
  C  C721  1  0.182100  0.402100  0.696500  1.0
  C  C722  1  0.182100  0.597900  0.303500  1.0
  C  C723  1  0.817900  0.696500  0.597900  1.0
  C  C724  1  0.817900  0.303500  0.402100  1.0
  C  C725  1  0.682100  0.902100  0.803500  1.0
  C  C726  1  0.682100  0.097900  0.196500  1.0
  C  C727  1  0.317900  0.196500  0.902100  1.0
  C  C728  1  0.317900  0.803500  0.097900  1.0
  C  C729  1  0.179600  0.457400  0.690100  1.0
  C  C730  1  0.179600  0.542600  0.309900  1.0
  C  C731  1  0.820400  0.690100  0.542600  1.0
  C  C732  1  0.820400  0.309900  0.457400  1.0
  C  C733  1  0.679600  0.957400  0.809900  1.0
  C  C734  1  0.679600  0.042600  0.190100  1.0
  C  C735  1  0.320400  0.190100  0.957400  1.0
  C  C736  1  0.320400  0.809900  0.042600  1.0
  C  C737  1  0.214700  0.367400  0.657400  1.0
  C  C738  1  0.214700  0.632600  0.342600  1.0
  C  C739  1  0.785300  0.657400  0.632600  1.0
  C  C740  1  0.785300  0.342600  0.367400  1.0
  C  C741  1  0.714700  0.867400  0.842600  1.0
  C  C742  1  0.714700  0.132600  0.157400  1.0
  C  C743  1  0.285300  0.157400  0.867400  1.0
  C  C744  1  0.285300  0.842600  0.132600  1.0
  C  C745  1  0.197400  0.314200  0.648600  1.0
  C  C746  1  0.197400  0.685800  0.351400  1.0
  C  C747  1  0.802600  0.648600  0.685800  1.0
  C  C748  1  0.802600  0.351400  0.314200  1.0
  C  C749  1  0.697400  0.814200  0.851400  1.0
  C  C750  1  0.697400  0.185800  0.148600  1.0
  C  C751  1  0.302600  0.148600  0.814200  1.0
  C  C752  1  0.302600  0.851400  0.185800  1.0
  C  C753  1  0.225800  0.284400  0.608600  1.0
  C  C754  1  0.225800  0.715600  0.391400  1.0
  C  C755  1  0.774200  0.608600  0.715600  1.0
  C  C756  1  0.774200  0.391400  0.284400  1.0
  C  C757  1  0.725800  0.784400  0.891400  1.0
  C  C758  1  0.725800  0.215600  0.108600  1.0
  C  C759  1  0.274200  0.108600  0.784400  1.0
  C  C760  1  0.274200  0.891400  0.215600  1.0
  C  C761  1  0.285400  0.355100  0.587500  1.0
  C  C762  1  0.285400  0.644900  0.412500  1.0
  C  C763  1  0.714600  0.587500  0.644900  1.0
  C  C764  1  0.714600  0.412500  0.355100  1.0
  C  C765  1  0.785400  0.855100  0.912500  1.0
  C  C766  1  0.785400  0.144900  0.087500  1.0
  C  C767  1  0.214600  0.087500  0.855100  1.0
  C  C768  1  0.214600  0.912500  0.144900  1.0
  C  C769  1  0.259600  0.387100  0.626800  1.0
  C  C770  1  0.259600  0.612900  0.373200  1.0
  C  C771  1  0.740400  0.626800  0.612900  1.0
  C  C772  1  0.740400  0.373200  0.387100  1.0
  C  C773  1  0.759600  0.887100  0.873200  1.0
  C  C774  1  0.759600  0.112900  0.126800  1.0
  C  C775  1  0.240400  0.126800  0.887100  1.0
  C  C776  1  0.240400  0.873200  0.112900  1.0
  C  C777  1  0.092200  0.607900  0.874500  1.0
  C  C778  1  0.092200  0.392100  0.125500  1.0
  C  C779  1  0.907800  0.874500  0.392100  1.0
  C  C780  1  0.907800  0.125500  0.607900  1.0
  C  C781  1  0.592200  0.107900  0.625500  1.0
  C  C782  1  0.592200  0.892100  0.374500  1.0
  C  C783  1  0.407800  0.374500  0.107900  1.0
  C  C784  1  0.407800  0.625500  0.892100  1.0
  C  C785  1  0.102600  0.466000  0.893500  1.0
  C  C786  1  0.102600  0.534000  0.106500  1.0
  C  C787  1  0.897400  0.893500  0.534000  1.0
  C  C788  1  0.897400  0.106500  0.466000  1.0
  C  C789  1  0.602600  0.966000  0.606500  1.0
  C  C790  1  0.602600  0.034000  0.393500  1.0
  C  C791  1  0.397400  0.393500  0.966000  1.0
  C  C792  1  0.397400  0.606500  0.034000  1.0
  N  N793  1  0.189000  0.845400  0.481100  1
  N  N794  1  0.189000  0.154600  0.518900  1
  N  N795  1  0.811000  0.481100  0.154600  1
  N  N796  1  0.811000  0.518900  0.845400  1
  N  N797  1  0.689000  0.345400  0.018900  1
  N  N798  1  0.689000  0.654600  0.981100  1
  N  N799  1  0.311000  0.981100  0.345400  1
  N  N800  1  0.311000  0.018900  0.654600  1
  N  N801  1  0.356700  0.784800  0.533400  1.0
  N  N802  1  0.356700  0.215200  0.466600  1.0
  N  N803  1  0.643300  0.533400  0.215200  1.0
  N  N804  1  0.643300  0.466600  0.784800  1.0
  N  N805  1  0.856700  0.284800  0.966600  1.0
  N  N806  1  0.856700  0.715200  0.033400  1.0
  N  N807  1  0.143300  0.033400  0.284800  1.0
  N  N808  1  0.143300  0.966600  0.715200  1.0
  N  N809  1  0.641400  0.582500  0.774800  1.0
  N  N810  1  0.641400  0.417500  0.225200  1.0
  N  N811  1  0.358600  0.774800  0.417500  1.0
  N  N812  1  0.358600  0.225200  0.582500  1.0
  N  N813  1  0.141400  0.082500  0.725200  1.0
  N  N814  1  0.141400  0.917500  0.274800  1.0
  N  N815  1  0.858600  0.274800  0.082500  1.0
  N  N816  1  0.858600  0.725200  0.917500  1.0
  N  N817  1  0.265300  0.707100  0.538900  1.0
  N  N818  1  0.265300  0.292900  0.461100  1.0
  N  N819  1  0.734700  0.538900  0.292900  1.0
  N  N820  1  0.734700  0.461100  0.707100  1.0
  N  N821  1  0.765300  0.207100  0.961100  1.0
  N  N822  1  0.765300  0.792900  0.038900  1.0
  N  N823  1  0.234700  0.038900  0.207100  1.0
  N  N824  1  0.234700  0.961100  0.792900  1.0
  N  N825  1  0.268700  0.304200  0.577600  1.0
  N  N826  1  0.268700  0.695800  0.422400  1.0
  N  N827  1  0.731300  0.577600  0.695800  1.0
  N  N828  1  0.731300  0.422400  0.304200  1.0
  N  N829  1  0.768700  0.804200  0.922400  1.0
  N  N830  1  0.768700  0.195800  0.077600  1.0
  N  N831  1  0.231300  0.077600  0.804200  1.0
  N  N832  1  0.231300  0.922400  0.195800  1.0
  O  O833  1  0.222600  0.834500  0.449200  1
  O  O834  1  0.222600  0.165500  0.550800  1
  O  O835  1  0.777400  0.449200  0.165500  1
  O  O836  1  0.777400  0.550800  0.834500  1
  O  O837  1  0.722600  0.334500  0.050800  1
  O  O838  1  0.722600  0.665500  0.949200  1
  O  O839  1  0.277400  0.949200  0.334500  1
  O  O840  1  0.277400  0.050800  0.665500  1
  O  O841  1  0.137000  0.836700  0.470500  1
  O  O842  1  0.137000  0.163300  0.529500  1
  O  O843  1  0.863000  0.470500  0.163300  1
  O  O844  1  0.863000  0.529500  0.836700  1
  O  O845  1  0.637000  0.336700  0.029500  1
  O  O846  1  0.637000  0.663300  0.970500  1
  O  O847  1  0.363000  0.970500  0.336700  1
  O  O848  1  0.363000  0.029500  0.663300  1
  O  O849  1  0.200200  0.865500  0.524000  1
  O  O850  1  0.200200  0.134500  0.476000  1
  O  O851  1  0.799800  0.524000  0.134500  1
  O  O852  1  0.799800  0.476000  0.865500  1
  O  O853  1  0.700200  0.365500  0.976000  1
  O  O854  1  0.700200  0.634500  0.024000  1
  O  O855  1  0.299800  0.024000  0.365500  1
  O  O856  1  0.299800  0.976000  0.634500  1
  O  O857  1  0.250000  0.815400  0.684600  1
  O  O858  1  0.250000  0.184600  0.315400  1
  O  O859  1  0.750000  0.684600  0.184600  1
  O  O860  1  0.750000  0.315400  0.815400  1
  O  O861  1  0.473200  0.974400  0.835400  1.0
  O  O862  1  0.473200  0.025600  0.164600  1.0
  O  O863  1  0.526800  0.835400  0.025600  1.0
  O  O864  1  0.526800  0.164600  0.974400  1.0
  O  O865  1  0.973200  0.474400  0.664600  1.0
  O  O866  1  0.973200  0.525600  0.335400  1.0
  O  O867  1  0.026800  0.335400  0.474400  1.0
  O  O868  1  0.026800  0.664600  0.525600  1.0
  O  O869  1  0.519200  0.909000  0.913600  1.0
  O  O870  1  0.519200  0.091000  0.086400  1.0
  O  O871  1  0.480800  0.913600  0.091000  1.0
  O  O872  1  0.480800  0.086400  0.909000  1.0
  O  O873  1  0.019200  0.409000  0.586400  1.0
  O  O874  1  0.019200  0.591000  0.413600  1.0
  O  O875  1  0.980800  0.413600  0.409000  1.0
  O  O876  1  0.980800  0.586400  0.591000  1.0
  O  O877  1  0.055100  0.587500  0.833400  1.0
  O  O878  1  0.055100  0.412500  0.166600  1.0
  O  O879  1  0.944900  0.833400  0.412500  1.0
  O  O880  1  0.944900  0.166600  0.587500  1.0
  O  O881  1  0.555100  0.087500  0.666600  1.0
  O  O882  1  0.555100  0.912500  0.333400  1.0
  O  O883  1  0.444900  0.333400  0.087500  1.0
  O  O884  1  0.444900  0.666600  0.912500  1.0
  O  O885  1  0.062700  0.475200  0.850500  1.0
  O  O886  1  0.062700  0.524800  0.149500  1.0
  O  O887  1  0.937300  0.850500  0.524800  1.0
  O  O888  1  0.937300  0.149500  0.475200  1.0
  O  O889  1  0.562700  0.975200  0.649500  1.0
  O  O890  1  0.562700  0.024800  0.350500  1.0
  O  O891  1  0.437300  0.350500  0.975200  1.0
  O  O892  1  0.437300  0.649500  0.024800  1.0
