
#######################################################################
#
#                 Cambridge Crystallographic Data Centre
#                                CCDC 
#
#######################################################################
#
# If this CIF has been generated from an entry in the Cambridge 
# Structural Database, then it will include bibliographic, chemical, 
# crystal, experimental, refinement or atomic coordinate data resulting 
# from the CCDC's data processing and validation procedures.
#
#######################################################################

data_HEQQID
_chemical_formula_moiety         'C33 H47 Cu1 N5 O4 2+,2(C6 H2 N3 O7 1-),H2 O1'
_chemical_name_systematic        
'Aqua-(nitrilo-tris(ethyleneaminomethyl(3-phenoxy)ethyl)amine)-copper(ii) dipicrate monohydrate clathrate'
_symmetry_cell_setting           monoclinic
_symmetry_space_group_name_H-M   'C 2/c'
_symmetry_Int_Tables_number      15
_space_group_name_Hall           '-C 2yn'
loop_
_symmetry_equiv_pos_site_id
_symmetry_equiv_pos_as_xyz
1 x,y,z
2 -x,y,1/2-z
3 1/2+x,1/2+y,z
4 1/2-x,1/2+y,1/2-z
5 -x,-y,-z
6 x,-y,1/2+z
7 1/2-x,1/2-y,-z
8 1/2+x,1/2-y,1/2+z
_cell_length_a                   34.199(8)
_cell_length_b                   12.286(5)
_cell_length_c                   23.289(7)
_cell_angle_alpha                90
_cell_angle_beta                 93.12(4)
_cell_angle_gamma                90
_cell_volume                     9770.81
_cell_formula_units_Z            8
loop_
_atom_site_label
_atom_site_type_symbol
_atom_site_fract_x
_atom_site_fract_y
_atom_site_fract_z
Cu1 Cu 0.65158(4) 0.63777(9) 0.27456(5)
O1 O 0.5037(2) 0.6115(6) 0.1081(3)
O2 O 0.5325(2) 0.3015(6) 0.2035(3)
O3 O 0.6063(2) 0.2869(6) 0.0979(3)
O18 O 0.6237(2) 0.5901(5) 0.2025(2)
N1 N 0.6876(2) 0.7173(6) 0.3327(3)
N2 N 0.6177(2) 0.7799(6) 0.2729(3)
N3 N 0.5240(3) 0.3231(8) 0.0829(4)
N4 N 0.6317(2) 0.5486(6) 0.3559(3)
N5 N 0.6999(2) 0.5388(6) 0.2622(3)
C1 C 0.6805(3) 0.8340(8) 0.3200(4)
C2 C 0.6373(3) 0.8547(8) 0.3149(4)
C3 C 0.5747(3) 0.7697(8) 0.2798(5)
C4 C 0.5501(3) 0.7793(9) 0.2251(4)
C5 C 0.5389(3) 0.8826(9) 0.2036(5)
C6 C 0.5166(4) 0.8921(9) 0.1522(6)
C7 C 0.5046(3) 0.802(1) 0.1209(5)
C8 C 0.5159(3) 0.697(1) 0.1417(5)
C9 C 0.5379(3) 0.6873(8) 0.1931(5)
C10 C 0.5189(3) 0.5050(9) 0.1223(5)
C11 C 0.5078(3) 0.430(1) 0.0733(5)
C12 C 0.5022(3) 0.248(1) 0.1162(6)
C13 C 0.5258(4) 0.2101(9) 0.1684(5)
C14 C 0.5577(3) 0.2927(9) 0.2490(5)
C15 C 0.5639(3) 0.3869(8) 0.2800(4)
C16 C 0.5881(3) 0.3912(8) 0.3284(5)
C17 C 0.6071(3) 0.296(1) 0.3468(5)
C18 C 0.6011(4) 0.2016(9) 0.3146(6)
C19 C 0.5761(3) 0.1992(9) 0.2670(5)
C20 C 0.5938(3) 0.4943(9) 0.3634(4)
C21 C 0.6383(3) 0.6378(8) 0.3973(4)
C22 C 0.6778(3) 0.6882(8) 0.3931(4)
C23 C 0.7279(3) 0.6854(8) 0.3213(4)
C24 C 0.7284(3) 0.5645(8) 0.3102(4)
C25 C 0.6940(3) 0.4200(7) 0.2520(4)
C26 C 0.6853(3) 0.3945(7) 0.1903(4)
C27 C 0.6500(3) 0.3495(7) 0.1708(4)
C28 C 0.6420(3) 0.3301(8) 0.1128(4)
C29 C 0.6697(3) 0.3499(9) 0.0745(4)
C30 C 0.7048(3) 0.392(1) 0.0934(5)
C31 C 0.7134(3) 0.4148(8) 0.1502(5)
C32 C 0.5891(3) 0.3198(9) 0.0447(5)
C33 C 0.5477(3) 0.2809(9) 0.0399(4)
H4 H 0.6934 0.8794 0.3504
H5 H 0.6925 0.8549 0.2849
H6 H 0.6270 0.8458 0.3526
H7 H 0.6325 0.9299 0.3040
H8 H 0.5700 0.7031 0.2996
H9 H 0.5678 0.8284 0.3070
H10 H 0.5471 0.9504 0.2235
H11 H 0.5097 0.9665 0.1359
H12 H 0.4882 0.8099 0.0823
H13 H 0.5467 0.6155 0.2055
H14 H 0.5478 0.5038 0.1278
H15 H 0.5095 0.4762 0.1576
H16 H 0.4785 0.4273 0.0681
H17 H 0.5157 0.4598 0.0369
H18 H 0.4789 0.2827 0.1284
H19 H 0.4934 0.1880 0.0910
H20 H 0.5134 0.1494 0.1857
H21 H 0.5509 0.1782 0.1543
H22 H 0.5498 0.4532 0.2683
H23 H 0.6255 0.2968 0.3827
H24 H 0.6155 0.1345 0.3286
H25 H 0.5730 0.1297 0.2466
H26 H 0.5730 0.5464 0.3549
H27 H 0.5922 0.4792 0.4053
H28 H 0.6183 0.6945 0.3892
H29 H 0.6343 0.6131 0.4357
H30 H 0.6797 0.7517 0.4172
H31 H 0.6966 0.6358 0.4091
H32 H 0.7368 0.7245 0.2888
H33 H 0.7457 0.7042 0.3539
H34 H 0.7538 0.5406 0.3018
H35 H 0.7208 0.5269 0.3444
H36 H 0.7171 0.3816 0.2677
H37 H 0.6726 0.3958 0.2751
H38 H 0.6300 0.3317 0.1984
H39 H 0.6648 0.3324 0.0333
H40 H 0.7246 0.4071 0.0656
H41 H 0.7387 0.4450 0.1634
H42 H 0.5885 0.3982 0.0401
H43 H 0.6031 0.2919 0.0123
H44 H 0.5359 0.2977 0.0015
H45 H 0.5482 0.2014 0.0416
H50 H 0.6280 0.5413 0.1808
H51 H 0.6025 0.6275 0.1908
O4 O 0.6958(3) -0.123(1) -0.0891(3)
O5 O 0.6989(3) -0.343(1) -0.1066(4)
O6 O 0.6802(5) -0.443(1) -0.0392(6)
O7 O 0.7084(3) -0.3362(7) 0.1542(3)
O8 O 0.7170(2) -0.1664(7) 0.1771(3)
O9 O 0.7295(4) 0.0995(9) 0.0249(6)
O10 O 0.6856(4) 0.077(1) -0.0382(6)
N6 N 0.6916(3) -0.359(1) -0.0567(6)
N7 N 0.7117(3) -0.2399(9) 0.1416(4)
N8 N 0.7068(4) 0.045(1) -0.0028(6)
C34 C 0.6994(3) -0.149(1) -0.0390(5)
C35 C 0.6985(3) -0.263(1) -0.0177(5)
C36 C 0.7017(3) -0.2919(8) 0.0393(5)
C37 C 0.7086(3) -0.2119(9) 0.0811(4)
C38 C 0.7107(3) -0.1021(8) 0.0642(4)
C39 C 0.7060(3) -0.072(1) 0.0081(5)
H46 H 0.6993 -0.3699 0.0502
H47 H 0.7173 -0.0455 0.0934
O11 O 0.6254(2) -0.2187(5) 0.1487(3)
O12 O 0.6284(3) -0.0116(7) 0.1979(3)
O13 O 0.6636(3) 0.0790(7) 0.1424(4)
O14 O 0.5941(3) 0.1242(7) -0.0464(3)
O15 O 0.5718(3) -0.0218(7) -0.0898(4)
O16 O 0.5782(3) -0.3620(7) 0.0007(4)
O17 O 0.6093(3) -0.3889(6) 0.0801(3)
N9 N 0.6388(3) 0.0103(7) 0.1502(4)
N10 N 0.5871(3) 0.0264(9) -0.0478(4)
N11 N 0.5960(3) -0.3289(7) 0.0434(4)
C40 C 0.6162(3) -0.1637(8) 0.1042(4)
C41 C 0.6211(3) -0.0450(8) 0.1004(4)
C42 C 0.6128(3) 0.0134(8) 0.0528(4)
C43 C 0.5973(3) -0.0356(9) 0.0041(5)
C44 C 0.5911(3) -0.147(1) 0.0018(4)
C45 C 0.6009(3) -0.2097(8) 0.0497(4)
H48 H 0.6179 0.0936 0.0518
H49 H 0.5789 -0.1813 -0.0334
O19 O 0.7055(3) 0.1060(8) 0.2866(4)
H52 H 0.7058 0.0924 0.3300
H53 H 0.7143 0.1738 0.2887
loop_
_geom_bond_atom_site_label_1
_geom_bond_atom_site_label_2
_geom_bond_site_symmetry_1
_geom_bond_site_symmetry_2
Cu1 O18 1_555 1_555
O1 C8 1_555 1_555
O2 C13 1_555 1_555
O3 C28 1_555 1_555
O4 C34 1_555 1_555
O5 N6 1_555 1_555
O6 N6 1_555 1_555
O7 N7 1_555 1_555
O8 N7 1_555 1_555
O9 N8 1_555 1_555
O10 N8 1_555 1_555
O11 C40 1_555 1_555
O12 N9 1_555 1_555
O13 N9 1_555 1_555
O14 N10 1_555 1_555
O15 N10 1_555 1_555
O16 N11 1_555 1_555
O17 N11 1_555 1_555
O18 H50 1_555 1_555
O19 H52 1_555 1_555
N1 Cu1 1_555 1_555
N2 Cu1 1_555 1_555
N3 C11 1_555 1_555
N4 Cu1 1_555 1_555
N5 Cu1 1_555 1_555
N6 C35 1_555 1_555
N7 C37 1_555 1_555
N8 C39 1_555 1_555
N9 C41 1_555 1_555
N10 C43 1_555 1_555
N11 C45 1_555 1_555
C1 N1 1_555 1_555
C2 N2 1_555 1_555
C3 N2 1_555 1_555
C4 C3 1_555 1_555
C5 C4 1_555 1_555
C6 C5 1_555 1_555
C7 C6 1_555 1_555
C8 C7 1_555 1_555
C9 C4 1_555 1_555
C10 O1 1_555 1_555
C11 C10 1_555 1_555
C12 N3 1_555 1_555
C13 C12 1_555 1_555
C14 O2 1_555 1_555
C15 C14 1_555 1_555
C16 C15 1_555 1_555
C17 C16 1_555 1_555
C18 C17 1_555 1_555
C19 C14 1_555 1_555
C20 N4 1_555 1_555
C21 N4 1_555 1_555
C22 N1 1_555 1_555
C23 N1 1_555 1_555
C24 N5 1_555 1_555
C25 N5 1_555 1_555
C26 C25 1_555 1_555
C27 C26 1_555 1_555
C28 C27 1_555 1_555
C29 C28 1_555 1_555
C30 C29 1_555 1_555
C31 C26 1_555 1_555
C32 O3 1_555 1_555
C33 N3 1_555 1_555
C34 C35 1_555 1_555
C35 C36 1_555 1_555
C36 C37 1_555 1_555
C37 C38 1_555 1_555
C38 C39 1_555 1_555
C39 C34 1_555 1_555
C40 C41 1_555 1_555
C41 C42 1_555 1_555
C42 C43 1_555 1_555
C43 C44 1_555 1_555
C44 C45 1_555 1_555
C45 C40 1_555 1_555
H4 C1 1_555 1_555
H5 C1 1_555 1_555
H6 C2 1_555 1_555
H7 C2 1_555 1_555
H8 C3 1_555 1_555
H9 C3 1_555 1_555
H10 C5 1_555 1_555
H11 C6 1_555 1_555
H12 C7 1_555 1_555
H13 C9 1_555 1_555
H14 C10 1_555 1_555
H15 C10 1_555 1_555
H16 C11 1_555 1_555
H17 C11 1_555 1_555
H18 C12 1_555 1_555
H19 C12 1_555 1_555
H20 C13 1_555 1_555
H21 C13 1_555 1_555
H22 C15 1_555 1_555
H23 C17 1_555 1_555
H24 C18 1_555 1_555
H25 C19 1_555 1_555
H26 C20 1_555 1_555
H27 C20 1_555 1_555
H28 C21 1_555 1_555
H29 C21 1_555 1_555
H30 C22 1_555 1_555
H31 C22 1_555 1_555
H32 C23 1_555 1_555
H33 C23 1_555 1_555
H34 C24 1_555 1_555
H35 C24 1_555 1_555
H36 C25 1_555 1_555
H37 C25 1_555 1_555
H38 C27 1_555 1_555
H39 C29 1_555 1_555
H40 C30 1_555 1_555
H41 C31 1_555 1_555
H42 C32 1_555 1_555
H43 C32 1_555 1_555
H44 C33 1_555 1_555
H45 C33 1_555 1_555
H46 C36 1_555 1_555
H47 C38 1_555 1_555
H48 C42 1_555 1_555
H49 C44 1_555 1_555
H51 O18 1_555 1_555
H53 O19 1_555 1_555
C1 C2 1_555 1_555
C8 C9 1_555 1_555
C16 C20 1_555 1_555
C18 C19 1_555 1_555
C21 C22 1_555 1_555
C23 C24 1_555 1_555
C30 C31 1_555 1_555
C32 C33 1_555 1_555

#END
