
#######################################################################
#
#                 Cambridge Crystallographic Data Centre
#                                CCDC 
#
#######################################################################
#
# If this CIF has been generated from an entry in the Cambridge 
# Structural Database, then it will include bibliographic, chemical, 
# crystal, experimental, refinement or atomic coordinate data resulting 
# from the CCDC's data processing and validation procedures.
#
#######################################################################

data_HEYPUZ
_chemical_formula_moiety         
'2(C236 H196 N20 Pd3 6+),8.5(B1 F4 1-),3.5(Cl1 1-),1.5(H1 Cl1)'
_chemical_name_systematic        
"bis(tetrakis(\m-3,3'-[pyridine-3,5-diyldi(ethyne-2,1-diyl)]bis{9-hexyl-6-[(pyridin-3-yl)ethynyl]-9H-carbazole})-tri-palladium) chloride tetrafluoroborate hydrogen chloride"
_symmetry_cell_setting           orthorhombic
_symmetry_space_group_name_H-M   'P c c n'
_symmetry_Int_Tables_number      56
_space_group_name_Hall           '-P 2ab 2ac'
loop_
_symmetry_equiv_pos_site_id
_symmetry_equiv_pos_as_xyz
1 x,y,z
2 1/2-x,1/2-y,z
3 -x,1/2+y,1/2-z
4 1/2+x,-y,1/2-z
5 -x,-y,-z
6 1/2+x,1/2+y,-z
7 x,1/2-y,1/2+z
8 1/2-x,y,1/2+z
_cell_length_a                   46.812(9)
_cell_length_b                   60.660(12)
_cell_length_c                   34.853(7)
_cell_angle_alpha                90
_cell_angle_beta                 90
_cell_angle_gamma                90
_cell_volume                     98969.1
_exptl_crystal_colour            orange
_exptl_crystal_description       cube
_cell_formula_units_Z            8
_chemical_properties_physical    Air-sensitive,Moisture-sensitive
_exptl_crystal_recrystallization_method 
'diffusion of isopropyl ether into saturated solution of compound in acetonitrile'
loop_
_atom_site_label
_atom_site_type_symbol
_atom_site_fract_x
_atom_site_fract_y
_atom_site_fract_z
N21 N 0.55567(12) 0.62242(10) 0.97310(19)
N22 N 0.40092(13) 0.53579(10) 0.83595(17)
N23 N 0.34234(15) 0.39044(11) 0.94862(18)
C237 C 0.4457(3) 0.77394(18) 0.9242(5)
H197 H 0.4348 0.7871 0.9245
C238 C 0.4748(3) 0.77602(18) 0.9253(5)
H198 H 0.4837 0.7901 0.9265
C239 C 0.4907(3) 0.75676(17) 0.9245(5)
H199 H 0.5109 0.7572 0.9256
C240 C 0.4763(2) 0.73677(15) 0.9220(4)
C241 C 0.4469(2) 0.73667(17) 0.9209(5)
H200 H 0.4374 0.7229 0.9188
N24 N 0.4312(2) 0.75494(16) 0.9227(4)
C242 C 0.4910(3) 0.71616(15) 0.9248(5)
C243 C 0.5018(2) 0.69884(14) 0.9284(4)
C244 C 0.51783(19) 0.67938(12) 0.9378(3)
C245 C 0.5442(2) 0.68078(15) 0.9543(3)
H201 H 0.5525 0.6950 0.9570
C246 C 0.55938(19) 0.66299(12) 0.9671(3)
H202 H 0.5777 0.6643 0.9786
C247 C 0.54599(15) 0.64288(11) 0.9621(2)
C248 C 0.51925(15) 0.64073(12) 0.9444(2)
C249 C 0.50443(19) 0.65907(12) 0.9321(3)
H203 H 0.4862 0.6580 0.9204
C250 C 0.53569(14) 0.60688(10) 0.9622(2)
C251 C 0.53675(16) 0.58436(12) 0.9668(3)
H204 H 0.5526 0.5774 0.9788
C252 C 0.51391(15) 0.57233(14) 0.9533(2)
H205 H 0.5141 0.5568 0.9560
C253 C 0.49071(15) 0.58241(12) 0.9359(2)
C254 C 0.48964(15) 0.60518(12) 0.9307(2)
H206 H 0.4739 0.6121 0.9185
C255 C 0.51274(14) 0.61738(11) 0.9443(2)
C256 C 0.46827(16) 0.56893(14) 0.9208(3)
C257 C 0.45064(15) 0.55702(13) 0.9076(2)
C258 C 0.43155(14) 0.54216(11) 0.8896(2)
C259 C 0.42751(15) 0.52057(11) 0.9018(2)
H207 H 0.4363 0.5155 0.9247
C260 C 0.41041(15) 0.50650(10) 0.8803(2)
C261 C 0.39770(15) 0.51475(12) 0.8473(2)
H208 H 0.3863 0.5052 0.8321
C262 C 0.41733(15) 0.54908(12) 0.8562(2)
H209 H 0.4196 0.5639 0.8480
C263 C 0.40421(17) 0.48455(11) 0.8922(3)
C264 C 0.39597(17) 0.46702(12) 0.9023(3)
C265 C 0.38404(17) 0.44672(11) 0.9158(2)
C266 C 0.38357(18) 0.44224(13) 0.9551(2)
H210 H 0.3928 0.4520 0.9725
C267 C 0.36988(16) 0.42384(12) 0.9688(2)
H211 H 0.3691 0.4208 0.9955
C268 C 0.35716(16) 0.40989(11) 0.9422(2)
C269 C 0.35788(16) 0.41414(12) 0.9026(2)
C270 C 0.37110(16) 0.43300(12) 0.8892(2)
H212 H 0.3713 0.4364 0.8626
C271 C 0.33339(18) 0.38230(13) 0.9133(2)
C272 C 0.3182(2) 0.36337(15) 0.9051(3)
H213 H 0.3123 0.3537 0.9251
C273 C 0.3119(2) 0.35878(17) 0.8674(3)
H214 H 0.3010 0.3460 0.8615
C274 C 0.3211(2) 0.37241(15) 0.8375(2)
C275 C 0.3361(2) 0.39159(15) 0.8456(2)
H215 H 0.3419 0.4012 0.8255
C276 C 0.34263(18) 0.39647(13) 0.8838(2)
C277 C 0.3160(2) 0.36616(18) 0.7985(2)
C278 C 0.3128(2) 0.35897(17) 0.7668(2)
C279 C 0.3117(2) 0.34824(15) 0.7300(2)
C280 C 0.2914(2) 0.33257(16) 0.7203(3)
H216 H 0.2759 0.3295 0.7371
C281 C 0.2939(2) 0.32144(17) 0.6859(3)
H217 H 0.2802 0.3107 0.6789
C282 C 0.3167(2) 0.32611(15) 0.6618(3)
H218 H 0.3185 0.3181 0.6385
N25 N 0.33630(15) 0.34150(12) 0.6703(2)
C283 C 0.33375(19) 0.35212(14) 0.7038(2)
H219 H 0.3477 0.3629 0.7101
C284 C 0.58127(17) 0.61836(16) 0.9951(3)
H220 H 0.5969 0.6277 0.9851
H221 H 0.5870 0.6028 0.9920
C285 C 0.5768(2) 0.62327(19) 1.0372(3)
H222 H 0.5954 0.6222 1.0506
H223 H 0.5699 0.6386 1.0400
C286 C 0.5560(3) 0.6081(2) 1.0561(3)
H224 H 0.5383 0.6083 1.0406
H225 H 0.5639 0.5930 1.0545
C287 C 0.5476(3) 0.6120(3) 1.0969(4)
H226 H 0.5643 0.6095 1.1137
H227 H 0.5415 0.6275 1.1000
C288 C 0.5239(3) 0.5973(3) 1.1090(4)
H228 H 0.5086 0.5973 1.0894
H229 H 0.5310 0.5820 1.1119
C289 C 0.5127(4) 0.6055(4) 1.1459(5)
H230 H 0.4970 0.5960 1.1544
H231 H 0.5280 0.6053 1.1651
H232 H 0.5057 0.6206 1.1426
C290 C 0.3357(2) 0.38112(17) 0.9861(3)
H233 H 0.3483 0.3880 1.0056
H234 H 0.3399 0.3651 0.9857
C291 C 0.3055(2) 0.38448(18) 0.9976(3)
H235 H 0.2935 0.3749 0.9813
H236 H 0.3034 0.3791 1.0243
C292 C 0.2936(2) 0.40668(19) 0.9959(4)
H237 H 0.2985 0.4131 0.9706
H238 H 0.3032 0.4158 1.0157
C293 C 0.2619(3) 0.4085(2) 1.0016(4)
H239 H 0.2521 0.4000 0.9811
H240 H 0.2568 0.4017 1.0265
C294 C 0.2515(3) 0.4312(2) 1.0008(5)
H241 H 0.2588 0.4384 1.0244
H242 H 0.2611 0.4386 0.9789
C295 C 0.2223(4) 0.4365(4) 0.9982(7)
H243 H 0.2200 0.4526 0.9981
H244 H 0.2144 0.4304 0.9744
H245 H 0.2121 0.4303 1.0202
N26 N 0.33193(16) 0.59484(13) 1.08837(19)
N27 N 0.34331(13) 0.54313(10) 0.81674(18)
N28 N 0.18616(11) 0.46473(10) 0.67752(18)
C296 C 0.4176(3) 0.7539(2) 1.0064(5)
H246 H 0.4238 0.7681 0.9988
C297 C 0.4268(3) 0.7459(2) 1.0417(5)
H247 H 0.4384 0.7547 1.0580
C298 C 0.4185(3) 0.7249(2) 1.0524(4)
H248 H 0.4245 0.7188 1.0762
C299 C 0.4009(3) 0.71287(17) 1.0274(4)
C300 C 0.3924(3) 0.7223(2) 0.9931(4)
H249 H 0.3803 0.7141 0.9765
N29 N 0.4005(3) 0.74283(19) 0.9824(4)
C301 C 0.3909(3) 0.69148(18) 1.0383(4)
C302 C 0.3815(3) 0.67385(17) 1.0468(4)
C303 C 0.3700(2) 0.65305(15) 1.0583(3)
C304 C 0.3687(3) 0.64802(19) 1.0968(3)
H250 H 0.3765 0.6582 1.1147
C305 C 0.3566(2) 0.62889(17) 1.1105(3)
H251 H 0.3557 0.6256 1.1371
C306 C 0.34562(19) 0.61471(14) 1.0828(2)
C307 C 0.34710(19) 0.61923(14) 1.0432(2)
C308 C 0.3591(2) 0.63894(15) 1.0302(3)
H252 H 0.3598 0.6426 1.0037
C309 C 0.32448(17) 0.58638(13) 1.0527(2)
C310 C 0.3104(2) 0.56695(14) 1.0440(2)
H253 H 0.3038 0.5574 1.0636
C311 C 0.30626(19) 0.56198(16) 1.0058(2)
H254 H 0.2970 0.5486 0.9992
C312 C 0.31515(18) 0.57597(14) 0.9769(2)
C313 C 0.32861(18) 0.59590(14) 0.9853(2)
H255 H 0.3342 0.6057 0.9654
C314 C 0.33354(17) 0.60091(14) 1.0238(2)
C315 C 0.3116(2) 0.56917(16) 0.9375(2)
C316 C 0.30951(19) 0.56115(15) 0.9064(2)
C317 C 0.31259(16) 0.55094(12) 0.8696(2)
C318 C 0.29213(16) 0.53661(13) 0.8550(2)
H256 H 0.2746 0.5342 0.8682
C319 C 0.29784(14) 0.52582(12) 0.8205(2)
C320 C 0.32390(15) 0.52931(12) 0.8025(2)
H257 H 0.3280 0.5216 0.7794
C321 C 0.33789(16) 0.55405(13) 0.8490(2)
H258 H 0.3516 0.5643 0.8583
C322 C 0.27716(16) 0.51200(14) 0.8018(2)
C323 C 0.26124(17) 0.50223(14) 0.7814(2)
C324 C 0.24095(15) 0.49196(13) 0.7564(2)
C325 C 0.21219(15) 0.49791(14) 0.7593(2)
H259 H 0.2063 0.5079 0.7786
C326 C 0.19239(16) 0.48927(13) 0.7342(2)
H260 H 0.1727 0.4930 0.7362
C327 C 0.20187(14) 0.47500(11) 0.70601(19)
C328 C 0.23052(13) 0.46869(12) 0.7027(2)
C329 C 0.25030(15) 0.47745(13) 0.7283(2)
H261 H 0.2699 0.4736 0.7266
C330 C 0.20432(13) 0.45173(11) 0.65597(19)
C331 C 0.19814(16) 0.43820(12) 0.6251(2)
H262 H 0.1792 0.4369 0.6157
C332 C 0.22002(15) 0.42662(13) 0.6083(2)
H263 H 0.2161 0.4173 0.5870
C333 C 0.24784(14) 0.42836(12) 0.6220(2)
C334 C 0.25404(15) 0.44209(12) 0.6530(2)
H264 H 0.2731 0.4434 0.6621
C335 C 0.23227(13) 0.45369(11) 0.6704(2)
C336 C 0.26962(16) 0.41472(13) 0.6061(2)
C337 C 0.28607(18) 0.40169(13) 0.5931(3)
C338 C 0.30420(16) 0.38439(12) 0.5797(2)
C339 C 0.30045(19) 0.37377(14) 0.5448(2)
H265 H 0.2864 0.3787 0.5272
C340 C 0.3175(2) 0.35590(15) 0.5361(3)
H266 H 0.3155 0.3484 0.5123
C341 C 0.3374(2) 0.34935(15) 0.5621(2)
H267 H 0.3487 0.3368 0.5563
N30 N 0.34192(15) 0.35971(12) 0.5959(2)
C342 C 0.32551(16) 0.37695(13) 0.6040(2)
H268 H 0.3285 0.3845 0.6275
C343 C 0.3231(2) 0.5860(2) 1.1258(3)
H269 H 0.3387 0.5881 1.1446
H270 H 0.3195 0.5699 1.1235
C344 C 0.2961(2) 0.5973(3) 1.1403(4)
H271 H 0.2982 0.6135 1.1379
H272 H 0.2932 0.5938 1.1678
C345 C 0.2696(3) 0.5895(3) 1.1166(4)
H273 H 0.2738 0.5915 1.0889
H274 H 0.2668 0.5735 1.1211
C346 C 0.2423(3) 0.6013(3) 1.1259(5)
H275 H 0.2361 0.5970 1.1520
H276 H 0.2460 0.6174 1.1260
C347 C 0.2190(3) 0.5965(4) 1.0985(5)
H277 H 0.2120 0.5812 1.1022
H278 H 0.2260 0.5979 1.0718
C348 C 0.1940(4) 0.6133(4) 1.1059(6)
H279 H 0.1783 0.6104 1.0880
H280 H 0.1872 0.6117 1.1323
H281 H 0.2011 0.6283 1.1020
C349 C 0.15531(14) 0.46568(15) 0.6743(3)
H282 H 0.1496 0.4627 0.6475
H283 H 0.1486 0.4806 0.6813
C350 C 0.14173(18) 0.44893(18) 0.7006(3)
H284 H 0.1459 0.4339 0.6908
H285 H 0.1503 0.4502 0.7264
C351 C 0.1100(2) 0.4518(2) 0.7037(4)
H286 H 0.1017 0.4517 0.6775
H287 H 0.1060 0.4665 0.7150
C352 C 0.0950(2) 0.4345(2) 0.7275(4)
H288 H 0.1049 0.4334 0.7526
H289 H 0.0973 0.4201 0.7145
C353 C 0.0634(3) 0.4381(3) 0.7351(4)
H290 H 0.0537 0.4421 0.7109
H291 H 0.0609 0.4504 0.7535
C354 C 0.0494(3) 0.4167(3) 0.7520(5)
H292 H 0.0291 0.4194 0.7567
H293 H 0.0516 0.4046 0.7337
H294 H 0.0589 0.4129 0.7762
N31 N 0.20613(16) 0.67739(14) 0.7640(3)
N32 N 0.35961(14) 0.55912(11) 0.74274(19)
N33 N 0.3894(2) 0.50235(14) 0.4729(2)
C355 C 0.3379(3) 0.7683(2) 0.9651(5)
H295 H 0.3503 0.7767 0.9811
C356 C 0.3091(3) 0.7719(2) 0.9679(5)
H296 H 0.3018 0.7829 0.9847
C357 C 0.2910(3) 0.7592(2) 0.9457(5)
H297 H 0.2709 0.7612 0.9473
C358 C 0.3024(2) 0.74365(19) 0.9211(4)
C359 C 0.3318(2) 0.7414(2) 0.9200(4)
H298 H 0.3398 0.7306 0.9034
N34 N 0.3496(2) 0.7537(2) 0.9412(4)
C360 C 0.2849(3) 0.7307(2) 0.8961(4)
C361 C 0.2713(3) 0.7203(2) 0.8738(4)
C362 C 0.2538(2) 0.70972(17) 0.8457(3)
C363 C 0.2271(2) 0.71839(19) 0.8367(4)
H299 H 0.2207 0.7311 0.8500
C364 C 0.2099(2) 0.70911(18) 0.8092(4)
H300 H 0.1921 0.7156 0.8026
C365 C 0.21940(19) 0.69005(15) 0.7916(3)
C366 C 0.24640(18) 0.68102(15) 0.7998(3)
C367 C 0.2636(2) 0.69112(17) 0.8269(3)
H301 H 0.2820 0.6853 0.8326
C368 C 0.22433(18) 0.66040(14) 0.7536(3)
C369 C 0.2197(2) 0.64375(16) 0.7273(3)
H302 H 0.2021 0.6425 0.7139
C370 C 0.24177(19) 0.62911(16) 0.7214(3)
H303 H 0.2393 0.6173 0.7038
C371 C 0.26759(18) 0.63132(14) 0.7406(3)
C372 C 0.27208(19) 0.64770(15) 0.7678(3)
H304 H 0.2897 0.6488 0.7812
C373 C 0.24983(17) 0.66248(14) 0.7747(3)
C374 C 0.29009(19) 0.61613(16) 0.7325(3)
C375 C 0.3072(2) 0.60256(15) 0.7250(3)
C376 C 0.32594(17) 0.58442(12) 0.7180(2)
C377 C 0.32639(17) 0.57361(13) 0.6828(2)
H305 H 0.3146 0.5785 0.6623
C378 C 0.34426(16) 0.55550(12) 0.6780(2)
C379 C 0.36044(17) 0.54885(13) 0.7090(2)
H306 H 0.3727 0.5365 0.7061
C380 C 0.34340(17) 0.57668(13) 0.7476(2)
H307 H 0.3436 0.5842 0.7716
C381 C 0.3473(2) 0.54494(15) 0.6413(2)
C382 C 0.3522(2) 0.53653(16) 0.6115(2)
C383 C 0.3591(2) 0.52779(15) 0.5744(2)
C384 C 0.3546(2) 0.54001(17) 0.5412(2)
H308 H 0.3452 0.5538 0.5432
C385 C 0.3632(3) 0.53308(16) 0.5058(3)
H309 H 0.3599 0.5416 0.4834
C386 C 0.3771(2) 0.51285(15) 0.5041(2)
C387 C 0.3812(2) 0.49981(15) 0.5370(2)
C388 C 0.3718(2) 0.50704(15) 0.5725(2)
H310 H 0.3740 0.4982 0.5949
C389 C 0.4014(2) 0.48288(14) 0.4851(2)
C390 C 0.4149(3) 0.46643(17) 0.4641(3)
H311 H 0.4184 0.4681 0.4374
C391 C 0.4229(3) 0.44764(18) 0.4833(3)
H312 H 0.4323 0.4362 0.4695
C392 C 0.4177(2) 0.44485(14) 0.5222(3)
C393 C 0.4044(2) 0.46132(15) 0.5435(3)
H313 H 0.4011 0.4596 0.5702
C394 C 0.3961(2) 0.48036(14) 0.5246(2)
C395 C 0.4235(2) 0.42409(15) 0.5406(3)
C396 C 0.4267(2) 0.40601(14) 0.5525(3)
C397 C 0.4265(2) 0.38365(14) 0.5658(3)
C398 C 0.4455(2) 0.36783(16) 0.5521(3)
H314 H 0.4608 0.3718 0.5355
C399 C 0.4415(2) 0.34606(17) 0.5636(3)
H315 H 0.4541 0.3349 0.5547
C400 C 0.4195(2) 0.34082(16) 0.5877(3)
H316 H 0.4168 0.3259 0.5949
N35 N 0.40182(16) 0.35606(13) 0.6013(2)
C401 C 0.40553(19) 0.37697(15) 0.5915(3)
H317 H 0.3933 0.3878 0.6023
C402 C 0.1779(2) 0.6819(3) 0.7470(5)
H318 H 0.1667 0.6916 0.7642
H319 H 0.1673 0.6680 0.7433
C403 C 0.1825(4) 0.6932(4) 0.7083(6)
H320 H 0.1939 0.7067 0.7125
H321 H 0.1938 0.6833 0.6916
C404 C 0.1559(5) 0.6994(4) 0.6879(7)
H322 H 0.1435 0.7085 0.7046
H323 H 0.1452 0.6860 0.6801
C405 C 0.1657(6) 0.7128(5) 0.6519(7)
H324 H 0.1731 0.7274 0.6597
H325 H 0.1810 0.7048 0.6381
C406 C 0.1394(6) 0.7156(5) 0.6258(9)
H326 H 0.1230 0.7220 0.6398
H327 H 0.1336 0.7015 0.6139
C407 C 0.1525(7) 0.7329(5) 0.5940(9)
H328 H 0.1378 0.7364 0.5748
H329 H 0.1585 0.7465 0.6069
H330 H 0.1690 0.7262 0.5812
C408 C 0.3891(4) 0.5110(3) 0.4334(3)
H331 H 0.3856 0.4987 0.4152
H332 H 0.3734 0.5218 0.4306
C409 C 0.4165(4) 0.5216(4) 0.4243(5)
H333 H 0.4295 0.5093 0.4177
H334 H 0.4130 0.5296 0.4000
C410 C 0.4338(5) 0.5364(4) 0.4466(7)
H335 H 0.4349 0.5309 0.4733
H336 H 0.4246 0.5511 0.4472
C411 C 0.4645(5) 0.5387(5) 0.4302(8)
H337 H 0.4768 0.5272 0.4418
H338 H 0.4639 0.5361 0.4022
C412 C 0.4777(7) 0.5609(5) 0.4376(9)
H339 H 0.4855 0.5664 0.4130
H340 H 0.4621 0.5711 0.4451
C413 C 0.5002(7) 0.5628(6) 0.4663(9)
H341 H 0.5066 0.5782 0.4678
H342 H 0.4928 0.5582 0.4913
H343 H 0.5163 0.5534 0.4590
N36 N 0.4300(3) 0.68911(18) 0.6188(3)
N37 N 0.41823(14) 0.55072(12) 0.7628(2)
N38 N 0.55930(14) 0.42875(12) 0.7854(2)
C414 C 0.3729(3) 0.7850(2) 0.8714(5)
H344 H 0.3686 0.7940 0.8929
C415 C 0.3695(3) 0.7938(2) 0.8353(5)
H345 H 0.3635 0.8086 0.8322
C416 C 0.3750(3) 0.7808(2) 0.8039(4)
H346 H 0.3728 0.7866 0.7787
C417 C 0.3840(3) 0.7588(2) 0.8096(4)
C418 C 0.3873(3) 0.7519(2) 0.8473(4)
H347 H 0.3938 0.7372 0.8516
N39 N 0.3819(3) 0.7644(2) 0.8779(4)
C419 C 0.3900(4) 0.7448(3) 0.7777(4)
C420 C 0.3958(4) 0.7339(2) 0.7502(4)
C421 C 0.4027(3) 0.7227(2) 0.7150(4)
C422 C 0.3983(4) 0.7325(2) 0.6796(4)
H348 H 0.3889 0.7464 0.6789
C423 C 0.4070(4) 0.7231(2) 0.6453(4)
H349 H 0.4043 0.7303 0.6214
C424 C 0.4199(3) 0.70262(18) 0.6479(3)
C425 C 0.4233(3) 0.69169(18) 0.6835(3)
C426 C 0.4150(4) 0.7018(2) 0.7174(4)
H350 H 0.4175 0.6948 0.7415
C427 C 0.4390(3) 0.66951(17) 0.6350(3)
C428 C 0.4500(3) 0.65098(19) 0.6172(3)
H351 H 0.4537 0.6508 0.5904
C429 C 0.4553(3) 0.6328(2) 0.6399(4)
H352 H 0.4627 0.6197 0.6286
C430 C 0.4499(3) 0.63322(16) 0.6788(4)
C431 C 0.4397(3) 0.65195(18) 0.6976(3)
H353 H 0.4363 0.6521 0.7245
C432 C 0.4347(3) 0.67036(17) 0.6751(3)
C433 C 0.4542(3) 0.61333(17) 0.7005(4)
C434 C 0.4561(2) 0.59585(15) 0.7156(4)
C435 C 0.45145(18) 0.57441(13) 0.7313(3)
C436 C 0.46978(18) 0.55674(13) 0.7262(3)
H354 H 0.4875 0.5587 0.7133
C437 C 0.46224(16) 0.53614(13) 0.7400(2)
C438 C 0.43564(16) 0.53368(13) 0.7579(2)
H355 H 0.4300 0.5195 0.7667
C439 C 0.42586(17) 0.57074(14) 0.7508(3)
H356 H 0.4135 0.5829 0.7558
C440 C 0.4814(2) 0.51786(15) 0.7393(3)
C441 C 0.4971(2) 0.50269(15) 0.7443(3)
C442 C 0.51481(17) 0.48402(14) 0.7526(3)
C443 C 0.54201(18) 0.48747(16) 0.7679(3)
H357 H 0.5493 0.5020 0.7701
C444 C 0.55830(18) 0.46991(13) 0.7799(3)
H358 H 0.5767 0.4722 0.7908
C445 C 0.54743(16) 0.44897(12) 0.7757(3)
C446 C 0.52002(16) 0.44517(13) 0.7601(3)
C447 C 0.50358(18) 0.46299(14) 0.7487(3)
H359 H 0.4850 0.4608 0.7383
C448 C 0.54030(16) 0.41234(12) 0.7757(3)
C449 C 0.54315(19) 0.38969(14) 0.7798(3)
H360 H 0.5603 0.3834 0.7894
C450 C 0.52022(19) 0.37669(17) 0.7696(3)
H361 H 0.5213 0.3612 0.7730
C451 C 0.49568(18) 0.38595(15) 0.7545(3)
C452 C 0.49302(18) 0.40858(15) 0.7498(3)
H362 H 0.4761 0.4147 0.7391
C453 C 0.51543(15) 0.42202(14) 0.7609(3)
C454 C 0.4723(2) 0.37219(17) 0.7424(4)
C455 C 0.4549(2) 0.35929(16) 0.7328(4)
C456 C 0.43454(18) 0.34385(15) 0.7180(3)
C457 C 0.4352(2) 0.32184(16) 0.7272(3)
H363 H 0.4487 0.3166 0.7453
C458 C 0.4166(2) 0.30742(16) 0.7104(3)
H364 H 0.4171 0.2921 0.7162
C459 C 0.3970(2) 0.31583(15) 0.6846(3)
H365 H 0.3839 0.3060 0.6727
N40 N 0.39565(16) 0.33722(13) 0.6758(2)
C460 C 0.41378(18) 0.35095(14) 0.6924(3)
H366 H 0.4125 0.3662 0.6866
C461 C 0.4316(5) 0.6955(3) 0.5780(4)
H367 H 0.4198 0.7088 0.5731
H368 H 0.4248 0.6834 0.5613
C462 C 0.4634(5) 0.7004(5) 0.5709(7)
H369 H 0.4687 0.7125 0.5886
H370 H 0.4741 0.6872 0.5795
C463 C 0.5853(2) 0.4255(2) 0.8078(3)
H371 H 0.5960 0.4396 0.8082
H372 H 0.5974 0.4146 0.7941
C464 C 0.5097(9) 0.6551(6) 0.5366(12)
H373 H 0.5058 0.6393 0.5333
H374 H 0.5303 0.6578 0.5339
H375 H 0.5034 0.6598 0.5621
C465 C 0.4932(8) 0.6685(6) 0.5053(10)
H376 H 0.4723 0.6661 0.5077
H377 H 0.4993 0.6640 0.4793
C466 C 0.5013(7) 0.6941(5) 0.5137(10)
H378 H 0.5179 0.6948 0.5313
H379 H 0.5067 0.7014 0.4894
C467 C 0.4752(7) 0.7065(5) 0.5322(8)
H380 H 0.4805 0.7223 0.5335
H381 H 0.4592 0.7053 0.5138
C468 C 0.5819(3) 0.4179(3) 0.8478(4)
H382 H 0.5756 0.4023 0.8469
H383 H 0.6010 0.4181 0.8599
C469 C 0.5639(4) 0.4289(3) 0.8712(4)
H384 H 0.5444 0.4285 0.8602
H385 H 0.5699 0.4445 0.8730
C470 C 0.5633(4) 0.4179(3) 0.9146(4)
H386 H 0.5533 0.4035 0.9150
H387 H 0.5827 0.4163 0.9255
C471 C 0.5468(4) 0.4353(3) 0.9339(5)
H388 H 0.5298 0.4387 0.9181
H389 H 0.5587 0.4488 0.9351
C472 C 0.5371(3) 0.4298(3) 0.9736(4)
H390 H 0.5264 0.4422 0.9842
H391 H 0.5248 0.4167 0.9727
H392 H 0.5538 0.4268 0.9898
Pd4 Pd 0.39038(3) 0.75351(2) 0.93124(6)
Pd5 Pd 0.38068(2) 0.54701(2) 0.78913(2)
Pd6 Pd 0.36886(2) 0.34819(2) 0.63557(2)
Cl1 Cl 0.36609(7) 0.30006(5) 0.59822(10)
Cl2 Cl 0.37172(4) 0.40133(4) 0.67162(7)
Cl3 Cl 0.37525(4) 0.49898(3) 0.75115(7)
Cl4 Cl 0.38302(5) 0.59933(4) 0.82451(7)
Cl5 Cl 0.38652(8) 0.70197(5) 0.90248(13)
B1 B 0.6290(2) 0.47492(18) 0.8530(3)
F1 F 0.63667(14) 0.45324(11) 0.8473(2)
F2 F 0.62316(16) 0.48381(13) 0.8172(2)
F3 F 0.60628(12) 0.47498(10) 0.87651(19)
F4 F 0.65190(12) 0.48614(10) 0.86738(17)
B2 B 0.6283(3) 0.3682(3) 0.7774(5)
F5 F 0.6220(3) 0.3831(2) 0.7481(3)
F6 F 0.6080(2) 0.3715(2) 0.8058(4)
F7 F 0.6246(3) 0.3468(2) 0.7661(5)
F8 F 0.6539(2) 0.3736(2) 0.7946(3)
B3 B 0.62863(19) 0.57975(18) 0.9200(3)
F9 F 0.6308(3) 0.55802(17) 0.9272(5)
F10 F 0.62882(17) 0.58237(19) 0.8801(3)
F11 F 0.6073(2) 0.5914(2) 0.9344(4)
F12 F 0.6540(2) 0.5897(3) 0.9329(5)
B4 B 0.6268(3) 0.6897(2) 0.9894(4)
F13 F 0.6226(3) 0.6830(3) 0.9517(3)
F14 F 0.6294(3) 0.6704(2) 1.0102(4)
F15 F 0.6037(3) 0.7010(2) 1.0027(5)
F16 F 0.6510(3) 0.7026(2) 0.9919(4)
B5 B 0.6119(5) 0.3185(3) 0.5417(7)
F17 F 0.5931(5) 0.3183(4) 0.5723(7)
F18 F 0.6052(4) 0.3362(2) 0.5180(7)
F19 F 0.6077(4) 0.2996(2) 0.5215(8)
F20 F 0.6400(4) 0.3182(3) 0.5540(9)
B6 B 0.2365(5) 0.3014(4) 0.7894(7)
F21 F 0.2599(6) 0.3082(4) 0.8109(8)
F22 F 0.2287(5) 0.3186(4) 0.7648(8)
F23 F 0.2149(6) 0.2958(5) 0.8144(9)
F24 F 0.2441(7) 0.2828(4) 0.7683(9)
B7 B 0.4806(7) 0.6693(5) 1.0622(11)
F25 F 0.4702(10) 0.6855(6) 1.0378(13)
F26 F 0.4595(8) 0.6635(7) 1.0885(14)
F27 F 0.5039(8) 0.6774(7) 1.0816(15)
F28 F 0.4878(9) 0.6507(6) 1.0413(14)
B8 B 0.2686(5) 0.4144(4) 0.3764(7)
F29 F 0.2743(7) 0.4146(6) 0.3373(7)
F30 F 0.2402(5) 0.4087(4) 0.3828(8)
F31 F 0.2875(5) 0.4000(4) 0.3927(8)
F32 F 0.2738(7) 0.4356(4) 0.3899(9)
B9 B 0.2012(5) 0.5308(4) 0.8939(8)
F33 F 0.2071(4) 0.5409(4) 0.8592(8)
F34 F 0.1819(6) 0.5138(5) 0.8866(12)
F35 F 0.1890(6) 0.5459(5) 0.9183(10)
F36 F 0.2258(5) 0.5228(6) 0.9108(10)
N1 N 0.55593(11) 0.52768(9) 0.87813(18)
N2 N 0.39685(13) 0.43914(10) 0.75208(19)
N3 N 0.3465(2) 0.29549(13) 0.87322(19)
C1 C 0.4355(2) 0.67542(15) 0.8369(4)
H1 H 0.4240 0.6882 0.8406
C2 C 0.4635(2) 0.67829(16) 0.8258(4)
H2 H 0.4712 0.6926 0.8218
C3 C 0.4802(2) 0.65966(15) 0.8204(4)
H3 H 0.4995 0.6611 0.8124
C4 C 0.46854(18) 0.63902(13) 0.8268(3)
C5 C 0.43995(18) 0.63782(14) 0.8379(3)
H4 H 0.4317 0.6237 0.8420
N4 N 0.42369(17) 0.65568(13) 0.8430(3)
C6 C 0.48581(19) 0.61953(13) 0.8262(3)
C7 C 0.49912(18) 0.60320(12) 0.8314(3)
C8 C 0.51512(16) 0.58403(11) 0.8422(2)
C9 C 0.54158(16) 0.58626(13) 0.8589(2)
H5 H 0.5494 0.6006 0.8616
C10 C 0.55715(16) 0.56862(11) 0.8719(2)
H6 H 0.5755 0.5705 0.8830
C11 C 0.54488(14) 0.54803(10) 0.8680(2)
C12 C 0.51769(14) 0.54529(11) 0.8515(2)
C13 C 0.50285(15) 0.56340(11) 0.8375(2)
H7 H 0.4849 0.5617 0.8252
C14 C 0.53594(13) 0.51171(10) 0.8690(2)
C15 C 0.53742(16) 0.48919(11) 0.8733(2)
H8 H 0.5537 0.4823 0.8844
C16 C 0.51434(15) 0.47710(13) 0.8608(2)
H9 H 0.5149 0.4615 0.8631
C17 C 0.49036(14) 0.48679(11) 0.8452(2)
C18 C 0.48886(15) 0.50935(11) 0.8404(2)
H10 H 0.4725 0.5160 0.8292
C19 C 0.51189(13) 0.52209(11) 0.8523(2)
C20 C 0.46751(16) 0.47308(13) 0.8314(3)
C21 C 0.45043(16) 0.46059(13) 0.8190(3)
C22 C 0.43116(15) 0.44564(11) 0.8008(2)
C23 C 0.42886(16) 0.42388(11) 0.8130(2)
H11 H 0.4397 0.4187 0.8342
C24 C 0.41045(16) 0.40983(10) 0.7937(2)
C25 C 0.39494(16) 0.41824(12) 0.7628(2)
H12 H 0.3826 0.4087 0.7491
C26 C 0.41446(16) 0.45253(12) 0.7703(2)
H13 H 0.4157 0.4675 0.7623
C27 C 0.40601(19) 0.38766(11) 0.8054(3)
C28 C 0.3993(2) 0.36992(12) 0.8161(2)
C29 C 0.3890(2) 0.34985(12) 0.8323(2)
C30 C 0.3891(2) 0.34657(14) 0.8719(2)
H14 H 0.3984 0.3571 0.8879
C31 C 0.3763(2) 0.32858(15) 0.8886(3)
H15 H 0.3768 0.3263 0.9155
C32 C 0.3626(2) 0.31390(13) 0.8642(2)
C33 C 0.3625(2) 0.31656(13) 0.8238(2)
C34 C 0.3763(2) 0.33463(13) 0.8078(2)
H16 H 0.3772 0.3365 0.7808
C35 C 0.3368(2) 0.28615(14) 0.8395(2)
C36 C 0.3206(3) 0.26724(16) 0.8340(3)
H17 H 0.3133 0.2592 0.8552
C37 C 0.3156(3) 0.26051(18) 0.7971(3)
H18 H 0.3049 0.2474 0.7929
C38 C 0.3256(2) 0.27215(16) 0.7658(2)
C39 C 0.3413(3) 0.29147(15) 0.7706(2)
H19 H 0.3483 0.2995 0.7491
C40 C 0.3467(2) 0.29872(14) 0.8081(2)
C41 C 0.3226(3) 0.26342(19) 0.7279(3)
C42 C 0.3206(3) 0.2533(2) 0.6989(3)
C43 C 0.3225(2) 0.24137(17) 0.6633(3)
C44 C 0.3087(3) 0.22125(17) 0.6588(3)
H20 H 0.2972 0.2154 0.6788
C45 C 0.3121(3) 0.20994(17) 0.6246(3)
H21 H 0.3028 0.1962 0.6205
C46 C 0.3293(2) 0.21892(17) 0.5967(3)
H22 H 0.3316 0.2111 0.5734
N5 N 0.34282(19) 0.23811(14) 0.6008(3)
C47 C 0.3396(2) 0.24898(16) 0.6337(3)
H23 H 0.3495 0.2625 0.6370
C48 C 0.58230(16) 0.52425(16) 0.8997(2)
H24 H 0.5962 0.5358 0.8923
H25 H 0.5905 0.5098 0.8923
C49 C 0.5784(2) 0.5248(2) 0.9422(3)
H26 H 0.5975 0.5228 0.9539
H27 H 0.5719 0.5398 0.9490
C50 C 0.5593(3) 0.5094(2) 0.9610(3)
H28 H 0.5662 0.4942 0.9558
H29 H 0.5402 0.5108 0.9490
C51 C 0.5559(3) 0.5119(3) 1.0031(4)
H30 H 0.5513 0.4971 1.0136
H31 H 0.5748 0.5160 1.0136
C52 C 0.5361(4) 0.5265(3) 1.0181(4)
H32 H 0.5196 0.5265 1.0002
H33 H 0.5448 0.5413 1.0164
C53 C 0.5241(4) 0.5245(3) 1.0573(4)
H34 H 0.5106 0.5365 1.0618
H35 H 0.5143 0.5103 1.0598
H36 H 0.5397 0.5253 1.0761
C54 C 0.3394(3) 0.2883(2) 0.9123(3)
H37 H 0.3567 0.2890 0.9285
H38 H 0.3328 0.2728 0.9116
C55 C 0.3152(4) 0.3033(3) 0.9306(5)
H39 H 0.3113 0.2972 0.9565
H40 H 0.3237 0.3181 0.9345
C56 C 0.2865(4) 0.3070(4) 0.9121(6)
H41 H 0.2789 0.2926 0.9036
H42 H 0.2893 0.3163 0.8890
C57 C 0.2643(5) 0.3180(4) 0.9373(6)
H43 H 0.2577 0.3070 0.9563
H44 H 0.2738 0.3300 0.9517
C58 C 0.2384(5) 0.3275(4) 0.9180(6)
H45 H 0.2446 0.3374 0.8971
H46 H 0.2272 0.3154 0.9063
C59 C 0.2199(6) 0.3399(4) 0.9446(7)
H47 H 0.2034 0.3457 0.9306
H48 H 0.2133 0.3300 0.9651
H49 H 0.2307 0.3521 0.9559
N6 N 0.19009(12) 0.56907(12) 0.7396(2)
N7 N 0.34595(13) 0.46229(11) 0.66820(18)
N8 N 0.3721(2) 0.41098(16) 0.3947(2)
C60 C 0.3375(2) 0.65942(19) 0.9180(3)
H50 H 0.3505 0.6693 0.9300
C61 C 0.3102(2) 0.6573(2) 0.9328(3)
H51 H 0.3042 0.6660 0.9539
C62 C 0.2917(2) 0.6421(2) 0.9160(3)
H52 H 0.2731 0.6399 0.9263
C63 C 0.30060(18) 0.63025(16) 0.8842(3)
C64 C 0.32824(18) 0.63374(16) 0.8707(3)
H53 H 0.3345 0.6258 0.8488
N9 N 0.34626(16) 0.64793(15) 0.8876(3)
C65 C 0.2820(2) 0.61644(19) 0.8625(3)
C66 C 0.2662(2) 0.60635(19) 0.8419(3)
C67 C 0.24531(17) 0.59671(15) 0.8171(3)
C68 C 0.21715(18) 0.60328(17) 0.8185(3)
H54 H 0.2116 0.6138 0.8373
C69 C 0.19674(18) 0.59533(15) 0.7939(3)
H55 H 0.1774 0.6001 0.7952
C70 C 0.20582(15) 0.57984(13) 0.7671(2)
C71 C 0.23443(14) 0.57282(13) 0.7650(2)
C72 C 0.25422(17) 0.58129(15) 0.7904(3)
H56 H 0.2736 0.5766 0.7896
C73 C 0.20825(14) 0.55535(12) 0.7192(2)
C74 C 0.20209(16) 0.54137(13) 0.6884(2)
H57 H 0.1833 0.5402 0.6784
C75 C 0.22407(15) 0.52946(14) 0.6735(2)
H58 H 0.2204 0.5197 0.6527
C76 C 0.25182(15) 0.53110(12) 0.6878(2)
C77 C 0.25824(15) 0.54522(13) 0.7180(2)
H59 H 0.2772 0.5466 0.7273
C78 C 0.23598(14) 0.55731(12) 0.7342(2)
C79 C 0.27401(16) 0.51767(14) 0.6720(2)
C80 C 0.29073(17) 0.50489(14) 0.6588(3)
C81 C 0.30999(15) 0.48778(12) 0.6482(2)
C82 C 0.31042(17) 0.47885(13) 0.6115(2)
H60 H 0.2986 0.4848 0.5919
C83 C 0.32843(17) 0.46106(13) 0.6036(2)
C84 C 0.34554(17) 0.45330(13) 0.6330(2)
H61 H 0.3576 0.4410 0.6280
C85 C 0.32890(15) 0.47919(12) 0.6759(2)
H62 H 0.3295 0.4857 0.7007
C86 C 0.3310(2) 0.45164(17) 0.5661(2)
C87 C 0.3362(2) 0.44433(19) 0.5352(2)
C88 C 0.3439(2) 0.43615(18) 0.4979(2)
C89 C 0.3410(3) 0.4497(2) 0.4657(3)
H63 H 0.3329 0.4639 0.4685
C90 C 0.3498(3) 0.44270(18) 0.4296(3)
H64 H 0.3479 0.4519 0.4078
C91 C 0.3615(3) 0.42182(16) 0.4267(3)
C92 C 0.3640(3) 0.40783(17) 0.4588(2)
C93 C 0.3555(3) 0.41519(17) 0.4947(2)
H65 H 0.3575 0.4060 0.5167
C94 C 0.3811(3) 0.39022(17) 0.4052(3)
C95 C 0.3928(4) 0.3736(2) 0.3829(3)
H66 H 0.3957 0.3755 0.3562
C96 C 0.3999(4) 0.3541(2) 0.4010(4)
H67 H 0.4079 0.3424 0.3863
C97 C 0.3957(3) 0.35121(18) 0.4401(4)
C98 C 0.3838(3) 0.36789(19) 0.4629(3)
H68 H 0.3808 0.3658 0.4896
C99 C 0.3765(3) 0.38749(17) 0.4452(3)
C100 C 0.4028(4) 0.33054(19) 0.4579(4)
C101 C 0.4087(4) 0.31246(19) 0.4690(5)
C102 C 0.4110(3) 0.28991(18) 0.4807(4)
C103 C 0.4302(3) 0.2754(2) 0.4636(5)
H69 H 0.4427 0.2802 0.4438
C104 C 0.4306(3) 0.2537(2) 0.4761(5)
H70 H 0.4435 0.2435 0.4648
C105 C 0.4128(3) 0.2470(2) 0.5044(5)
H71 H 0.4140 0.2322 0.5132
N10 N 0.3935(3) 0.26046(19) 0.5203(4)
C106 C 0.3933(3) 0.2813(2) 0.5091(4)
H72 H 0.3802 0.2911 0.5211
C107 C 0.15962(16) 0.57134(19) 0.7346(3)
H73 H 0.1540 0.5645 0.7099
H74 H 0.1547 0.5872 0.7333
C108 C 0.1433(3) 0.5608(2) 0.7664(4)
H75 H 0.1503 0.5670 0.7909
H76 H 0.1230 0.5651 0.7638
C109 C 0.1447(3) 0.5373(2) 0.7689(5)
H77 H 0.1642 0.5330 0.7770
H78 H 0.1414 0.5310 0.7430
C110 C 0.1229(4) 0.5271(3) 0.7971(6)
H79 H 0.1038 0.5335 0.7925
H80 H 0.1286 0.5306 0.8238
C111 C 0.1218(4) 0.5014(3) 0.7914(7)
H81 H 0.1147 0.4984 0.7652
H82 H 0.1415 0.4957 0.7930
C112 C 0.1047(5) 0.4893(4) 0.8175(7)
H83 H 0.1056 0.4736 0.8111
H84 H 0.1118 0.4916 0.8437
H85 H 0.0849 0.4944 0.8158
C113 C 0.3749(4) 0.4199(3) 0.3553(3)
H86 H 0.3573 0.4279 0.3482
H87 H 0.3776 0.4076 0.3370
C114 C 0.4004(5) 0.4356(4) 0.3531(6)
H88 H 0.4032 0.4390 0.3256
H89 H 0.3943 0.4495 0.3656
C115 C 0.4284(5) 0.4305(4) 0.3684(7)
H90 H 0.4259 0.4288 0.3964
H91 H 0.4333 0.4157 0.3584
C116 C 0.4534(5) 0.4436(5) 0.3635(8)
H92 H 0.4483 0.4586 0.3722
H93 H 0.4567 0.4446 0.3355
C117 C 0.4817(6) 0.4383(5) 0.3812(9)
H94 H 0.4907 0.4252 0.3693
H95 H 0.4803 0.4361 0.4093
C118 C 0.4982(7) 0.4606(5) 0.3705(9)
H96 H 0.5178 0.4599 0.3803
H97 H 0.4986 0.4624 0.3426
H98 H 0.4882 0.4732 0.3821
N11 N 0.3993(2) 0.60488(14) 0.5471(2)
N12 N 0.40550(14) 0.45938(12) 0.6787(2)
N13 N 0.55996(17) 0.34999(13) 0.6791(3)
C119 C 0.3541(2) 0.68420(18) 0.8185(3)
H99 H 0.3538 0.6922 0.8419
C120 C 0.3409(3) 0.69336(19) 0.7866(4)
H100 H 0.3313 0.7071 0.7885
C121 C 0.3419(3) 0.68234(18) 0.7518(3)
H101 H 0.3333 0.6884 0.7295
C122 C 0.3560(2) 0.66196(18) 0.7505(3)
C123 C 0.3678(2) 0.65388(18) 0.7842(3)
H102 H 0.3771 0.6399 0.7835
N14 N 0.36695(19) 0.66468(16) 0.8175(3)
C124 C 0.3610(3) 0.6511(2) 0.7149(3)
C125 C 0.3665(3) 0.6426(2) 0.6849(3)
C126 C 0.3731(2) 0.63336(17) 0.6483(3)
C127 C 0.3693(3) 0.64576(19) 0.6149(3)
H103 H 0.3613 0.6601 0.6167
C128 C 0.3769(2) 0.63752(16) 0.5795(3)
H104 H 0.3736 0.6458 0.5567
C129 C 0.3895(2) 0.61676(14) 0.5780(3)
C130 C 0.3935(2) 0.60406(15) 0.6115(3)
C131 C 0.3851(2) 0.61230(16) 0.6470(3)
H105 H 0.3874 0.6038 0.6697
C132 C 0.4098(2) 0.58493(14) 0.5601(3)
C133 C 0.4218(3) 0.56765(16) 0.5397(3)
H106 H 0.4239 0.5685 0.5126
C134 C 0.4305(3) 0.54937(18) 0.5595(3)
H107 H 0.4396 0.5377 0.5463
C135 C 0.4260(2) 0.54774(14) 0.5989(3)
C136 C 0.4142(2) 0.56490(15) 0.6202(3)
H108 H 0.4117 0.5637 0.6472
C137 C 0.4063(2) 0.58394(14) 0.6005(3)
C138 C 0.4320(3) 0.52737(15) 0.6186(4)
C139 C 0.4346(2) 0.50959(14) 0.6324(3)
C140 C 0.43292(19) 0.48738(12) 0.6465(3)
C141 C 0.4539(2) 0.47193(14) 0.6382(3)
H109 H 0.4705 0.4760 0.6243
C142 C 0.45002(18) 0.45046(14) 0.6508(3)
C143 C 0.42504(17) 0.44451(14) 0.6701(3)
H110 H 0.4221 0.4295 0.6771
C144 C 0.40939(18) 0.48014(14) 0.6669(3)
H111 H 0.3950 0.4906 0.6730
C145 C 0.4718(2) 0.43416(17) 0.6469(4)
C146 C 0.4887(2) 0.41978(17) 0.6481(4)
C147 C 0.5084(2) 0.40215(15) 0.6544(3)
C148 C 0.5358(2) 0.40704(18) 0.6667(4)
H112 H 0.5415 0.4220 0.6683
C149 C 0.5550(2) 0.39096(15) 0.6764(4)
H113 H 0.5737 0.3943 0.6854
C150 C 0.54530(19) 0.36942(13) 0.6724(3)
C151 C 0.51737(18) 0.36432(14) 0.6607(3)
C152 C 0.4983(2) 0.38071(15) 0.6510(4)
H114 H 0.4794 0.3776 0.6425
C153 C 0.54138(19) 0.33256(14) 0.6737(4)
C154 C 0.5460(2) 0.31029(15) 0.6786(4)
H115 H 0.5641 0.3050 0.6867
C155 C 0.5238(2) 0.29586(19) 0.6716(4)
H116 H 0.5267 0.2805 0.6748
C156 C 0.4972(2) 0.30379(16) 0.6598(4)
C157 C 0.4921(2) 0.32626(16) 0.6549(4)
H117 H 0.4739 0.3315 0.6470
C158 C 0.51455(18) 0.34064(15) 0.6621(4)
C159 C 0.4750(2) 0.28832(19) 0.6507(5)
C160 C 0.4596(3) 0.27343(18) 0.6425(5)
C161 C 0.4419(2) 0.25563(17) 0.6301(4)
C162 C 0.4501(3) 0.23403(18) 0.6374(4)
H118 H 0.4665 0.2309 0.6525
C163 C 0.4339(3) 0.21715(18) 0.6221(4)
H119 H 0.4394 0.2023 0.6264
C164 C 0.4099(2) 0.22186(17) 0.6006(4)
H120 H 0.3990 0.2100 0.5903
N15 N 0.40145(19) 0.24235(16) 0.5939(3)
C165 C 0.4174(2) 0.25872(17) 0.6083(4)
H121 H 0.4115 0.2734 0.6032
C166 C 0.3983(4) 0.6111(3) 0.5060(3)
H122 H 0.3948 0.6272 0.5040
H123 H 0.4170 0.6080 0.4940
C167 C 0.3757(4) 0.5992(4) 0.4851(5)
H124 H 0.3784 0.5831 0.4887
H125 H 0.3775 0.6023 0.4573
C168 C 0.3459(4) 0.6055(4) 0.4981(7)
H126 H 0.3433 0.6215 0.4950
H127 H 0.3439 0.6020 0.5258
C169 C 0.3223(5) 0.5931(5) 0.4752(8)
H128 H 0.3207 0.5996 0.4492
H129 H 0.3276 0.5774 0.4724
C170 C 0.2943(5) 0.5947(5) 0.4948(9)
H130 H 0.2913 0.6103 0.5019
H131 H 0.2958 0.5862 0.5191
C171 C 0.2675(6) 0.5869(5) 0.4743(9)
H132 H 0.2509 0.5890 0.4910
H133 H 0.2649 0.5954 0.4506
H134 H 0.2694 0.5712 0.4679
C172 C 0.5905(2) 0.3486(3) 0.6887(5)
H135 H 0.5939 0.3353 0.7045
H136 H 0.5960 0.3617 0.7040
C173 C 0.6085(3) 0.3476(4) 0.6536(6)
H137 H 0.6101 0.3316 0.6477
H138 H 0.5964 0.3539 0.6330
C174 C 0.6362(4) 0.3562(4) 0.6466(8)
H139 H 0.6463 0.3558 0.6715
H140 H 0.6335 0.3720 0.6403
C175 C 0.6569(4) 0.3471(5) 0.6169(8)
H141 H 0.6557 0.3565 0.5937
H142 H 0.6506 0.3321 0.6097
C176 C 0.6885(5) 0.3460(5) 0.6299(9)
H143 H 0.6933 0.3593 0.6448
H144 H 0.6912 0.3330 0.6467
C177 C 0.7079(5) 0.3442(5) 0.5963(10)
H145 H 0.7277 0.3435 0.6051
H146 H 0.7033 0.3309 0.5817
H147 H 0.7054 0.3572 0.5798
N16 N 0.33963(14) 0.49118(10) 1.01711(16)
N17 N 0.33744(12) 0.44277(11) 0.74184(18)
N18 N 0.17838(12) 0.36289(10) 0.61332(19)
C178 C 0.4164(2) 0.65204(15) 0.9382(3)
H148 H 0.4198 0.6671 0.9322
C179 C 0.4261(2) 0.64414(15) 0.9722(3)
H149 H 0.4359 0.6536 0.9896
C180 C 0.4217(2) 0.62231(14) 0.9813(3)
H150 H 0.4285 0.6164 1.0048
C181 C 0.40694(18) 0.60914(12) 0.9551(3)
C182 C 0.39785(18) 0.61857(13) 0.9213(3)
H151 H 0.3881 0.6096 0.9032
N19 N 0.40225(16) 0.63977(12) 0.9128(2)
C183 C 0.39943(19) 0.58682(12) 0.9643(3)
C184 C 0.39118(19) 0.56877(12) 0.9721(3)
C185 C 0.37939(17) 0.54837(12) 0.9850(2)
C186 C 0.37913(18) 0.54356(14) 1.0241(2)
H152 H 0.3879 0.5535 1.0416
C187 C 0.36649(18) 0.52467(13) 1.0380(2)
H153 H 0.3662 0.5213 1.0646
C188 C 0.35406(15) 0.51068(11) 1.0110(2)
C189 C 0.35442(15) 0.51515(11) 0.9711(2)
C190 C 0.36711(16) 0.53433(12) 0.9579(2)
H154 H 0.3674 0.5378 0.9314
C191 C 0.33059(15) 0.48290(11) 0.98217(18)
C192 C 0.31610(17) 0.46359(12) 0.9741(2)
H155 H 0.3100 0.4540 0.9941
C193 C 0.31084(18) 0.45871(13) 0.9366(2)
H156 H 0.3012 0.4453 0.9306
C194 C 0.31908(16) 0.47265(12) 0.90651(19)
C195 C 0.33315(16) 0.49218(12) 0.9146(2)
H157 H 0.3386 0.5019 0.8945
C196 C 0.33921(15) 0.49725(11) 0.95278(18)
C197 C 0.31417(18) 0.46565(14) 0.86783(19)
C198 C 0.31041(18) 0.45786(14) 0.8368(2)
C199 C 0.31082(15) 0.44821(12) 0.79935(19)
C200 C 0.29043(16) 0.43324(12) 0.7867(2)
H158 H 0.2744 0.4297 0.8022
C201 C 0.29392(14) 0.42355(12) 0.7507(2)
C202 C 0.31818(15) 0.42861(12) 0.7296(2)
H159 H 0.3210 0.4216 0.7055
C203 C 0.33421(16) 0.45257(13) 0.7757(2)
H160 H 0.3482 0.4628 0.7841
C204 C 0.27262(16) 0.41003(14) 0.7332(2)
C205 C 0.25510(16) 0.40052(15) 0.7151(2)
C206 C 0.23420(15) 0.38989(13) 0.6911(2)
C207 C 0.20592(16) 0.39633(14) 0.6940(3)
H161 H 0.2005 0.4066 0.7132
C208 C 0.18554(17) 0.38800(13) 0.6693(2)
H162 H 0.1661 0.3924 0.6711
C209 C 0.19443(15) 0.37305(11) 0.6418(2)
C210 C 0.22307(14) 0.36612(12) 0.6384(2)
C211 C 0.24298(16) 0.37466(13) 0.6636(2)
H163 H 0.2624 0.3702 0.6622
C212 C 0.19618(15) 0.34991(11) 0.59171(19)
C213 C 0.18962(17) 0.33670(12) 0.5602(2)
H164 H 0.1709 0.3363 0.5498
C214 C 0.21114(17) 0.32440(13) 0.5447(2)
H165 H 0.2071 0.3152 0.5232
C215 C 0.23847(16) 0.32490(12) 0.5592(2)
C216 C 0.24534(16) 0.33832(12) 0.5904(2)
H166 H 0.2642 0.3387 0.6002
C217 C 0.22408(14) 0.35103(11) 0.6065(2)
C218 C 0.25980(19) 0.31054(14) 0.5437(3)
C219 C 0.2752(2) 0.29698(15) 0.5308(3)
C220 C 0.2925(2) 0.27897(15) 0.5180(3)
C221 C 0.2846(2) 0.26592(19) 0.4870(3)
H167 H 0.2679 0.2692 0.4725
C222 C 0.3016(3) 0.2482(2) 0.4780(4)
H168 H 0.2965 0.2386 0.4576
C223 C 0.3260(3) 0.24457(19) 0.4990(3)
H169 H 0.3376 0.2324 0.4920
N20 N 0.33437(19) 0.25702(16) 0.5287(3)
C224 C 0.3173(2) 0.27361(16) 0.5377(3)
H170 H 0.3223 0.2824 0.5592
C225 C 0.3330(2) 0.48197(16) 1.0551(2)
H171 H 0.3342 0.4657 1.0540
H172 H 0.3472 0.4873 1.0740
C226 C 0.1059(7) 0.2872(5) 0.7303(10)
H173 H 0.1143 0.2769 0.7488
H174 H 0.0936 0.2977 0.7438
H175 H 0.0946 0.2790 0.7114
C227 C 0.1301(6) 0.2998(5) 0.7095(9)
H176 H 0.1427 0.2892 0.6962
H177 H 0.1417 0.3079 0.7286
C228 C 0.1172(6) 0.3165(4) 0.6795(8)
H178 H 0.1111 0.3079 0.6568
H179 H 0.0996 0.3228 0.6909
C229 C 0.1350(5) 0.3355(4) 0.6652(6)
H180 H 0.1340 0.3469 0.6854
H181 H 0.1550 0.3301 0.6651
C230 C 0.3042(2) 0.4884(2) 1.0678(4)
H182 H 0.2911 0.4772 1.0570
H183 H 0.3040 0.4862 1.0960
C231 C 0.2912(3) 0.5080(2) 1.0619(4)
H184 H 0.2963 0.5131 1.0358
H185 H 0.2994 0.5188 1.0802
C232 C 0.2577(3) 0.5091(3) 1.0656(4)
H186 H 0.2488 0.5000 1.0453
H187 H 0.2518 0.5030 1.0908
C233 C 0.2482(3) 0.5317(3) 1.0622(5)
H188 H 0.2555 0.5380 1.0379
H189 H 0.2561 0.5404 1.0837
C234 C 0.2162(3) 0.5333(3) 1.0627(5)
H190 H 0.2105 0.5487 1.0603
H191 H 0.2084 0.5248 1.0412
H192 H 0.2090 0.5273 1.0869
C235 C 0.14758(18) 0.36458(19) 0.6087(4)
H193 H 0.1429 0.3638 0.5810
H194 H 0.1413 0.3792 0.6182
C236 C 0.1312(3) 0.3470(3) 0.6295(5)
H195 H 0.1117 0.3532 0.6316
H196 H 0.1297 0.3349 0.6104
Pd1 Pd 0.38491(2) 0.65212(2) 0.86474(3)
Pd2 Pd 0.37167(2) 0.45067(2) 0.70969(2)
Pd3 Pd 0.36818(2) 0.24988(2) 0.56056(4)
F37? F 0.6125(4) 0.5686(3) 0.9494(4)
F38? F 0.6303(3) 0.5635(4) 0.8931(6)
F39? F 0.6104(4) 0.5964(3) 0.9097(7)
F40? F 0.6541(4) 0.5860(5) 0.9353(10)
B10? B 0.6291(3) 0.6854(3) 0.9944(4)
F41? F 0.6261(3) 0.6982(3) 0.9616(5)
F42? F 0.6269(2) 0.6638(2) 0.9811(6)
F43? F 0.6084(3) 0.6907(3) 1.0203(4)
F44? F 0.6558(2) 0.6884(3) 1.0106(5)
B11? B 0.5398(4) 0.2354(3) 0.6943(7)
F45? F 0.5123(4) 0.2371(4) 0.6802(8)
F46? F 0.5377(5) 0.2230(3) 0.7280(7)
F47? F 0.5506(4) 0.2558(3) 0.7016(8)
F48? F 0.5576(4) 0.2250(3) 0.6681(7)
B12? B 0.2882(4) 0.4377(4) 0.3337(6)
F49? F 0.2790(5) 0.4585(3) 0.3451(7)
F50? F 0.2969(4) 0.4372(3) 0.2954(5)
F51? F 0.2666(4) 0.4229(3) 0.3415(5)
F52? F 0.3103(5) 0.4311(5) 0.3575(7)
B13? B 0.2345(4) 0.5063(4) 0.9266(6)
F53? F 0.2598(4) 0.5099(4) 0.9466(7)
F54? F 0.2308(4) 0.5242(4) 0.9017(6)
F55? F 0.2118(5) 0.5030(5) 0.9510(8)
F56? F 0.2384(6) 0.4877(4) 0.9038(8)
B14? B 0.2500 0.2500 0.8887(5)
F57? F 0.2408(4) 0.2579(3) 0.8541(4)
F58? F 0.2276(3) 0.2346(3) 0.8989(5)
F59? F 0.2552(4) 0.2628(3) 0.9187(4)
F60? F 0.2740(3) 0.2361(3) 0.8822(5)
loop_
_geom_bond_atom_site_label_1
_geom_bond_atom_site_label_2
_geom_bond_site_symmetry_1
_geom_bond_site_symmetry_2
N1 C11 1_555 1_555
N2 C25 1_555 1_555
N3 C32 1_555 1_555
C1 H1 1_555 1_555
C2 C1 1_555 1_555
H2 C2 1_555 1_555
C3 C2 1_555 1_555
H3 C3 1_555 1_555
C4 C3 1_555 1_555
C5 C4 1_555 1_555
H4 C5 1_555 1_555
N4 C1 1_555 1_555
C6 C4 1_555 1_555
C7 C6 1_555 1_555
C8 C7 1_555 1_555
C9 C8 1_555 1_555
H5 C9 1_555 1_555
C10 C9 1_555 1_555
H6 C10 1_555 1_555
C11 C10 1_555 1_555
C12 C11 1_555 1_555
C13 C8 1_555 1_555
H7 C13 1_555 1_555
C14 N1 1_555 1_555
C15 C14 1_555 1_555
H8 C15 1_555 1_555
C16 C15 1_555 1_555
H9 C16 1_555 1_555
C17 C16 1_555 1_555
C18 C17 1_555 1_555
H10 C18 1_555 1_555
C19 C12 1_555 1_555
C20 C17 1_555 1_555
C21 C20 1_555 1_555
C22 C21 1_555 1_555
C23 C22 1_555 1_555
H11 C23 1_555 1_555
C24 C23 1_555 1_555
C25 C24 1_555 1_555
H12 C25 1_555 1_555
C26 N2 1_555 1_555
H13 C26 1_555 1_555
C27 C24 1_555 1_555
C28 C27 1_555 1_555
C29 C28 1_555 1_555
C30 C29 1_555 1_555
H14 C30 1_555 1_555
C31 C30 1_555 1_555
H15 C31 1_555 1_555
C32 C31 1_555 1_555
C33 C32 1_555 1_555
C34 C29 1_555 1_555
H16 C34 1_555 1_555
C35 N3 1_555 1_555
C36 C35 1_555 1_555
H17 C36 1_555 1_555
C37 C36 1_555 1_555
H18 C37 1_555 1_555
C38 C37 1_555 1_555
C39 C38 1_555 1_555
H19 C39 1_555 1_555
C40 C33 1_555 1_555
C41 C38 1_555 1_555
C42 C41 1_555 1_555
C43 C42 1_555 1_555
C44 C43 1_555 1_555
H20 C44 1_555 1_555
C45 C44 1_555 1_555
H21 C45 1_555 1_555
C46 C45 1_555 1_555
H22 C46 1_555 1_555
N5 C46 1_555 1_555
C47 C43 1_555 1_555
H23 C47 1_555 1_555
C48 N1 1_555 1_555
H24 C48 1_555 1_555
H25 C48 1_555 1_555
C49 C48 1_555 1_555
H26 C49 1_555 1_555
H27 C49 1_555 1_555
C50 C49 1_555 1_555
H28 C50 1_555 1_555
H29 C50 1_555 1_555
C51 C50 1_555 1_555
H30 C51 1_555 1_555
H31 C51 1_555 1_555
C52 C51 1_555 1_555
H32 C52 1_555 1_555
H33 C52 1_555 1_555
C53 C52 1_555 1_555
H34 C53 1_555 1_555
H35 C53 1_555 1_555
H36 C53 1_555 1_555
C54 N3 1_555 1_555
H37 C54 1_555 1_555
H38 C54 1_555 1_555
C55 C54 1_555 1_555
H39 C55 1_555 1_555
H40 C55 1_555 1_555
C56 C55 1_555 1_555
H41 C56 1_555 1_555
H42 C56 1_555 1_555
C57 C56 1_555 1_555
H43 C57 1_555 1_555
H44 C57 1_555 1_555
C58 C57 1_555 1_555
H45 C58 1_555 1_555
H46 C58 1_555 1_555
C59 C58 1_555 1_555
H47 C59 1_555 1_555
H48 C59 1_555 1_555
H49 C59 1_555 1_555
N6 C70 1_555 1_555
N7 C84 1_555 1_555
N8 C91 1_555 1_555
C60 H50 1_555 1_555
C61 C60 1_555 1_555
H51 C61 1_555 1_555
C62 C61 1_555 1_555
H52 C62 1_555 1_555
C63 C62 1_555 1_555
C64 C63 1_555 1_555
H53 C64 1_555 1_555
N9 C60 1_555 1_555
C65 C63 1_555 1_555
C66 C65 1_555 1_555
C67 C66 1_555 1_555
C68 C67 1_555 1_555
H54 C68 1_555 1_555
C69 C68 1_555 1_555
H55 C69 1_555 1_555
C70 C69 1_555 1_555
C71 C70 1_555 1_555
C72 C67 1_555 1_555
H56 C72 1_555 1_555
C73 N6 1_555 1_555
C74 C73 1_555 1_555
H57 C74 1_555 1_555
C75 C74 1_555 1_555
H58 C75 1_555 1_555
C76 C75 1_555 1_555
C77 C76 1_555 1_555
H59 C77 1_555 1_555
C78 C71 1_555 1_555
C79 C76 1_555 1_555
C80 C79 1_555 1_555
C81 C80 1_555 1_555
C82 C81 1_555 1_555
H60 C82 1_555 1_555
C83 C82 1_555 1_555
C84 C83 1_555 1_555
H61 C84 1_555 1_555
C85 N7 1_555 1_555
H62 C85 1_555 1_555
C86 C83 1_555 1_555
C87 C86 1_555 1_555
C88 C87 1_555 1_555
C89 C88 1_555 1_555
H63 C89 1_555 1_555
C90 C89 1_555 1_555
H64 C90 1_555 1_555
C91 C90 1_555 1_555
C92 C91 1_555 1_555
C93 C88 1_555 1_555
H65 C93 1_555 1_555
C94 N8 1_555 1_555
C95 C94 1_555 1_555
H66 C95 1_555 1_555
C96 C95 1_555 1_555
H67 C96 1_555 1_555
C97 C96 1_555 1_555
C98 C97 1_555 1_555
H68 C98 1_555 1_555
C99 C92 1_555 1_555
C100 C97 1_555 1_555
C101 C100 1_555 1_555
C102 C101 1_555 1_555
C103 C102 1_555 1_555
H69 C103 1_555 1_555
C104 C103 1_555 1_555
H70 C104 1_555 1_555
C105 C104 1_555 1_555
H71 C105 1_555 1_555
N10 C105 1_555 1_555
C106 C102 1_555 1_555
H72 C106 1_555 1_555
C107 N6 1_555 1_555
H73 C107 1_555 1_555
H74 C107 1_555 1_555
C108 C107 1_555 1_555
H75 C108 1_555 1_555
H76 C108 1_555 1_555
C109 C108 1_555 1_555
H77 C109 1_555 1_555
H78 C109 1_555 1_555
C110 C109 1_555 1_555
H79 C110 1_555 1_555
H80 C110 1_555 1_555
C111 C110 1_555 1_555
H81 C111 1_555 1_555
H82 C111 1_555 1_555
C112 C111 1_555 1_555
H83 C112 1_555 1_555
H84 C112 1_555 1_555
H85 C112 1_555 1_555
C113 N8 1_555 1_555
H86 C113 1_555 1_555
H87 C113 1_555 1_555
C114 C113 1_555 1_555
H88 C114 1_555 1_555
H89 C114 1_555 1_555
C115 C114 1_555 1_555
H90 C115 1_555 1_555
H91 C115 1_555 1_555
C116 C115 1_555 1_555
H92 C116 1_555 1_555
H93 C116 1_555 1_555
C117 C116 1_555 1_555
H94 C117 1_555 1_555
H95 C117 1_555 1_555
C118 C117 1_555 1_555
H96 C118 1_555 1_555
H97 C118 1_555 1_555
H98 C118 1_555 1_555
N11 C129 1_555 1_555
N12 C143 1_555 1_555
N13 C150 1_555 1_555
C119 H99 1_555 1_555
C120 C119 1_555 1_555
H100 C120 1_555 1_555
C121 C120 1_555 1_555
H101 C121 1_555 1_555
C122 C121 1_555 1_555
C123 C122 1_555 1_555
H102 C123 1_555 1_555
N14 C119 1_555 1_555
C124 C122 1_555 1_555
C125 C124 1_555 1_555
C126 C125 1_555 1_555
C127 C126 1_555 1_555
H103 C127 1_555 1_555
C128 C127 1_555 1_555
H104 C128 1_555 1_555
C129 C128 1_555 1_555
C130 C129 1_555 1_555
C131 C126 1_555 1_555
H105 C131 1_555 1_555
C132 N11 1_555 1_555
C133 C132 1_555 1_555
H106 C133 1_555 1_555
C134 C133 1_555 1_555
H107 C134 1_555 1_555
C135 C134 1_555 1_555
C136 C135 1_555 1_555
H108 C136 1_555 1_555
C137 C130 1_555 1_555
C138 C135 1_555 1_555
C139 C138 1_555 1_555
C140 C139 1_555 1_555
C141 C140 1_555 1_555
H109 C141 1_555 1_555
C142 C141 1_555 1_555
C143 C142 1_555 1_555
H110 C143 1_555 1_555
C144 N12 1_555 1_555
H111 C144 1_555 1_555
C145 C142 1_555 1_555
C146 C145 1_555 1_555
C147 C146 1_555 1_555
C148 C147 1_555 1_555
H112 C148 1_555 1_555
C149 C148 1_555 1_555
H113 C149 1_555 1_555
C150 C149 1_555 1_555
C151 C150 1_555 1_555
C152 C147 1_555 1_555
H114 C152 1_555 1_555
C153 N13 1_555 1_555
C154 C153 1_555 1_555
H115 C154 1_555 1_555
C155 C154 1_555 1_555
H116 C155 1_555 1_555
C156 C155 1_555 1_555
C157 C156 1_555 1_555
H117 C157 1_555 1_555
C158 C151 1_555 1_555
C159 C156 1_555 1_555
C160 C159 1_555 1_555
C161 C160 1_555 1_555
C162 C161 1_555 1_555
H118 C162 1_555 1_555
C163 C162 1_555 1_555
H119 C163 1_555 1_555
C164 C163 1_555 1_555
H120 C164 1_555 1_555
N15 C164 1_555 1_555
C165 C161 1_555 1_555
H121 C165 1_555 1_555
C166 N11 1_555 1_555
H122 C166 1_555 1_555
H123 C166 1_555 1_555
C167 C166 1_555 1_555
H124 C167 1_555 1_555
H125 C167 1_555 1_555
C168 C167 1_555 1_555
H126 C168 1_555 1_555
H127 C168 1_555 1_555
C169 C168 1_555 1_555
H128 C169 1_555 1_555
H129 C169 1_555 1_555
C170 C169 1_555 1_555
H130 C170 1_555 1_555
H131 C170 1_555 1_555
C171 C170 1_555 1_555
H132 C171 1_555 1_555
H133 C171 1_555 1_555
H134 C171 1_555 1_555
C172 N13 1_555 1_555
H135 C172 1_555 1_555
H136 C172 1_555 1_555
C173 C172 1_555 1_555
H137 C173 1_555 1_555
H138 C173 1_555 1_555
C174 C173 1_555 1_555
H139 C174 1_555 1_555
H140 C174 1_555 1_555
C175 C174 1_555 1_555
H141 C175 1_555 1_555
H142 C175 1_555 1_555
C176 C175 1_555 1_555
H143 C176 1_555 1_555
H144 C176 1_555 1_555
C177 C176 1_555 1_555
H145 C177 1_555 1_555
H146 C177 1_555 1_555
H147 C177 1_555 1_555
N16 C188 1_555 1_555
N17 C202 1_555 1_555
N18 C209 1_555 1_555
C178 H148 1_555 1_555
C179 C178 1_555 1_555
H149 C179 1_555 1_555
C180 C179 1_555 1_555
H150 C180 1_555 1_555
C181 C180 1_555 1_555
C182 C181 1_555 1_555
H151 C182 1_555 1_555
N19 C178 1_555 1_555
C183 C181 1_555 1_555
C184 C183 1_555 1_555
C185 C184 1_555 1_555
C186 C185 1_555 1_555
H152 C186 1_555 1_555
C187 C186 1_555 1_555
H153 C187 1_555 1_555
C188 C187 1_555 1_555
C189 C188 1_555 1_555
C190 C185 1_555 1_555
H154 C190 1_555 1_555
C191 N16 1_555 1_555
C192 C191 1_555 1_555
H155 C192 1_555 1_555
C193 C192 1_555 1_555
H156 C193 1_555 1_555
C194 C193 1_555 1_555
C195 C194 1_555 1_555
H157 C195 1_555 1_555
C196 C189 1_555 1_555
C197 C194 1_555 1_555
C198 C197 1_555 1_555
C199 C198 1_555 1_555
C200 C199 1_555 1_555
H158 C200 1_555 1_555
C201 C200 1_555 1_555
C202 C201 1_555 1_555
H159 C202 1_555 1_555
C203 N17 1_555 1_555
H160 C203 1_555 1_555
C204 C201 1_555 1_555
C205 C204 1_555 1_555
C206 C205 1_555 1_555
C207 C206 1_555 1_555
H161 C207 1_555 1_555
C208 C207 1_555 1_555
H162 C208 1_555 1_555
C209 C208 1_555 1_555
C210 C209 1_555 1_555
C211 C206 1_555 1_555
H163 C211 1_555 1_555
C212 N18 1_555 1_555
C213 C212 1_555 1_555
H164 C213 1_555 1_555
C214 C213 1_555 1_555
H165 C214 1_555 1_555
C215 C214 1_555 1_555
C216 C215 1_555 1_555
H166 C216 1_555 1_555
C217 C210 1_555 1_555
C218 C215 1_555 1_555
C219 C218 1_555 1_555
C220 C219 1_555 1_555
C221 C220 1_555 1_555
H167 C221 1_555 1_555
C222 C221 1_555 1_555
H168 C222 1_555 1_555
C223 C222 1_555 1_555
H169 C223 1_555 1_555
N20 C223 1_555 1_555
C224 C220 1_555 1_555
H170 C224 1_555 1_555
C225 N16 1_555 1_555
H171 C225 1_555 1_555
H172 C225 1_555 1_555
C226 H173 1_555 1_555
H174 C226 1_555 1_555
H175 C226 1_555 1_555
C227 C226 1_555 1_555
H176 C227 1_555 1_555
H177 C227 1_555 1_555
C228 C227 1_555 1_555
H178 C228 1_555 1_555
H179 C228 1_555 1_555
C229 C228 1_555 1_555
H180 C229 1_555 1_555
H181 C229 1_555 1_555
C230 C225 1_555 1_555
H182 C230 1_555 1_555
H183 C230 1_555 1_555
C231 C230 1_555 1_555
H184 C231 1_555 1_555
H185 C231 1_555 1_555
C232 C231 1_555 1_555
H186 C232 1_555 1_555
H187 C232 1_555 1_555
C233 C232 1_555 1_555
H188 C233 1_555 1_555
H189 C233 1_555 1_555
C234 C233 1_555 1_555
H190 C234 1_555 1_555
H191 C234 1_555 1_555
H192 C234 1_555 1_555
C235 N18 1_555 1_555
H193 C235 1_555 1_555
H194 C235 1_555 1_555
C236 C229 1_555 1_555
H195 C236 1_555 1_555
H196 C236 1_555 1_555
Pd1 N4 1_555 1_555
Pd2 N2 1_555 1_555
Pd3 N5 1_555 1_555
N21 C247 1_555 1_555
N22 C261 1_555 1_555
N23 C268 1_555 1_555
C237 H197 1_555 1_555
C238 C237 1_555 1_555
H198 C238 1_555 1_555
C239 C238 1_555 1_555
H199 C239 1_555 1_555
C240 C239 1_555 1_555
C241 C240 1_555 1_555
H200 C241 1_555 1_555
N24 C237 1_555 1_555
C242 C240 1_555 1_555
C243 C242 1_555 1_555
C244 C243 1_555 1_555
C245 C244 1_555 1_555
H201 C245 1_555 1_555
C246 C245 1_555 1_555
H202 C246 1_555 1_555
C247 C246 1_555 1_555
C248 C247 1_555 1_555
C249 C244 1_555 1_555
H203 C249 1_555 1_555
C250 N21 1_555 1_555
C251 C250 1_555 1_555
H204 C251 1_555 1_555
C252 C251 1_555 1_555
H205 C252 1_555 1_555
C253 C252 1_555 1_555
C254 C253 1_555 1_555
H206 C254 1_555 1_555
C255 C248 1_555 1_555
C256 C253 1_555 1_555
C257 C256 1_555 1_555
C258 C257 1_555 1_555
C259 C258 1_555 1_555
H207 C259 1_555 1_555
C260 C259 1_555 1_555
C261 C260 1_555 1_555
H208 C261 1_555 1_555
C262 N22 1_555 1_555
H209 C262 1_555 1_555
C263 C260 1_555 1_555
C264 C263 1_555 1_555
C265 C264 1_555 1_555
C266 C265 1_555 1_555
H210 C266 1_555 1_555
C267 C266 1_555 1_555
H211 C267 1_555 1_555
C268 C267 1_555 1_555
C269 C268 1_555 1_555
C270 C265 1_555 1_555
H212 C270 1_555 1_555
C271 N23 1_555 1_555
C272 C271 1_555 1_555
H213 C272 1_555 1_555
C273 C272 1_555 1_555
H214 C273 1_555 1_555
C274 C273 1_555 1_555
C275 C274 1_555 1_555
H215 C275 1_555 1_555
C276 C269 1_555 1_555
C277 C274 1_555 1_555
C278 C277 1_555 1_555
C279 C278 1_555 1_555
C280 C279 1_555 1_555
H216 C280 1_555 1_555
C281 C280 1_555 1_555
H217 C281 1_555 1_555
C282 C281 1_555 1_555
H218 C282 1_555 1_555
N25 C282 1_555 1_555
C283 C279 1_555 1_555
H219 C283 1_555 1_555
C284 N21 1_555 1_555
H220 C284 1_555 1_555
H221 C284 1_555 1_555
C285 C284 1_555 1_555
H222 C285 1_555 1_555
H223 C285 1_555 1_555
C286 C285 1_555 1_555
H224 C286 1_555 1_555
H225 C286 1_555 1_555
C287 C286 1_555 1_555
H226 C287 1_555 1_555
H227 C287 1_555 1_555
C288 C287 1_555 1_555
H228 C288 1_555 1_555
H229 C288 1_555 1_555
C289 C288 1_555 1_555
H230 C289 1_555 1_555
H231 C289 1_555 1_555
H232 C289 1_555 1_555
C290 N23 1_555 1_555
H233 C290 1_555 1_555
H234 C290 1_555 1_555
C291 C290 1_555 1_555
H235 C291 1_555 1_555
H236 C291 1_555 1_555
C292 C291 1_555 1_555
H237 C292 1_555 1_555
H238 C292 1_555 1_555
C293 C292 1_555 1_555
H239 C293 1_555 1_555
H240 C293 1_555 1_555
C294 C293 1_555 1_555
H241 C294 1_555 1_555
H242 C294 1_555 1_555
C295 C294 1_555 1_555
H243 C295 1_555 1_555
H244 C295 1_555 1_555
H245 C295 1_555 1_555
N26 C306 1_555 1_555
N27 C320 1_555 1_555
N28 C327 1_555 1_555
C296 H246 1_555 1_555
C297 C296 1_555 1_555
H247 C297 1_555 1_555
C298 C297 1_555 1_555
H248 C298 1_555 1_555
C299 C298 1_555 1_555
C300 C299 1_555 1_555
H249 C300 1_555 1_555
N29 C296 1_555 1_555
C301 C299 1_555 1_555
C302 C301 1_555 1_555
C303 C302 1_555 1_555
C304 C303 1_555 1_555
H250 C304 1_555 1_555
C305 C304 1_555 1_555
H251 C305 1_555 1_555
C306 C305 1_555 1_555
C307 C306 1_555 1_555
C308 C303 1_555 1_555
H252 C308 1_555 1_555
C309 N26 1_555 1_555
C310 C309 1_555 1_555
H253 C310 1_555 1_555
C311 C310 1_555 1_555
H254 C311 1_555 1_555
C312 C311 1_555 1_555
C313 C312 1_555 1_555
H255 C313 1_555 1_555
C314 C307 1_555 1_555
C315 C312 1_555 1_555
C316 C315 1_555 1_555
C317 C316 1_555 1_555
C318 C317 1_555 1_555
H256 C318 1_555 1_555
C319 C318 1_555 1_555
C320 C319 1_555 1_555
H257 C320 1_555 1_555
C321 N27 1_555 1_555
H258 C321 1_555 1_555
C322 C319 1_555 1_555
C323 C322 1_555 1_555
C324 C323 1_555 1_555
C325 C324 1_555 1_555
H259 C325 1_555 1_555
C326 C325 1_555 1_555
H260 C326 1_555 1_555
C327 C326 1_555 1_555
C328 C327 1_555 1_555
C329 C324 1_555 1_555
H261 C329 1_555 1_555
C330 N28 1_555 1_555
C331 C330 1_555 1_555
H262 C331 1_555 1_555
C332 C331 1_555 1_555
H263 C332 1_555 1_555
C333 C332 1_555 1_555
C334 C333 1_555 1_555
H264 C334 1_555 1_555
C335 C328 1_555 1_555
C336 C333 1_555 1_555
C337 C336 1_555 1_555
C338 C337 1_555 1_555
C339 C338 1_555 1_555
H265 C339 1_555 1_555
C340 C339 1_555 1_555
H266 C340 1_555 1_555
C341 C340 1_555 1_555
H267 C341 1_555 1_555
N30 C341 1_555 1_555
C342 C338 1_555 1_555
H268 C342 1_555 1_555
C343 N26 1_555 1_555
H269 C343 1_555 1_555
H270 C343 1_555 1_555
C344 C343 1_555 1_555
H271 C344 1_555 1_555
H272 C344 1_555 1_555
C345 C344 1_555 1_555
H273 C345 1_555 1_555
H274 C345 1_555 1_555
C346 C345 1_555 1_555
H275 C346 1_555 1_555
H276 C346 1_555 1_555
C347 C346 1_555 1_555
H277 C347 1_555 1_555
H278 C347 1_555 1_555
C348 C347 1_555 1_555
H279 C348 1_555 1_555
H280 C348 1_555 1_555
H281 C348 1_555 1_555
C349 N28 1_555 1_555
H282 C349 1_555 1_555
H283 C349 1_555 1_555
C350 C349 1_555 1_555
H284 C350 1_555 1_555
H285 C350 1_555 1_555
C351 C350 1_555 1_555
H286 C351 1_555 1_555
H287 C351 1_555 1_555
C352 C351 1_555 1_555
H288 C352 1_555 1_555
H289 C352 1_555 1_555
C353 C352 1_555 1_555
H290 C353 1_555 1_555
H291 C353 1_555 1_555
C354 C353 1_555 1_555
H292 C354 1_555 1_555
H293 C354 1_555 1_555
H294 C354 1_555 1_555
N31 C365 1_555 1_555
N32 C379 1_555 1_555
N33 C386 1_555 1_555
C355 H295 1_555 1_555
C356 C355 1_555 1_555
H296 C356 1_555 1_555
C357 C356 1_555 1_555
H297 C357 1_555 1_555
C358 C357 1_555 1_555
C359 C358 1_555 1_555
H298 C359 1_555 1_555
N34 C355 1_555 1_555
C360 C358 1_555 1_555
C361 C360 1_555 1_555
C362 C361 1_555 1_555
C363 C362 1_555 1_555
H299 C363 1_555 1_555
C364 C363 1_555 1_555
H300 C364 1_555 1_555
C365 C364 1_555 1_555
C366 C365 1_555 1_555
C367 C362 1_555 1_555
H301 C367 1_555 1_555
C368 N31 1_555 1_555
C369 C368 1_555 1_555
H302 C369 1_555 1_555
C370 C369 1_555 1_555
H303 C370 1_555 1_555
C371 C370 1_555 1_555
C372 C371 1_555 1_555
H304 C372 1_555 1_555
C373 C366 1_555 1_555
C374 C371 1_555 1_555
C375 C374 1_555 1_555
C376 C375 1_555 1_555
C377 C376 1_555 1_555
H305 C377 1_555 1_555
C378 C377 1_555 1_555
C379 C378 1_555 1_555
H306 C379 1_555 1_555
C380 N32 1_555 1_555
H307 C380 1_555 1_555
C381 C378 1_555 1_555
C382 C381 1_555 1_555
C383 C382 1_555 1_555
C384 C383 1_555 1_555
H308 C384 1_555 1_555
C385 C384 1_555 1_555
H309 C385 1_555 1_555
C386 C385 1_555 1_555
C387 C386 1_555 1_555
C388 C383 1_555 1_555
H310 C388 1_555 1_555
C389 N33 1_555 1_555
C390 C389 1_555 1_555
H311 C390 1_555 1_555
C391 C390 1_555 1_555
H312 C391 1_555 1_555
C392 C391 1_555 1_555
C393 C392 1_555 1_555
H313 C393 1_555 1_555
C394 C387 1_555 1_555
C395 C392 1_555 1_555
C396 C395 1_555 1_555
C397 C396 1_555 1_555
C398 C397 1_555 1_555
H314 C398 1_555 1_555
C399 C398 1_555 1_555
H315 C399 1_555 1_555
C400 C399 1_555 1_555
H316 C400 1_555 1_555
N35 C400 1_555 1_555
C401 C397 1_555 1_555
H317 C401 1_555 1_555
C402 N31 1_555 1_555
H318 C402 1_555 1_555
H319 C402 1_555 1_555
C403 C402 1_555 1_555
H320 C403 1_555 1_555
H321 C403 1_555 1_555
C404 C403 1_555 1_555
H322 C404 1_555 1_555
H323 C404 1_555 1_555
C405 C404 1_555 1_555
H324 C405 1_555 1_555
H325 C405 1_555 1_555
C406 C405 1_555 1_555
H326 C406 1_555 1_555
H327 C406 1_555 1_555
C407 C406 1_555 1_555
H328 C407 1_555 1_555
H329 C407 1_555 1_555
H330 C407 1_555 1_555
C408 N33 1_555 1_555
H331 C408 1_555 1_555
H332 C408 1_555 1_555
C409 C408 1_555 1_555
H333 C409 1_555 1_555
H334 C409 1_555 1_555
C410 C409 1_555 1_555
H335 C410 1_555 1_555
H336 C410 1_555 1_555
C411 C410 1_555 1_555
H337 C411 1_555 1_555
H338 C411 1_555 1_555
C412 C411 1_555 1_555
H339 C412 1_555 1_555
H340 C412 1_555 1_555
C413 C412 1_555 1_555
H341 C413 1_555 1_555
H342 C413 1_555 1_555
H343 C413 1_555 1_555
N36 C424 1_555 1_555
N37 C438 1_555 1_555
N38 C445 1_555 1_555
C414 H344 1_555 1_555
C415 C414 1_555 1_555
H345 C415 1_555 1_555
C416 C415 1_555 1_555
H346 C416 1_555 1_555
C417 C416 1_555 1_555
C418 C417 1_555 1_555
H347 C418 1_555 1_555
N39 C414 1_555 1_555
C419 C417 1_555 1_555
C420 C419 1_555 1_555
C421 C420 1_555 1_555
C422 C421 1_555 1_555
H348 C422 1_555 1_555
C423 C422 1_555 1_555
H349 C423 1_555 1_555
C424 C423 1_555 1_555
C425 C424 1_555 1_555
C426 C421 1_555 1_555
H350 C426 1_555 1_555
C427 N36 1_555 1_555
C428 C427 1_555 1_555
H351 C428 1_555 1_555
C429 C428 1_555 1_555
H352 C429 1_555 1_555
C430 C429 1_555 1_555
C431 C430 1_555 1_555
H353 C431 1_555 1_555
C432 C425 1_555 1_555
C433 C430 1_555 1_555
C434 C433 1_555 1_555
C435 C434 1_555 1_555
C436 C435 1_555 1_555
H354 C436 1_555 1_555
C437 C436 1_555 1_555
C438 C437 1_555 1_555
H355 C438 1_555 1_555
C439 N37 1_555 1_555
H356 C439 1_555 1_555
C440 C437 1_555 1_555
C441 C440 1_555 1_555
C442 C441 1_555 1_555
C443 C442 1_555 1_555
H357 C443 1_555 1_555
C444 C443 1_555 1_555
H358 C444 1_555 1_555
C445 C444 1_555 1_555
C446 C445 1_555 1_555
C447 C442 1_555 1_555
H359 C447 1_555 1_555
C448 N38 1_555 1_555
C449 C448 1_555 1_555
H360 C449 1_555 1_555
C450 C449 1_555 1_555
H361 C450 1_555 1_555
C451 C450 1_555 1_555
C452 C451 1_555 1_555
H362 C452 1_555 1_555
C453 C446 1_555 1_555
C454 C451 1_555 1_555
C455 C454 1_555 1_555
C456 C455 1_555 1_555
C457 C456 1_555 1_555
H363 C457 1_555 1_555
C458 C457 1_555 1_555
H364 C458 1_555 1_555
C459 C458 1_555 1_555
H365 C459 1_555 1_555
N40 C459 1_555 1_555
C460 C456 1_555 1_555
H366 C460 1_555 1_555
C461 N36 1_555 1_555
H367 C461 1_555 1_555
H368 C461 1_555 1_555
C462 C461 1_555 1_555
H369 C462 1_555 1_555
H370 C462 1_555 1_555
C463 N38 1_555 1_555
H371 C463 1_555 1_555
H372 C463 1_555 1_555
C464 H373 1_555 1_555
H374 C464 1_555 1_555
H375 C464 1_555 1_555
C465 C464 1_555 1_555
H376 C465 1_555 1_555
H377 C465 1_555 1_555
C466 C465 1_555 1_555
H378 C466 1_555 1_555
H379 C466 1_555 1_555
C467 C462 1_555 1_555
H380 C467 1_555 1_555
H381 C467 1_555 1_555
C468 C463 1_555 1_555
H382 C468 1_555 1_555
H383 C468 1_555 1_555
C469 C468 1_555 1_555
H384 C469 1_555 1_555
H385 C469 1_555 1_555
C470 C469 1_555 1_555
H386 C470 1_555 1_555
H387 C470 1_555 1_555
C471 C470 1_555 1_555
H388 C471 1_555 1_555
H389 C471 1_555 1_555
C472 C471 1_555 1_555
H390 C472 1_555 1_555
H391 C472 1_555 1_555
H392 C472 1_555 1_555
Pd4 N24 1_555 1_555
Pd5 N22 1_555 1_555
Pd6 N25 1_555 1_555
B1 F1 1_555 1_555
F2 B1 1_555 1_555
F3 B1 1_555 1_555
F4 B1 1_555 1_555
B2 F5 1_555 1_555
F6 B2 1_555 1_555
F7 B2 1_555 1_555
F8 B2 1_555 1_555
B3 F9 1_555 1_555
F10 B3 1_555 1_555
F11 B3 1_555 1_555
F12 B3 1_555 1_555
B4 F13 1_555 1_555
F14 B4 1_555 1_555
F15 B4 1_555 1_555
F16 B4 1_555 1_555
B5 F17 1_555 1_555
F18 B5 1_555 1_555
F19 B5 1_555 1_555
F20 B5 1_555 1_555
B6 F21 1_555 1_555
F22 B6 1_555 1_555
F23 B6 1_555 1_555
F24 B6 1_555 1_555
B7 F25 1_555 1_555
F26 B7 1_555 1_555
F27 B7 1_555 1_555
F28 B7 1_555 1_555
B8 F29 1_555 1_555
F30 B8 1_555 1_555
F31 B8 1_555 1_555
F32 B8 1_555 1_555
B9 F33 1_555 1_555
F34 B9 1_555 1_555
F35 B9 1_555 1_555
F36 B9 1_555 1_555
C5 N4 1_555 1_555
C12 C13 1_555 1_555
C14 C19 1_555 1_555
C18 C19 1_555 1_555
C22 C26 1_555 1_555
C33 C34 1_555 1_555
C35 C40 1_555 1_555
C39 C40 1_555 1_555
N5 C47 1_555 1_555
N7 Pd2 1_555 1_555
C64 N9 1_555 1_555
N9 Pd1 1_555 1_555
C71 C72 1_555 1_555
C73 C78 1_555 1_555
C77 C78 1_555 1_555
C81 C85 1_555 1_555
C92 C93 1_555 1_555
C94 C99 1_555 1_555
C98 C99 1_555 1_555
N10 C106 1_555 1_555
N10 Pd3 1_555 1_555
N12 Pd2 1_555 1_555
C123 N14 1_555 1_555
N14 Pd1 1_555 1_555
C130 C131 1_555 1_555
C132 C137 1_555 1_555
C136 C137 1_555 1_555
C140 C144 1_555 1_555
C151 C152 1_555 1_555
C153 C158 1_555 1_555
C157 C158 1_555 1_555
N15 C165 1_555 1_555
N15 Pd3 1_555 1_555
N17 Pd2 1_555 1_555
C182 N19 1_555 1_555
N19 Pd1 1_555 1_555
C189 C190 1_555 1_555
C191 C196 1_555 1_555
C195 C196 1_555 1_555
C199 C203 1_555 1_555
C210 C211 1_555 1_555
C212 C217 1_555 1_555
C216 C217 1_555 1_555
N20 C224 1_555 1_555
N20 Pd3 1_555 1_555
C235 C236 1_555 1_555
C241 N24 1_555 1_555
C248 C249 1_555 1_555
C250 C255 1_555 1_555
C254 C255 1_555 1_555
C258 C262 1_555 1_555
C269 C270 1_555 1_555
C271 C276 1_555 1_555
C275 C276 1_555 1_555
N25 C283 1_555 1_555
N27 Pd5 1_555 1_555
C300 N29 1_555 1_555
N29 Pd4 1_555 1_555
C307 C308 1_555 1_555
C309 C314 1_555 1_555
C313 C314 1_555 1_555
C317 C321 1_555 1_555
C328 C329 1_555 1_555
C330 C335 1_555 1_555
C334 C335 1_555 1_555
N30 C342 1_555 1_555
N30 Pd6 1_555 1_555
N32 Pd5 1_555 1_555
C359 N34 1_555 1_555
N34 Pd4 1_555 1_555
C366 C367 1_555 1_555
C368 C373 1_555 1_555
C372 C373 1_555 1_555
C376 C380 1_555 1_555
C387 C388 1_555 1_555
C389 C394 1_555 1_555
C393 C394 1_555 1_555
N35 C401 1_555 1_555
N35 Pd6 1_555 1_555
N37 Pd5 1_555 1_555
C418 N39 1_555 1_555
N39 Pd4 1_555 1_555
C425 C426 1_555 1_555
C427 C432 1_555 1_555
C431 C432 1_555 1_555
C435 C439 1_555 1_555
C446 C447 1_555 1_555
C448 C453 1_555 1_555
C452 C453 1_555 1_555
N40 C460 1_555 1_555
N40 Pd6 1_555 1_555
C466 C467 1_555 1_555

#END
