
#######################################################################
#
#                 Cambridge Crystallographic Data Centre
#                                CCDC 
#
#######################################################################
#
# If this CIF has been generated from an entry in the Cambridge 
# Structural Database, then it will include bibliographic, chemical, 
# crystal, experimental, refinement or atomic coordinate data resulting 
# from the CCDC's data processing and validation procedures.
#
#######################################################################

data_HEYPOT
_chemical_formula_moiety         'C236 H196 N20 Pd3 6+,6(B1 F4 1-)'
_chemical_name_systematic        
"tetrakis(\m-3,3'-[pyridine-3,5-diylbis(ethyne-2,1-diyl)]bis{9-hexyl-6-[(pyridin-3-yl)ethynyl]-9H-carbazole})-tri-palladium hexakis(tetrafluoroborate) unknown solvate"
_symmetry_cell_setting           monoclinic
_symmetry_space_group_name_H-M   'P 21/c'
_symmetry_Int_Tables_number      14
_space_group_name_Hall           '-P 2ybc'
loop_
_symmetry_equiv_pos_site_id
_symmetry_equiv_pos_as_xyz
1 x,y,z
2 -x,1/2+y,1/2-z
3 -x,-y,-z
4 x,1/2-y,1/2+z
_cell_length_a                   15.606(2)
_cell_length_b                   29.690(5)
_cell_length_c                   69.315(10)
_cell_angle_alpha                90
_cell_angle_beta                 92.179(7)
_cell_angle_gamma                90
_cell_volume                     32093.3
_exptl_crystal_colour            yellow
_exptl_crystal_description       cube
_cell_formula_units_Z            4
_chemical_properties_physical    Air-sensitive,Moisture-sensitive
_exptl_crystal_recrystallization_method 
'diffusion of isopropyl ether into saturated solution of compound in acetonitrile'
loop_
_atom_site_label
_atom_site_type_symbol
_atom_site_fract_x
_atom_site_fract_y
_atom_site_fract_z
Pd1 Pd 0.75566(15) 0.24815(9) 0.98076(4)
Pd2 Pd 0.52211(15) 0.26803(9) 0.77616(3)
Pd3 Pd 0.32273(15) 0.22888(13) 0.57081(4)
N1 N 0.7577(14) 0.1799(5) 0.9811(3)
C1 C 0.7987(15) 0.1584(7) 0.9957(3)
H1 H 0.8267 0.1760 1.0055
N2 N 0.4783(10) -0.0449(4) 0.88425(18)
C2 C 0.8026(16) 0.1122(7) 0.9973(3)
H2 H 0.8325 0.0981 1.0079
N3 N 0.5192(11) 0.2001(5) 0.7764(2)
C3 C 0.7612(16) 0.0870(6) 0.9829(3)
H3 H 0.7628 0.0550 0.9834
N4 N 0.6126(10) -0.0490(5) 0.6729(2)
C4 C 0.7177(12) 0.1085(6) 0.9677(2)
N5 N 0.3195(11) 0.1656(6) 0.5723(3)
C5 C 0.7181(14) 0.1559(6) 0.9673(3)
H4 H 0.6894 0.1711 0.9569
C6 C 0.6761(14) 0.0833(7) 0.9525(3)
C7 C 0.6374(14) 0.0641(7) 0.9398(3)
C8 C 0.5923(11) 0.0357(6) 0.9261(2)
C9 C 0.5694(14) -0.0075(6) 0.9317(2)
H5 H 0.5817 -0.0171 0.9446
C10 C 0.5292(13) -0.0364(6) 0.9188(2)
H6 H 0.5130 -0.0658 0.9226
C11 C 0.5129(10) -0.0217(5) 0.89995(18)
C12 C 0.5354(10) 0.0222(5) 0.89402(19)
C13 C 0.5752(12) 0.0511(5) 0.9074(2)
H7 H 0.5903 0.0809 0.9038
C14 C 0.4786(10) -0.0172(5) 0.86821(18)
C15 C 0.4521(12) -0.0266(5) 0.8492(2)
H8 H 0.4300 -0.0554 0.8457
C16 C 0.4587(13) 0.0068(6) 0.8356(2)
H9 H 0.4401 0.0010 0.8226
C17 C 0.4919(11) 0.0489(5) 0.8404(2)
C18 C 0.5199(12) 0.0584(5) 0.8592(2)
H10 H 0.5436 0.0870 0.8625
C19 C 0.5127(10) 0.0251(5) 0.87344(19)
C20 C 0.4993(14) 0.0825(6) 0.8255(2)
C21 C 0.5026(14) 0.1061(7) 0.8116(2)
C22 C 0.5100(11) 0.1298(5) 0.79375(18)
C23 C 0.5178(13) 0.1061(5) 0.7766(2)
H11 H 0.5162 0.0742 0.7765
C24 C 0.5280(12) 0.1300(5) 0.75948(18)
C25 C 0.5274(13) 0.1767(5) 0.7601(2)
H12 H 0.5331 0.1929 0.7484
C26 C 0.5109(11) 0.1771(5) 0.7928(2)
H13 H 0.5054 0.1936 0.8044
C27 C 0.5405(14) 0.1056(7) 0.7419(2)
C28 C 0.5559(15) 0.0818(7) 0.7285(3)
C29 C 0.5795(12) 0.0488(6) 0.7145(2)
C30 C 0.6224(14) 0.0097(6) 0.7201(3)
H14 H 0.6430 0.0069 0.7332
C31 C 0.6360(13) -0.0253(6) 0.7075(2)
H15 H 0.6644 -0.0521 0.7116
C32 C 0.6068(11) -0.0199(5) 0.6884(2)
C33 C 0.5632(11) 0.0196(5) 0.6823(2)
C34 C 0.5502(13) 0.0544(5) 0.6954(2)
H16 H 0.5218 0.0813 0.6914
C35 C 0.5727(11) -0.0294(5) 0.6568(2)
C36 C 0.5589(15) -0.0462(6) 0.6382(2)
H17 H 0.5802 -0.0750 0.6349
C37 C 0.5138(16) -0.0206(7) 0.6248(3)
H18 H 0.5035 -0.0320 0.6121
C38 C 0.4831(13) 0.0220(6) 0.6295(2)
C39 C 0.4953(14) 0.0389(6) 0.6482(2)
H19 H 0.4729 0.0675 0.6515
C40 C 0.5409(11) 0.0133(5) 0.6620(2)
C41 C 0.4421(15) 0.0500(8) 0.6151(3)
C42 C 0.4092(14) 0.0716(9) 0.6022(3)
C43 C 0.3677(12) 0.0952(7) 0.5864(3)
C44 C 0.3405(15) 0.0723(7) 0.5697(3)
H20 H 0.3456 0.0404 0.5689
C45 C 0.3060(14) 0.0970(9) 0.5544(3)
H21 H 0.2886 0.0824 0.5427
C46 C 0.2969(13) 0.1428(9) 0.5563(3)
H22 H 0.2733 0.1592 0.5456
C47 C 0.3551(14) 0.1416(7) 0.5868(3)
H23 H 0.3731 0.1573 0.5982
C48 C 0.4477(16) -0.0915(5) 0.8845(3)
H24 H 0.4898 -0.1103 0.8919
H25 H 0.4436 -0.1032 0.8711
C49 C 0.3610(17) -0.0955(11) 0.8935(5)
H26 H 0.3483 -0.1279 0.8949
H27 H 0.3662 -0.0825 0.9066
C50 C 0.284(2) -0.0740(15) 0.8833(5)
H28 H 0.2715 -0.0894 0.8709
H29 H 0.2963 -0.0419 0.8806
C51 C 0.207(2) -0.0782(17) 0.8966(7)
H30 H 0.1839 -0.1092 0.8957
H31 H 0.2272 -0.0731 0.9102
C52 C 0.135(3) -0.0450(17) 0.8916(8)
H32 H 0.1550 -0.0139 0.8943
H33 H 0.1196 -0.0470 0.8776
C53 C 0.057(3) -0.055(2) 0.9031(9)
H34 H 0.0119 -0.0333 0.8996
H35 H 0.0373 -0.0856 0.9002
H36 H 0.0726 -0.0525 0.9169
C54 C 0.6534(15) -0.0938(6) 0.6733(4)
H37 H 0.6359 -0.1105 0.6614
H38 H 0.6335 -0.1110 0.6845
C55 C 0.7516(15) -0.0900(11) 0.6747(5)
H39 H 0.7682 -0.0693 0.6853
H40 H 0.7761 -0.1200 0.6778
C56 C 0.7892(17) -0.0731(13) 0.6562(5)
H41 H 0.7631 -0.0437 0.6527
H42 H 0.7753 -0.0946 0.6457
C57 C 0.8864(18) -0.0678(14) 0.6585(6)
H43 H 0.9125 -0.0972 0.6619
H44 H 0.9003 -0.0465 0.6691
C58 C 0.925(2) -0.0505(15) 0.6399(6)
H45 H 0.9030 -0.0199 0.6369
H46 H 0.9088 -0.0706 0.6290
C59 C 1.025(2) -0.0492(14) 0.6430(7)
H47 H 1.0510 -0.0382 0.6312
H48 H 1.0407 -0.0290 0.6538
H49 H 1.0465 -0.0796 0.6459
N6 N 0.8844(9) 0.2500(6) 0.9758(3)
C60 C 0.9411(13) 0.2560(7) 0.9904(2)
H50 H 0.9202 0.2630 1.0028
N7 N 1.1998(8) 0.1757(5) 0.85061(19)
C61 C 1.0276(12) 0.2525(8) 0.9886(3)
H51 H 1.0656 0.2571 0.9995
N8 N 0.6470(9) 0.2686(6) 0.7705(2)
C62 C 1.0594(11) 0.2421(8) 0.9708(3)
H52 H 1.1194 0.2396 0.9692
N9 N 0.9863(8) 0.3379(5) 0.64644(18)
C63 C 1.0022(11) 0.2355(6) 0.9553(2)
N10 N 0.4507(9) 0.2243(6) 0.5659(3)
C64 C 0.9149(10) 0.2395(7) 0.9587(2)
H53 H 0.8751 0.2346 0.9482
C65 C 1.0309(14) 0.2260(8) 0.9363(2)
C66 C 1.0594(13) 0.2170(8) 0.9210(2)
C67 C 1.0960(10) 0.2043(6) 0.90314(19)
C68 C 1.1784(11) 0.1860(7) 0.9035(2)
H54 H 1.2077 0.1805 0.9155
C69 C 1.2179(10) 0.1760(7) 0.8866(2)
H55 H 1.2740 0.1635 0.8869
C70 C 1.1745(9) 0.1842(6) 0.86920(18)
C71 C 1.0904(9) 0.2016(5) 0.86846(18)
C72 C 1.0511(10) 0.2112(6) 0.8857(2)
H56 H 0.9941 0.2225 0.8855
C73 C 1.1336(9) 0.1870(6) 0.83774(18)
C74 C 1.1297(11) 0.1846(7) 0.8176(2)
H57 H 1.1766 0.1729 0.8108
C75 C 1.0563(12) 0.1995(8) 0.8077(2)
H58 H 1.0530 0.1983 0.7940
C76 C 0.9869(10) 0.2162(6) 0.8177(2)
C77 C 0.9902(10) 0.2180(7) 0.8378(2)
H59 H 0.9425 0.2288 0.8446
C78 C 1.0643(9) 0.2037(5) 0.84793(19)
C79 C 0.9120(12) 0.2320(8) 0.8071(3)
C80 C 0.8552(12) 0.2441(8) 0.7961(3)
C81 C 0.7935(10) 0.2584(7) 0.7815(2)
C82 C 0.8219(10) 0.2715(8) 0.7635(2)
H60 H 0.8815 0.2733 0.7613
C83 C 0.7619(10) 0.2819(7) 0.74877(19)
C84 C 0.6749(10) 0.2793(7) 0.7530(2)
H61 H 0.6334 0.2853 0.7430
C85 C 0.7051(10) 0.2579(8) 0.7844(2)
H62 H 0.6857 0.2497 0.7968
C86 C 0.7898(13) 0.2951(8) 0.7300(2)
C87 C 0.8204(13) 0.3034(8) 0.7148(2)
C88 C 0.8656(10) 0.3134(6) 0.69758(19)
C89 C 0.9505(11) 0.3268(8) 0.6989(2)
H63 H 0.9788 0.3288 0.7112
C90 C 0.9952(10) 0.3375(7) 0.6827(2)
H64 H 1.0528 0.3478 0.6838
C91 C 0.9542(9) 0.3327(6) 0.66464(17)
C92 C 0.8676(8) 0.3185(5) 0.66290(18)
C93 C 0.8235(10) 0.3096(7) 0.67954(19)
H65 H 0.7649 0.3009 0.6786
C94 C 0.9232(9) 0.3260(6) 0.63285(17)
C95 C 0.9279(10) 0.3230(7) 0.61282(19)
H66 H 0.9786 0.3313 0.6065
C96 C 0.8563(11) 0.3076(7) 0.6025(2)
H67 H 0.8579 0.3050 0.5888
C97 C 0.7819(9) 0.2958(6) 0.6117(2)
C98 C 0.7769(9) 0.2988(7) 0.6317(2)
H68 H 0.7259 0.2906 0.6379
C99 C 0.8483(8) 0.3140(6) 0.64244(18)
C100 C 0.7087(11) 0.2796(7) 0.6005(3)
C101 C 0.6510(12) 0.2644(7) 0.5907(3)
C102 C 0.5942(10) 0.2434(6) 0.5767(2)
C103 C 0.6257(11) 0.2263(8) 0.5595(3)
H69 H 0.6854 0.2268 0.5573
C104 C 0.5682(12) 0.2085(8) 0.5459(3)
H70 H 0.5877 0.1964 0.5341
C105 C 0.4824(12) 0.2088(7) 0.5496(3)
H71 H 0.4433 0.1972 0.5400
C106 C 0.5057(10) 0.2408(7) 0.5792(3)
H72 H 0.4840 0.2514 0.5910
C107 C 1.2824(11) 0.1556(8) 0.8458(4)
H73 H 1.3282 0.1685 0.8544
H74 H 1.2951 0.1637 0.8323
C108 C 1.283(2) 0.1048(8) 0.8478(6)
H75 H 1.3396 0.0943 0.8433
H76 H 1.2827 0.0980 0.8617
C109 C 1.216(3) 0.0755(10) 0.8380(7)
H77 H 1.2145 0.0819 0.8239
H78 H 1.1595 0.0834 0.8429
C110 C 1.232(3) 0.0242(10) 0.8412(7)
H79 H 1.2948 0.0183 0.8408
H80 H 1.2136 0.0158 0.8542
C111 C 1.187(3) -0.0045(12) 0.8265(7)
H81 H 1.2033 0.0058 0.8136
H82 H 1.1244 0.0011 0.8274
C112 C 1.201(3) -0.0549(12) 0.8275(8)
H83 H 1.1674 -0.0697 0.8171
H84 H 1.2620 -0.0614 0.8262
H85 H 1.1827 -0.0661 0.8400
C113 C 1.0735(10) 0.3532(8) 0.6422(3)
H86 H 1.0952 0.3348 0.6315
H87 H 1.1116 0.3480 0.6537
C114 C 1.078(2) 0.4025(9) 0.6366(6)
H88 H 1.1398 0.4102 0.6364
H89 H 1.0553 0.4047 0.6232
C115 C 1.036(3) 0.4391(10) 0.6477(6)
H90 H 1.0594 0.4381 0.6612
H91 H 0.9741 0.4323 0.6480
C116 C 1.046(3) 0.4876(11) 0.6402(8)
H92 H 1.0774 0.4861 0.6280
H93 H 1.0830 0.5042 0.6497
C117 C 0.964(3) 0.5165(14) 0.6361(10)
H94 H 0.9273 0.5012 0.6261
H95 H 0.9310 0.5179 0.6480
C118 C 0.982(3) 0.5652(13) 0.6292(8)
H96 H 0.9272 0.5811 0.6270
H97 H 1.0164 0.5811 0.6392
H98 H 1.0127 0.5643 0.6172
N11 N 0.7518(8) 0.3165(4) 0.9815(2)
C119 C 0.7516(13) 0.3380(6) 0.9983(2)
H99 H 0.7503 0.3207 1.0098
N12 N 0.8102(10) 0.5576(5) 0.87385(19)
C120 C 0.7533(14) 0.3845(7) 0.9998(2)
H100 H 0.7520 0.3991 1.0120
N13 N 0.5259(10) 0.3357(5) 0.7755(2)
C121 C 0.7569(14) 0.4088(6) 0.9830(3)
H101 H 0.7569 0.4408 0.9834
N14 N 0.2708(10) 0.5518(5) 0.67036(19)
C122 C 0.7606(11) 0.3867(5) 0.9652(2)
N15 N 0.3235(14) 0.2942(6) 0.5685(3)
C123 C 0.7574(11) 0.3398(5) 0.9653(2)
H102 H 0.7593 0.3240 0.9534
C124 C 0.7680(13) 0.4122(7) 0.9478(2)
C125 C 0.7712(14) 0.4357(7) 0.9339(2)
C126 C 0.7840(11) 0.4673(5) 0.9186(2)
C127 C 0.8291(14) 0.5069(6) 0.9228(2)
H103 H 0.8511 0.5121 0.9355
C128 C 0.8423(13) 0.5386(6) 0.9086(2)
H104 H 0.8739 0.5652 0.9115
C129 C 0.8083(11) 0.5307(5) 0.89012(19)
C130 C 0.7622(10) 0.4910(5) 0.88565(19)
C131 C 0.7504(12) 0.4589(5) 0.9000(2)
H105 H 0.7200 0.4319 0.8972
C132 C 0.7650(11) 0.5360(5) 0.85890(19)
C133 C 0.7480(14) 0.5505(6) 0.8401(2)
H106 H 0.7664 0.5793 0.8360
C134 C 0.7035(14) 0.5221(6) 0.8276(2)
H107 H 0.6909 0.5316 0.8147
C135 C 0.6770(10) 0.4799(6) 0.8334(2)
C136 C 0.6924(12) 0.4654(5) 0.8524(2)
H108 H 0.6738 0.4365 0.8563
C137 C 0.7355(10) 0.4939(5) 0.86542(19)
C138 C 0.6329(12) 0.4508(7) 0.8198(3)
C139 C 0.5969(13) 0.4303(7) 0.8070(2)
C140 C 0.5586(10) 0.4061(5) 0.79102(19)
C141 C 0.5270(11) 0.4295(5) 0.7748(2)
H109 H 0.5284 0.4615 0.7744
C142 C 0.4932(11) 0.4053(5) 0.7590(2)
C143 C 0.4945(13) 0.3581(5) 0.7601(2)
H110 H 0.4720 0.3413 0.7494
C144 C 0.5562(11) 0.3590(6) 0.7907(2)
H111 H 0.5770 0.3430 0.8018
C145 C 0.4545(13) 0.4276(7) 0.7426(2)
C146 C 0.4209(13) 0.4467(7) 0.7291(3)
C147 C 0.3805(11) 0.4740(6) 0.7143(2)
C148 C 0.3517(15) 0.5167(7) 0.7191(2)
H112 H 0.3580 0.5267 0.7321
C149 C 0.3141(14) 0.5448(6) 0.7054(2)
H113 H 0.2942 0.5738 0.7089
C150 C 0.3058(11) 0.5297(5) 0.68640(19)
C151 C 0.3344(10) 0.4867(5) 0.68113(19)
C152 C 0.3718(12) 0.4587(6) 0.6953(2)
H114 H 0.3911 0.4294 0.6921
C153 C 0.2756(10) 0.5238(5) 0.65448(18)
C154 C 0.2510(13) 0.5315(6) 0.6353(2)
H115 H 0.2262 0.5594 0.6314
C155 C 0.2630(13) 0.4980(6) 0.6218(2)
H116 H 0.2461 0.5031 0.6087
C156 C 0.2993(11) 0.4568(6) 0.6272(2)
C157 C 0.3260(13) 0.4494(6) 0.6463(2)
H117 H 0.3521 0.4216 0.6499
C158 C 0.3143(10) 0.4827(5) 0.66022(19)
C159 C 0.3059(15) 0.4215(7) 0.6133(3)
C160 C 0.3116(15) 0.3928(8) 0.6012(3)
C161 C 0.3163(12) 0.3666(7) 0.5838(3)
C162 C 0.3093(17) 0.3871(7) 0.5658(3)
H118 H 0.3040 0.4189 0.5648
C163 C 0.3100(17) 0.3605(9) 0.5493(3)
H119 H 0.3048 0.3737 0.5368
C164 C 0.3185(15) 0.3146(9) 0.5515(3)
H120 H 0.3209 0.2966 0.5402
C165 C 0.3229(14) 0.3197(7) 0.5844(3)
H121 H 0.3273 0.3053 0.5966
C166 C 0.8538(16) 0.6011(6) 0.8720(4)
H122 H 0.8411 0.6201 0.8832
H123 H 0.8305 0.6165 0.8602
C167 C 0.9494(17) 0.5969(12) 0.8707(5)
H124 H 0.9704 0.5771 0.8813
H125 H 0.9746 0.6271 0.8731
C168 C 0.985(2) 0.5792(17) 0.8522(6)
H126 H 0.9661 0.5994 0.8415
H127 H 0.9595 0.5492 0.8495
C169 C 1.083(2) 0.5751(18) 0.8523(6)
H128 H 1.1083 0.6041 0.8565
H129 H 1.1011 0.5519 0.8619
C170 C 1.118(3) 0.5625(17) 0.8327(6)
H130 H 1.0961 0.5326 0.8288
H131 H 1.0983 0.5847 0.8229
C171 C 1.215(3) 0.5613(15) 0.8334(8)
H132 H 1.2357 0.5532 0.8207
H133 H 1.2378 0.5911 0.8371
H134 H 1.2356 0.5390 0.8430
C172 C 0.2354(18) 0.5977(6) 0.6703(4)
H135 H 0.2473 0.6126 0.6579
H136 H 0.2639 0.6154 0.6808
C173 C 0.1387(18) 0.5972(13) 0.6731(5)
H137 H 0.1135 0.6255 0.6679
H138 H 0.1129 0.5719 0.6656
C174 C 0.117(2) 0.5923(19) 0.6938(5)
H139 H 0.1307 0.6208 0.7006
H140 H 0.1532 0.5684 0.6997
C175 C 0.021(3) 0.581(2) 0.6970(6)
H141 H -0.0160 0.6049 0.6917
H142 H 0.0059 0.5524 0.6900
C176 C 0.005(3) 0.575(2) 0.7186(6)
H143 H 0.0325 0.5460 0.7228
H144 H 0.0355 0.5991 0.7256
C177 C -0.087(3) 0.574(3) 0.7253(8)
H145 H -0.0864 0.5697 0.7393
H146 H -0.1151 0.6023 0.7218
H147 H -0.1181 0.5488 0.7190
N16 N 0.6336(9) 0.2454(6) 0.9850(3)
C178 C 0.6104(12) 0.2278(7) 1.0017(3)
H148 H 0.6541 0.2181 1.0107
N17 N 0.0724(8) 0.3315(6) 0.90721(18)
C179 C 0.5265(13) 0.2229(7) 1.0065(3)
H149 H 0.5124 0.2097 1.0184
N18 N 0.3983(8) 0.2692(5) 0.7810(2)
C180 C 0.4623(11) 0.2378(7) 0.9935(3)
H150 H 0.4036 0.2349 0.9964
N19 N -0.1499(8) 0.1840(6) 0.69803(19)
C181 C 0.4853(10) 0.2569(6) 0.9761(2)
N20 N 0.1966(9) 0.2296(7) 0.5742(3)
C182 C 0.5724(10) 0.2595(7) 0.9726(3)
H151 H 0.5890 0.2720 0.9607
C183 C 0.4209(11) 0.2724(7) 0.9623(3)
C184 C 0.3633(11) 0.2835(7) 0.9515(3)
C185 C 0.2869(9) 0.2974(7) 0.9408(2)
C186 C 0.2148(10) 0.3116(8) 0.9505(2)
H152 H 0.2164 0.3123 0.9642
C187 C 0.1416(10) 0.3246(8) 0.94037(19)
H153 H 0.0931 0.3348 0.9470
C188 C 0.1392(9) 0.3228(7) 0.92039(18)
C189 C 0.2114(9) 0.3089(6) 0.91033(19)
C190 C 0.2859(9) 0.2962(8) 0.9207(2)
H154 H 0.3352 0.2868 0.9141
C191 C 0.1001(9) 0.3239(6) 0.88881(18)
C192 C 0.0563(10) 0.3275(8) 0.8710(2)
H155 H -0.0022 0.3365 0.8702
C193 C 0.0996(11) 0.3178(8) 0.8545(2)
H156 H 0.0703 0.3203 0.8423
C194 C 0.1852(10) 0.3044(6) 0.85530(19)
C195 C 0.2294(10) 0.3008(8) 0.87308(19)
H157 H 0.2879 0.2920 0.8737
C196 C 0.1868(9) 0.3101(6) 0.89001(18)
C197 C 0.2282(13) 0.2956(7) 0.8378(2)
C198 C 0.2565(13) 0.2893(7) 0.8222(2)
C199 C 0.2839(10) 0.2787(6) 0.80317(18)
C200 C 0.2234(10) 0.2696(7) 0.7884(2)
H158 H 0.1639 0.2696 0.7908
C201 C 0.2516(9) 0.2605(6) 0.76991(19)
C202 C 0.3393(10) 0.2614(6) 0.7669(2)
H159 H 0.3581 0.2563 0.7542
C203 C 0.3704(10) 0.2774(6) 0.7986(2)
H160 H 0.4121 0.2828 0.8087
C204 C 0.1909(12) 0.2482(7) 0.7548(3)
C205 C 0.1328(11) 0.2373(8) 0.7440(3)
C206 C 0.0588(10) 0.2226(6) 0.7327(2)
C207 C -0.0134(11) 0.2078(8) 0.7421(2)
H161 H -0.0130 0.2073 0.7558
C208 C -0.0857(11) 0.1938(8) 0.7315(2)
H162 H -0.1349 0.1837 0.7379
C209 C -0.0856(9) 0.1948(6) 0.71157(18)
C210 C -0.0124(9) 0.2092(6) 0.70187(19)
C211 C 0.0598(9) 0.2236(7) 0.7126(2)
H163 H 0.1091 0.2339 0.7063
C212 C -0.1202(9) 0.1922(6) 0.67978(18)
C213 C -0.1614(10) 0.1871(7) 0.6618(2)
H164 H -0.2192 0.1769 0.6608
C214 C -0.1180(10) 0.1969(7) 0.6453(2)
H165 H -0.1465 0.1942 0.6330
C215 C -0.0322(10) 0.2108(6) 0.64665(19)
C216 C 0.0091(10) 0.2166(6) 0.6647(2)
H166 H 0.0667 0.2270 0.6655
C217 C -0.0346(9) 0.2070(6) 0.68139(18)
C218 C 0.0129(12) 0.2183(7) 0.6293(2)
C219 C 0.0442(13) 0.2240(8) 0.6140(2)
C220 C 0.0769(10) 0.2307(7) 0.5951(2)
C221 C 0.0218(10) 0.2417(8) 0.5795(2)
H167 H -0.0379 0.2456 0.5811
C222 C 0.0566(12) 0.2468(9) 0.5615(2)
H168 H 0.0208 0.2548 0.5506
C223 C 0.1433(12) 0.2402(9) 0.5594(2)
H169 H 0.1660 0.2434 0.5470
C224 C 0.1630(10) 0.2257(8) 0.5915(2)
H170 H 0.2010 0.2190 0.6022
C225 C -0.0152(11) 0.3454(10) 0.9119(4)
H171 H -0.0377 0.3251 0.9218
H172 H -0.0535 0.3433 0.9002
C226 C -0.014(2) 0.3931(10) 0.9192(6)
H173 H -0.0741 0.4032 0.9197
H174 H 0.0091 0.3921 0.9327
C227 C 0.034(3) 0.4291(12) 0.9092(7)
H175 H 0.0157 0.4293 0.8953
H176 H 0.0962 0.4217 0.9099
C228 C 0.022(3) 0.4761(12) 0.9174(9)
H177 H 0.0198 0.4736 0.9316
H178 H -0.0344 0.4877 0.9126
C229 C 0.091(3) 0.5104(16) 0.9125(10)
H179 H 0.0914 0.5153 0.8984
H180 H 0.1484 0.4992 0.9169
C230 C 0.070(4) 0.5547(17) 0.9230(12)
H181 H 0.1139 0.5774 0.9201
H182 H 0.0138 0.5655 0.9185
H183 H 0.0706 0.5494 0.9369
C231 C -0.2318(12) 0.1622(10) 0.7022(4)
H184 H -0.2276 0.1501 0.7155
H185 H -0.2403 0.1364 0.6933
C232 C -0.3105(17) 0.1923(16) 0.7004(6)
H186 H -0.3608 0.1721 0.6991
H187 H -0.3148 0.2081 0.7129
C233 C -0.322(3) 0.2275(16) 0.6849(8)
H188 H -0.2633 0.2355 0.6812
H189 H -0.3447 0.2544 0.6915
C234 C -0.375(4) 0.2239(18) 0.6659(7)
H190 H -0.4178 0.1996 0.6668
H191 H -0.3367 0.2169 0.6552
C235 C -0.419(4) 0.2698(19) 0.6625(9)
H192 H -0.4526 0.2769 0.6740
H193 H -0.3742 0.2931 0.6616
C236 C -0.479(5) 0.274(3) 0.6446(10)
H194 H -0.5036 0.3042 0.6439
H195 H -0.4470 0.2680 0.6330
H196 H -0.5257 0.2517 0.6454
B1 B 0.666(2) 0.2537(11) 0.9240(4)
F1 F 0.605(2) 0.2219(11) 0.9296(5)
F2 F 0.6775(19) 0.2514(9) 0.9043(3)
F3 F 0.7413(19) 0.2433(9) 0.9338(4)
F4 F 0.638(2) 0.2954(9) 0.9296(3)
B2 B 0.8455(17) 0.2459(9) 1.0383(4)
F5 F 0.7716(11) 0.2505(7) 1.0272(2)
F6 F 0.8946(12) 0.2085(7) 1.0333(3)
F7 F 0.8902(12) 0.2847(7) 1.0340(3)
F8 F 0.8301(9) 0.2489(6) 1.0577(2)
B3 B 0.435(2) 0.2644(10) 0.7190(4)
F9 F 0.4489(17) 0.2601(8) 0.6995(3)
F10 F 0.5040(16) 0.2653(8) 0.7315(3)
F11 F 0.3954(18) 0.3053(8) 0.7223(3)
F12 F 0.3836(19) 0.2277(9) 0.7232(4)
B4 B 0.2314(17) 0.2308(10) 0.5136(4)
F13 F 0.3061(10) 0.2254(8) 0.5248(2)
F14 F 0.1928(15) 0.2726(9) 0.5170(3)
F15 F 0.1773(11) 0.1948(9) 0.5175(3)
F16 F 0.2458(10) 0.2284(8) 0.4943(3)
B5 B 0.599(3) 0.2456(12) 0.8370(5)
F17 F 0.5685(17) 0.2708(9) 0.8214(4)
F18 F 0.547(5) 0.2075(16) 0.8377(9)
F19 F 0.683(3) 0.231(2) 0.8346(8)
F20 F 0.593(2) 0.2710(11) 0.8538(4)
B6 B 0.335(2) 0.2302(12) 0.6293(5)
F21 F 0.3731(16) 0.2285(11) 0.6118(4)
F22 F 0.287(2) 0.1906(11) 0.6302(5)
F23 F 0.284(2) 0.2687(11) 0.6288(5)
F24 F 0.391(2) 0.2324(12) 0.6454(4)
loop_
_geom_bond_atom_site_label_1
_geom_bond_atom_site_label_2
_geom_bond_site_symmetry_1
_geom_bond_site_symmetry_2
Pd1 N1 1_555 1_555
Pd2 N3 1_555 1_555
Pd3 N5 1_555 1_555
N1 C1 1_555 1_555
C1 H1 1_555 1_555
N2 C11 1_555 1_555
C2 C1 1_555 1_555
H2 C2 1_555 1_555
N3 C25 1_555 1_555
C3 C2 1_555 1_555
H3 C3 1_555 1_555
N4 C32 1_555 1_555
C4 C3 1_555 1_555
N5 C46 1_555 1_555
C5 N1 1_555 1_555
H4 C5 1_555 1_555
C6 C4 1_555 1_555
C7 C6 1_555 1_555
C8 C7 1_555 1_555
C9 C8 1_555 1_555
H5 C9 1_555 1_555
C10 C9 1_555 1_555
H6 C10 1_555 1_555
C11 C10 1_555 1_555
C12 C11 1_555 1_555
C13 C8 1_555 1_555
H7 C13 1_555 1_555
C14 N2 1_555 1_555
C15 C14 1_555 1_555
H8 C15 1_555 1_555
C16 C15 1_555 1_555
H9 C16 1_555 1_555
C17 C16 1_555 1_555
C18 C17 1_555 1_555
H10 C18 1_555 1_555
C19 C12 1_555 1_555
C20 C17 1_555 1_555
C21 C20 1_555 1_555
C22 C21 1_555 1_555
C23 C22 1_555 1_555
H11 C23 1_555 1_555
C24 C23 1_555 1_555
C25 C24 1_555 1_555
H12 C25 1_555 1_555
C26 N3 1_555 1_555
H13 C26 1_555 1_555
C27 C24 1_555 1_555
C28 C27 1_555 1_555
C29 C28 1_555 1_555
C30 C29 1_555 1_555
H14 C30 1_555 1_555
C31 C30 1_555 1_555
H15 C31 1_555 1_555
C32 C31 1_555 1_555
C33 C32 1_555 1_555
C34 C29 1_555 1_555
H16 C34 1_555 1_555
C35 N4 1_555 1_555
C36 C35 1_555 1_555
H17 C36 1_555 1_555
C37 C36 1_555 1_555
H18 C37 1_555 1_555
C38 C37 1_555 1_555
C39 C38 1_555 1_555
H19 C39 1_555 1_555
C40 C33 1_555 1_555
C41 C38 1_555 1_555
C42 C41 1_555 1_555
C43 C42 1_555 1_555
C44 C43 1_555 1_555
H20 C44 1_555 1_555
C45 C44 1_555 1_555
H21 C45 1_555 1_555
C46 C45 1_555 1_555
H22 C46 1_555 1_555
C47 N5 1_555 1_555
H23 C47 1_555 1_555
C48 N2 1_555 1_555
H24 C48 1_555 1_555
H25 C48 1_555 1_555
C49 C48 1_555 1_555
H26 C49 1_555 1_555
H27 C49 1_555 1_555
C50 C49 1_555 1_555
H28 C50 1_555 1_555
H29 C50 1_555 1_555
C51 C50 1_555 1_555
H30 C51 1_555 1_555
H31 C51 1_555 1_555
C52 C51 1_555 1_555
H32 C52 1_555 1_555
H33 C52 1_555 1_555
C53 C52 1_555 1_555
H34 C53 1_555 1_555
H35 C53 1_555 1_555
H36 C53 1_555 1_555
C54 N4 1_555 1_555
H37 C54 1_555 1_555
H38 C54 1_555 1_555
C55 C54 1_555 1_555
H39 C55 1_555 1_555
H40 C55 1_555 1_555
C56 C55 1_555 1_555
H41 C56 1_555 1_555
H42 C56 1_555 1_555
C57 C56 1_555 1_555
H43 C57 1_555 1_555
H44 C57 1_555 1_555
C58 C57 1_555 1_555
H45 C58 1_555 1_555
H46 C58 1_555 1_555
C59 C58 1_555 1_555
H47 C59 1_555 1_555
H48 C59 1_555 1_555
H49 C59 1_555 1_555
N6 Pd1 1_555 1_555
C60 N6 1_555 1_555
H50 C60 1_555 1_555
N7 C70 1_555 1_555
C61 C60 1_555 1_555
H51 C61 1_555 1_555
N8 Pd2 1_555 1_555
C62 C61 1_555 1_555
H52 C62 1_555 1_555
N9 C91 1_555 1_555
C63 C62 1_555 1_555
N10 Pd3 1_555 1_555
C64 N6 1_555 1_555
H53 C64 1_555 1_555
C65 C63 1_555 1_555
C66 C65 1_555 1_555
C67 C66 1_555 1_555
C68 C67 1_555 1_555
H54 C68 1_555 1_555
C69 C68 1_555 1_555
H55 C69 1_555 1_555
C70 C69 1_555 1_555
C71 C70 1_555 1_555
C72 C67 1_555 1_555
H56 C72 1_555 1_555
C73 N7 1_555 1_555
C74 C73 1_555 1_555
H57 C74 1_555 1_555
C75 C74 1_555 1_555
H58 C75 1_555 1_555
C76 C75 1_555 1_555
C77 C76 1_555 1_555
H59 C77 1_555 1_555
C78 C71 1_555 1_555
C79 C76 1_555 1_555
C80 C79 1_555 1_555
C81 C80 1_555 1_555
C82 C81 1_555 1_555
H60 C82 1_555 1_555
C83 C82 1_555 1_555
C84 N8 1_555 1_555
H61 C84 1_555 1_555
C85 N8 1_555 1_555
H62 C85 1_555 1_555
C86 C83 1_555 1_555
C87 C86 1_555 1_555
C88 C87 1_555 1_555
C89 C88 1_555 1_555
H63 C89 1_555 1_555
C90 C89 1_555 1_555
H64 C90 1_555 1_555
C91 C90 1_555 1_555
C92 C91 1_555 1_555
C93 C88 1_555 1_555
H65 C93 1_555 1_555
C94 N9 1_555 1_555
C95 C94 1_555 1_555
H66 C95 1_555 1_555
C96 C95 1_555 1_555
H67 C96 1_555 1_555
C97 C96 1_555 1_555
C98 C97 1_555 1_555
H68 C98 1_555 1_555
C99 C92 1_555 1_555
C100 C97 1_555 1_555
C101 C100 1_555 1_555
C102 C101 1_555 1_555
C103 C102 1_555 1_555
H69 C103 1_555 1_555
C104 C103 1_555 1_555
H70 C104 1_555 1_555
C105 N10 1_555 1_555
H71 C105 1_555 1_555
C106 N10 1_555 1_555
H72 C106 1_555 1_555
C107 N7 1_555 1_555
H73 C107 1_555 1_555
H74 C107 1_555 1_555
C108 C107 1_555 1_555
H75 C108 1_555 1_555
H76 C108 1_555 1_555
C109 C108 1_555 1_555
H77 C109 1_555 1_555
H78 C109 1_555 1_555
C110 C109 1_555 1_555
H79 C110 1_555 1_555
H80 C110 1_555 1_555
C111 C110 1_555 1_555
H81 C111 1_555 1_555
H82 C111 1_555 1_555
C112 C111 1_555 1_555
H83 C112 1_555 1_555
H84 C112 1_555 1_555
H85 C112 1_555 1_555
C113 N9 1_555 1_555
H86 C113 1_555 1_555
H87 C113 1_555 1_555
C114 C113 1_555 1_555
H88 C114 1_555 1_555
H89 C114 1_555 1_555
C115 C114 1_555 1_555
H90 C115 1_555 1_555
H91 C115 1_555 1_555
C116 C115 1_555 1_555
H92 C116 1_555 1_555
H93 C116 1_555 1_555
C117 C116 1_555 1_555
H94 C117 1_555 1_555
H95 C117 1_555 1_555
C118 C117 1_555 1_555
H96 C118 1_555 1_555
H97 C118 1_555 1_555
H98 C118 1_555 1_555
N11 Pd1 1_555 1_555
C119 N11 1_555 1_555
H99 C119 1_555 1_555
N12 C129 1_555 1_555
C120 C119 1_555 1_555
H100 C120 1_555 1_555
N13 Pd2 1_555 1_555
C121 C120 1_555 1_555
H101 C121 1_555 1_555
N14 C150 1_555 1_555
C122 C121 1_555 1_555
N15 Pd3 1_555 1_555
C123 N11 1_555 1_555
H102 C123 1_555 1_555
C124 C122 1_555 1_555
C125 C124 1_555 1_555
C126 C125 1_555 1_555
C127 C126 1_555 1_555
H103 C127 1_555 1_555
C128 C127 1_555 1_555
H104 C128 1_555 1_555
C129 C128 1_555 1_555
C130 C129 1_555 1_555
C131 C126 1_555 1_555
H105 C131 1_555 1_555
C132 N12 1_555 1_555
C133 C132 1_555 1_555
H106 C133 1_555 1_555
C134 C133 1_555 1_555
H107 C134 1_555 1_555
C135 C134 1_555 1_555
C136 C135 1_555 1_555
H108 C136 1_555 1_555
C137 C130 1_555 1_555
C138 C135 1_555 1_555
C139 C138 1_555 1_555
C140 C139 1_555 1_555
C141 C140 1_555 1_555
H109 C141 1_555 1_555
C142 C141 1_555 1_555
C143 N13 1_555 1_555
H110 C143 1_555 1_555
C144 N13 1_555 1_555
H111 C144 1_555 1_555
C145 C142 1_555 1_555
C146 C145 1_555 1_555
C147 C146 1_555 1_555
C148 C147 1_555 1_555
H112 C148 1_555 1_555
C149 C148 1_555 1_555
H113 C149 1_555 1_555
C150 C149 1_555 1_555
C151 C150 1_555 1_555
C152 C147 1_555 1_555
H114 C152 1_555 1_555
C153 N14 1_555 1_555
C154 C153 1_555 1_555
H115 C154 1_555 1_555
C155 C154 1_555 1_555
H116 C155 1_555 1_555
C156 C155 1_555 1_555
C157 C156 1_555 1_555
H117 C157 1_555 1_555
C158 C151 1_555 1_555
C159 C156 1_555 1_555
C160 C159 1_555 1_555
C161 C160 1_555 1_555
C162 C161 1_555 1_555
H118 C162 1_555 1_555
C163 C162 1_555 1_555
H119 C163 1_555 1_555
C164 N15 1_555 1_555
H120 C164 1_555 1_555
C165 N15 1_555 1_555
H121 C165 1_555 1_555
C166 N12 1_555 1_555
H122 C166 1_555 1_555
H123 C166 1_555 1_555
C167 C166 1_555 1_555
H124 C167 1_555 1_555
H125 C167 1_555 1_555
C168 C167 1_555 1_555
H126 C168 1_555 1_555
H127 C168 1_555 1_555
C169 C168 1_555 1_555
H128 C169 1_555 1_555
H129 C169 1_555 1_555
C170 C169 1_555 1_555
H130 C170 1_555 1_555
H131 C170 1_555 1_555
C171 C170 1_555 1_555
H132 C171 1_555 1_555
H133 C171 1_555 1_555
H134 C171 1_555 1_555
C172 N14 1_555 1_555
H135 C172 1_555 1_555
H136 C172 1_555 1_555
C173 C172 1_555 1_555
H137 C173 1_555 1_555
H138 C173 1_555 1_555
C174 C173 1_555 1_555
H139 C174 1_555 1_555
H140 C174 1_555 1_555
C175 C174 1_555 1_555
H141 C175 1_555 1_555
H142 C175 1_555 1_555
C176 C175 1_555 1_555
H143 C176 1_555 1_555
H144 C176 1_555 1_555
C177 C176 1_555 1_555
H145 C177 1_555 1_555
H146 C177 1_555 1_555
H147 C177 1_555 1_555
N16 Pd1 1_555 1_555
C178 N16 1_555 1_555
H148 C178 1_555 1_555
N17 C188 1_555 1_555
C179 C178 1_555 1_555
H149 C179 1_555 1_555
N18 Pd2 1_555 1_555
C180 C179 1_555 1_555
H150 C180 1_555 1_555
N19 C209 1_555 1_555
C181 C180 1_555 1_555
N20 Pd3 1_555 1_555
C182 N16 1_555 1_555
H151 C182 1_555 1_555
C183 C181 1_555 1_555
C184 C183 1_555 1_555
C185 C184 1_555 1_555
C186 C185 1_555 1_555
H152 C186 1_555 1_555
C187 C186 1_555 1_555
H153 C187 1_555 1_555
C188 C187 1_555 1_555
C189 C188 1_555 1_555
C190 C185 1_555 1_555
H154 C190 1_555 1_555
C191 N17 1_555 1_555
C192 C191 1_555 1_555
H155 C192 1_555 1_555
C193 C192 1_555 1_555
H156 C193 1_555 1_555
C194 C193 1_555 1_555
C195 C194 1_555 1_555
H157 C195 1_555 1_555
C196 C189 1_555 1_555
C197 C194 1_555 1_555
C198 C197 1_555 1_555
C199 C198 1_555 1_555
C200 C199 1_555 1_555
H158 C200 1_555 1_555
C201 C200 1_555 1_555
C202 N18 1_555 1_555
H159 C202 1_555 1_555
C203 N18 1_555 1_555
H160 C203 1_555 1_555
C204 C201 1_555 1_555
C205 C204 1_555 1_555
C206 C205 1_555 1_555
C207 C206 1_555 1_555
H161 C207 1_555 1_555
C208 C207 1_555 1_555
H162 C208 1_555 1_555
C209 C208 1_555 1_555
C210 C209 1_555 1_555
C211 C206 1_555 1_555
H163 C211 1_555 1_555
C212 N19 1_555 1_555
C213 C212 1_555 1_555
H164 C213 1_555 1_555
C214 C213 1_555 1_555
H165 C214 1_555 1_555
C215 C214 1_555 1_555
C216 C215 1_555 1_555
H166 C216 1_555 1_555
C217 C210 1_555 1_555
C218 C215 1_555 1_555
C219 C218 1_555 1_555
C220 C219 1_555 1_555
C221 C220 1_555 1_555
H167 C221 1_555 1_555
C222 C221 1_555 1_555
H168 C222 1_555 1_555
C223 N20 1_555 1_555
H169 C223 1_555 1_555
C224 N20 1_555 1_555
H170 C224 1_555 1_555
C225 N17 1_555 1_555
H171 C225 1_555 1_555
H172 C225 1_555 1_555
C226 C225 1_555 1_555
H173 C226 1_555 1_555
H174 C226 1_555 1_555
C227 C226 1_555 1_555
H175 C227 1_555 1_555
H176 C227 1_555 1_555
C228 C227 1_555 1_555
H177 C228 1_555 1_555
H178 C228 1_555 1_555
C229 C228 1_555 1_555
H179 C229 1_555 1_555
H180 C229 1_555 1_555
C230 C229 1_555 1_555
H181 C230 1_555 1_555
H182 C230 1_555 1_555
H183 C230 1_555 1_555
C231 N19 1_555 1_555
H184 C231 1_555 1_555
H185 C231 1_555 1_555
C232 C231 1_555 1_555
H186 C232 1_555 1_555
H187 C232 1_555 1_555
C233 C232 1_555 1_555
H188 C233 1_555 1_555
H189 C233 1_555 1_555
C234 C233 1_555 1_555
H190 C234 1_555 1_555
H191 C234 1_555 1_555
C235 C234 1_555 1_555
H192 C235 1_555 1_555
H193 C235 1_555 1_555
C236 C235 1_555 1_555
H194 C236 1_555 1_555
H195 C236 1_555 1_555
H196 C236 1_555 1_555
B1 F1 1_555 1_555
F2 B1 1_555 1_555
F3 B1 1_555 1_555
F4 B1 1_555 1_555
B2 F5 1_555 1_555
F6 B2 1_555 1_555
F7 B2 1_555 1_555
F8 B2 1_555 1_555
B3 F9 1_555 1_555
F10 B3 1_555 1_555
F11 B3 1_555 1_555
F12 B3 1_555 1_555
B4 F13 1_555 1_555
F14 B4 1_555 1_555
F15 B4 1_555 1_555
F16 B4 1_555 1_555
B5 F17 1_555 1_555
F18 B5 1_555 1_555
F19 B5 1_555 1_555
F20 B5 1_555 1_555
B6 F21 1_555 1_555
F22 B6 1_555 1_555
F23 B6 1_555 1_555
F24 B6 1_555 1_555
C4 C5 1_555 1_555
C12 C13 1_555 1_555
C14 C19 1_555 1_555
C18 C19 1_555 1_555
C22 C26 1_555 1_555
C33 C34 1_555 1_555
C35 C40 1_555 1_555
C39 C40 1_555 1_555
C43 C47 1_555 1_555
C63 C64 1_555 1_555
C71 C72 1_555 1_555
C73 C78 1_555 1_555
C77 C78 1_555 1_555
C81 C85 1_555 1_555
C83 C84 1_555 1_555
C92 C93 1_555 1_555
C94 C99 1_555 1_555
C98 C99 1_555 1_555
C102 C106 1_555 1_555
C104 C105 1_555 1_555
C122 C123 1_555 1_555
C130 C131 1_555 1_555
C132 C137 1_555 1_555
C136 C137 1_555 1_555
C140 C144 1_555 1_555
C142 C143 1_555 1_555
C151 C152 1_555 1_555
C153 C158 1_555 1_555
C157 C158 1_555 1_555
C161 C165 1_555 1_555
C163 C164 1_555 1_555
C181 C182 1_555 1_555
C189 C190 1_555 1_555
C191 C196 1_555 1_555
C195 C196 1_555 1_555
C199 C203 1_555 1_555
C201 C202 1_555 1_555
C210 C211 1_555 1_555
C212 C217 1_555 1_555
C216 C217 1_555 1_555
C220 C224 1_555 1_555
C222 C223 1_555 1_555

#END
