# generated using pymatgen
data_B6H196Pd3C236(N5F6)4
_symmetry_space_group_name_H-M   'P 1'
_cell_length_a   15.60600000
_cell_length_b   29.69000000
_cell_length_c   69.31500000
_cell_angle_alpha   90.00000000
_cell_angle_beta   92.17900000
_cell_angle_gamma   90.00000000
_symmetry_Int_Tables_number   1
_chemical_formula_structural   B6H196Pd3C236(N5F6)4
_chemical_formula_sum   'B24 H784 Pd12 C944 N80 F96'
_cell_volume   32093.33756456
_cell_formula_units_Z   4
loop_
 _symmetry_equiv_pos_site_id
 _symmetry_equiv_pos_as_xyz
  1  'x, y, z'
loop_
 _atom_site_type_symbol
 _atom_site_label
 _atom_site_symmetry_multiplicity
 _atom_site_fract_x
 _atom_site_fract_y
 _atom_site_fract_z
 _atom_site_occupancy
  B  B1  1  0.666000  0.253700  0.924000  1
  B  B2  1  0.334000  0.753700  0.576000  1
  B  B3  1  0.334000  0.746300  0.076000  1
  B  B4  1  0.666000  0.246300  0.424000  1
  B  B5  1  0.845500  0.245900  0.038300  1
  B  B6  1  0.154500  0.745900  0.461700  1
  B  B7  1  0.154500  0.754100  0.961700  1
  B  B8  1  0.845500  0.254100  0.538300  1
  B  B9  1  0.435000  0.264400  0.719000  1
  B  B10  1  0.565000  0.764400  0.781000  1
  B  B11  1  0.565000  0.735600  0.281000  1
  B  B12  1  0.435000  0.235600  0.219000  1
  B  B13  1  0.231400  0.230800  0.513600  1
  B  B14  1  0.768600  0.730800  0.986400  1
  B  B15  1  0.768600  0.769200  0.486400  1
  B  B16  1  0.231400  0.269200  0.013600  1
  B  B17  1  0.599000  0.245600  0.837000  1
  B  B18  1  0.401000  0.745600  0.663000  1
  B  B19  1  0.401000  0.754400  0.163000  1
  B  B20  1  0.599000  0.254400  0.337000  1
  B  B21  1  0.335000  0.230200  0.629300  1
  B  B22  1  0.665000  0.730200  0.870700  1
  B  B23  1  0.665000  0.769800  0.370700  1
  B  B24  1  0.335000  0.269800  0.129300  1
  H  H25  1  0.826700  0.176000  0.005500  1
  H  H26  1  0.173300  0.676000  0.494500  1
  H  H27  1  0.173300  0.824000  0.994500  1
  H  H28  1  0.826700  0.324000  0.505500  1
  H  H29  1  0.832500  0.098100  0.007900  1
  H  H30  1  0.167500  0.598100  0.492100  1
  H  H31  1  0.167500  0.901900  0.992100  1
  H  H32  1  0.832500  0.401900  0.507900  1
  H  H33  1  0.762800  0.055000  0.983400  1
  H  H34  1  0.237200  0.555000  0.516600  1
  H  H35  1  0.237200  0.945000  0.016600  1
  H  H36  1  0.762800  0.445000  0.483400  1
  H  H37  1  0.689400  0.171100  0.956900  1
  H  H38  1  0.310600  0.671100  0.543100  1
  H  H39  1  0.310600  0.828900  0.043100  1
  H  H40  1  0.689400  0.328900  0.456900  1
  H  H41  1  0.581700  0.982900  0.944600  1
  H  H42  1  0.418300  0.482900  0.555400  1
  H  H43  1  0.418300  0.017100  0.055400  1
  H  H44  1  0.581700  0.517100  0.444600  1
  H  H45  1  0.513000  0.934200  0.922600  1
  H  H46  1  0.487000  0.434200  0.577400  1
  H  H47  1  0.487000  0.065800  0.077400  1
  H  H48  1  0.513000  0.565800  0.422600  1
  H  H49  1  0.590300  0.080900  0.903800  1
  H  H50  1  0.409700  0.580900  0.596200  1
  H  H51  1  0.409700  0.919100  0.096200  1
  H  H52  1  0.590300  0.419100  0.403800  1
  H  H53  1  0.430000  0.944600  0.845700  1
  H  H54  1  0.570000  0.444600  0.654300  1
  H  H55  1  0.570000  0.055400  0.154300  1
  H  H56  1  0.430000  0.555400  0.345700  1
  H  H57  1  0.440100  0.001000  0.822600  1
  H  H58  1  0.559900  0.501000  0.677400  1
  H  H59  1  0.559900  0.999000  0.177400  1
  H  H60  1  0.440100  0.499000  0.322600  1
  H  H61  1  0.543600  0.087000  0.862500  1
  H  H62  1  0.456400  0.587000  0.637500  1
  H  H63  1  0.456400  0.913000  0.137500  1
  H  H64  1  0.543600  0.413000  0.362500  1
  H  H65  1  0.516200  0.074200  0.776500  1
  H  H66  1  0.483800  0.574200  0.723500  1
  H  H67  1  0.483800  0.925800  0.223500  1
  H  H68  1  0.516200  0.425800  0.276500  1
  H  H69  1  0.533100  0.192900  0.748400  1
  H  H70  1  0.466900  0.692900  0.751600  1
  H  H71  1  0.466900  0.807100  0.251600  1
  H  H72  1  0.533100  0.307100  0.248400  1
  H  H73  1  0.505400  0.193600  0.804400  1
  H  H74  1  0.494600  0.693600  0.695600  1
  H  H75  1  0.494600  0.806400  0.195600  1
  H  H76  1  0.505400  0.306400  0.304400  1
  H  H77  1  0.643000  0.006900  0.733200  1
  H  H78  1  0.357000  0.506900  0.766800  1
  H  H79  1  0.357000  0.993100  0.266800  1
  H  H80  1  0.643000  0.493100  0.233200  1
  H  H81  1  0.664400  0.947900  0.711600  1
  H  H82  1  0.335600  0.447900  0.788400  1
  H  H83  1  0.335600  0.052100  0.288400  1
  H  H84  1  0.664400  0.552100  0.211600  1
  H  H85  1  0.521800  0.081300  0.691400  1
  H  H86  1  0.478200  0.581300  0.808600  1
  H  H87  1  0.478200  0.918700  0.308600  1
  H  H88  1  0.521800  0.418700  0.191400  1
  H  H89  1  0.580200  0.925000  0.634900  1
  H  H90  1  0.419800  0.425000  0.865100  1
  H  H91  1  0.419800  0.075000  0.365100  1
  H  H92  1  0.580200  0.575000  0.134900  1
  H  H93  1  0.503500  0.968000  0.612100  1
  H  H94  1  0.496500  0.468000  0.887900  1
  H  H95  1  0.496500  0.032000  0.387900  1
  H  H96  1  0.503500  0.532000  0.112100  1
  H  H97  1  0.472900  0.067500  0.651500  1
  H  H98  1  0.527100  0.567500  0.848500  1
  H  H99  1  0.527100  0.932500  0.348500  1
  H  H100  1  0.472900  0.432500  0.151500  1
  H  H101  1  0.345600  0.040400  0.568900  1
  H  H102  1  0.654400  0.540400  0.931100  1
  H  H103  1  0.654400  0.959600  0.431100  1
  H  H104  1  0.345600  0.459600  0.068900  1
  H  H105  1  0.288600  0.082400  0.542700  1
  H  H106  1  0.711400  0.582400  0.957300  1
  H  H107  1  0.711400  0.917600  0.457300  1
  H  H108  1  0.288600  0.417600  0.042700  1
  H  H109  1  0.273300  0.159200  0.545600  1
  H  H110  1  0.726700  0.659200  0.954400  1
  H  H111  1  0.726700  0.840800  0.454400  1
  H  H112  1  0.273300  0.340800  0.045600  1
  H  H113  1  0.373100  0.157300  0.598200  1
  H  H114  1  0.626900  0.657300  0.901800  1
  H  H115  1  0.626900  0.842700  0.401800  1
  H  H116  1  0.373100  0.342700  0.098200  1
  H  H117  1  0.489800  0.889700  0.891900  1
  H  H118  1  0.510200  0.389700  0.608100  1
  H  H119  1  0.510200  0.110300  0.108100  1
  H  H120  1  0.489800  0.610300  0.391900  1
  H  H121  1  0.443600  0.896800  0.871100  1
  H  H122  1  0.556400  0.396800  0.628900  1
  H  H123  1  0.556400  0.103200  0.128900  1
  H  H124  1  0.443600  0.603200  0.371100  1
  H  H125  1  0.348300  0.872100  0.894900  1
  H  H126  1  0.651700  0.372100  0.605100  1
  H  H127  1  0.651700  0.127900  0.105100  1
  H  H128  1  0.348300  0.627900  0.394900  1
  H  H129  1  0.366200  0.917500  0.906600  1
  H  H130  1  0.633800  0.417500  0.593400  1
  H  H131  1  0.633800  0.082500  0.093400  1
  H  H132  1  0.366200  0.582500  0.406600  1
  H  H133  1  0.271500  0.910600  0.870900  1
  H  H134  1  0.728500  0.410600  0.629100  1
  H  H135  1  0.728500  0.089400  0.129100  1
  H  H136  1  0.271500  0.589400  0.370900  1
  H  H137  1  0.296300  0.958100  0.880600  1
  H  H138  1  0.703700  0.458100  0.619400  1
  H  H139  1  0.703700  0.041900  0.119400  1
  H  H140  1  0.296300  0.541900  0.380600  1
  H  H141  1  0.183900  0.890800  0.895700  1
  H  H142  1  0.816100  0.390800  0.604300  1
  H  H143  1  0.816100  0.109200  0.104300  1
  H  H144  1  0.183900  0.609200  0.395700  1
  H  H145  1  0.227200  0.926900  0.910200  1
  H  H146  1  0.772800  0.426900  0.589800  1
  H  H147  1  0.772800  0.073100  0.089800  1
  H  H148  1  0.227200  0.573100  0.410200  1
  H  H149  1  0.155000  0.986100  0.894300  1
  H  H150  1  0.845000  0.486100  0.605700  1
  H  H151  1  0.845000  0.013900  0.105700  1
  H  H152  1  0.155000  0.513900  0.394300  1
  H  H153  1  0.119600  0.953000  0.877600  1
  H  H154  1  0.880400  0.453000  0.622400  1
  H  H155  1  0.880400  0.047000  0.122400  1
  H  H156  1  0.119600  0.547000  0.377600  1
  H  H157  1  0.011900  0.966700  0.899600  1
  H  H158  1  0.988100  0.466700  0.600400  1
  H  H159  1  0.988100  0.033300  0.100400  1
  H  H160  1  0.011900  0.533300  0.399600  1
  H  H161  1  0.037300  0.914400  0.900200  1
  H  H162  1  0.962700  0.414400  0.599800  1
  H  H163  1  0.962700  0.085600  0.099800  1
  H  H164  1  0.037300  0.585600  0.400200  1
  H  H165  1  0.072600  0.947500  0.916900  1
  H  H166  1  0.927400  0.447500  0.583100  1
  H  H167  1  0.927400  0.052500  0.083100  1
  H  H168  1  0.072600  0.552500  0.416900  1
  H  H169  1  0.635900  0.889500  0.661400  1
  H  H170  1  0.364100  0.389500  0.838600  1
  H  H171  1  0.364100  0.110500  0.338600  1
  H  H172  1  0.635900  0.610500  0.161400  1
  H  H173  1  0.633500  0.889000  0.684500  1
  H  H174  1  0.366500  0.389000  0.815500  1
  H  H175  1  0.366500  0.111000  0.315500  1
  H  H176  1  0.633500  0.611000  0.184500  1
  H  H177  1  0.768200  0.930700  0.685300  1
  H  H178  1  0.231800  0.430700  0.814700  1
  H  H179  1  0.231800  0.069300  0.314700  1
  H  H180  1  0.768200  0.569300  0.185300  1
  H  H181  1  0.776100  0.880000  0.677800  1
  H  H182  1  0.223900  0.380000  0.822200  1
  H  H183  1  0.223900  0.120000  0.322200  1
  H  H184  1  0.776100  0.620000  0.177800  1
  H  H185  1  0.763100  0.956300  0.652700  1
  H  H186  1  0.236900  0.456300  0.847300  1
  H  H187  1  0.236900  0.043700  0.347300  1
  H  H188  1  0.763100  0.543700  0.152700  1
  H  H189  1  0.775300  0.905400  0.645700  1
  H  H190  1  0.224700  0.405400  0.854300  1
  H  H191  1  0.224700  0.094600  0.354300  1
  H  H192  1  0.775300  0.594600  0.145700  1
  H  H193  1  0.912500  0.902800  0.661900  1
  H  H194  1  0.087500  0.402800  0.838100  1
  H  H195  1  0.087500  0.097200  0.338100  1
  H  H196  1  0.912500  0.597200  0.161900  1
  H  H197  1  0.900300  0.953500  0.669100  1
  H  H198  1  0.099700  0.453500  0.830900  1
  H  H199  1  0.099700  0.046500  0.330900  1
  H  H200  1  0.900300  0.546500  0.169100  1
  H  H201  1  0.903000  0.980100  0.636900  1
  H  H202  1  0.097000  0.480100  0.863100  1
  H  H203  1  0.097000  0.019900  0.363100  1
  H  H204  1  0.903000  0.519900  0.136900  1
  H  H205  1  0.908800  0.929400  0.629000  1
  H  H206  1  0.091200  0.429400  0.871000  1
  H  H207  1  0.091200  0.070600  0.371000  1
  H  H208  1  0.908800  0.570600  0.129000  1
  H  H209  1  0.051000  0.961800  0.631200  1
  H  H210  1  0.949000  0.461800  0.868800  1
  H  H211  1  0.949000  0.038200  0.368800  1
  H  H212  1  0.051000  0.538200  0.131200  1
  H  H213  1  0.040700  0.971000  0.653800  1
  H  H214  1  0.959300  0.471000  0.846200  1
  H  H215  1  0.959300  0.029000  0.346200  1
  H  H216  1  0.040700  0.529000  0.153800  1
  H  H217  1  0.046500  0.920400  0.645900  1
  H  H218  1  0.953500  0.420400  0.854100  1
  H  H219  1  0.953500  0.079600  0.354100  1
  H  H220  1  0.046500  0.579600  0.145900  1
  H  H221  1  0.920200  0.263000  0.002800  1
  H  H222  1  0.079800  0.763000  0.497200  1
  H  H223  1  0.079800  0.737000  0.997200  1
  H  H224  1  0.920200  0.237000  0.502800  1
  H  H225  1  0.065600  0.257100  0.999500  1
  H  H226  1  0.934400  0.757100  0.500500  1
  H  H227  1  0.934400  0.742900  0.000500  1
  H  H228  1  0.065600  0.242900  0.499500  1
  H  H229  1  0.119400  0.239600  0.969200  1
  H  H230  1  0.880600  0.739600  0.530800  1
  H  H231  1  0.880600  0.760400  0.030800  1
  H  H232  1  0.119400  0.260400  0.469200  1
  H  H233  1  0.875100  0.234600  0.948200  1
  H  H234  1  0.124900  0.734600  0.551800  1
  H  H235  1  0.124900  0.765400  0.051800  1
  H  H236  1  0.875100  0.265400  0.448200  1
  H  H237  1  0.207700  0.180500  0.915500  1
  H  H238  1  0.792300  0.680500  0.584500  1
  H  H239  1  0.792300  0.819500  0.084500  1
  H  H240  1  0.207700  0.319500  0.415500  1
  H  H241  1  0.274000  0.163500  0.886900  1
  H  H242  1  0.726000  0.663500  0.613100  1
  H  H243  1  0.726000  0.836500  0.113100  1
  H  H244  1  0.274000  0.336500  0.386900  1
  H  H245  1  0.994100  0.222500  0.885500  1
  H  H246  1  0.005900  0.722500  0.614500  1
  H  H247  1  0.005900  0.777500  0.114500  1
  H  H248  1  0.994100  0.277500  0.385500  1
  H  H249  1  0.176600  0.172900  0.810800  1
  H  H250  1  0.823400  0.672900  0.689200  1
  H  H251  1  0.823400  0.827100  0.189200  1
  H  H252  1  0.176600  0.327100  0.310800  1
  H  H253  1  0.053000  0.198300  0.794000  1
  H  H254  1  0.947000  0.698300  0.706000  1
  H  H255  1  0.947000  0.801700  0.206000  1
  H  H256  1  0.053000  0.301700  0.294000  1
  H  H257  1  0.942500  0.228800  0.844600  1
  H  H258  1  0.057500  0.728800  0.655400  1
  H  H259  1  0.057500  0.771200  0.155400  1
  H  H260  1  0.942500  0.271200  0.344600  1
  H  H261  1  0.881500  0.273300  0.761300  1
  H  H262  1  0.118500  0.773300  0.738700  1
  H  H263  1  0.118500  0.726700  0.238700  1
  H  H264  1  0.881500  0.226700  0.261300  1
  H  H265  1  0.633400  0.285300  0.743000  1
  H  H266  1  0.366600  0.785300  0.757000  1
  H  H267  1  0.366600  0.714700  0.257000  1
  H  H268  1  0.633400  0.214700  0.243000  1
  H  H269  1  0.685700  0.249700  0.796800  1
  H  H270  1  0.314300  0.749700  0.703200  1
  H  H271  1  0.314300  0.750300  0.203200  1
  H  H272  1  0.685700  0.250300  0.296800  1
  H  H273  1  0.978800  0.328800  0.711200  1
  H  H274  1  0.021200  0.828800  0.788800  1
  H  H275  1  0.021200  0.671200  0.288800  1
  H  H276  1  0.978800  0.171200  0.211200  1
  H  H277  1  0.052800  0.347800  0.683800  1
  H  H278  1  0.947200  0.847800  0.816200  1
  H  H279  1  0.947200  0.652200  0.316200  1
  H  H280  1  0.052800  0.152200  0.183800  1
  H  H281  1  0.764900  0.300900  0.678600  1
  H  H282  1  0.235100  0.800900  0.821400  1
  H  H283  1  0.235100  0.699100  0.321400  1
  H  H284  1  0.764900  0.199100  0.178600  1
  H  H285  1  0.978600  0.331300  0.606500  1
  H  H286  1  0.021400  0.831300  0.893500  1
  H  H287  1  0.021400  0.668700  0.393500  1
  H  H288  1  0.978600  0.168700  0.106500  1
  H  H289  1  0.857900  0.305000  0.588800  1
  H  H290  1  0.142100  0.805000  0.911200  1
  H  H291  1  0.142100  0.695000  0.411200  1
  H  H292  1  0.857900  0.195000  0.088800  1
  H  H293  1  0.725900  0.290600  0.637900  1
  H  H294  1  0.274100  0.790600  0.862100  1
  H  H295  1  0.274100  0.709400  0.362100  1
  H  H296  1  0.725900  0.209400  0.137900  1
  H  H297  1  0.685400  0.226800  0.557300  1
  H  H298  1  0.314600  0.726800  0.942700  1
  H  H299  1  0.314600  0.773200  0.442700  1
  H  H300  1  0.685400  0.273200  0.057300  1
  H  H301  1  0.587700  0.196400  0.534100  1
  H  H302  1  0.412300  0.696400  0.965900  1
  H  H303  1  0.412300  0.803600  0.465900  1
  H  H304  1  0.587700  0.303600  0.034100  1
  H  H305  1  0.443300  0.197200  0.540000  1
  H  H306  1  0.556700  0.697200  0.960000  1
  H  H307  1  0.556700  0.802800  0.460000  1
  H  H308  1  0.443300  0.302800  0.040000  1
  H  H309  1  0.484000  0.251400  0.591000  1
  H  H310  1  0.516000  0.751400  0.909000  1
  H  H311  1  0.516000  0.748600  0.409000  1
  H  H312  1  0.484000  0.248600  0.091000  1
  H  H313  1  0.328200  0.168500  0.854400  1
  H  H314  1  0.671800  0.668500  0.645600  1
  H  H315  1  0.671800  0.831500  0.145600  1
  H  H316  1  0.328200  0.331500  0.354400  1
  H  H317  1  0.295100  0.163700  0.832300  1
  H  H318  1  0.704900  0.663700  0.667700  1
  H  H319  1  0.704900  0.836300  0.167700  1
  H  H320  1  0.295100  0.336300  0.332300  1
  H  H321  1  0.339600  0.094300  0.843300  1
  H  H322  1  0.660400  0.594300  0.656700  1
  H  H323  1  0.660400  0.905700  0.156700  1
  H  H324  1  0.339600  0.405700  0.343300  1
  H  H325  1  0.282700  0.098000  0.861700  1
  H  H326  1  0.717300  0.598000  0.638300  1
  H  H327  1  0.717300  0.902000  0.138300  1
  H  H328  1  0.282700  0.402000  0.361700  1
  H  H329  1  0.214500  0.081900  0.823900  1
  H  H330  1  0.785500  0.581900  0.676100  1
  H  H331  1  0.785500  0.918100  0.176100  1
  H  H332  1  0.214500  0.418100  0.323900  1
  H  H333  1  0.159500  0.083400  0.842900  1
  H  H334  1  0.840500  0.583400  0.657100  1
  H  H335  1  0.840500  0.916600  0.157100  1
  H  H336  1  0.159500  0.416600  0.342900  1
  H  H337  1  0.294800  0.018300  0.840800  1
  H  H338  1  0.705200  0.518300  0.659200  1
  H  H339  1  0.705200  0.981700  0.159200  1
  H  H340  1  0.294800  0.481700  0.340800  1
  H  H341  1  0.213600  0.015800  0.854200  1
  H  H342  1  0.786400  0.515800  0.645800  1
  H  H343  1  0.786400  0.984200  0.145800  1
  H  H344  1  0.213600  0.484200  0.354200  1
  H  H345  1  0.203300  0.005800  0.813600  1
  H  H346  1  0.796700  0.505800  0.686400  1
  H  H347  1  0.796700  0.994200  0.186400  1
  H  H348  1  0.203300  0.494200  0.313600  1
  H  H349  1  0.124400  0.001100  0.827400  1
  H  H350  1  0.875600  0.501100  0.672600  1
  H  H351  1  0.875600  0.998900  0.172600  1
  H  H352  1  0.124400  0.498900  0.327400  1
  H  H353  1  0.167400  0.930300  0.817100  1
  H  H354  1  0.832600  0.430300  0.682900  1
  H  H355  1  0.832600  0.069700  0.182900  1
  H  H356  1  0.167400  0.569700  0.317100  1
  H  H357  1  0.262000  0.938600  0.826200  1
  H  H358  1  0.738000  0.438600  0.673800  1
  H  H359  1  0.738000  0.061400  0.173800  1
  H  H360  1  0.262000  0.561400  0.326200  1
  H  H361  1  0.182700  0.933900  0.840000  1
  H  H362  1  0.817300  0.433900  0.660000  1
  H  H363  1  0.817300  0.066100  0.160000  1
  H  H364  1  0.182700  0.566100  0.340000  1
  H  H365  1  0.095200  0.334800  0.631500  1
  H  H366  1  0.904800  0.834800  0.868500  1
  H  H367  1  0.904800  0.665200  0.368500  1
  H  H368  1  0.095200  0.165200  0.131500  1
  H  H369  1  0.111600  0.348000  0.653700  1
  H  H370  1  0.888400  0.848000  0.846300  1
  H  H371  1  0.888400  0.652000  0.346300  1
  H  H372  1  0.111600  0.152000  0.153700  1
  H  H373  1  0.139800  0.410200  0.636400  1
  H  H374  1  0.860200  0.910200  0.863600  1
  H  H375  1  0.860200  0.589800  0.363600  1
  H  H376  1  0.139800  0.089800  0.136400  1
  H  H377  1  0.055300  0.404700  0.623200  1
  H  H378  1  0.944700  0.904700  0.876800  1
  H  H379  1  0.944700  0.595300  0.376800  1
  H  H380  1  0.055300  0.095300  0.123200  1
  H  H381  1  0.059400  0.438100  0.661200  1
  H  H382  1  0.940600  0.938100  0.838800  1
  H  H383  1  0.940600  0.561900  0.338800  1
  H  H384  1  0.059400  0.061900  0.161200  1
  H  H385  1  0.974100  0.432300  0.648000  1
  H  H386  1  0.025900  0.932300  0.852000  1
  H  H387  1  0.025900  0.567700  0.352000  1
  H  H388  1  0.974100  0.067700  0.148000  1
  H  H389  1  0.077400  0.486100  0.628000  1
  H  H390  1  0.922600  0.986100  0.872000  1
  H  H391  1  0.922600  0.513900  0.372000  1
  H  H392  1  0.077400  0.013900  0.128000  1
  H  H393  1  0.083000  0.504200  0.649700  1
  H  H394  1  0.917000  0.004200  0.850300  1
  H  H395  1  0.917000  0.495800  0.350300  1
  H  H396  1  0.083000  0.995800  0.149700  1
  H  H397  1  0.927300  0.501200  0.626100  1
  H  H398  1  0.072700  0.001200  0.873900  1
  H  H399  1  0.072700  0.498800  0.373900  1
  H  H400  1  0.927300  0.998800  0.126100  1
  H  H401  1  0.931000  0.517900  0.648000  1
  H  H402  1  0.069000  0.017900  0.852000  1
  H  H403  1  0.069000  0.482100  0.352000  1
  H  H404  1  0.931000  0.982100  0.148000  1
  H  H405  1  0.927200  0.581100  0.627000  1
  H  H406  1  0.072800  0.081100  0.873000  1
  H  H407  1  0.072800  0.418900  0.373000  1
  H  H408  1  0.927200  0.918900  0.127000  1
  H  H409  1  0.016400  0.581100  0.639200  1
  H  H410  1  0.983600  0.081100  0.860800  1
  H  H411  1  0.983600  0.418900  0.360800  1
  H  H412  1  0.016400  0.918900  0.139200  1
  H  H413  1  0.012700  0.564300  0.617200  1
  H  H414  1  0.987300  0.064300  0.882800  1
  H  H415  1  0.987300  0.435700  0.382800  1
  H  H416  1  0.012700  0.935700  0.117200  1
  H  H417  1  0.750300  0.320700  0.009800  1
  H  H418  1  0.249700  0.820700  0.490200  1
  H  H419  1  0.249700  0.679300  0.990200  1
  H  H420  1  0.750300  0.179300  0.509800  1
  H  H421  1  0.752000  0.399100  0.012000  1
  H  H422  1  0.248000  0.899100  0.488000  1
  H  H423  1  0.248000  0.600900  0.988000  1
  H  H424  1  0.752000  0.100900  0.512000  1
  H  H425  1  0.756900  0.440800  0.983400  1
  H  H426  1  0.243100  0.940800  0.516600  1
  H  H427  1  0.243100  0.559200  0.016600  1
  H  H428  1  0.756900  0.059200  0.483400  1
  H  H429  1  0.759300  0.324000  0.953400  1
  H  H430  1  0.240700  0.824000  0.546600  1
  H  H431  1  0.240700  0.676000  0.046600  1
  H  H432  1  0.759300  0.176000  0.453400  1
  H  H433  1  0.851100  0.512100  0.935500  1
  H  H434  1  0.148900  0.012100  0.564500  1
  H  H435  1  0.148900  0.487900  0.064500  1
  H  H436  1  0.851100  0.987900  0.435500  1
  H  H437  1  0.873900  0.565200  0.911500  1
  H  H438  1  0.126100  0.065200  0.588500  1
  H  H439  1  0.126100  0.434800  0.088500  1
  H  H440  1  0.873900  0.934800  0.411500  1
  H  H441  1  0.720000  0.431900  0.897200  1
  H  H442  1  0.280000  0.931900  0.602800  1
  H  H443  1  0.280000  0.568100  0.102800  1
  H  H444  1  0.720000  0.068100  0.397200  1
  H  H445  1  0.766400  0.579300  0.836000  1
  H  H446  1  0.233600  0.079300  0.664000  1
  H  H447  1  0.233600  0.420700  0.164000  1
  H  H448  1  0.766400  0.920700  0.336000  1
  H  H449  1  0.690900  0.531600  0.814700  1
  H  H450  1  0.309100  0.031600  0.685300  1
  H  H451  1  0.309100  0.468400  0.185300  1
  H  H452  1  0.690900  0.968400  0.314700  1
  H  H453  1  0.673800  0.436500  0.856300  1
  H  H454  1  0.326200  0.936500  0.643700  1
  H  H455  1  0.326200  0.563500  0.143700  1
  H  H456  1  0.673800  0.063500  0.356300  1
  H  H457  1  0.528400  0.461500  0.774400  1
  H  H458  1  0.471600  0.961500  0.725600  1
  H  H459  1  0.471600  0.538500  0.225600  1
  H  H460  1  0.528400  0.038500  0.274400  1
  H  H461  1  0.472000  0.341300  0.749400  1
  H  H462  1  0.528000  0.841300  0.750600  1
  H  H463  1  0.528000  0.658700  0.250600  1
  H  H464  1  0.472000  0.158700  0.249400  1
  H  H465  1  0.577000  0.343000  0.801800  1
  H  H466  1  0.423000  0.843000  0.698200  1
  H  H467  1  0.423000  0.657000  0.198200  1
  H  H468  1  0.577000  0.157000  0.301800  1
  H  H469  1  0.358000  0.526700  0.732100  1
  H  H470  1  0.642000  0.026700  0.767900  1
  H  H471  1  0.642000  0.473300  0.267900  1
  H  H472  1  0.358000  0.973300  0.232100  1
  H  H473  1  0.294200  0.573800  0.708900  1
  H  H474  1  0.705800  0.073800  0.791100  1
  H  H475  1  0.705800  0.426200  0.291100  1
  H  H476  1  0.294200  0.926200  0.208900  1
  H  H477  1  0.391100  0.429400  0.692100  1
  H  H478  1  0.608900  0.929400  0.807900  1
  H  H479  1  0.608900  0.570600  0.307900  1
  H  H480  1  0.391100  0.070600  0.192100  1
  H  H481  1  0.226200  0.559400  0.631400  1
  H  H482  1  0.773800  0.059400  0.868600  1
  H  H483  1  0.773800  0.440600  0.368600  1
  H  H484  1  0.226200  0.940600  0.131400  1
  H  H485  1  0.246100  0.503100  0.608700  1
  H  H486  1  0.753900  0.003100  0.891300  1
  H  H487  1  0.753900  0.496900  0.391300  1
  H  H488  1  0.246100  0.996900  0.108700  1
  H  H489  1  0.352100  0.421600  0.649900  1
  H  H490  1  0.647900  0.921600  0.850100  1
  H  H491  1  0.647900  0.578400  0.350100  1
  H  H492  1  0.352100  0.078400  0.149900  1
  H  H493  1  0.304000  0.418900  0.564800  1
  H  H494  1  0.696000  0.918900  0.935200  1
  H  H495  1  0.696000  0.581100  0.435200  1
  H  H496  1  0.304000  0.081100  0.064800  1
  H  H497  1  0.304800  0.373700  0.536800  1
  H  H498  1  0.695200  0.873700  0.963200  1
  H  H499  1  0.695200  0.626300  0.463200  1
  H  H500  1  0.304800  0.126300  0.036800  1
  H  H501  1  0.320900  0.296600  0.540200  1
  H  H502  1  0.679100  0.796600  0.959800  1
  H  H503  1  0.679100  0.703400  0.459800  1
  H  H504  1  0.320900  0.203400  0.040200  1
  H  H505  1  0.327300  0.305300  0.596600  1
  H  H506  1  0.672700  0.805300  0.903400  1
  H  H507  1  0.672700  0.694700  0.403400  1
  H  H508  1  0.327300  0.194700  0.096600  1
  H  H509  1  0.841100  0.620100  0.883200  1
  H  H510  1  0.158900  0.120100  0.616800  1
  H  H511  1  0.158900  0.379900  0.116800  1
  H  H512  1  0.841100  0.879900  0.383200  1
  H  H513  1  0.830500  0.616500  0.860200  1
  H  H514  1  0.169500  0.116500  0.639800  1
  H  H515  1  0.169500  0.383500  0.139800  1
  H  H516  1  0.830500  0.883500  0.360200  1
  H  H517  1  0.970400  0.577100  0.881300  1
  H  H518  1  0.029600  0.077100  0.618700  1
  H  H519  1  0.029600  0.422900  0.118700  1
  H  H520  1  0.970400  0.922900  0.381300  1
  H  H521  1  0.974600  0.627100  0.873100  1
  H  H522  1  0.025400  0.127100  0.626900  1
  H  H523  1  0.025400  0.372900  0.126900  1
  H  H524  1  0.974600  0.872900  0.373100  1
  H  H525  1  0.966100  0.599400  0.841500  1
  H  H526  1  0.033900  0.099400  0.658500  1
  H  H527  1  0.033900  0.400600  0.158500  1
  H  H528  1  0.966100  0.900600  0.341500  1
  H  H529  1  0.959500  0.549200  0.849500  1
  H  H530  1  0.040500  0.049200  0.650500  1
  H  H531  1  0.040500  0.450800  0.150500  1
  H  H532  1  0.959500  0.950800  0.349500  1
  H  H533  1  0.108300  0.604100  0.856500  1
  H  H534  1  0.891700  0.104100  0.643500  1
  H  H535  1  0.891700  0.395900  0.143500  1
  H  H536  1  0.108300  0.895900  0.356500  1
  H  H537  1  0.101100  0.551900  0.861900  1
  H  H538  1  0.898900  0.051900  0.638100  1
  H  H539  1  0.898900  0.448100  0.138100  1
  H  H540  1  0.101100  0.948100  0.361900  1
  H  H541  1  0.096100  0.532600  0.828800  1
  H  H542  1  0.903900  0.032600  0.671200  1
  H  H543  1  0.903900  0.467400  0.171200  1
  H  H544  1  0.096100  0.967400  0.328800  1
  H  H545  1  0.098300  0.584700  0.822900  1
  H  H546  1  0.901700  0.084700  0.677100  1
  H  H547  1  0.901700  0.415300  0.177100  1
  H  H548  1  0.098300  0.915300  0.322900  1
  H  H549  1  0.235700  0.553200  0.820700  1
  H  H550  1  0.764300  0.053200  0.679300  1
  H  H551  1  0.764300  0.446800  0.179300  1
  H  H552  1  0.235700  0.946800  0.320700  1
  H  H553  1  0.237800  0.591100  0.837100  1
  H  H554  1  0.762200  0.091100  0.662900  1
  H  H555  1  0.762200  0.408900  0.162900  1
  H  H556  1  0.237800  0.908900  0.337100  1
  H  H557  1  0.235600  0.539000  0.843000  1
  H  H558  1  0.764400  0.039000  0.657000  1
  H  H559  1  0.764400  0.461000  0.157000  1
  H  H560  1  0.235600  0.961000  0.343000  1
  H  H561  1  0.247300  0.612600  0.657900  1
  H  H562  1  0.752700  0.112600  0.842100  1
  H  H563  1  0.752700  0.387400  0.342100  1
  H  H564  1  0.247300  0.887400  0.157900  1
  H  H565  1  0.263900  0.615400  0.680800  1
  H  H566  1  0.736100  0.115400  0.819200  1
  H  H567  1  0.736100  0.384600  0.319200  1
  H  H568  1  0.263900  0.884600  0.180800  1
  H  H569  1  0.113500  0.625500  0.667900  1
  H  H570  1  0.886500  0.125500  0.832100  1
  H  H571  1  0.886500  0.374500  0.332100  1
  H  H572  1  0.113500  0.874500  0.167900  1
  H  H573  1  0.112900  0.571900  0.665600  1
  H  H574  1  0.887100  0.071900  0.834400  1
  H  H575  1  0.887100  0.428100  0.334400  1
  H  H576  1  0.112900  0.928100  0.165600  1
  H  H577  1  0.130700  0.620800  0.700600  1
  H  H578  1  0.869300  0.120800  0.799400  1
  H  H579  1  0.869300  0.379200  0.299400  1
  H  H580  1  0.130700  0.879200  0.200600  1
  H  H581  1  0.153200  0.568400  0.699700  1
  H  H582  1  0.846800  0.068400  0.800300  1
  H  H583  1  0.846800  0.431600  0.300300  1
  H  H584  1  0.153200  0.931600  0.199700  1
  H  H585  1  0.984000  0.604900  0.691700  1
  H  H586  1  0.016000  0.104900  0.808300  1
  H  H587  1  0.016000  0.395100  0.308300  1
  H  H588  1  0.984000  0.895100  0.191700  1
  H  H589  1  0.005900  0.552400  0.690000  1
  H  H590  1  0.994100  0.052400  0.810000  1
  H  H591  1  0.994100  0.447600  0.310000  1
  H  H592  1  0.005900  0.947600  0.190000  1
  H  H593  1  0.032500  0.546000  0.722800  1
  H  H594  1  0.967500  0.046000  0.777200  1
  H  H595  1  0.967500  0.454000  0.277200  1
  H  H596  1  0.032500  0.954000  0.222800  1
  H  H597  1  0.035500  0.599100  0.725600  1
  H  H598  1  0.964500  0.099100  0.774400  1
  H  H599  1  0.964500  0.400900  0.274400  1
  H  H600  1  0.035500  0.900900  0.225600  1
  H  H601  1  0.913600  0.569700  0.739300  1
  H  H602  1  0.086400  0.069700  0.760700  1
  H  H603  1  0.086400  0.430300  0.260700  1
  H  H604  1  0.913600  0.930300  0.239300  1
  H  H605  1  0.884900  0.602300  0.721800  1
  H  H606  1  0.115100  0.102300  0.778200  1
  H  H607  1  0.115100  0.397700  0.278200  1
  H  H608  1  0.884900  0.897700  0.221800  1
  H  H609  1  0.881900  0.548800  0.719000  1
  H  H610  1  0.118100  0.048800  0.781000  1
  H  H611  1  0.118100  0.451200  0.281000  1
  H  H612  1  0.881900  0.951200  0.219000  1
  H  H613  1  0.654100  0.218100  0.010700  1
  H  H614  1  0.345900  0.718100  0.489300  1
  H  H615  1  0.345900  0.781900  0.989300  1
  H  H616  1  0.654100  0.281900  0.510700  1
  H  H617  1  0.512400  0.209700  0.018400  1
  H  H618  1  0.487600  0.709700  0.481600  1
  H  H619  1  0.487600  0.790300  0.981600  1
  H  H620  1  0.512400  0.290300  0.518400  1
  H  H621  1  0.403600  0.234900  0.996400  1
  H  H622  1  0.596400  0.734900  0.503600  1
  H  H623  1  0.596400  0.765100  0.003600  1
  H  H624  1  0.403600  0.265100  0.496400  1
  H  H625  1  0.589000  0.272000  0.960700  1
  H  H626  1  0.411000  0.772000  0.539300  1
  H  H627  1  0.411000  0.728000  0.039300  1
  H  H628  1  0.589000  0.228000  0.460700  1
  H  H629  1  0.216400  0.312300  0.964200  1
  H  H630  1  0.783600  0.812300  0.535800  1
  H  H631  1  0.783600  0.687700  0.035800  1
  H  H632  1  0.216400  0.187700  0.464200  1
  H  H633  1  0.093100  0.334800  0.947000  1
  H  H634  1  0.906900  0.834800  0.553000  1
  H  H635  1  0.906900  0.665200  0.053000  1
  H  H636  1  0.093100  0.165200  0.447000  1
  H  H637  1  0.335200  0.286800  0.914100  1
  H  H638  1  0.664800  0.786800  0.585900  1
  H  H639  1  0.664800  0.713200  0.085900  1
  H  H640  1  0.335200  0.213200  0.414100  1
  H  H641  1  0.997800  0.336500  0.870200  1
  H  H642  1  0.002200  0.836500  0.629800  1
  H  H643  1  0.002200  0.663500  0.129800  1
  H  H644  1  0.997800  0.163500  0.370200  1
  H  H645  1  0.070300  0.320300  0.842300  1
  H  H646  1  0.929700  0.820300  0.657700  1
  H  H647  1  0.929700  0.679700  0.157700  1
  H  H648  1  0.070300  0.179700  0.342300  1
  H  H649  1  0.287900  0.292000  0.873700  1
  H  H650  1  0.712100  0.792000  0.626300  1
  H  H651  1  0.712100  0.708000  0.126300  1
  H  H652  1  0.287900  0.208000  0.373700  1
  H  H653  1  0.163900  0.269600  0.790800  1
  H  H654  1  0.836100  0.769600  0.709200  1
  H  H655  1  0.836100  0.730400  0.209200  1
  H  H656  1  0.163900  0.230400  0.290800  1
  H  H657  1  0.358100  0.256300  0.754200  1
  H  H658  1  0.641900  0.756300  0.745800  1
  H  H659  1  0.641900  0.743700  0.245800  1
  H  H660  1  0.358100  0.243700  0.254200  1
  H  H661  1  0.412100  0.282800  0.808700  1
  H  H662  1  0.587900  0.782800  0.691300  1
  H  H663  1  0.587900  0.717200  0.191300  1
  H  H664  1  0.412100  0.217200  0.308700  1
  H  H665  1  0.987000  0.207300  0.755800  1
  H  H666  1  0.013000  0.707300  0.744200  1
  H  H667  1  0.013000  0.792700  0.244200  1
  H  H668  1  0.987000  0.292700  0.255800  1
  H  H669  1  0.865100  0.183700  0.737900  1
  H  H670  1  0.134900  0.683700  0.762100  1
  H  H671  1  0.134900  0.816300  0.262100  1
  H  H672  1  0.865100  0.316300  0.237900  1
  H  H673  1  0.109100  0.233900  0.706300  1
  H  H674  1  0.890900  0.733900  0.793700  1
  H  H675  1  0.890900  0.766100  0.293700  1
  H  H676  1  0.109100  0.266100  0.206300  1
  H  H677  1  0.780800  0.176900  0.660800  1
  H  H678  1  0.219200  0.676900  0.839200  1
  H  H679  1  0.219200  0.823100  0.339200  1
  H  H680  1  0.780800  0.323100  0.160800  1
  H  H681  1  0.853500  0.194200  0.633000  1
  H  H682  1  0.146500  0.694200  0.867000  1
  H  H683  1  0.146500  0.805800  0.367000  1
  H  H684  1  0.853500  0.305800  0.133000  1
  H  H685  1  0.066700  0.227000  0.665500  1
  H  H686  1  0.933300  0.727000  0.834500  1
  H  H687  1  0.933300  0.773000  0.334500  1
  H  H688  1  0.066700  0.273000  0.165500  1
  H  H689  1  0.962100  0.245600  0.581100  1
  H  H690  1  0.037900  0.745600  0.918900  1
  H  H691  1  0.037900  0.754400  0.418900  1
  H  H692  1  0.962100  0.254400  0.081100  1
  H  H693  1  0.020800  0.254800  0.550600  1
  H  H694  1  0.979200  0.754800  0.949400  1
  H  H695  1  0.979200  0.745200  0.449400  1
  H  H696  1  0.020800  0.245200  0.050600  1
  H  H697  1  0.166000  0.243400  0.547000  1
  H  H698  1  0.834000  0.743400  0.953000  1
  H  H699  1  0.834000  0.756600  0.453000  1
  H  H700  1  0.166000  0.256600  0.047000  1
  H  H701  1  0.201000  0.219000  0.602200  1
  H  H702  1  0.799000  0.719000  0.897800  1
  H  H703  1  0.799000  0.781000  0.397800  1
  H  H704  1  0.201000  0.281000  0.102200  1
  H  H705  1  0.962300  0.325100  0.921800  1
  H  H706  1  0.037700  0.825100  0.578200  1
  H  H707  1  0.037700  0.674900  0.078200  1
  H  H708  1  0.962300  0.174900  0.421800  1
  H  H709  1  0.946500  0.343300  0.900200  1
  H  H710  1  0.053500  0.843300  0.599800  1
  H  H711  1  0.053500  0.656700  0.099800  1
  H  H712  1  0.946500  0.156700  0.400200  1
  H  H713  1  0.925900  0.403200  0.919700  1
  H  H714  1  0.074100  0.903200  0.580300  1
  H  H715  1  0.074100  0.596800  0.080300  1
  H  H716  1  0.925900  0.096800  0.419700  1
  H  H717  1  0.009100  0.392100  0.932700  1
  H  H718  1  0.990900  0.892100  0.567300  1
  H  H719  1  0.990900  0.607900  0.067300  1
  H  H720  1  0.009100  0.107900  0.432700  1
  H  H721  1  0.015700  0.429300  0.895300  1
  H  H722  1  0.984300  0.929300  0.604700  1
  H  H723  1  0.984300  0.570700  0.104700  1
  H  H724  1  0.015700  0.070700  0.395300  1
  H  H725  1  0.096200  0.421700  0.909900  1
  H  H726  1  0.903800  0.921700  0.590100  1
  H  H727  1  0.903800  0.578300  0.090100  1
  H  H728  1  0.096200  0.078300  0.409900  1
  H  H729  1  0.019800  0.473600  0.931600  1
  H  H730  1  0.980200  0.973600  0.568400  1
  H  H731  1  0.980200  0.526400  0.068400  1
  H  H732  1  0.019800  0.026400  0.431600  1
  H  H733  1  0.965600  0.487700  0.912600  1
  H  H734  1  0.034400  0.987700  0.587400  1
  H  H735  1  0.034400  0.512300  0.087400  1
  H  H736  1  0.965600  0.012300  0.412600  1
  H  H737  1  0.091400  0.515300  0.898400  1
  H  H738  1  0.908600  0.015300  0.601600  1
  H  H739  1  0.908600  0.484700  0.101600  1
  H  H740  1  0.091400  0.984700  0.398400  1
  H  H741  1  0.148400  0.499200  0.916900  1
  H  H742  1  0.851600  0.999200  0.583100  1
  H  H743  1  0.851600  0.500800  0.083100  1
  H  H744  1  0.148400  0.000800  0.416900  1
  H  H745  1  0.113900  0.577400  0.920100  1
  H  H746  1  0.886100  0.077400  0.579900  1
  H  H747  1  0.886100  0.422600  0.079900  1
  H  H748  1  0.113900  0.922600  0.420100  1
  H  H749  1  0.013800  0.565500  0.918500  1
  H  H750  1  0.986200  0.065500  0.581500  1
  H  H751  1  0.986200  0.434500  0.081500  1
  H  H752  1  0.013800  0.934500  0.418500  1
  H  H753  1  0.070600  0.549400  0.936900  1
  H  H754  1  0.929400  0.049400  0.563100  1
  H  H755  1  0.929400  0.450600  0.063100  1
  H  H756  1  0.070600  0.950600  0.436900  1
  H  H757  1  0.772400  0.150100  0.715500  1
  H  H758  1  0.227600  0.650100  0.784500  1
  H  H759  1  0.227600  0.849900  0.284500  1
  H  H760  1  0.772400  0.349900  0.215500  1
  H  H761  1  0.759700  0.136400  0.693300  1
  H  H762  1  0.240300  0.636400  0.806700  1
  H  H763  1  0.240300  0.863600  0.306700  1
  H  H764  1  0.759700  0.363600  0.193300  1
  H  H765  1  0.639200  0.172100  0.699100  1
  H  H766  1  0.360800  0.672100  0.800900  1
  H  H767  1  0.360800  0.827900  0.300900  1
  H  H768  1  0.639200  0.327900  0.199100  1
  H  H769  1  0.685200  0.208100  0.712900  1
  H  H770  1  0.314800  0.708100  0.787100  1
  H  H771  1  0.314800  0.791900  0.287100  1
  H  H772  1  0.685200  0.291900  0.212900  1
  H  H773  1  0.736700  0.235500  0.681200  1
  H  H774  1  0.263300  0.735500  0.818800  1
  H  H775  1  0.263300  0.764500  0.318800  1
  H  H776  1  0.736700  0.264500  0.181200  1
  H  H777  1  0.655300  0.254400  0.691500  1
  H  H778  1  0.344700  0.754400  0.808500  1
  H  H779  1  0.344700  0.745600  0.308500  1
  H  H780  1  0.655300  0.245600  0.191500  1
  H  H781  1  0.582200  0.199600  0.666800  1
  H  H782  1  0.417800  0.699600  0.833200  1
  H  H783  1  0.417800  0.800400  0.333200  1
  H  H784  1  0.582200  0.300400  0.166800  1
  H  H785  1  0.663300  0.216900  0.655200  1
  H  H786  1  0.336700  0.716900  0.844800  1
  H  H787  1  0.336700  0.783100  0.344800  1
  H  H788  1  0.663300  0.283100  0.155200  1
  H  H789  1  0.547400  0.276900  0.674000  1
  H  H790  1  0.452600  0.776900  0.826000  1
  H  H791  1  0.452600  0.723100  0.326000  1
  H  H792  1  0.547400  0.223100  0.174000  1
  H  H793  1  0.625800  0.293100  0.661600  1
  H  H794  1  0.374200  0.793100  0.838400  1
  H  H795  1  0.374200  0.706900  0.338400  1
  H  H796  1  0.625800  0.206900  0.161600  1
  H  H797  1  0.496400  0.304200  0.643900  1
  H  H798  1  0.503600  0.804200  0.856100  1
  H  H799  1  0.503600  0.695800  0.356100  1
  H  H800  1  0.496400  0.195800  0.143900  1
  H  H801  1  0.553000  0.268000  0.633000  1
  H  H802  1  0.447000  0.768000  0.867000  1
  H  H803  1  0.447000  0.732000  0.367000  1
  H  H804  1  0.553000  0.232000  0.133000  1
  H  H805  1  0.474300  0.251700  0.645400  1
  H  H806  1  0.525700  0.751700  0.854600  1
  H  H807  1  0.525700  0.748300  0.354600  1
  H  H808  1  0.474300  0.248300  0.145400  1
  Pd  Pd809  1  0.755660  0.248150  0.980760  1
  Pd  Pd810  1  0.244340  0.748150  0.519240  1
  Pd  Pd811  1  0.244340  0.751850  0.019240  1
  Pd  Pd812  1  0.755660  0.251850  0.480760  1
  Pd  Pd813  1  0.522110  0.268030  0.776160  1
  Pd  Pd814  1  0.477890  0.768030  0.723840  1
  Pd  Pd815  1  0.477890  0.731970  0.223840  1
  Pd  Pd816  1  0.522110  0.231970  0.276160  1
  Pd  Pd817  1  0.322730  0.228880  0.570810  1
  Pd  Pd818  1  0.677270  0.728880  0.929190  1
  Pd  Pd819  1  0.677270  0.771120  0.429190  1
  Pd  Pd820  1  0.322730  0.271120  0.070810  1
  C  C821  1  0.798700  0.158400  0.995700  1
  C  C822  1  0.201300  0.658400  0.504300  1
  C  C823  1  0.201300  0.841600  0.004300  1
  C  C824  1  0.798700  0.341600  0.495700  1
  C  C825  1  0.802600  0.112200  0.997300  1
  C  C826  1  0.197400  0.612200  0.502700  1
  C  C827  1  0.197400  0.887800  0.002700  1
  C  C828  1  0.802600  0.387800  0.497300  1
  C  C829  1  0.761200  0.087000  0.982900  1
  C  C830  1  0.238800  0.587000  0.517100  1
  C  C831  1  0.238800  0.913000  0.017100  1
  C  C832  1  0.761200  0.413000  0.482900  1
  C  C833  1  0.717700  0.108500  0.967700  1
  C  C834  1  0.282300  0.608500  0.532300  1
  C  C835  1  0.282300  0.891500  0.032300  1
  C  C836  1  0.717700  0.391500  0.467700  1
  C  C837  1  0.718100  0.155900  0.967300  1
  C  C838  1  0.281900  0.655900  0.532700  1
  C  C839  1  0.281900  0.844100  0.032700  1
  C  C840  1  0.718100  0.344100  0.467300  1
  C  C841  1  0.676100  0.083300  0.952500  1
  C  C842  1  0.323900  0.583300  0.547500  1
  C  C843  1  0.323900  0.916700  0.047500  1
  C  C844  1  0.676100  0.416700  0.452500  1
  C  C845  1  0.637400  0.064100  0.939800  1
  C  C846  1  0.362600  0.564100  0.560200  1
  C  C847  1  0.362600  0.935900  0.060200  1
  C  C848  1  0.637400  0.435900  0.439800  1
  C  C849  1  0.592300  0.035700  0.926100  1
  C  C850  1  0.407700  0.535700  0.573900  1
  C  C851  1  0.407700  0.964300  0.073900  1
  C  C852  1  0.592300  0.464300  0.426100  1
  C  C853  1  0.569400  0.992500  0.931700  1
  C  C854  1  0.430600  0.492500  0.568300  1
  C  C855  1  0.430600  0.007500  0.068300  1
  C  C856  1  0.569400  0.507500  0.431700  1
  C  C857  1  0.529200  0.963600  0.918800  1
  C  C858  1  0.470800  0.463600  0.581200  1
  C  C859  1  0.470800  0.036400  0.081200  1
  C  C860  1  0.529200  0.536400  0.418800  1
  C  C861  1  0.512900  0.978300  0.899950  1
  C  C862  1  0.487100  0.478300  0.600050  1
  C  C863  1  0.487100  0.021700  0.100050  1
  C  C864  1  0.512900  0.521700  0.399950  1
  C  C865  1  0.535400  0.022200  0.894020  1
  C  C866  1  0.464600  0.522200  0.605980  1
  C  C867  1  0.464600  0.977800  0.105980  1
  C  C868  1  0.535400  0.477800  0.394020  1
  C  C869  1  0.575200  0.051100  0.907400  1
  C  C870  1  0.424800  0.551100  0.592600  1
  C  C871  1  0.424800  0.948900  0.092600  1
  C  C872  1  0.575200  0.448900  0.407400  1
  C  C873  1  0.478600  0.982800  0.868210  1
  C  C874  1  0.521400  0.482800  0.631790  1
  C  C875  1  0.521400  0.017200  0.131790  1
  C  C876  1  0.478600  0.517200  0.368210  1
  C  C877  1  0.452100  0.973400  0.849200  1
  C  C878  1  0.547900  0.473400  0.650800  1
  C  C879  1  0.547900  0.026600  0.150800  1
  C  C880  1  0.452100  0.526600  0.349200  1
  C  C881  1  0.458700  0.006800  0.835600  1
  C  C882  1  0.541300  0.506800  0.664400  1
  C  C883  1  0.541300  0.993200  0.164400  1
  C  C884  1  0.458700  0.493200  0.335600  1
  C  C885  1  0.491900  0.048900  0.840400  1
  C  C886  1  0.508100  0.548900  0.659600  1
  C  C887  1  0.508100  0.951100  0.159600  1
  C  C888  1  0.491900  0.451100  0.340400  1
  C  C889  1  0.519900  0.058400  0.859200  1
  C  C890  1  0.480100  0.558400  0.640800  1
  C  C891  1  0.480100  0.941600  0.140800  1
  C  C892  1  0.519900  0.441600  0.359200  1
  C  C893  1  0.512700  0.025100  0.873440  1
  C  C894  1  0.487300  0.525100  0.626560  1
  C  C895  1  0.487300  0.974900  0.126560  1
  C  C896  1  0.512700  0.474900  0.373440  1
  C  C897  1  0.499300  0.082500  0.825500  1
  C  C898  1  0.500700  0.582500  0.674500  1
  C  C899  1  0.500700  0.917500  0.174500  1
  C  C900  1  0.499300  0.417500  0.325500  1
  C  C901  1  0.502600  0.106100  0.811600  1
  C  C902  1  0.497400  0.606100  0.688400  1
  C  C903  1  0.497400  0.893900  0.188400  1
  C  C904  1  0.502600  0.393900  0.311600  1
  C  C905  1  0.510000  0.129800  0.793750  1
  C  C906  1  0.490000  0.629800  0.706250  1
  C  C907  1  0.490000  0.870200  0.206250  1
  C  C908  1  0.510000  0.370200  0.293750  1
  C  C909  1  0.517800  0.106100  0.776600  1
  C  C910  1  0.482200  0.606100  0.723400  1
  C  C911  1  0.482200  0.893900  0.223400  1
  C  C912  1  0.517800  0.393900  0.276600  1
  C  C913  1  0.528000  0.130000  0.759480  1
  C  C914  1  0.472000  0.630000  0.740520  1
  C  C915  1  0.472000  0.870000  0.240520  1
  C  C916  1  0.528000  0.370000  0.259480  1
  C  C917  1  0.527400  0.176700  0.760100  1
  C  C918  1  0.472600  0.676700  0.739900  1
  C  C919  1  0.472600  0.823300  0.239900  1
  C  C920  1  0.527400  0.323300  0.260100  1
  C  C921  1  0.510900  0.177100  0.792800  1
  C  C922  1  0.489100  0.677100  0.707200  1
  C  C923  1  0.489100  0.822900  0.207200  1
  C  C924  1  0.510900  0.322900  0.292800  1
  C  C925  1  0.540500  0.105600  0.741900  1
  C  C926  1  0.459500  0.605600  0.758100  1
  C  C927  1  0.459500  0.894400  0.258100  1
  C  C928  1  0.540500  0.394400  0.241900  1
  C  C929  1  0.555900  0.081800  0.728500  1
  C  C930  1  0.444100  0.581800  0.771500  1
  C  C931  1  0.444100  0.918200  0.271500  1
  C  C932  1  0.555900  0.418200  0.228500  1
  C  C933  1  0.579500  0.048800  0.714500  1
  C  C934  1  0.420500  0.548800  0.785500  1
  C  C935  1  0.420500  0.951200  0.285500  1
  C  C936  1  0.579500  0.451200  0.214500  1
  C  C937  1  0.622400  0.009700  0.720100  1
  C  C938  1  0.377600  0.509700  0.779900  1
  C  C939  1  0.377600  0.990300  0.279900  1
  C  C940  1  0.622400  0.490300  0.220100  1
  C  C941  1  0.636000  0.974700  0.707500  1
  C  C942  1  0.364000  0.474700  0.792500  1
  C  C943  1  0.364000  0.025300  0.292500  1
  C  C944  1  0.636000  0.525300  0.207500  1
  C  C945  1  0.606800  0.980100  0.688400  1
  C  C946  1  0.393200  0.480100  0.811600  1
  C  C947  1  0.393200  0.019900  0.311600  1
  C  C948  1  0.606800  0.519900  0.188400  1
  C  C949  1  0.563200  0.019600  0.682300  1
  C  C950  1  0.436800  0.519600  0.817700  1
  C  C951  1  0.436800  0.980400  0.317700  1
  C  C952  1  0.563200  0.480400  0.182300  1
  C  C953  1  0.550200  0.054400  0.695400  1
  C  C954  1  0.449800  0.554400  0.804600  1
  C  C955  1  0.449800  0.945600  0.304600  1
  C  C956  1  0.550200  0.445600  0.195400  1
  C  C957  1  0.572700  0.970600  0.656800  1
  C  C958  1  0.427300  0.470600  0.843200  1
  C  C959  1  0.427300  0.029400  0.343200  1
  C  C960  1  0.572700  0.529400  0.156800  1
  C  C961  1  0.558900  0.953800  0.638200  1
  C  C962  1  0.441100  0.453800  0.861800  1
  C  C963  1  0.441100  0.046200  0.361800  1
  C  C964  1  0.558900  0.546200  0.138200  1
  C  C965  1  0.513800  0.979400  0.624800  1
  C  C966  1  0.486200  0.479400  0.875200  1
  C  C967  1  0.486200  0.020600  0.375200  1
  C  C968  1  0.513800  0.520600  0.124800  1
  C  C969  1  0.483100  0.022000  0.629500  1
  C  C970  1  0.516900  0.522000  0.870500  1
  C  C971  1  0.516900  0.978000  0.370500  1
  C  C972  1  0.483100  0.478000  0.129500  1
  C  C973  1  0.495300  0.038900  0.648200  1
  C  C974  1  0.504700  0.538900  0.851800  1
  C  C975  1  0.504700  0.961100  0.351800  1
  C  C976  1  0.495300  0.461100  0.148200  1
  C  C977  1  0.540900  0.013300  0.662000  1
  C  C978  1  0.459100  0.513300  0.838000  1
  C  C979  1  0.459100  0.986700  0.338000  1
  C  C980  1  0.540900  0.486700  0.162000  1
  C  C981  1  0.442100  0.050000  0.615100  1
  C  C982  1  0.557900  0.550000  0.884900  1
  C  C983  1  0.557900  0.950000  0.384900  1
  C  C984  1  0.442100  0.450000  0.115100  1
  C  C985  1  0.409200  0.071600  0.602200  1
  C  C986  1  0.590800  0.571600  0.897800  1
  C  C987  1  0.590800  0.928400  0.397800  1
  C  C988  1  0.409200  0.428400  0.102200  1
  C  C989  1  0.367700  0.095200  0.586400  1
  C  C990  1  0.632300  0.595200  0.913600  1
  C  C991  1  0.632300  0.904800  0.413600  1
  C  C992  1  0.367700  0.404800  0.086400  1
  C  C993  1  0.340500  0.072300  0.569700  1
  C  C994  1  0.659500  0.572300  0.930300  1
  C  C995  1  0.659500  0.927700  0.430300  1
  C  C996  1  0.340500  0.427700  0.069700  1
  C  C997  1  0.306000  0.097000  0.554400  1
  C  C998  1  0.694000  0.597000  0.945600  1
  C  C999  1  0.694000  0.903000  0.445600  1
  C  C1000  1  0.306000  0.403000  0.054400  1
  C  C1001  1  0.296900  0.142800  0.556300  1
  C  C1002  1  0.703100  0.642800  0.943700  1
  C  C1003  1  0.703100  0.857200  0.443700  1
  C  C1004  1  0.296900  0.357200  0.056300  1
  C  C1005  1  0.355100  0.141600  0.586800  1
  C  C1006  1  0.644900  0.641600  0.913200  1
  C  C1007  1  0.644900  0.858400  0.413200  1
  C  C1008  1  0.355100  0.358400  0.086800  1
  C  C1009  1  0.447700  0.908500  0.884500  1
  C  C1010  1  0.552300  0.408500  0.615500  1
  C  C1011  1  0.552300  0.091500  0.115500  1
  C  C1012  1  0.447700  0.591500  0.384500  1
  C  C1013  1  0.361000  0.904500  0.893500  1
  C  C1014  1  0.639000  0.404500  0.606500  1
  C  C1015  1  0.639000  0.095500  0.106500  1
  C  C1016  1  0.361000  0.595500  0.393500  1
  C  C1017  1  0.284000  0.926000  0.883300  1
  C  C1018  1  0.716000  0.426000  0.616700  1
  C  C1019  1  0.716000  0.074000  0.116700  1
  C  C1020  1  0.284000  0.574000  0.383300  1
  C  C1021  1  0.207000  0.921800  0.896600  1
  C  C1022  1  0.793000  0.421800  0.603400  1
  C  C1023  1  0.793000  0.078200  0.103400  1
  C  C1024  1  0.207000  0.578200  0.396600  1
  C  C1025  1  0.135000  0.955000  0.891600  1
  C  C1026  1  0.865000  0.455000  0.608400  1
  C  C1027  1  0.865000  0.045000  0.108400  1
  C  C1028  1  0.135000  0.545000  0.391600  1
  C  C1029  1  0.057000  0.945000  0.903100  1
  C  C1030  1  0.943000  0.445000  0.596900  1
  C  C1031  1  0.943000  0.055000  0.096900  1
  C  C1032  1  0.057000  0.555000  0.403100  1
  C  C1033  1  0.653400  0.906200  0.673300  1
  C  C1034  1  0.346600  0.406200  0.826700  1
  C  C1035  1  0.346600  0.093800  0.326700  1
  C  C1036  1  0.653400  0.593800  0.173300  1
  C  C1037  1  0.751600  0.910000  0.674700  1
  C  C1038  1  0.248400  0.410000  0.825300  1
  C  C1039  1  0.248400  0.090000  0.325300  1
  C  C1040  1  0.751600  0.590000  0.174700  1
  C  C1041  1  0.789200  0.926900  0.656200  1
  C  C1042  1  0.210800  0.426900  0.843800  1
  C  C1043  1  0.210800  0.073100  0.343800  1
  C  C1044  1  0.789200  0.573100  0.156200  1
  C  C1045  1  0.886400  0.932200  0.658500  1
  C  C1046  1  0.113600  0.432200  0.841500  1
  C  C1047  1  0.113600  0.067800  0.341500  1
  C  C1048  1  0.886400  0.567800  0.158500  1
  C  C1049  1  0.925000  0.949500  0.639900  1
  C  C1050  1  0.075000  0.449500  0.860100  1
  C  C1051  1  0.075000  0.050500  0.360100  1
  C  C1052  1  0.925000  0.550500  0.139900  1
  C  C1053  1  0.025000  0.950800  0.643000  1
  C  C1054  1  0.975000  0.450800  0.857000  1
  C  C1055  1  0.975000  0.049200  0.357000  1
  C  C1056  1  0.025000  0.549200  0.143000  1
  C  C1057  1  0.941100  0.256000  0.990400  1
  C  C1058  1  0.058900  0.756000  0.509600  1
  C  C1059  1  0.058900  0.744000  0.009600  1
  C  C1060  1  0.941100  0.244000  0.490400  1
  C  C1061  1  0.027600  0.252500  0.988600  1
  C  C1062  1  0.972400  0.752500  0.511400  1
  C  C1063  1  0.972400  0.747500  0.011400  1
  C  C1064  1  0.027600  0.247500  0.488600  1
  C  C1065  1  0.059400  0.242100  0.970800  1
  C  C1066  1  0.940600  0.742100  0.529200  1
  C  C1067  1  0.940600  0.757900  0.029200  1
  C  C1068  1  0.059400  0.257900  0.470800  1
  C  C1069  1  0.002200  0.235500  0.955300  1
  C  C1070  1  0.997800  0.735500  0.544700  1
  C  C1071  1  0.997800  0.764500  0.044700  1
  C  C1072  1  0.002200  0.264500  0.455300  1
  C  C1073  1  0.914900  0.239500  0.958700  1
  C  C1074  1  0.085100  0.739500  0.541300  1
  C  C1075  1  0.085100  0.760500  0.041300  1
  C  C1076  1  0.914900  0.260500  0.458700  1
  C  C1077  1  0.030900  0.226000  0.936300  1
  C  C1078  1  0.969100  0.726000  0.563700  1
  C  C1079  1  0.969100  0.774000  0.063700  1
  C  C1080  1  0.030900  0.274000  0.436300  1
  C  C1081  1  0.059400  0.217000  0.921000  1
  C  C1082  1  0.940600  0.717000  0.579000  1
  C  C1083  1  0.940600  0.783000  0.079000  1
  C  C1084  1  0.059400  0.283000  0.421000  1
  C  C1085  1  0.096000  0.204300  0.903140  1
  C  C1086  1  0.904000  0.704300  0.596860  1
  C  C1087  1  0.904000  0.795700  0.096860  1
  C  C1088  1  0.096000  0.295700  0.403140  1
  C  C1089  1  0.178400  0.186000  0.903500  1
  C  C1090  1  0.821600  0.686000  0.596500  1
  C  C1091  1  0.821600  0.814000  0.096500  1
  C  C1092  1  0.178400  0.314000  0.403500  1
  C  C1093  1  0.217900  0.176000  0.886600  1
  C  C1094  1  0.782100  0.676000  0.613400  1
  C  C1095  1  0.782100  0.824000  0.113400  1
  C  C1096  1  0.217900  0.324000  0.386600  1
  C  C1097  1  0.174500  0.184200  0.869200  1
  C  C1098  1  0.825500  0.684200  0.630800  1
  C  C1099  1  0.825500  0.815800  0.130800  1
  C  C1100  1  0.174500  0.315800  0.369200  1
  C  C1101  1  0.090400  0.201600  0.868460  1
  C  C1102  1  0.909600  0.701600  0.631540  1
  C  C1103  1  0.909600  0.798400  0.131540  1
  C  C1104  1  0.090400  0.298400  0.368460  1
  C  C1105  1  0.051100  0.211200  0.885700  1
  C  C1106  1  0.948900  0.711200  0.614300  1
  C  C1107  1  0.948900  0.788800  0.114300  1
  C  C1108  1  0.051100  0.288800  0.385700  1
  C  C1109  1  0.133600  0.187000  0.837740  1
  C  C1110  1  0.866400  0.687000  0.662260  1
  C  C1111  1  0.866400  0.813000  0.162260  1
  C  C1112  1  0.133600  0.313000  0.337740  1
  C  C1113  1  0.129700  0.184600  0.817600  1
  C  C1114  1  0.870300  0.684600  0.682400  1
  C  C1115  1  0.870300  0.815400  0.182400  1
  C  C1116  1  0.129700  0.315400  0.317600  1
  C  C1117  1  0.056300  0.199500  0.807700  1
  C  C1118  1  0.943700  0.699500  0.692300  1
  C  C1119  1  0.943700  0.800500  0.192300  1
  C  C1120  1  0.056300  0.300500  0.307700  1
  C  C1121  1  0.986900  0.216200  0.817700  1
  C  C1122  1  0.013100  0.716200  0.682300  1
  C  C1123  1  0.013100  0.783800  0.182300  1
  C  C1124  1  0.986900  0.283800  0.317700  1
  C  C1125  1  0.990200  0.218000  0.837800  1
  C  C1126  1  0.009800  0.718000  0.662200  1
  C  C1127  1  0.009800  0.782000  0.162200  1
  C  C1128  1  0.990200  0.282000  0.337800  1
  C  C1129  1  0.064300  0.203700  0.847930  1
  C  C1130  1  0.935700  0.703700  0.652070  1
  C  C1131  1  0.935700  0.796300  0.152070  1
  C  C1132  1  0.064300  0.296300  0.347930  1
  C  C1133  1  0.912000  0.232000  0.807100  1
  C  C1134  1  0.088000  0.732000  0.692900  1
  C  C1135  1  0.088000  0.768000  0.192900  1
  C  C1136  1  0.912000  0.268000  0.307100  1
  C  C1137  1  0.855200  0.244100  0.796100  1
  C  C1138  1  0.144800  0.744100  0.703900  1
  C  C1139  1  0.144800  0.755900  0.203900  1
  C  C1140  1  0.855200  0.255900  0.296100  1
  C  C1141  1  0.793500  0.258400  0.781500  1
  C  C1142  1  0.206500  0.758400  0.718500  1
  C  C1143  1  0.206500  0.741600  0.218500  1
  C  C1144  1  0.793500  0.241600  0.281500  1
  C  C1145  1  0.821900  0.271500  0.763500  1
  C  C1146  1  0.178100  0.771500  0.736500  1
  C  C1147  1  0.178100  0.728500  0.236500  1
  C  C1148  1  0.821900  0.228500  0.263500  1
  C  C1149  1  0.761900  0.281900  0.748770  1
  C  C1150  1  0.238100  0.781900  0.751230  1
  C  C1151  1  0.238100  0.718100  0.251230  1
  C  C1152  1  0.761900  0.218100  0.248770  1
  C  C1153  1  0.674900  0.279300  0.753000  1
  C  C1154  1  0.325100  0.779300  0.747000  1
  C  C1155  1  0.325100  0.720700  0.247000  1
  C  C1156  1  0.674900  0.220700  0.253000  1
  C  C1157  1  0.705100  0.257900  0.784400  1
  C  C1158  1  0.294900  0.757900  0.715600  1
  C  C1159  1  0.294900  0.742100  0.215600  1
  C  C1160  1  0.705100  0.242100  0.284400  1
  C  C1161  1  0.789800  0.295100  0.730000  1
  C  C1162  1  0.210200  0.795100  0.770000  1
  C  C1163  1  0.210200  0.704900  0.270000  1
  C  C1164  1  0.789800  0.204900  0.230000  1
  C  C1165  1  0.820400  0.303400  0.714800  1
  C  C1166  1  0.179600  0.803400  0.785200  1
  C  C1167  1  0.179600  0.696600  0.285200  1
  C  C1168  1  0.820400  0.196600  0.214800  1
  C  C1169  1  0.865600  0.313400  0.697580  1
  C  C1170  1  0.134400  0.813400  0.802420  1
  C  C1171  1  0.134400  0.686600  0.302420  1
  C  C1172  1  0.865600  0.186600  0.197580  1
  C  C1173  1  0.950500  0.326800  0.698900  1
  C  C1174  1  0.049500  0.826800  0.801100  1
  C  C1175  1  0.049500  0.673200  0.301100  1
  C  C1176  1  0.950500  0.173200  0.198900  1
  C  C1177  1  0.995200  0.337500  0.682700  1
  C  C1178  1  0.004800  0.837500  0.817300  1
  C  C1179  1  0.004800  0.662500  0.317300  1
  C  C1180  1  0.995200  0.162500  0.182700  1
  C  C1181  1  0.954200  0.332700  0.664640  1
  C  C1182  1  0.045800  0.832700  0.835360  1
  C  C1183  1  0.045800  0.667300  0.335360  1
  C  C1184  1  0.954200  0.167300  0.164640  1
  C  C1185  1  0.867600  0.318500  0.662900  1
  C  C1186  1  0.132400  0.818500  0.837100  1
  C  C1187  1  0.132400  0.681500  0.337100  1
  C  C1188  1  0.867600  0.181500  0.162900  1
  C  C1189  1  0.823500  0.309600  0.679540  1
  C  C1190  1  0.176500  0.809600  0.820460  1
  C  C1191  1  0.176500  0.690400  0.320460  1
  C  C1192  1  0.823500  0.190400  0.179540  1
  C  C1193  1  0.923200  0.326000  0.632850  1
  C  C1194  1  0.076800  0.826000  0.867150  1
  C  C1195  1  0.076800  0.674000  0.367150  1
  C  C1196  1  0.923200  0.174000  0.132850  1
  C  C1197  1  0.927900  0.323000  0.612820  1
  C  C1198  1  0.072100  0.823000  0.887180  1
  C  C1199  1  0.072100  0.677000  0.387180  1
  C  C1200  1  0.927900  0.177000  0.112820  1
  C  C1201  1  0.856300  0.307600  0.602500  1
  C  C1202  1  0.143700  0.807600  0.897500  1
  C  C1203  1  0.143700  0.692400  0.397500  1
  C  C1204  1  0.856300  0.192400  0.102500  1
  C  C1205  1  0.781900  0.295800  0.611700  1
  C  C1206  1  0.218100  0.795800  0.888300  1
  C  C1207  1  0.218100  0.704200  0.388300  1
  C  C1208  1  0.781900  0.204200  0.111700  1
  C  C1209  1  0.776900  0.298800  0.631700  1
  C  C1210  1  0.223100  0.798800  0.868300  1
  C  C1211  1  0.223100  0.701200  0.368300  1
  C  C1212  1  0.776900  0.201200  0.131700  1
  C  C1213  1  0.848300  0.314000  0.642440  1
  C  C1214  1  0.151700  0.814000  0.857560  1
  C  C1215  1  0.151700  0.686000  0.357560  1
  C  C1216  1  0.848300  0.186000  0.142440  1
  C  C1217  1  0.708700  0.279600  0.600500  1
  C  C1218  1  0.291300  0.779600  0.899500  1
  C  C1219  1  0.291300  0.720400  0.399500  1
  C  C1220  1  0.708700  0.220400  0.100500  1
  C  C1221  1  0.651000  0.264400  0.590700  1
  C  C1222  1  0.349000  0.764400  0.909300  1
  C  C1223  1  0.349000  0.735600  0.409300  1
  C  C1224  1  0.651000  0.235600  0.090700  1
  C  C1225  1  0.594200  0.243400  0.576700  1
  C  C1226  1  0.405800  0.743400  0.923300  1
  C  C1227  1  0.405800  0.756600  0.423300  1
  C  C1228  1  0.594200  0.256600  0.076700  1
  C  C1229  1  0.625700  0.226300  0.559500  1
  C  C1230  1  0.374300  0.726300  0.940500  1
  C  C1231  1  0.374300  0.773700  0.440500  1
  C  C1232  1  0.625700  0.273700  0.059500  1
  C  C1233  1  0.568200  0.208500  0.545900  1
  C  C1234  1  0.431800  0.708500  0.954100  1
  C  C1235  1  0.431800  0.791500  0.454100  1
  C  C1236  1  0.568200  0.291500  0.045900  1
  C  C1237  1  0.482400  0.208800  0.549600  1
  C  C1238  1  0.517600  0.708800  0.950400  1
  C  C1239  1  0.517600  0.791200  0.450400  1
  C  C1240  1  0.482400  0.291200  0.049600  1
  C  C1241  1  0.505700  0.240800  0.579200  1
  C  C1242  1  0.494300  0.740800  0.920800  1
  C  C1243  1  0.494300  0.759200  0.420800  1
  C  C1244  1  0.505700  0.259200  0.079200  1
  C  C1245  1  0.282400  0.155600  0.845800  1
  C  C1246  1  0.717600  0.655600  0.654200  1
  C  C1247  1  0.717600  0.844400  0.154200  1
  C  C1248  1  0.282400  0.344400  0.345800  1
  C  C1249  1  0.283000  0.104800  0.847800  1
  C  C1250  1  0.717000  0.604800  0.652200  1
  C  C1251  1  0.717000  0.895200  0.152200  1
  C  C1252  1  0.283000  0.395200  0.347800  1
  C  C1253  1  0.216000  0.075500  0.838000  1
  C  C1254  1  0.784000  0.575500  0.662000  1
  C  C1255  1  0.784000  0.924500  0.162000  1
  C  C1256  1  0.216000  0.424500  0.338000  1
  C  C1257  1  0.232000  0.024200  0.841200  1
  C  C1258  1  0.768000  0.524200  0.658800  1
  C  C1259  1  0.768000  0.975800  0.158800  1
  C  C1260  1  0.232000  0.475800  0.341200  1
  C  C1261  1  0.187000  0.995500  0.826500  1
  C  C1262  1  0.813000  0.495500  0.673500  1
  C  C1263  1  0.813000  0.004500  0.173500  1
  C  C1264  1  0.187000  0.504500  0.326500  1
  C  C1265  1  0.201000  0.945100  0.827500  1
  C  C1266  1  0.799000  0.445100  0.672500  1
  C  C1267  1  0.799000  0.054900  0.172500  1
  C  C1268  1  0.201000  0.554900  0.327500  1
  C  C1269  1  0.073500  0.353200  0.642200  1
  C  C1270  1  0.926500  0.853200  0.857800  1
  C  C1271  1  0.926500  0.646800  0.357800  1
  C  C1272  1  0.073500  0.146800  0.142200  1
  C  C1273  1  0.078000  0.402500  0.636600  1
  C  C1274  1  0.922000  0.902500  0.863400  1
  C  C1275  1  0.922000  0.597500  0.363400  1
  C  C1276  1  0.078000  0.097500  0.136600  1
  C  C1277  1  0.036000  0.439100  0.647700  1
  C  C1278  1  0.964000  0.939100  0.852300  1
  C  C1279  1  0.964000  0.560900  0.352300  1
  C  C1280  1  0.036000  0.060900  0.147700  1
  C  C1281  1  0.046000  0.487600  0.640200  1
  C  C1282  1  0.954000  0.987600  0.859800  1
  C  C1283  1  0.954000  0.512400  0.359800  1
  C  C1284  1  0.046000  0.012400  0.140200  1
  C  C1285  1  0.964000  0.516500  0.636100  1
  C  C1286  1  0.036000  0.016500  0.863900  1
  C  C1287  1  0.036000  0.483500  0.363900  1
  C  C1288  1  0.964000  0.983500  0.136100  1
  C  C1289  1  0.982000  0.565200  0.629200  1
  C  C1290  1  0.018000  0.065200  0.870800  1
  C  C1291  1  0.018000  0.434800  0.370800  1
  C  C1292  1  0.982000  0.934800  0.129200  1
  C  C1293  1  0.751600  0.338000  0.998300  1
  C  C1294  1  0.248400  0.838000  0.501700  1
  C  C1295  1  0.248400  0.662000  0.001700  1
  C  C1296  1  0.751600  0.162000  0.498300  1
  C  C1297  1  0.753300  0.384500  0.999800  1
  C  C1298  1  0.246700  0.884500  0.500200  1
  C  C1299  1  0.246700  0.615500  0.000200  1
  C  C1300  1  0.753300  0.115500  0.499800  1
  C  C1301  1  0.756900  0.408800  0.983000  1
  C  C1302  1  0.243100  0.908800  0.517000  1
  C  C1303  1  0.243100  0.591200  0.017000  1
  C  C1304  1  0.756900  0.091200  0.483000  1
  C  C1305  1  0.760600  0.386700  0.965200  1
  C  C1306  1  0.239400  0.886700  0.534800  1
  C  C1307  1  0.239400  0.613300  0.034800  1
  C  C1308  1  0.760600  0.113300  0.465200  1
  C  C1309  1  0.757400  0.339800  0.965300  1
  C  C1310  1  0.242600  0.839800  0.534700  1
  C  C1311  1  0.242600  0.660200  0.034700  1
  C  C1312  1  0.757400  0.160200  0.465300  1
  C  C1313  1  0.768000  0.412200  0.947800  1
  C  C1314  1  0.232000  0.912200  0.552200  1
  C  C1315  1  0.232000  0.587800  0.052200  1
  C  C1316  1  0.768000  0.087800  0.447800  1
  C  C1317  1  0.771200  0.435700  0.933900  1
  C  C1318  1  0.228800  0.935700  0.566100  1
  C  C1319  1  0.228800  0.564300  0.066100  1
  C  C1320  1  0.771200  0.064300  0.433900  1
  C  C1321  1  0.784000  0.467300  0.918600  1
  C  C1322  1  0.216000  0.967300  0.581400  1
  C  C1323  1  0.216000  0.532700  0.081400  1
  C  C1324  1  0.784000  0.032700  0.418600  1
  C  C1325  1  0.829100  0.506900  0.922800  1
  C  C1326  1  0.170900  0.006900  0.577200  1
  C  C1327  1  0.170900  0.493100  0.077200  1
  C  C1328  1  0.829100  0.993100  0.422800  1
  C  C1329  1  0.842300  0.538600  0.908600  1
  C  C1330  1  0.157700  0.038600  0.591400  1
  C  C1331  1  0.157700  0.461400  0.091400  1
  C  C1332  1  0.842300  0.961400  0.408600  1
  C  C1333  1  0.808300  0.530700  0.890120  1
  C  C1334  1  0.191700  0.030700  0.609880  1
  C  C1335  1  0.191700  0.469300  0.109880  1
  C  C1336  1  0.808300  0.969300  0.390120  1
  C  C1337  1  0.762200  0.491000  0.885650  1
  C  C1338  1  0.237800  0.991000  0.614350  1
  C  C1339  1  0.237800  0.509000  0.114350  1
  C  C1340  1  0.762200  0.009000  0.385650  1
  C  C1341  1  0.750400  0.458900  0.900000  1
  C  C1342  1  0.249600  0.958900  0.600000  1
  C  C1343  1  0.249600  0.541100  0.100000  1
  C  C1344  1  0.750400  0.041100  0.400000  1
  C  C1345  1  0.765000  0.536000  0.858900  1
  C  C1346  1  0.235000  0.036000  0.641100  1
  C  C1347  1  0.235000  0.464000  0.141100  1
  C  C1348  1  0.765000  0.964000  0.358900  1
  C  C1349  1  0.748000  0.550500  0.840100  1
  C  C1350  1  0.252000  0.050500  0.659900  1
  C  C1351  1  0.252000  0.449500  0.159900  1
  C  C1352  1  0.748000  0.949500  0.340100  1
  C  C1353  1  0.703500  0.522100  0.827600  1
  C  C1354  1  0.296500  0.022100  0.672400  1
  C  C1355  1  0.296500  0.477900  0.172400  1
  C  C1356  1  0.703500  0.977900  0.327600  1
  C  C1357  1  0.677000  0.479900  0.833400  1
  C  C1358  1  0.323000  0.979900  0.666600  1
  C  C1359  1  0.323000  0.520100  0.166600  1
  C  C1360  1  0.677000  0.020100  0.333400  1
  C  C1361  1  0.692400  0.465400  0.852400  1
  C  C1362  1  0.307600  0.965400  0.647600  1
  C  C1363  1  0.307600  0.534600  0.147600  1
  C  C1364  1  0.692400  0.034600  0.352400  1
  C  C1365  1  0.735500  0.493900  0.865420  1
  C  C1366  1  0.264500  0.993900  0.634580  1
  C  C1367  1  0.264500  0.506100  0.134580  1
  C  C1368  1  0.735500  0.006100  0.365420  1
  C  C1369  1  0.632900  0.450800  0.819800  1
  C  C1370  1  0.367100  0.950800  0.680200  1
  C  C1371  1  0.367100  0.549200  0.180200  1
  C  C1372  1  0.632900  0.049200  0.319800  1
  C  C1373  1  0.596900  0.430300  0.807000  1
  C  C1374  1  0.403100  0.930300  0.693000  1
  C  C1375  1  0.403100  0.569700  0.193000  1
  C  C1376  1  0.596900  0.069700  0.307000  1
  C  C1377  1  0.558600  0.406100  0.791020  1
  C  C1378  1  0.441400  0.906100  0.708980  1
  C  C1379  1  0.441400  0.593900  0.208980  1
  C  C1380  1  0.558600  0.093900  0.291020  1
  C  C1381  1  0.527000  0.429500  0.774800  1
  C  C1382  1  0.473000  0.929500  0.725200  1
  C  C1383  1  0.473000  0.570500  0.225200  1
  C  C1384  1  0.527000  0.070500  0.274800  1
  C  C1385  1  0.493200  0.405300  0.759000  1
  C  C1386  1  0.506800  0.905300  0.741000  1
  C  C1387  1  0.506800  0.594700  0.241000  1
  C  C1388  1  0.493200  0.094700  0.259000  1
  C  C1389  1  0.494500  0.358100  0.760100  1
  C  C1390  1  0.505500  0.858100  0.739900  1
  C  C1391  1  0.505500  0.641900  0.239900  1
  C  C1392  1  0.494500  0.141900  0.260100  1
  C  C1393  1  0.556200  0.359000  0.790700  1
  C  C1394  1  0.443800  0.859000  0.709300  1
  C  C1395  1  0.443800  0.641000  0.209300  1
  C  C1396  1  0.556200  0.141000  0.290700  1
  C  C1397  1  0.454500  0.427600  0.742600  1
  C  C1398  1  0.545500  0.927600  0.757400  1
  C  C1399  1  0.545500  0.572400  0.257400  1
  C  C1400  1  0.454500  0.072400  0.242600  1
  C  C1401  1  0.420900  0.446700  0.729100  1
  C  C1402  1  0.579100  0.946700  0.770900  1
  C  C1403  1  0.579100  0.553300  0.270900  1
  C  C1404  1  0.420900  0.053300  0.229100  1
  C  C1405  1  0.380500  0.474000  0.714300  1
  C  C1406  1  0.619500  0.974000  0.785700  1
  C  C1407  1  0.619500  0.526000  0.285700  1
  C  C1408  1  0.380500  0.026000  0.214300  1
  C  C1409  1  0.351700  0.516700  0.719100  1
  C  C1410  1  0.648300  0.016700  0.780900  1
  C  C1411  1  0.648300  0.483300  0.280900  1
  C  C1412  1  0.351700  0.983300  0.219100  1
  C  C1413  1  0.314100  0.544800  0.705400  1
  C  C1414  1  0.685900  0.044800  0.794600  1
  C  C1415  1  0.685900  0.455200  0.294600  1
  C  C1416  1  0.314100  0.955200  0.205400  1
  C  C1417  1  0.305800  0.529700  0.686400  1
  C  C1418  1  0.694200  0.029700  0.813600  1
  C  C1419  1  0.694200  0.470300  0.313600  1
  C  C1420  1  0.305800  0.970300  0.186400  1
  C  C1421  1  0.334400  0.486700  0.681130  1
  C  C1422  1  0.665600  0.986700  0.818870  1
  C  C1423  1  0.665600  0.513300  0.318870  1
  C  C1424  1  0.334400  0.013300  0.181130  1
  C  C1425  1  0.371800  0.458700  0.695300  1
  C  C1426  1  0.628200  0.958700  0.804700  1
  C  C1427  1  0.628200  0.541300  0.304700  1
  C  C1428  1  0.371800  0.041300  0.195300  1
  C  C1429  1  0.275600  0.523800  0.654480  1
  C  C1430  1  0.724400  0.023800  0.845520  1
  C  C1431  1  0.724400  0.476200  0.345520  1
  C  C1432  1  0.275600  0.976200  0.154480  1
  C  C1433  1  0.251000  0.531500  0.635300  1
  C  C1434  1  0.749000  0.031500  0.864700  1
  C  C1435  1  0.749000  0.468500  0.364700  1
  C  C1436  1  0.251000  0.968500  0.135300  1
  C  C1437  1  0.263000  0.498000  0.621800  1
  C  C1438  1  0.737000  0.998000  0.878200  1
  C  C1439  1  0.737000  0.502000  0.378200  1
  C  C1440  1  0.263000  0.002000  0.121800  1
  C  C1441  1  0.299300  0.456800  0.627200  1
  C  C1442  1  0.700700  0.956800  0.872800  1
  C  C1443  1  0.700700  0.543200  0.372800  1
  C  C1444  1  0.299300  0.043200  0.127200  1
  C  C1445  1  0.326000  0.449400  0.646300  1
  C  C1446  1  0.674000  0.949400  0.853700  1
  C  C1447  1  0.674000  0.550600  0.353700  1
  C  C1448  1  0.326000  0.050600  0.146300  1
  C  C1449  1  0.314300  0.482700  0.660220  1
  C  C1450  1  0.685700  0.982700  0.839780  1
  C  C1451  1  0.685700  0.517300  0.339780  1
  C  C1452  1  0.314300  0.017300  0.160220  1
  C  C1453  1  0.305900  0.421500  0.613300  1
  C  C1454  1  0.694100  0.921500  0.886700  1
  C  C1455  1  0.694100  0.578500  0.386700  1
  C  C1456  1  0.305900  0.078500  0.113300  1
  C  C1457  1  0.311600  0.392800  0.601200  1
  C  C1458  1  0.688400  0.892800  0.898800  1
  C  C1459  1  0.688400  0.607200  0.398800  1
  C  C1460  1  0.311600  0.107200  0.101200  1
  C  C1461  1  0.316300  0.366600  0.583800  1
  C  C1462  1  0.683700  0.866600  0.916200  1
  C  C1463  1  0.683700  0.633400  0.416200  1
  C  C1464  1  0.316300  0.133400  0.083800  1
  C  C1465  1  0.309300  0.387100  0.565800  1
  C  C1466  1  0.690700  0.887100  0.934200  1
  C  C1467  1  0.690700  0.612900  0.434200  1
  C  C1468  1  0.309300  0.112900  0.065800  1
  C  C1469  1  0.310000  0.360500  0.549300  1
  C  C1470  1  0.690000  0.860500  0.950700  1
  C  C1471  1  0.690000  0.639500  0.450700  1
  C  C1472  1  0.310000  0.139500  0.049300  1
  C  C1473  1  0.318500  0.314600  0.551500  1
  C  C1474  1  0.681500  0.814600  0.948500  1
  C  C1475  1  0.681500  0.685400  0.448500  1
  C  C1476  1  0.318500  0.185400  0.051500  1
  C  C1477  1  0.322900  0.319700  0.584400  1
  C  C1478  1  0.677100  0.819700  0.915600  1
  C  C1479  1  0.677100  0.680300  0.415600  1
  C  C1480  1  0.322900  0.180300  0.084400  1
  C  C1481  1  0.853800  0.601100  0.872000  1
  C  C1482  1  0.146200  0.101100  0.628000  1
  C  C1483  1  0.146200  0.398900  0.128000  1
  C  C1484  1  0.853800  0.898900  0.372000  1
  C  C1485  1  0.949400  0.596900  0.870700  1
  C  C1486  1  0.050600  0.096900  0.629300  1
  C  C1487  1  0.050600  0.403100  0.129300  1
  C  C1488  1  0.949400  0.903100  0.370700  1
  C  C1489  1  0.985000  0.579200  0.852200  1
  C  C1490  1  0.015000  0.079200  0.647800  1
  C  C1491  1  0.015000  0.420800  0.147800  1
  C  C1492  1  0.985000  0.920800  0.352200  1
  C  C1493  1  0.083000  0.575100  0.852300  1
  C  C1494  1  0.917000  0.075100  0.647700  1
  C  C1495  1  0.917000  0.424900  0.147700  1
  C  C1496  1  0.083000  0.924900  0.352300  1
  C  C1497  1  0.118000  0.562500  0.832700  1
  C  C1498  1  0.882000  0.062500  0.667300  1
  C  C1499  1  0.882000  0.437500  0.167300  1
  C  C1500  1  0.118000  0.937500  0.332700  1
  C  C1501  1  0.215000  0.561300  0.833400  1
  C  C1502  1  0.785000  0.061300  0.666600  1
  C  C1503  1  0.785000  0.438700  0.166600  1
  C  C1504  1  0.215000  0.938700  0.333400  1
  C  C1505  1  0.235400  0.597700  0.670300  1
  C  C1506  1  0.764600  0.097700  0.829700  1
  C  C1507  1  0.764600  0.402300  0.329700  1
  C  C1508  1  0.235400  0.902300  0.170300  1
  C  C1509  1  0.138700  0.597200  0.673100  1
  C  C1510  1  0.861300  0.097200  0.826900  1
  C  C1511  1  0.861300  0.402800  0.326900  1
  C  C1512  1  0.138700  0.902800  0.173100  1
  C  C1513  1  0.117000  0.592300  0.693800  1
  C  C1514  1  0.883000  0.092300  0.806200  1
  C  C1515  1  0.883000  0.407700  0.306200  1
  C  C1516  1  0.117000  0.907700  0.193800  1
  C  C1517  1  0.021000  0.581000  0.697000  1
  C  C1518  1  0.979000  0.081000  0.803000  1
  C  C1519  1  0.979000  0.419000  0.303000  1
  C  C1520  1  0.021000  0.919000  0.197000  1
  C  C1521  1  0.005000  0.575000  0.718600  1
  C  C1522  1  0.995000  0.075000  0.781400  1
  C  C1523  1  0.995000  0.425000  0.281400  1
  C  C1524  1  0.005000  0.925000  0.218600  1
  C  C1525  1  0.913000  0.574000  0.725300  1
  C  C1526  1  0.087000  0.074000  0.774700  1
  C  C1527  1  0.087000  0.426000  0.274700  1
  C  C1528  1  0.913000  0.926000  0.225300  1
  C  C1529  1  0.610400  0.227800  0.001700  1
  C  C1530  1  0.389600  0.727800  0.498300  1
  C  C1531  1  0.389600  0.772200  0.998300  1
  C  C1532  1  0.610400  0.272200  0.501700  1
  C  C1533  1  0.526500  0.222900  0.006500  1
  C  C1534  1  0.473500  0.722900  0.493500  1
  C  C1535  1  0.473500  0.777100  0.993500  1
  C  C1536  1  0.526500  0.277100  0.506500  1
  C  C1537  1  0.462300  0.237800  0.993500  1
  C  C1538  1  0.537700  0.737800  0.506500  1
  C  C1539  1  0.537700  0.762200  0.006500  1
  C  C1540  1  0.462300  0.262200  0.493500  1
  C  C1541  1  0.485300  0.256900  0.976100  1
  C  C1542  1  0.514700  0.756900  0.523900  1
  C  C1543  1  0.514700  0.743100  0.023900  1
  C  C1544  1  0.485300  0.243100  0.476100  1
  C  C1545  1  0.572400  0.259500  0.972600  1
  C  C1546  1  0.427600  0.759500  0.527400  1
  C  C1547  1  0.427600  0.740500  0.027400  1
  C  C1548  1  0.572400  0.240500  0.472600  1
  C  C1549  1  0.420900  0.272400  0.962300  1
  C  C1550  1  0.579100  0.772400  0.537700  1
  C  C1551  1  0.579100  0.727600  0.037700  1
  C  C1552  1  0.420900  0.227600  0.462300  1
  C  C1553  1  0.363300  0.283500  0.951500  1
  C  C1554  1  0.636700  0.783500  0.548500  1
  C  C1555  1  0.636700  0.716500  0.048500  1
  C  C1556  1  0.363300  0.216500  0.451500  1
  C  C1557  1  0.286900  0.297400  0.940800  1
  C  C1558  1  0.713100  0.797400  0.559200  1
  C  C1559  1  0.713100  0.702600  0.059200  1
  C  C1560  1  0.286900  0.202600  0.440800  1
  C  C1561  1  0.214800  0.311600  0.950500  1
  C  C1562  1  0.785200  0.811600  0.549500  1
  C  C1563  1  0.785200  0.688400  0.049500  1
  C  C1564  1  0.214800  0.188400  0.450500  1
  C  C1565  1  0.141600  0.324600  0.940370  1
  C  C1566  1  0.858400  0.824600  0.559630  1
  C  C1567  1  0.858400  0.675400  0.059630  1
  C  C1568  1  0.141600  0.175400  0.440370  1
  C  C1569  1  0.139200  0.322800  0.920390  1
  C  C1570  1  0.860800  0.822800  0.579610  1
  C  C1571  1  0.860800  0.677200  0.079610  1
  C  C1572  1  0.139200  0.177200  0.420390  1
  C  C1573  1  0.211400  0.308900  0.910330  1
  C  C1574  1  0.788600  0.808900  0.589670  1
  C  C1575  1  0.788600  0.691100  0.089670  1
  C  C1576  1  0.211400  0.191100  0.410330  1
  C  C1577  1  0.285900  0.296200  0.920700  1
  C  C1578  1  0.714100  0.796200  0.579300  1
  C  C1579  1  0.714100  0.703800  0.079300  1
  C  C1580  1  0.285900  0.203800  0.420700  1
  C  C1581  1  0.100100  0.323900  0.888810  1
  C  C1582  1  0.899900  0.823900  0.611190  1
  C  C1583  1  0.899900  0.676100  0.111190  1
  C  C1584  1  0.100100  0.176100  0.388810  1
  C  C1585  1  0.056300  0.327500  0.871000  1
  C  C1586  1  0.943700  0.827500  0.629000  1
  C  C1587  1  0.943700  0.672500  0.129000  1
  C  C1588  1  0.056300  0.172500  0.371000  1
  C  C1589  1  0.099600  0.317800  0.854500  1
  C  C1590  1  0.900400  0.817800  0.645500  1
  C  C1591  1  0.900400  0.682200  0.145500  1
  C  C1592  1  0.099600  0.182200  0.354500  1
  C  C1593  1  0.185200  0.304400  0.855300  1
  C  C1594  1  0.814800  0.804400  0.644700  1
  C  C1595  1  0.814800  0.695600  0.144700  1
  C  C1596  1  0.185200  0.195600  0.355300  1
  C  C1597  1  0.229400  0.300800  0.873080  1
  C  C1598  1  0.770600  0.800800  0.626920  1
  C  C1599  1  0.770600  0.699200  0.126920  1
  C  C1600  1  0.229400  0.199200  0.373080  1
  C  C1601  1  0.186800  0.310100  0.890010  1
  C  C1602  1  0.813200  0.810100  0.609990  1
  C  C1603  1  0.813200  0.689900  0.109990  1
  C  C1604  1  0.186800  0.189900  0.390010  1
  C  C1605  1  0.228200  0.295600  0.837800  1
  C  C1606  1  0.771800  0.795600  0.662200  1
  C  C1607  1  0.771800  0.704400  0.162200  1
  C  C1608  1  0.228200  0.204400  0.337800  1
  C  C1609  1  0.256500  0.289300  0.822200  1
  C  C1610  1  0.743500  0.789300  0.677800  1
  C  C1611  1  0.743500  0.710700  0.177800  1
  C  C1612  1  0.256500  0.210700  0.322200  1
  C  C1613  1  0.283900  0.278700  0.803170  1
  C  C1614  1  0.716100  0.778700  0.696830  1
  C  C1615  1  0.716100  0.721300  0.196830  1
  C  C1616  1  0.283900  0.221300  0.303170  1
  C  C1617  1  0.223400  0.269600  0.788400  1
  C  C1618  1  0.776600  0.769600  0.711600  1
  C  C1619  1  0.776600  0.730400  0.211600  1
  C  C1620  1  0.223400  0.230400  0.288400  1
  C  C1621  1  0.251600  0.260500  0.769910  1
  C  C1622  1  0.748400  0.760500  0.730090  1
  C  C1623  1  0.748400  0.739500  0.230090  1
  C  C1624  1  0.251600  0.239500  0.269910  1
  C  C1625  1  0.339300  0.261400  0.766900  1
  C  C1626  1  0.660700  0.761400  0.733100  1
  C  C1627  1  0.660700  0.738600  0.233100  1
  C  C1628  1  0.339300  0.238600  0.266900  1
  C  C1629  1  0.370400  0.277400  0.798600  1
  C  C1630  1  0.629600  0.777400  0.701400  1
  C  C1631  1  0.629600  0.722600  0.201400  1
  C  C1632  1  0.370400  0.222600  0.298600  1
  C  C1633  1  0.190900  0.248200  0.754800  1
  C  C1634  1  0.809100  0.748200  0.745200  1
  C  C1635  1  0.809100  0.751800  0.245200  1
  C  C1636  1  0.190900  0.251800  0.254800  1
  C  C1637  1  0.132800  0.237300  0.744000  1
  C  C1638  1  0.867200  0.737300  0.756000  1
  C  C1639  1  0.867200  0.762700  0.256000  1
  C  C1640  1  0.132800  0.262700  0.244000  1
  C  C1641  1  0.058800  0.222600  0.732700  1
  C  C1642  1  0.941200  0.722600  0.767300  1
  C  C1643  1  0.941200  0.777400  0.267300  1
  C  C1644  1  0.058800  0.277400  0.232700  1
  C  C1645  1  0.986600  0.207800  0.742100  1
  C  C1646  1  0.013400  0.707800  0.757900  1
  C  C1647  1  0.013400  0.792200  0.257900  1
  C  C1648  1  0.986600  0.292200  0.242100  1
  C  C1649  1  0.914300  0.193800  0.731500  1
  C  C1650  1  0.085700  0.693800  0.768500  1
  C  C1651  1  0.085700  0.806200  0.268500  1
  C  C1652  1  0.914300  0.306200  0.231500  1
  C  C1653  1  0.914400  0.194800  0.711570  1
  C  C1654  1  0.085600  0.694800  0.788430  1
  C  C1655  1  0.085600  0.805200  0.288430  1
  C  C1656  1  0.914400  0.305200  0.211570  1
  C  C1657  1  0.987600  0.209200  0.701870  1
  C  C1658  1  0.012400  0.709200  0.798130  1
  C  C1659  1  0.012400  0.790800  0.298130  1
  C  C1660  1  0.987600  0.290800  0.201870  1
  C  C1661  1  0.059800  0.223600  0.712600  1
  C  C1662  1  0.940200  0.723600  0.787400  1
  C  C1663  1  0.940200  0.776400  0.287400  1
  C  C1664  1  0.059800  0.276400  0.212600  1
  C  C1665  1  0.879800  0.192200  0.679780  1
  C  C1666  1  0.120200  0.692200  0.820220  1
  C  C1667  1  0.120200  0.807800  0.320220  1
  C  C1668  1  0.879800  0.307800  0.179780  1
  C  C1669  1  0.838600  0.187100  0.661800  1
  C  C1670  1  0.161400  0.687100  0.838200  1
  C  C1671  1  0.161400  0.812900  0.338200  1
  C  C1672  1  0.838600  0.312900  0.161800  1
  C  C1673  1  0.882000  0.196900  0.645300  1
  C  C1674  1  0.118000  0.696900  0.854700  1
  C  C1675  1  0.118000  0.803100  0.354700  1
  C  C1676  1  0.882000  0.303100  0.145300  1
  C  C1677  1  0.967800  0.210800  0.646650  1
  C  C1678  1  0.032200  0.710800  0.853350  1
  C  C1679  1  0.032200  0.789200  0.353350  1
  C  C1680  1  0.967800  0.289200  0.146650  1
  C  C1681  1  0.009100  0.216600  0.664700  1
  C  C1682  1  0.990900  0.716600  0.835300  1
  C  C1683  1  0.990900  0.783400  0.335300  1
  C  C1684  1  0.009100  0.283400  0.164700  1
  C  C1685  1  0.965400  0.207000  0.681390  1
  C  C1686  1  0.034600  0.707000  0.818610  1
  C  C1687  1  0.034600  0.793000  0.318610  1
  C  C1688  1  0.965400  0.293000  0.181390  1
  C  C1689  1  0.012900  0.218300  0.629300  1
  C  C1690  1  0.987100  0.718300  0.870700  1
  C  C1691  1  0.987100  0.781700  0.370700  1
  C  C1692  1  0.012900  0.281700  0.129300  1
  C  C1693  1  0.044200  0.224000  0.614000  1
  C  C1694  1  0.955800  0.724000  0.886000  1
  C  C1695  1  0.955800  0.776000  0.386000  1
  C  C1696  1  0.044200  0.276000  0.114000  1
  C  C1697  1  0.076900  0.230700  0.595100  1
  C  C1698  1  0.923100  0.730700  0.904900  1
  C  C1699  1  0.923100  0.769300  0.404900  1
  C  C1700  1  0.076900  0.269300  0.095100  1
  C  C1701  1  0.021800  0.241700  0.579500  1
  C  C1702  1  0.978200  0.741700  0.920500  1
  C  C1703  1  0.978200  0.758300  0.420500  1
  C  C1704  1  0.021800  0.258300  0.079500  1
  C  C1705  1  0.056600  0.246800  0.561500  1
  C  C1706  1  0.943400  0.746800  0.938500  1
  C  C1707  1  0.943400  0.753200  0.438500  1
  C  C1708  1  0.056600  0.253200  0.061500  1
  C  C1709  1  0.143300  0.240200  0.559400  1
  C  C1710  1  0.856700  0.740200  0.940600  1
  C  C1711  1  0.856700  0.759800  0.440600  1
  C  C1712  1  0.143300  0.259800  0.059400  1
  C  C1713  1  0.163000  0.225700  0.591500  1
  C  C1714  1  0.837000  0.725700  0.908500  1
  C  C1715  1  0.837000  0.774300  0.408500  1
  C  C1716  1  0.163000  0.274300  0.091500  1
  C  C1717  1  0.984800  0.345400  0.911900  1
  C  C1718  1  0.015200  0.845400  0.588100  1
  C  C1719  1  0.015200  0.654600  0.088100  1
  C  C1720  1  0.984800  0.154600  0.411900  1
  C  C1721  1  0.986000  0.393100  0.919200  1
  C  C1722  1  0.014000  0.893100  0.580800  1
  C  C1723  1  0.014000  0.606900  0.080800  1
  C  C1724  1  0.986000  0.106900  0.419200  1
  C  C1725  1  0.034000  0.429100  0.909200  1
  C  C1726  1  0.966000  0.929100  0.590800  1
  C  C1727  1  0.966000  0.570900  0.090800  1
  C  C1728  1  0.034000  0.070900  0.409200  1
  C  C1729  1  0.022000  0.476100  0.917400  1
  C  C1730  1  0.978000  0.976100  0.582600  1
  C  C1731  1  0.978000  0.523900  0.082600  1
  C  C1732  1  0.022000  0.023900  0.417400  1
  C  C1733  1  0.091000  0.510400  0.912500  1
  C  C1734  1  0.909000  0.010400  0.587500  1
  C  C1735  1  0.909000  0.489600  0.087500  1
  C  C1736  1  0.091000  0.989600  0.412500  1
  C  C1737  1  0.070000  0.554700  0.923000  1
  C  C1738  1  0.930000  0.054700  0.577000  1
  C  C1739  1  0.930000  0.445300  0.077000  1
  C  C1740  1  0.070000  0.945300  0.423000  1
  C  C1741  1  0.768200  0.162200  0.702200  1
  C  C1742  1  0.231800  0.662200  0.797800  1
  C  C1743  1  0.231800  0.837800  0.297800  1
  C  C1744  1  0.768200  0.337800  0.202200  1
  C  C1745  1  0.689500  0.192300  0.700400  1
  C  C1746  1  0.310500  0.692300  0.799600  1
  C  C1747  1  0.310500  0.807700  0.299600  1
  C  C1748  1  0.689500  0.307700  0.200400  1
  C  C1749  1  0.678000  0.227500  0.684900  1
  C  C1750  1  0.322000  0.727500  0.815100  1
  C  C1751  1  0.322000  0.772500  0.315100  1
  C  C1752  1  0.678000  0.272500  0.184900  1
  C  C1753  1  0.625000  0.223900  0.665900  1
  C  C1754  1  0.375000  0.723900  0.834100  1
  C  C1755  1  0.375000  0.776100  0.334100  1
  C  C1756  1  0.625000  0.276100  0.165900  1
  C  C1757  1  0.581000  0.269800  0.662500  1
  C  C1758  1  0.419000  0.769800  0.837500  1
  C  C1759  1  0.419000  0.730200  0.337500  1
  C  C1760  1  0.581000  0.230200  0.162500  1
  C  C1761  1  0.521000  0.274000  0.644600  1
  C  C1762  1  0.479000  0.774000  0.855400  1
  C  C1763  1  0.479000  0.726000  0.355400  1
  C  C1764  1  0.521000  0.226000  0.144600  1
  N  N1765  1  0.757700  0.179900  0.981100  1
  N  N1766  1  0.242300  0.679900  0.518900  1
  N  N1767  1  0.242300  0.820100  0.018900  1
  N  N1768  1  0.757700  0.320100  0.481100  1
  N  N1769  1  0.478300  0.955100  0.884250  1
  N  N1770  1  0.521700  0.455100  0.615750  1
  N  N1771  1  0.521700  0.044900  0.115750  1
  N  N1772  1  0.478300  0.544900  0.384250  1
  N  N1773  1  0.519200  0.200100  0.776400  1
  N  N1774  1  0.480800  0.700100  0.723600  1
  N  N1775  1  0.480800  0.799900  0.223600  1
  N  N1776  1  0.519200  0.299900  0.276400  1
  N  N1777  1  0.612600  0.951000  0.672900  1
  N  N1778  1  0.387400  0.451000  0.827100  1
  N  N1779  1  0.387400  0.049000  0.327100  1
  N  N1780  1  0.612600  0.549000  0.172900  1
  N  N1781  1  0.319500  0.165600  0.572300  1
  N  N1782  1  0.680500  0.665600  0.927700  1
  N  N1783  1  0.680500  0.834400  0.427700  1
  N  N1784  1  0.319500  0.334400  0.072300  1
  N  N1785  1  0.884400  0.250000  0.975800  1
  N  N1786  1  0.115600  0.750000  0.524200  1
  N  N1787  1  0.115600  0.750000  0.024200  1
  N  N1788  1  0.884400  0.250000  0.475800  1
  N  N1789  1  0.199800  0.175700  0.850610  1
  N  N1790  1  0.800200  0.675700  0.649390  1
  N  N1791  1  0.800200  0.824300  0.149390  1
  N  N1792  1  0.199800  0.324300  0.350610  1
  N  N1793  1  0.647000  0.268600  0.770500  1
  N  N1794  1  0.353000  0.768600  0.729500  1
  N  N1795  1  0.353000  0.731400  0.229500  1
  N  N1796  1  0.647000  0.231400  0.270500  1
  N  N1797  1  0.986300  0.337900  0.646440  1
  N  N1798  1  0.013700  0.837900  0.853560  1
  N  N1799  1  0.013700  0.662100  0.353560  1
  N  N1800  1  0.986300  0.162100  0.146440  1
  N  N1801  1  0.450700  0.224300  0.565900  1
  N  N1802  1  0.549300  0.724300  0.934100  1
  N  N1803  1  0.549300  0.775700  0.434100  1
  N  N1804  1  0.450700  0.275700  0.065900  1
  N  N1805  1  0.751800  0.316500  0.981500  1
  N  N1806  1  0.248200  0.816500  0.518500  1
  N  N1807  1  0.248200  0.683500  0.018500  1
  N  N1808  1  0.751800  0.183500  0.481500  1
  N  N1809  1  0.810200  0.557600  0.873850  1
  N  N1810  1  0.189800  0.057600  0.626150  1
  N  N1811  1  0.189800  0.442400  0.126150  1
  N  N1812  1  0.810200  0.942400  0.373850  1
  N  N1813  1  0.525900  0.335700  0.775500  1
  N  N1814  1  0.474100  0.835700  0.724500  1
  N  N1815  1  0.474100  0.664300  0.224500  1
  N  N1816  1  0.525900  0.164300  0.275500  1
  N  N1817  1  0.270800  0.551800  0.670360  1
  N  N1818  1  0.729200  0.051800  0.829640  1
  N  N1819  1  0.729200  0.448200  0.329640  1
  N  N1820  1  0.270800  0.948200  0.170360  1
  N  N1821  1  0.323500  0.294200  0.568500  1
  N  N1822  1  0.676500  0.794200  0.931500  1
  N  N1823  1  0.676500  0.705800  0.431500  1
  N  N1824  1  0.323500  0.205800  0.068500  1
  N  N1825  1  0.633600  0.245400  0.985000  1
  N  N1826  1  0.366400  0.745400  0.515000  1
  N  N1827  1  0.366400  0.754600  0.015000  1
  N  N1828  1  0.633600  0.254600  0.485000  1
  N  N1829  1  0.072400  0.331500  0.907210  1
  N  N1830  1  0.927600  0.831500  0.592790  1
  N  N1831  1  0.927600  0.668500  0.092790  1
  N  N1832  1  0.072400  0.168500  0.407210  1
  N  N1833  1  0.398300  0.269200  0.781000  1
  N  N1834  1  0.601700  0.769200  0.719000  1
  N  N1835  1  0.601700  0.730800  0.219000  1
  N  N1836  1  0.398300  0.230800  0.281000  1
  N  N1837  1  0.850100  0.184000  0.698030  1
  N  N1838  1  0.149900  0.684000  0.801970  1
  N  N1839  1  0.149900  0.816000  0.301970  1
  N  N1840  1  0.850100  0.316000  0.198030  1
  N  N1841  1  0.196600  0.229600  0.574200  1
  N  N1842  1  0.803400  0.729600  0.925800  1
  N  N1843  1  0.803400  0.770400  0.425800  1
  N  N1844  1  0.196600  0.270400  0.074200  1
  F  F1845  1  0.605000  0.221900  0.929600  1
  F  F1846  1  0.395000  0.721900  0.570400  1
  F  F1847  1  0.395000  0.778100  0.070400  1
  F  F1848  1  0.605000  0.278100  0.429600  1
  F  F1849  1  0.677500  0.251400  0.904300  1
  F  F1850  1  0.322500  0.751400  0.595700  1
  F  F1851  1  0.322500  0.748600  0.095700  1
  F  F1852  1  0.677500  0.248600  0.404300  1
  F  F1853  1  0.741300  0.243300  0.933800  1
  F  F1854  1  0.258700  0.743300  0.566200  1
  F  F1855  1  0.258700  0.756700  0.066200  1
  F  F1856  1  0.741300  0.256700  0.433800  1
  F  F1857  1  0.638000  0.295400  0.929600  1
  F  F1858  1  0.362000  0.795400  0.570400  1
  F  F1859  1  0.362000  0.704600  0.070400  1
  F  F1860  1  0.638000  0.204600  0.429600  1
  F  F1861  1  0.771600  0.250500  0.027200  1
  F  F1862  1  0.228400  0.750500  0.472800  1
  F  F1863  1  0.228400  0.749500  0.972800  1
  F  F1864  1  0.771600  0.249500  0.527200  1
  F  F1865  1  0.894600  0.208500  0.033300  1
  F  F1866  1  0.105400  0.708500  0.466700  1
  F  F1867  1  0.105400  0.791500  0.966700  1
  F  F1868  1  0.894600  0.291500  0.533300  1
  F  F1869  1  0.890200  0.284700  0.034000  1
  F  F1870  1  0.109800  0.784700  0.466000  1
  F  F1871  1  0.109800  0.715300  0.966000  1
  F  F1872  1  0.890200  0.215300  0.534000  1
  F  F1873  1  0.830100  0.248900  0.057700  1
  F  F1874  1  0.169900  0.748900  0.442300  1
  F  F1875  1  0.169900  0.751100  0.942300  1
  F  F1876  1  0.830100  0.251100  0.557700  1
  F  F1877  1  0.448900  0.260100  0.699500  1
  F  F1878  1  0.551100  0.760100  0.800500  1
  F  F1879  1  0.551100  0.739900  0.300500  1
  F  F1880  1  0.448900  0.239900  0.199500  1
  F  F1881  1  0.504000  0.265300  0.731500  1
  F  F1882  1  0.496000  0.765300  0.768500  1
  F  F1883  1  0.496000  0.734700  0.268500  1
  F  F1884  1  0.504000  0.234700  0.231500  1
  F  F1885  1  0.395400  0.305300  0.722300  1
  F  F1886  1  0.604600  0.805300  0.777700  1
  F  F1887  1  0.604600  0.694700  0.277700  1
  F  F1888  1  0.395400  0.194700  0.222300  1
  F  F1889  1  0.383600  0.227700  0.723200  1
  F  F1890  1  0.616400  0.727700  0.776800  1
  F  F1891  1  0.616400  0.772300  0.276800  1
  F  F1892  1  0.383600  0.272300  0.223200  1
  F  F1893  1  0.306100  0.225400  0.524800  1
  F  F1894  1  0.693900  0.725400  0.975200  1
  F  F1895  1  0.693900  0.774600  0.475200  1
  F  F1896  1  0.306100  0.274600  0.024800  1
  F  F1897  1  0.192800  0.272600  0.517000  1
  F  F1898  1  0.807200  0.772600  0.983000  1
  F  F1899  1  0.807200  0.727400  0.483000  1
  F  F1900  1  0.192800  0.227400  0.017000  1
  F  F1901  1  0.177300  0.194800  0.517500  1
  F  F1902  1  0.822700  0.694800  0.982500  1
  F  F1903  1  0.822700  0.805200  0.482500  1
  F  F1904  1  0.177300  0.305200  0.017500  1
  F  F1905  1  0.245800  0.228400  0.494300  1
  F  F1906  1  0.754200  0.728400  0.005700  1
  F  F1907  1  0.754200  0.771600  0.505700  1
  F  F1908  1  0.245800  0.271600  0.994300  1
  F  F1909  1  0.568500  0.270800  0.821400  1
  F  F1910  1  0.431500  0.770800  0.678600  1
  F  F1911  1  0.431500  0.729200  0.178600  1
  F  F1912  1  0.568500  0.229200  0.321400  1
  F  F1913  1  0.547000  0.207500  0.837700  1
  F  F1914  1  0.453000  0.707500  0.662300  1
  F  F1915  1  0.453000  0.792500  0.162300  1
  F  F1916  1  0.547000  0.292500  0.337700  1
  F  F1917  1  0.683000  0.231000  0.834600  1
  F  F1918  1  0.317000  0.731000  0.665400  1
  F  F1919  1  0.317000  0.769000  0.165400  1
  F  F1920  1  0.683000  0.269000  0.334600  1
  F  F1921  1  0.593000  0.271000  0.853800  1
  F  F1922  1  0.407000  0.771000  0.646200  1
  F  F1923  1  0.407000  0.729000  0.146200  1
  F  F1924  1  0.593000  0.229000  0.353800  1
  F  F1925  1  0.373100  0.228500  0.611800  1
  F  F1926  1  0.626900  0.728500  0.888200  1
  F  F1927  1  0.626900  0.771500  0.388200  1
  F  F1928  1  0.373100  0.271500  0.111800  1
  F  F1929  1  0.287000  0.190600  0.630200  1
  F  F1930  1  0.713000  0.690600  0.869800  1
  F  F1931  1  0.713000  0.809400  0.369800  1
  F  F1932  1  0.287000  0.309400  0.130200  1
  F  F1933  1  0.284000  0.268700  0.628800  1
  F  F1934  1  0.716000  0.768700  0.871200  1
  F  F1935  1  0.716000  0.731300  0.371200  1
  F  F1936  1  0.284000  0.231300  0.128800  1
  F  F1937  1  0.391000  0.232400  0.645400  1
  F  F1938  1  0.609000  0.732400  0.854600  1
  F  F1939  1  0.609000  0.767600  0.354600  1
  F  F1940  1  0.391000  0.267600  0.145400  1
