# generated using pymatgen
data_B27H784Pd12C944N80(ClF12)10
_symmetry_space_group_name_H-M   'P 1'
_cell_length_a   34.85300000
_cell_length_b   46.81200000
_cell_length_c   60.66000000
_cell_angle_alpha   90.00000000
_cell_angle_beta   90.00000000
_cell_angle_gamma   90.00000000
_symmetry_Int_Tables_number   1
_chemical_formula_structural   B27H784Pd12C944N80(ClF12)10
_chemical_formula_sum   'B108 H3136 Pd48 C3776 N320 Cl40 F480'
_cell_volume   98969.13365976
_cell_formula_units_Z   4
loop_
 _symmetry_equiv_pos_site_id
 _symmetry_equiv_pos_as_xyz
  1  'x, y, z'
loop_
 _atom_site_type_symbol
 _atom_site_label
 _atom_site_symmetry_multiplicity
 _atom_site_fract_x
 _atom_site_fract_y
 _atom_site_fract_z
 _atom_site_occupancy
  B  B1  1  0.853000  0.629000  0.474920  1
  B  B2  1  0.853000  0.871000  0.025080  1
  B  B3  1  0.647000  0.371000  0.974920  1
  B  B4  1  0.647000  0.129000  0.525080  1
  B  B5  1  0.147000  0.371000  0.525080  1
  B  B6  1  0.147000  0.129000  0.974920  1
  B  B7  1  0.353000  0.629000  0.025080  1
  B  B8  1  0.353000  0.871000  0.474920  1
  B  B9  1  0.777400  0.628300  0.368200  1
  B  B10  1  0.777400  0.871700  0.131800  1
  B  B11  1  0.722600  0.371700  0.868200  1
  B  B12  1  0.722600  0.128300  0.631800  1
  B  B13  1  0.222600  0.371700  0.631800  1
  B  B14  1  0.222600  0.128300  0.868200  1
  B  B15  1  0.277400  0.628300  0.131800  1
  B  B16  1  0.277400  0.871700  0.368200  1
  B  B17  1  0.920000  0.628630  0.579750  1
  B  B18  1  0.920000  0.871370  0.920250  1
  B  B19  1  0.580000  0.371370  0.079750  1
  B  B20  1  0.580000  0.128630  0.420250  1
  B  B21  1  0.080000  0.371370  0.420250  1
  B  B22  1  0.080000  0.128630  0.079750  1
  B  B23  1  0.420000  0.628630  0.920250  1
  B  B24  1  0.420000  0.871370  0.579750  1
  B  B25  1  0.989400  0.626800  0.689700  1
  B  B26  1  0.989400  0.873200  0.810300  1
  B  B27  1  0.510600  0.373200  0.189700  1
  B  B28  1  0.510600  0.126800  0.310300  1
  B  B29  1  0.010600  0.373200  0.310300  1
  B  B30  1  0.010600  0.126800  0.189700  1
  B  B31  1  0.489400  0.626800  0.810300  1
  B  B32  1  0.489400  0.873200  0.689700  1
  B  B33  1  0.541700  0.611900  0.318500  1
  B  B34  1  0.541700  0.888100  0.181500  1
  B  B35  1  0.958300  0.388100  0.818500  1
  B  B36  1  0.958300  0.111900  0.681500  1
  B  B37  1  0.458300  0.388100  0.681500  1
  B  B38  1  0.458300  0.111900  0.818500  1
  B  B39  1  0.041700  0.611900  0.181500  1
  B  B40  1  0.041700  0.888100  0.318500  1
  B  B41  1  0.789400  0.236500  0.301400  1
  B  B42  1  0.789400  0.263500  0.198600  1
  B  B43  1  0.710600  0.763500  0.801400  1
  B  B44  1  0.710600  0.736500  0.698600  1
  B  B45  1  0.210600  0.763500  0.698600  1
  B  B46  1  0.210600  0.736500  0.801400  1
  B  B47  1  0.289400  0.236500  0.198600  1
  B  B48  1  0.289400  0.263500  0.301400  1
  B  B49  1  0.062200  0.480600  0.669300  1
  B  B50  1  0.062200  0.019400  0.830700  1
  B  B51  1  0.437800  0.519400  0.169300  1
  B  B52  1  0.437800  0.980600  0.330700  1
  B  B53  1  0.937800  0.519400  0.330700  1
  B  B54  1  0.937800  0.980600  0.169300  1
  B  B55  1  0.562200  0.480600  0.830700  1
  B  B56  1  0.562200  0.019400  0.669300  1
  B  B57  1  0.376400  0.268600  0.414400  1
  B  B58  1  0.376400  0.231400  0.085600  1
  B  B59  1  0.123600  0.731400  0.914400  1
  B  B60  1  0.123600  0.768600  0.585600  1
  B  B61  1  0.623600  0.731400  0.585600  1
  B  B62  1  0.623600  0.768600  0.914400  1
  B  B63  1  0.876400  0.268600  0.085600  1
  B  B64  1  0.876400  0.231400  0.414400  1
  B  B65  1  0.893900  0.201200  0.530800  1
  B  B66  1  0.893900  0.298800  0.969200  1
  B  B67  1  0.606100  0.798800  0.030800  1
  B  B68  1  0.606100  0.701200  0.469200  1
  B  B69  1  0.106100  0.798800  0.469200  1
  B  B70  1  0.106100  0.701200  0.030800  1
  B  B71  1  0.393900  0.201200  0.969200  1
  B  B72  1  0.393900  0.298800  0.530800  1
  B  B73  1  0.994400  0.629100  0.685400  1
  B  B74  1  0.994400  0.870900  0.814600  1
  B  B75  1  0.505600  0.370900  0.185400  1
  B  B76  1  0.505600  0.129100  0.314600  1
  B  B77  1  0.005600  0.370900  0.314600  1
  B  B78  1  0.005600  0.129100  0.185400  1
  B  B79  1  0.494400  0.629100  0.814600  1
  B  B80  1  0.494400  0.870900  0.685400  1
  B  B81  1  0.694300  0.539800  0.235400  1
  B  B82  1  0.694300  0.960200  0.264600  1
  B  B83  1  0.805700  0.460200  0.735400  1
  B  B84  1  0.805700  0.039800  0.764600  1
  B  B85  1  0.305700  0.460200  0.764600  1
  B  B86  1  0.305700  0.039800  0.735400  1
  B  B87  1  0.194300  0.539800  0.264600  1
  B  B88  1  0.194300  0.960200  0.235400  1
  B  B89  1  0.333700  0.288200  0.437700  1
  B  B90  1  0.333700  0.211800  0.062300  1
  B  B91  1  0.166300  0.711800  0.937700  1
  B  B92  1  0.166300  0.788200  0.562300  1
  B  B93  1  0.666300  0.711800  0.562300  1
  B  B94  1  0.666300  0.788200  0.937700  1
  B  B95  1  0.833700  0.288200  0.062300  1
  B  B96  1  0.833700  0.211800  0.437700  1
  B  B97  1  0.926600  0.234500  0.506300  1
  B  B98  1  0.926600  0.265500  0.993700  1
  B  B99  1  0.573400  0.765500  0.006300  1
  B  B100  1  0.573400  0.734500  0.493700  1
  B  B101  1  0.073400  0.765500  0.493700  1
  B  B102  1  0.073400  0.734500  0.006300  1
  B  B103  1  0.426600  0.234500  0.993700  1
  B  B104  1  0.426600  0.265500  0.506300  1
  B  B105  1  0.888700  0.250000  0.250000  1
  B  B106  1  0.611300  0.750000  0.750000  1
  B  B107  1  0.111300  0.750000  0.750000  1
  B  B108  1  0.388700  0.250000  0.250000  1
  H  H109  1  0.924500  0.434800  0.787100  1
  H  H110  1  0.924500  0.065200  0.712900  1
  H  H111  1  0.575500  0.565200  0.287100  1
  H  H112  1  0.575500  0.934800  0.212900  1
  H  H113  1  0.075500  0.565200  0.212900  1
  H  H114  1  0.075500  0.934800  0.287100  1
  H  H115  1  0.424500  0.434800  0.712900  1
  H  H116  1  0.424500  0.065200  0.787100  1
  H  H117  1  0.926500  0.483700  0.790100  1
  H  H118  1  0.926500  0.016300  0.709900  1
  H  H119  1  0.573500  0.516300  0.290100  1
  H  H120  1  0.573500  0.983700  0.209900  1
  H  H121  1  0.073500  0.516300  0.209900  1
  H  H122  1  0.073500  0.983700  0.290100  1
  H  H123  1  0.426500  0.483700  0.709900  1
  H  H124  1  0.426500  0.016300  0.790100  1
  H  H125  1  0.925600  0.510900  0.757200  1
  H  H126  1  0.925600  0.989100  0.742800  1
  H  H127  1  0.574400  0.489100  0.257200  1
  H  H128  1  0.574400  0.010900  0.242800  1
  H  H129  1  0.074400  0.489100  0.242800  1
  H  H130  1  0.074400  0.010900  0.257200  1
  H  H131  1  0.425600  0.510900  0.742800  1
  H  H132  1  0.425600  0.989100  0.757200  1
  H  H133  1  0.918800  0.437400  0.722900  1
  H  H134  1  0.918800  0.062600  0.777100  1
  H  H135  1  0.581200  0.562600  0.222900  1
  H  H136  1  0.581200  0.937400  0.277100  1
  H  H137  1  0.081200  0.562600  0.277100  1
  H  H138  1  0.081200  0.937400  0.222900  1
  H  H139  1  0.418800  0.437400  0.777100  1
  H  H140  1  0.418800  0.062600  0.722900  1
  H  H141  1  0.957000  0.552500  0.695000  1
  H  H142  1  0.957000  0.947500  0.805000  1
  H  H143  1  0.543000  0.447500  0.195000  1
  H  H144  1  0.543000  0.052500  0.305000  1
  H  H145  1  0.043000  0.447500  0.305000  1
  H  H146  1  0.043000  0.052500  0.195000  1
  H  H147  1  0.457000  0.552500  0.805000  1
  H  H148  1  0.457000  0.947500  0.695000  1
  H  H149  1  0.978600  0.577700  0.664300  1
  H  H150  1  0.978600  0.922300  0.835700  1
  H  H151  1  0.521400  0.422300  0.164300  1
  H  H152  1  0.521400  0.077700  0.335700  1
  H  H153  1  0.021400  0.422300  0.335700  1
  H  H154  1  0.021400  0.077700  0.164300  1
  H  H155  1  0.478600  0.577700  0.835700  1
  H  H156  1  0.478600  0.922300  0.664300  1
  H  H157  1  0.920400  0.486200  0.658000  1
  H  H158  1  0.920400  0.013800  0.842000  1
  H  H159  1  0.579600  0.513800  0.158000  1
  H  H160  1  0.579600  0.986200  0.342000  1
  H  H161  1  0.079600  0.513800  0.342000  1
  H  H162  1  0.079600  0.986200  0.158000  1
  H  H163  1  0.420400  0.486200  0.842000  1
  H  H164  1  0.420400  0.013800  0.658000  1
  H  H165  1  0.978800  0.552600  0.577400  1
  H  H166  1  0.978800  0.947400  0.922600  1
  H  H167  1  0.521200  0.447400  0.077400  1
  H  H168  1  0.521200  0.052600  0.422600  1
  H  H169  1  0.021200  0.447400  0.422600  1
  H  H170  1  0.021200  0.052600  0.077400  1
  H  H171  1  0.478800  0.552600  0.922600  1
  H  H172  1  0.478800  0.947400  0.577400  1
  H  H173  1  0.956000  0.514100  0.556800  1
  H  H174  1  0.956000  0.985900  0.943200  1
  H  H175  1  0.544000  0.485900  0.056800  1
  H  H176  1  0.544000  0.014100  0.443200  1
  H  H177  1  0.044000  0.485900  0.443200  1
  H  H178  1  0.044000  0.014100  0.056800  1
  H  H179  1  0.456000  0.514100  0.943200  1
  H  H180  1  0.456000  0.985900  0.556800  1
  H  H181  1  0.918500  0.473900  0.612100  1
  H  H182  1  0.918500  0.026100  0.887900  1
  H  H183  1  0.581500  0.526100  0.112100  1
  H  H184  1  0.581500  0.973900  0.387900  1
  H  H185  1  0.081500  0.526100  0.387900  1
  H  H186  1  0.081500  0.973900  0.112100  1
  H  H187  1  0.418500  0.473900  0.887900  1
  H  H188  1  0.418500  0.026100  0.612100  1
  H  H189  1  0.924700  0.436300  0.515500  1
  H  H190  1  0.924700  0.063700  0.984500  1
  H  H191  1  0.575300  0.563700  0.015500  1
  H  H192  1  0.575300  0.936300  0.484500  1
  H  H193  1  0.075300  0.563700  0.484500  1
  H  H194  1  0.075300  0.936300  0.015500  1
  H  H195  1  0.424700  0.436300  0.984500  1
  H  H196  1  0.424700  0.063700  0.515500  1
  H  H197  1  0.832100  0.386300  0.505200  1
  H  H198  1  0.832100  0.113700  0.994800  1
  H  H199  1  0.667900  0.613700  0.005200  1
  H  H200  1  0.667900  0.886300  0.494800  1
  H  H201  1  0.167900  0.613700  0.494800  1
  H  H202  1  0.167900  0.886300  0.005200  1
  H  H203  1  0.332100  0.386300  0.994800  1
  H  H204  1  0.332100  0.113700  0.505200  1
  H  H205  1  0.848000  0.419600  0.563900  1
  H  H206  1  0.848000  0.080400  0.936100  1
  H  H207  1  0.652000  0.580400  0.063900  1
  H  H208  1  0.652000  0.919600  0.436100  1
  H  H209  1  0.152000  0.580400  0.436100  1
  H  H210  1  0.152000  0.919600  0.063900  1
  H  H211  1  0.348000  0.419600  0.936100  1
  H  H212  1  0.348000  0.080400  0.563900  1
  H  H213  1  0.972500  0.392800  0.452000  1
  H  H214  1  0.972500  0.107200  0.048000  1
  H  H215  1  0.527500  0.607200  0.952000  1
  H  H216  1  0.527500  0.892800  0.548000  1
  H  H217  1  0.027500  0.607200  0.548000  1
  H  H218  1  0.027500  0.892800  0.952000  1
  H  H219  1  0.472500  0.392800  0.048000  1
  H  H220  1  0.472500  0.107200  0.452000  1
  H  H221  1  0.995500  0.369100  0.420800  1
  H  H222  1  0.995500  0.130900  0.079200  1
  H  H223  1  0.504500  0.630900  0.920800  1
  H  H224  1  0.504500  0.869100  0.579200  1
  H  H225  1  0.004500  0.630900  0.579200  1
  H  H226  1  0.004500  0.869100  0.920800  1
  H  H227  1  0.495500  0.369100  0.079200  1
  H  H228  1  0.495500  0.130900  0.420800  1
  H  H229  1  0.862600  0.371300  0.436400  1
  H  H230  1  0.862600  0.128700  0.063600  1
  H  H231  1  0.637400  0.628700  0.936400  1
  H  H232  1  0.637400  0.871300  0.563600  1
  H  H233  1  0.137400  0.628700  0.563600  1
  H  H234  1  0.137400  0.871300  0.936400  1
  H  H235  1  0.362600  0.371300  0.063600  1
  H  H236  1  0.362600  0.128700  0.436400  1
  H  H237  1  0.925100  0.312300  0.353700  1
  H  H238  1  0.925100  0.187700  0.146300  1
  H  H239  1  0.574900  0.687700  0.853700  1
  H  H240  1  0.574900  0.812300  0.646300  1
  H  H241  1  0.074900  0.687700  0.646300  1
  H  H242  1  0.074900  0.812300  0.853700  1
  H  H243  1  0.425100  0.312300  0.146300  1
  H  H244  1  0.425100  0.187700  0.353700  1
  H  H245  1  0.861500  0.301000  0.346000  1
  H  H246  1  0.861500  0.199000  0.154000  1
  H  H247  1  0.638500  0.699000  0.846000  1
  H  H248  1  0.638500  0.801000  0.654000  1
  H  H249  1  0.138500  0.699000  0.654000  1
  H  H250  1  0.138500  0.801000  0.846000  1
  H  H251  1  0.361500  0.301000  0.154000  1
  H  H252  1  0.361500  0.199000  0.346000  1
  H  H253  1  0.825500  0.341900  0.401200  1
  H  H254  1  0.825500  0.158100  0.098800  1
  H  H255  1  0.674500  0.658100  0.901200  1
  H  H256  1  0.674500  0.841900  0.598800  1
  H  H257  1  0.174500  0.658100  0.598800  1
  H  H258  1  0.174500  0.841900  0.901200  1
  H  H259  1  0.325500  0.341900  0.098800  1
  H  H260  1  0.325500  0.158100  0.401200  1
  H  H261  1  0.737100  0.275900  0.329500  1
  H  H262  1  0.737100  0.224100  0.170500  1
  H  H263  1  0.762900  0.724100  0.829500  1
  H  H264  1  0.762900  0.775900  0.670500  1
  H  H265  1  0.262900  0.724100  0.670500  1
  H  H266  1  0.262900  0.775900  0.829500  1
  H  H267  1  0.237100  0.275900  0.170500  1
  H  H268  1  0.237100  0.224100  0.329500  1
  H  H269  1  0.678900  0.280200  0.310700  1
  H  H270  1  0.678900  0.219800  0.189300  1
  H  H271  1  0.821100  0.719800  0.810700  1
  H  H272  1  0.821100  0.780200  0.689300  1
  H  H273  1  0.321100  0.719800  0.689300  1
  H  H274  1  0.321100  0.780200  0.810700  1
  H  H275  1  0.178900  0.280200  0.189300  1
  H  H276  1  0.178900  0.219800  0.310700  1
  H  H277  1  0.638500  0.318500  0.318100  1
  H  H278  1  0.638500  0.181500  0.181900  1
  H  H279  1  0.861500  0.681500  0.818100  1
  H  H280  1  0.861500  0.818500  0.681900  1
  H  H281  1  0.361500  0.681500  0.681900  1
  H  H282  1  0.361500  0.818500  0.818100  1
  H  H283  1  0.138500  0.318500  0.181900  1
  H  H284  1  0.138500  0.181500  0.318100  1
  H  H285  1  0.710100  0.347700  0.362900  1
  H  H286  1  0.710100  0.152300  0.137100  1
  H  H287  1  0.789900  0.652300  0.862900  1
  H  H288  1  0.789900  0.847700  0.637100  1
  H  H289  1  0.289900  0.652300  0.637100  1
  H  H290  1  0.289900  0.847700  0.862900  1
  H  H291  1  0.210100  0.347700  0.137100  1
  H  H292  1  0.210100  0.152300  0.362900  1
  H  H293  1  0.985100  0.596900  0.627700  1
  H  H294  1  0.985100  0.903100  0.872300  1
  H  H295  1  0.514900  0.403100  0.127700  1
  H  H296  1  0.514900  0.096900  0.372300  1
  H  H297  1  0.014900  0.403100  0.372300  1
  H  H298  1  0.014900  0.096900  0.127700  1
  H  H299  1  0.485100  0.596900  0.872300  1
  H  H300  1  0.485100  0.903100  0.627700  1
  H  H301  1  0.992000  0.587000  0.602800  1
  H  H302  1  0.992000  0.913000  0.897200  1
  H  H303  1  0.508000  0.413000  0.102800  1
  H  H304  1  0.508000  0.087000  0.397200  1
  H  H305  1  0.008000  0.413000  0.397200  1
  H  H306  1  0.008000  0.087000  0.102800  1
  H  H307  1  0.492000  0.587000  0.897200  1
  H  H308  1  0.492000  0.913000  0.602800  1
  H  H309  1  0.050600  0.595400  0.622200  1
  H  H310  1  0.050600  0.904600  0.877800  1
  H  H311  1  0.449400  0.404600  0.122200  1
  H  H312  1  0.449400  0.095400  0.377800  1
  H  H313  1  0.949400  0.404600  0.377800  1
  H  H314  1  0.949400  0.095400  0.122200  1
  H  H315  1  0.550600  0.595400  0.877800  1
  H  H316  1  0.550600  0.904600  0.622200  1
  H  H317  1  0.040000  0.569900  0.638600  1
  H  H318  1  0.040000  0.930100  0.861400  1
  H  H319  1  0.460000  0.430100  0.138600  1
  H  H320  1  0.460000  0.069900  0.361400  1
  H  H321  1  0.960000  0.430100  0.361400  1
  H  H322  1  0.960000  0.069900  0.138600  1
  H  H323  1  0.540000  0.569900  0.861400  1
  H  H324  1  0.540000  0.930100  0.638600  1
  H  H325  1  0.040600  0.538300  0.608300  1
  H  H326  1  0.040600  0.961700  0.891700  1
  H  H327  1  0.459400  0.461700  0.108300  1
  H  H328  1  0.459400  0.038300  0.391700  1
  H  H329  1  0.959400  0.461700  0.391700  1
  H  H330  1  0.959400  0.038300  0.108300  1
  H  H331  1  0.540600  0.538300  0.891700  1
  H  H332  1  0.540600  0.961700  0.608300  1
  H  H333  1  0.054500  0.563900  0.593000  1
  H  H334  1  0.054500  0.936100  0.907000  1
  H  H335  1  0.445500  0.436100  0.093000  1
  H  H336  1  0.445500  0.063900  0.407000  1
  H  H337  1  0.945500  0.436100  0.407000  1
  H  H338  1  0.945500  0.063900  0.093000  1
  H  H339  1  0.554500  0.563900  0.907000  1
  H  H340  1  0.554500  0.936100  0.593000  1
  H  H341  1  0.113700  0.564300  0.609500  1
  H  H342  1  0.113700  0.935700  0.890500  1
  H  H343  1  0.386300  0.435700  0.109500  1
  H  H344  1  0.386300  0.064300  0.390500  1
  H  H345  1  0.886300  0.435700  0.390500  1
  H  H346  1  0.886300  0.064300  0.109500  1
  H  H347  1  0.613700  0.564300  0.890500  1
  H  H348  1  0.613700  0.935700  0.609500  1
  H  H349  1  0.100000  0.541500  0.627500  1
  H  H350  1  0.100000  0.958500  0.872500  1
  H  H351  1  0.400000  0.458500  0.127500  1
  H  H352  1  0.400000  0.041500  0.372500  1
  H  H353  1  0.900000  0.458500  0.372500  1
  H  H354  1  0.900000  0.041500  0.127500  1
  H  H355  1  0.600000  0.541500  0.872500  1
  H  H356  1  0.600000  0.958500  0.627500  1
  H  H357  1  0.089400  0.508600  0.597300  1
  H  H358  1  0.089400  0.991400  0.902700  1
  H  H359  1  0.410600  0.491400  0.097300  1
  H  H360  1  0.410600  0.008600  0.402700  1
  H  H361  1  0.910600  0.491400  0.402700  1
  H  H362  1  0.910600  0.008600  0.097300  1
  H  H363  1  0.589400  0.508600  0.902700  1
  H  H364  1  0.589400  0.991400  0.597300  1
  H  H365  1  0.111900  0.531000  0.582000  1
  H  H366  1  0.111900  0.969000  0.918000  1
  H  H367  1  0.388100  0.469000  0.082000  1
  H  H368  1  0.388100  0.031000  0.418000  1
  H  H369  1  0.888100  0.469000  0.418000  1
  H  H370  1  0.888100  0.031000  0.082000  1
  H  H371  1  0.611900  0.531000  0.918000  1
  H  H372  1  0.611900  0.969000  0.582000  1
  H  H373  1  0.154400  0.497000  0.596000  1
  H  H374  1  0.154400  0.003000  0.904000  1
  H  H375  1  0.345600  0.503000  0.096000  1
  H  H376  1  0.345600  0.997000  0.404000  1
  H  H377  1  0.845600  0.503000  0.404000  1
  H  H378  1  0.845600  0.997000  0.096000  1
  H  H379  1  0.654400  0.497000  0.904000  1
  H  H380  1  0.654400  0.003000  0.596000  1
  H  H381  1  0.165100  0.528000  0.605300  1
  H  H382  1  0.165100  0.972000  0.894700  1
  H  H383  1  0.334900  0.472000  0.105300  1
  H  H384  1  0.334900  0.028000  0.394700  1
  H  H385  1  0.834900  0.472000  0.394700  1
  H  H386  1  0.834900  0.028000  0.105300  1
  H  H387  1  0.665100  0.528000  0.894700  1
  H  H388  1  0.665100  0.972000  0.605300  1
  H  H389  1  0.142600  0.505700  0.620600  1
  H  H390  1  0.142600  0.994300  0.879400  1
  H  H391  1  0.357400  0.494300  0.120600  1
  H  H392  1  0.357400  0.005700  0.379400  1
  H  H393  1  0.857400  0.494300  0.379400  1
  H  H394  1  0.857400  0.005700  0.120600  1
  H  H395  1  0.642600  0.505700  0.879400  1
  H  H396  1  0.642600  0.994300  0.620600  1
  H  H397  1  0.005600  0.348300  0.388000  1
  H  H398  1  0.005600  0.151700  0.112000  1
  H  H399  1  0.494400  0.651700  0.888000  1
  H  H400  1  0.494400  0.848300  0.612000  1
  H  H401  1  0.994400  0.651700  0.612000  1
  H  H402  1  0.994400  0.848300  0.888000  1
  H  H403  1  0.505600  0.348300  0.112000  1
  H  H404  1  0.505600  0.151700  0.388000  1
  H  H405  1  0.985700  0.339900  0.365100  1
  H  H406  1  0.985700  0.160100  0.134900  1
  H  H407  1  0.514300  0.660100  0.865100  1
  H  H408  1  0.514300  0.839900  0.634900  1
  H  H409  1  0.014300  0.660100  0.634900  1
  H  H410  1  0.014300  0.839900  0.865100  1
  H  H411  1  0.485700  0.339900  0.134900  1
  H  H412  1  0.485700  0.160100  0.365100  1
  H  H413  1  0.981300  0.293500  0.374900  1
  H  H414  1  0.981300  0.206500  0.125100  1
  H  H415  1  0.518700  0.706500  0.874900  1
  H  H416  1  0.518700  0.793500  0.625100  1
  H  H417  1  0.018700  0.706500  0.625100  1
  H  H418  1  0.018700  0.793500  0.874900  1
  H  H419  1  0.481300  0.293500  0.125100  1
  H  H420  1  0.481300  0.206500  0.374900  1
  H  H421  1  0.024300  0.303400  0.379100  1
  H  H422  1  0.024300  0.196600  0.120900  1
  H  H423  1  0.475700  0.696600  0.879100  1
  H  H424  1  0.475700  0.803400  0.620900  1
  H  H425  1  0.975700  0.696600  0.620900  1
  H  H426  1  0.975700  0.803400  0.879100  1
  H  H427  1  0.524300  0.303400  0.120900  1
  H  H428  1  0.524300  0.196600  0.379100  1
  H  H429  1  0.970600  0.298500  0.413100  1
  H  H430  1  0.970600  0.201500  0.086900  1
  H  H431  1  0.529400  0.701500  0.913100  1
  H  H432  1  0.529400  0.798500  0.586900  1
  H  H433  1  0.029400  0.701500  0.586900  1
  H  H434  1  0.029400  0.798500  0.913100  1
  H  H435  1  0.470600  0.298500  0.086900  1
  H  H436  1  0.470600  0.201500  0.413100  1
  H  H437  1  0.015700  0.303200  0.415800  1
  H  H438  1  0.015700  0.196800  0.084200  1
  H  H439  1  0.484300  0.696800  0.915800  1
  H  H440  1  0.484300  0.803200  0.584200  1
  H  H441  1  0.984300  0.696800  0.584200  1
  H  H442  1  0.984300  0.803200  0.915800  1
  H  H443  1  0.515700  0.303200  0.084200  1
  H  H444  1  0.515700  0.196800  0.415800  1
  H  H445  1  0.981100  0.252100  0.400000  1
  H  H446  1  0.981100  0.247900  0.100000  1
  H  H447  1  0.518900  0.747900  0.900000  1
  H  H448  1  0.518900  0.752100  0.600000  1
  H  H449  1  0.018900  0.747900  0.600000  1
  H  H450  1  0.018900  0.752100  0.900000  1
  H  H451  1  0.481100  0.252100  0.100000  1
  H  H452  1  0.481100  0.247900  0.400000  1
  H  H453  1  0.026500  0.256800  0.401700  1
  H  H454  1  0.026500  0.243200  0.098300  1
  H  H455  1  0.473500  0.743200  0.901700  1
  H  H456  1  0.473500  0.756800  0.598300  1
  H  H457  1  0.973500  0.743200  0.598300  1
  H  H458  1  0.973500  0.756800  0.901700  1
  H  H459  1  0.526500  0.256800  0.098300  1
  H  H460  1  0.526500  0.243200  0.401700  1
  H  H461  1  0.024400  0.258800  0.438400  1
  H  H462  1  0.024400  0.241200  0.061600  1
  H  H463  1  0.475600  0.741200  0.938400  1
  H  H464  1  0.475600  0.758800  0.561600  1
  H  H465  1  0.975600  0.741200  0.561600  1
  H  H466  1  0.975600  0.758800  0.938400  1
  H  H467  1  0.524400  0.258800  0.061600  1
  H  H468  1  0.524400  0.241200  0.438400  1
  H  H469  1  0.978900  0.261100  0.438600  1
  H  H470  1  0.978900  0.238900  0.061400  1
  H  H471  1  0.521100  0.738900  0.938600  1
  H  H472  1  0.521100  0.761100  0.561400  1
  H  H473  1  0.021100  0.738900  0.561400  1
  H  H474  1  0.021100  0.761100  0.938600  1
  H  H475  1  0.478900  0.261100  0.061400  1
  H  H476  1  0.478900  0.238900  0.438600  1
  H  H477  1  0.998100  0.220000  0.452600  1
  H  H478  1  0.998100  0.280000  0.047400  1
  H  H479  1  0.501900  0.780000  0.952600  1
  H  H480  1  0.501900  0.720000  0.547400  1
  H  H481  1  0.001900  0.780000  0.547400  1
  H  H482  1  0.001900  0.720000  0.952600  1
  H  H483  1  0.498100  0.220000  0.047400  1
  H  H484  1  0.498100  0.280000  0.452600  1
  H  H485  1  0.974400  0.214400  0.430400  1
  H  H486  1  0.974400  0.285600  0.069600  1
  H  H487  1  0.525600  0.785600  0.930400  1
  H  H488  1  0.525600  0.714400  0.569600  1
  H  H489  1  0.025600  0.785600  0.569600  1
  H  H490  1  0.025600  0.714400  0.930400  1
  H  H491  1  0.474400  0.214400  0.069600  1
  H  H492  1  0.474400  0.285600  0.430400  1
  H  H493  1  0.020200  0.212100  0.430300  1
  H  H494  1  0.020200  0.287900  0.069700  1
  H  H495  1  0.479800  0.787900  0.930300  1
  H  H496  1  0.479800  0.712100  0.569700  1
  H  H497  1  0.979800  0.787900  0.569700  1
  H  H498  1  0.979800  0.712100  0.930300  1
  H  H499  1  0.520200  0.212100  0.069700  1
  H  H500  1  0.520200  0.287900  0.430300  1
  H  H501  1  0.998800  0.423800  0.768100  1
  H  H502  1  0.998800  0.076200  0.731900  1
  H  H503  1  0.501200  0.576200  0.268100  1
  H  H504  1  0.501200  0.923800  0.231900  1
  H  H505  1  0.001200  0.576200  0.231900  1
  H  H506  1  0.001200  0.923800  0.268100  1
  H  H507  1  0.498800  0.423800  0.731900  1
  H  H508  1  0.498800  0.076200  0.768100  1
  H  H509  1  0.058000  0.438400  0.754700  1
  H  H510  1  0.058000  0.061600  0.745300  1
  H  H511  1  0.442000  0.561600  0.254700  1
  H  H512  1  0.442000  0.938400  0.245300  1
  H  H513  1  0.942000  0.561600  0.245300  1
  H  H514  1  0.942000  0.938400  0.254700  1
  H  H515  1  0.558000  0.438400  0.745300  1
  H  H516  1  0.558000  0.061600  0.754700  1
  H  H517  1  0.076200  0.424500  0.718800  1
  H  H518  1  0.076200  0.075500  0.781200  1
  H  H519  1  0.423800  0.575500  0.218800  1
  H  H520  1  0.423800  0.924500  0.281200  1
  H  H521  1  0.923800  0.575500  0.281200  1
  H  H522  1  0.923800  0.924500  0.218800  1
  H  H523  1  0.576200  0.424500  0.781200  1
  H  H524  1  0.576200  0.075500  0.718800  1
  H  H525  1  0.976500  0.380300  0.714100  1
  H  H526  1  0.976500  0.119700  0.785900  1
  H  H527  1  0.523500  0.619700  0.214100  1
  H  H528  1  0.523500  0.880300  0.285900  1
  H  H529  1  0.023500  0.619700  0.285900  1
  H  H530  1  0.023500  0.880300  0.214100  1
  H  H531  1  0.476500  0.380300  0.785900  1
  H  H532  1  0.476500  0.119700  0.714100  1
  H  H533  1  0.114700  0.376500  0.658200  1
  H  H534  1  0.114700  0.123500  0.841800  1
  H  H535  1  0.385300  0.623500  0.158200  1
  H  H536  1  0.385300  0.876500  0.341800  1
  H  H537  1  0.885300  0.623500  0.341800  1
  H  H538  1  0.885300  0.876500  0.158200  1
  H  H539  1  0.614700  0.376500  0.841800  1
  H  H540  1  0.614700  0.123500  0.658200  1
  H  H541  1  0.137100  0.355700  0.625600  1
  H  H542  1  0.137100  0.144300  0.874400  1
  H  H543  1  0.362900  0.644300  0.125600  1
  H  H544  1  0.362900  0.855700  0.374400  1
  H  H545  1  0.862900  0.644300  0.374400  1
  H  H546  1  0.862900  0.855700  0.125600  1
  H  H547  1  0.637100  0.355700  0.874400  1
  H  H548  1  0.637100  0.144300  0.625600  1
  H  H549  1  0.003700  0.359800  0.642600  1
  H  H550  1  0.003700  0.140200  0.857400  1
  H  H551  1  0.496300  0.640200  0.142600  1
  H  H552  1  0.496300  0.859800  0.357400  1
  H  H553  1  0.996300  0.640200  0.357400  1
  H  H554  1  0.996300  0.859800  0.142600  1
  H  H555  1  0.503700  0.359800  0.857400  1
  H  H556  1  0.503700  0.140200  0.642600  1
  H  H557  1  0.063600  0.303800  0.557400  1
  H  H558  1  0.063600  0.196200  0.942600  1
  H  H559  1  0.436400  0.696200  0.057400  1
  H  H560  1  0.436400  0.803800  0.442600  1
  H  H561  1  0.936400  0.696200  0.442600  1
  H  H562  1  0.936400  0.803800  0.057400  1
  H  H563  1  0.563600  0.303800  0.942600  1
  H  H564  1  0.563600  0.196200  0.557400  1
  H  H565  1  0.999200  0.297000  0.548600  1
  H  H566  1  0.999200  0.203000  0.951400  1
  H  H567  1  0.500800  0.703000  0.048600  1
  H  H568  1  0.500800  0.797000  0.451400  1
  H  H569  1  0.000800  0.703000  0.451400  1
  H  H570  1  0.000800  0.797000  0.048600  1
  H  H571  1  0.499200  0.297000  0.951400  1
  H  H572  1  0.499200  0.203000  0.548600  1
  H  H573  1  0.965400  0.334200  0.605700  1
  H  H574  1  0.965400  0.165800  0.894300  1
  H  H575  1  0.534600  0.665800  0.105700  1
  H  H576  1  0.534600  0.834200  0.394300  1
  H  H577  1  0.034600  0.665800  0.394300  1
  H  H578  1  0.034600  0.834200  0.105700  1
  H  H579  1  0.465400  0.334200  0.894300  1
  H  H580  1  0.465400  0.165800  0.605700  1
  H  H581  1  0.868200  0.274600  0.534200  1
  H  H582  1  0.868200  0.225400  0.965800  1
  H  H583  1  0.631800  0.725400  0.034200  1
  H  H584  1  0.631800  0.774600  0.465800  1
  H  H585  1  0.131800  0.725400  0.465800  1
  H  H586  1  0.131800  0.774600  0.034200  1
  H  H587  1  0.368200  0.274600  0.965800  1
  H  H588  1  0.368200  0.225400  0.534200  1
  H  H589  1  0.779400  0.328000  0.521600  1
  H  H590  1  0.779400  0.172000  0.978400  1
  H  H591  1  0.720600  0.672000  0.021600  1
  H  H592  1  0.720600  0.828000  0.478400  1
  H  H593  1  0.220600  0.672000  0.478400  1
  H  H594  1  0.220600  0.828000  0.021600  1
  H  H595  1  0.279400  0.328000  0.978400  1
  H  H596  1  0.279400  0.172000  0.521600  1
  H  H597  1  0.858300  0.351600  0.564300  1
  H  H598  1  0.858300  0.148400  0.935700  1
  H  H599  1  0.641700  0.648400  0.064300  1
  H  H600  1  0.641700  0.851600  0.435700  1
  H  H601  1  0.141700  0.648400  0.435700  1
  H  H602  1  0.141700  0.851600  0.064300  1
  H  H603  1  0.358300  0.351600  0.935700  1
  H  H604  1  0.358300  0.148400  0.564300  1
  H  H605  1  0.778600  0.206300  0.507900  1
  H  H606  1  0.778600  0.293700  0.992100  1
  H  H607  1  0.721400  0.793700  0.007900  1
  H  H608  1  0.721400  0.706300  0.492100  1
  H  H609  1  0.221400  0.793700  0.492100  1
  H  H610  1  0.221400  0.706300  0.007900  1
  H  H611  1  0.278600  0.206300  0.992100  1
  H  H612  1  0.278600  0.293700  0.507900  1
  H  H613  1  0.736200  0.172700  0.493000  1
  H  H614  1  0.736200  0.327300  0.007000  1
  H  H615  1  0.763800  0.827300  0.993000  1
  H  H616  1  0.763800  0.672700  0.507000  1
  H  H617  1  0.263800  0.827300  0.507000  1
  H  H618  1  0.263800  0.672700  0.993000  1
  H  H619  1  0.236200  0.172700  0.007000  1
  H  H620  1  0.236200  0.327300  0.493000  1
  H  H621  1  0.726600  0.269900  0.473600  1
  H  H622  1  0.726600  0.230100  0.026400  1
  H  H623  1  0.773400  0.730100  0.973600  1
  H  H624  1  0.773400  0.769900  0.526400  1
  H  H625  1  0.273400  0.730100  0.526400  1
  H  H626  1  0.273400  0.769900  0.973600  1
  H  H627  1  0.226600  0.269900  0.026400  1
  H  H628  1  0.226600  0.230100  0.473600  1
  H  H629  1  0.615700  0.179200  0.436900  1
  H  H630  1  0.615700  0.320800  0.063100  1
  H  H631  1  0.884300  0.820800  0.936900  1
  H  H632  1  0.884300  0.679200  0.563100  1
  H  H633  1  0.384300  0.820800  0.563100  1
  H  H634  1  0.384300  0.679200  0.936900  1
  H  H635  1  0.115700  0.179200  0.063100  1
  H  H636  1  0.115700  0.320800  0.436900  1
  H  H637  1  0.587000  0.216100  0.417300  1
  H  H638  1  0.587000  0.283900  0.082700  1
  H  H639  1  0.913000  0.783900  0.917300  1
  H  H640  1  0.913000  0.716100  0.582700  1
  H  H641  1  0.413000  0.783900  0.582700  1
  H  H642  1  0.413000  0.716100  0.917300  1
  H  H643  1  0.087000  0.216100  0.082700  1
  H  H644  1  0.087000  0.283900  0.417300  1
  H  H645  1  0.662100  0.273100  0.443400  1
  H  H646  1  0.662100  0.226900  0.056600  1
  H  H647  1  0.837900  0.726900  0.943400  1
  H  H648  1  0.837900  0.773100  0.556600  1
  H  H649  1  0.337900  0.726900  0.556600  1
  H  H650  1  0.337900  0.773100  0.943400  1
  H  H651  1  0.162100  0.273100  0.056600  1
  H  H652  1  0.162100  0.226900  0.443400  1
  H  H653  1  0.527200  0.286400  0.378700  1
  H  H654  1  0.527200  0.213600  0.121300  1
  H  H655  1  0.972800  0.713600  0.878700  1
  H  H656  1  0.972800  0.786400  0.621300  1
  H  H657  1  0.472800  0.713600  0.621300  1
  H  H658  1  0.472800  0.786400  0.878700  1
  H  H659  1  0.027200  0.286400  0.121300  1
  H  H660  1  0.027200  0.213600  0.378700  1
  H  H661  1  0.512300  0.315500  0.348400  1
  H  H662  1  0.512300  0.184500  0.151600  1
  H  H663  1  0.987700  0.684500  0.848400  1
  H  H664  1  0.987700  0.815500  0.651600  1
  H  H665  1  0.487700  0.684500  0.651600  1
  H  H666  1  0.487700  0.815500  0.848400  1
  H  H667  1  0.012300  0.315500  0.151600  1
  H  H668  1  0.012300  0.184500  0.348400  1
  H  H669  1  0.556300  0.348700  0.336800  1
  H  H670  1  0.556300  0.151300  0.163200  1
  H  H671  1  0.943700  0.651300  0.836800  1
  H  H672  1  0.943700  0.848700  0.663200  1
  H  H673  1  0.443700  0.651300  0.663200  1
  H  H674  1  0.443700  0.848700  0.836800  1
  H  H675  1  0.056300  0.348700  0.163200  1
  H  H676  1  0.056300  0.151300  0.336800  1
  H  H677  1  0.627500  0.328500  0.384500  1
  H  H678  1  0.627500  0.171500  0.115500  1
  H  H679  1  0.872500  0.671500  0.884500  1
  H  H680  1  0.872500  0.828500  0.615500  1
  H  H681  1  0.372500  0.671500  0.615500  1
  H  H682  1  0.372500  0.828500  0.884500  1
  H  H683  1  0.127500  0.328500  0.115500  1
  H  H684  1  0.127500  0.171500  0.384500  1
  H  H685  1  0.144600  0.338700  0.588100  1
  H  H686  1  0.144600  0.161300  0.911900  1
  H  H687  1  0.355400  0.661300  0.088100  1
  H  H688  1  0.355400  0.838700  0.411900  1
  H  H689  1  0.855400  0.661300  0.411900  1
  H  H690  1  0.855400  0.838700  0.088100  1
  H  H691  1  0.644600  0.338700  0.911900  1
  H  H692  1  0.644600  0.161300  0.588100  1
  H  H693  1  0.123500  0.319500  0.569900  1
  H  H694  1  0.123500  0.180500  0.930100  1
  H  H695  1  0.376500  0.680500  0.069900  1
  H  H696  1  0.376500  0.819500  0.430100  1
  H  H697  1  0.876500  0.680500  0.430100  1
  H  H698  1  0.876500  0.819500  0.069900  1
  H  H699  1  0.623500  0.319500  0.930100  1
  H  H700  1  0.623500  0.180500  0.569900  1
  H  H701  1  0.137900  0.298200  0.613500  1
  H  H702  1  0.137900  0.201800  0.886500  1
  H  H703  1  0.362100  0.701800  0.113500  1
  H  H704  1  0.362100  0.798200  0.386500  1
  H  H705  1  0.862100  0.701800  0.386500  1
  H  H706  1  0.862100  0.798200  0.113500  1
  H  H707  1  0.637900  0.298200  0.886500  1
  H  H708  1  0.637900  0.201800  0.613500  1
  H  H709  1  0.167800  0.293200  0.593800  1
  H  H710  1  0.167800  0.206800  0.906200  1
  H  H711  1  0.332200  0.706800  0.093800  1
  H  H712  1  0.332200  0.793200  0.406200  1
  H  H713  1  0.832200  0.706800  0.406200  1
  H  H714  1  0.832200  0.793200  0.093800  1
  H  H715  1  0.667800  0.293200  0.906200  1
  H  H716  1  0.667800  0.206800  0.593800  1
  H  H717  1  0.088900  0.273800  0.591500  1
  H  H718  1  0.088900  0.226200  0.908500  1
  H  H719  1  0.411100  0.726200  0.091500  1
  H  H720  1  0.411100  0.773800  0.408500  1
  H  H721  1  0.911100  0.726200  0.408500  1
  H  H722  1  0.911100  0.773800  0.091500  1
  H  H723  1  0.588900  0.273800  0.908500  1
  H  H724  1  0.588900  0.226200  0.591500  1
  H  H725  1  0.121100  0.266800  0.573500  1
  H  H726  1  0.121100  0.233200  0.926500  1
  H  H727  1  0.378900  0.733200  0.073500  1
  H  H728  1  0.378900  0.766800  0.426500  1
  H  H729  1  0.878900  0.733200  0.426500  1
  H  H730  1  0.878900  0.766800  0.073500  1
  H  H731  1  0.621100  0.266800  0.926500  1
  H  H732  1  0.621100  0.233200  0.573500  1
  H  H733  1  0.152000  0.236100  0.597000  1
  H  H734  1  0.152000  0.263900  0.903000  1
  H  H735  1  0.348000  0.763900  0.097000  1
  H  H736  1  0.348000  0.736100  0.403000  1
  H  H737  1  0.848000  0.763900  0.403000  1
  H  H738  1  0.848000  0.736100  0.097000  1
  H  H739  1  0.652000  0.236100  0.903000  1
  H  H740  1  0.652000  0.263900  0.597000  1
  H  H741  1  0.126000  0.246000  0.617400  1
  H  H742  1  0.126000  0.254000  0.882600  1
  H  H743  1  0.374000  0.754000  0.117400  1
  H  H744  1  0.374000  0.746000  0.382600  1
  H  H745  1  0.874000  0.754000  0.382600  1
  H  H746  1  0.874000  0.746000  0.117400  1
  H  H747  1  0.626000  0.246000  0.882600  1
  H  H748  1  0.626000  0.254000  0.617400  1
  H  H749  1  0.102200  0.212000  0.581200  1
  H  H750  1  0.102200  0.288000  0.918800  1
  H  H751  1  0.397800  0.788000  0.081200  1
  H  H752  1  0.397800  0.712000  0.418800  1
  H  H753  1  0.897800  0.788000  0.418800  1
  H  H754  1  0.897800  0.712000  0.081200  1
  H  H755  1  0.602200  0.212000  0.918800  1
  H  H756  1  0.602200  0.288000  0.581200  1
  H  H757  1  0.071800  0.226000  0.597900  1
  H  H758  1  0.071800  0.274000  0.902100  1
  H  H759  1  0.428200  0.774000  0.097900  1
  H  H760  1  0.428200  0.726000  0.402100  1
  H  H761  1  0.928200  0.774000  0.402100  1
  H  H762  1  0.928200  0.726000  0.097900  1
  H  H763  1  0.571800  0.226000  0.902100  1
  H  H764  1  0.571800  0.274000  0.597900  1
  H  H765  1  0.088000  0.178300  0.610400  1
  H  H766  1  0.088000  0.321700  0.889600  1
  H  H767  1  0.412000  0.821700  0.110400  1
  H  H768  1  0.412000  0.678300  0.389600  1
  H  H769  1  0.912000  0.821700  0.389600  1
  H  H770  1  0.912000  0.678300  0.110400  1
  H  H771  1  0.588000  0.178300  0.889600  1
  H  H772  1  0.588000  0.321700  0.610400  1
  H  H773  1  0.132300  0.187200  0.611700  1
  H  H774  1  0.132300  0.312800  0.888300  1
  H  H775  1  0.367700  0.812800  0.111700  1
  H  H776  1  0.367700  0.687200  0.388300  1
  H  H777  1  0.867700  0.812800  0.388300  1
  H  H778  1  0.867700  0.687200  0.111700  1
  H  H779  1  0.632300  0.187200  0.888300  1
  H  H780  1  0.632300  0.312800  0.611700  1
  H  H781  1  0.102000  0.201100  0.628300  1
  H  H782  1  0.102000  0.298900  0.871700  1
  H  H783  1  0.398000  0.798900  0.128300  1
  H  H784  1  0.398000  0.701100  0.371700  1
  H  H785  1  0.898000  0.798900  0.371700  1
  H  H786  1  0.898000  0.701100  0.128300  1
  H  H787  1  0.602000  0.201100  0.871700  1
  H  H788  1  0.602000  0.298900  0.628300  1
  H  H789  1  0.647500  0.149600  0.462700  1
  H  H790  1  0.647500  0.350400  0.037300  1
  H  H791  1  0.852500  0.850400  0.962700  1
  H  H792  1  0.852500  0.649600  0.537300  1
  H  H793  1  0.352500  0.850400  0.537300  1
  H  H794  1  0.352500  0.649600  0.962700  1
  H  H795  1  0.147500  0.149600  0.037300  1
  H  H796  1  0.147500  0.350400  0.462700  1
  H  H797  1  0.681300  0.148600  0.480600  1
  H  H798  1  0.681300  0.351400  0.019400  1
  H  H799  1  0.818700  0.851400  0.980600  1
  H  H800  1  0.818700  0.648600  0.519400  1
  H  H801  1  0.318700  0.851400  0.519400  1
  H  H802  1  0.318700  0.648600  0.980600  1
  H  H803  1  0.181300  0.148600  0.019400  1
  H  H804  1  0.181300  0.351400  0.480600  1
  H  H805  1  0.690800  0.145900  0.433900  1
  H  H806  1  0.690800  0.354100  0.066100  1
  H  H807  1  0.809200  0.854100  0.933900  1
  H  H808  1  0.809200  0.645900  0.566100  1
  H  H809  1  0.309200  0.854100  0.566100  1
  H  H810  1  0.309200  0.645900  0.933900  1
  H  H811  1  0.190800  0.145900  0.066100  1
  H  H812  1  0.190800  0.354100  0.433900  1
  H  H813  1  0.726400  0.150300  0.450200  1
  H  H814  1  0.726400  0.349700  0.049800  1
  H  H815  1  0.773600  0.849700  0.950200  1
  H  H816  1  0.773600  0.650300  0.549800  1
  H  H817  1  0.273600  0.849700  0.549800  1
  H  H818  1  0.273600  0.650300  0.950200  1
  H  H819  1  0.226400  0.150300  0.049800  1
  H  H820  1  0.226400  0.349700  0.450200  1
  H  H821  1  0.677500  0.101700  0.451700  1
  H  H822  1  0.677500  0.398300  0.048300  1
  H  H823  1  0.822500  0.898300  0.951700  1
  H  H824  1  0.822500  0.601700  0.548300  1
  H  H825  1  0.322500  0.898300  0.548300  1
  H  H826  1  0.322500  0.601700  0.951700  1
  H  H827  1  0.177500  0.101700  0.048300  1
  H  H828  1  0.177500  0.398300  0.451700  1
  H  H829  1  0.715000  0.106000  0.466500  1
  H  H830  1  0.715000  0.394000  0.033500  1
  H  H831  1  0.785000  0.894000  0.966500  1
  H  H832  1  0.785000  0.606000  0.533500  1
  H  H833  1  0.285000  0.894000  0.533500  1
  H  H834  1  0.285000  0.606000  0.966500  1
  H  H835  1  0.215000  0.106000  0.033500  1
  H  H836  1  0.215000  0.394000  0.466500  1
  H  H837  1  0.752600  0.104900  0.433400  1
  H  H838  1  0.752600  0.395100  0.066600  1
  H  H839  1  0.747400  0.895100  0.933400  1
  H  H840  1  0.747400  0.604900  0.566600  1
  H  H841  1  0.247400  0.895100  0.566600  1
  H  H842  1  0.247400  0.604900  0.933400  1
  H  H843  1  0.252600  0.104900  0.066600  1
  H  H844  1  0.252600  0.395100  0.433400  1
  H  H845  1  0.714500  0.097300  0.420100  1
  H  H846  1  0.714500  0.402700  0.079900  1
  H  H847  1  0.785500  0.902700  0.920100  1
  H  H848  1  0.785500  0.597300  0.579900  1
  H  H849  1  0.285500  0.902700  0.579900  1
  H  H850  1  0.285500  0.597300  0.920100  1
  H  H851  1  0.214500  0.097300  0.079900  1
  H  H852  1  0.214500  0.402700  0.420100  1
  H  H853  1  0.710900  0.053700  0.442100  1
  H  H854  1  0.710900  0.446300  0.057900  1
  H  H855  1  0.789100  0.946300  0.942100  1
  H  H856  1  0.789100  0.553700  0.557900  1
  H  H857  1  0.289100  0.946300  0.557900  1
  H  H858  1  0.289100  0.553700  0.942100  1
  H  H859  1  0.210900  0.053700  0.057900  1
  H  H860  1  0.210900  0.446300  0.442100  1
  H  H861  1  0.753500  0.060900  0.450400  1
  H  H862  1  0.753500  0.439100  0.049600  1
  H  H863  1  0.746500  0.939100  0.950400  1
  H  H864  1  0.746500  0.560900  0.549600  1
  H  H865  1  0.246500  0.939100  0.549600  1
  H  H866  1  0.246500  0.560900  0.950400  1
  H  H867  1  0.253500  0.060900  0.049600  1
  H  H868  1  0.253500  0.439100  0.450400  1
  H  H869  1  0.756700  0.029100  0.419400  1
  H  H870  1  0.756700  0.470900  0.080600  1
  H  H871  1  0.743300  0.970900  0.919400  1
  H  H872  1  0.743300  0.529100  0.580600  1
  H  H873  1  0.243300  0.970900  0.580600  1
  H  H874  1  0.243300  0.529100  0.919400  1
  H  H875  1  0.256700  0.029100  0.080600  1
  H  H876  1  0.256700  0.470900  0.419400  1
  H  H877  1  0.733700  0.051600  0.404600  1
  H  H878  1  0.733700  0.448400  0.095400  1
  H  H879  1  0.766300  0.948400  0.904600  1
  H  H880  1  0.766300  0.551600  0.595400  1
  H  H881  1  0.266300  0.948400  0.595400  1
  H  H882  1  0.266300  0.551600  0.904600  1
  H  H883  1  0.233700  0.051600  0.095400  1
  H  H884  1  0.233700  0.448400  0.404600  1
  H  H885  1  0.776200  0.058900  0.412900  1
  H  H886  1  0.776200  0.441100  0.087100  1
  H  H887  1  0.723800  0.941100  0.912900  1
  H  H888  1  0.723800  0.558900  0.587100  1
  H  H889  1  0.223800  0.941100  0.587100  1
  H  H890  1  0.223800  0.558900  0.912900  1
  H  H891  1  0.276200  0.058900  0.087100  1
  H  H892  1  0.276200  0.441100  0.412900  1
  H  H893  1  0.981100  0.350300  0.776700  1
  H  H894  1  0.981100  0.149700  0.723300  1
  H  H895  1  0.518900  0.649700  0.276700  1
  H  H896  1  0.518900  0.850300  0.223300  1
  H  H897  1  0.018900  0.649700  0.223300  1
  H  H898  1  0.018900  0.850300  0.276700  1
  H  H899  1  0.481100  0.350300  0.723300  1
  H  H900  1  0.481100  0.149700  0.776700  1
  H  H901  1  0.984700  0.301800  0.782900  1
  H  H902  1  0.984700  0.198200  0.717100  1
  H  H903  1  0.515300  0.698200  0.282900  1
  H  H904  1  0.515300  0.801800  0.217100  1
  H  H905  1  0.015300  0.698200  0.217100  1
  H  H906  1  0.015300  0.801800  0.282900  1
  H  H907  1  0.484700  0.301800  0.717100  1
  H  H908  1  0.484700  0.198200  0.782900  1
  H  H909  1  0.947300  0.270900  0.761200  1
  H  H910  1  0.947300  0.229100  0.738800  1
  H  H911  1  0.552700  0.729100  0.261200  1
  H  H912  1  0.552700  0.770900  0.238800  1
  H  H913  1  0.052700  0.729100  0.238800  1
  H  H914  1  0.052700  0.770900  0.261200  1
  H  H915  1  0.447300  0.270900  0.738800  1
  H  H916  1  0.447300  0.229100  0.761200  1
  H  H917  1  0.903400  0.339800  0.730600  1
  H  H918  1  0.903400  0.160200  0.769400  1
  H  H919  1  0.596600  0.660200  0.230600  1
  H  H920  1  0.596600  0.839800  0.269400  1
  H  H921  1  0.096600  0.660200  0.269400  1
  H  H922  1  0.096600  0.839800  0.230600  1
  H  H923  1  0.403400  0.339800  0.769400  1
  H  H924  1  0.403400  0.160200  0.730600  1
  H  H925  1  0.850000  0.220700  0.731100  1
  H  H926  1  0.850000  0.279300  0.768900  1
  H  H927  1  0.650000  0.779300  0.231100  1
  H  H928  1  0.650000  0.720700  0.268900  1
  H  H929  1  0.150000  0.779300  0.268900  1
  H  H930  1  0.150000  0.720700  0.231100  1
  H  H931  1  0.350000  0.220700  0.768900  1
  H  H932  1  0.350000  0.279300  0.731100  1
  H  H933  1  0.802600  0.192100  0.715600  1
  H  H934  1  0.802600  0.307900  0.784400  1
  H  H935  1  0.697400  0.807900  0.215600  1
  H  H936  1  0.697400  0.692100  0.284400  1
  H  H937  1  0.197400  0.807900  0.284400  1
  H  H938  1  0.197400  0.692100  0.215600  1
  H  H939  1  0.302600  0.192100  0.784400  1
  H  H940  1  0.302600  0.307900  0.715600  1
  H  H941  1  0.832600  0.282000  0.685300  1
  H  H942  1  0.832600  0.218000  0.814700  1
  H  H943  1  0.667400  0.718000  0.185300  1
  H  H944  1  0.667400  0.782000  0.314700  1
  H  H945  1  0.167400  0.718000  0.314700  1
  H  H946  1  0.167400  0.782000  0.185300  1
  H  H947  1  0.332600  0.282000  0.814700  1
  H  H948  1  0.332600  0.218000  0.685300  1
  H  H949  1  0.713900  0.202100  0.642500  1
  H  H950  1  0.713900  0.297900  0.857500  1
  H  H951  1  0.786100  0.797900  0.142500  1
  H  H952  1  0.786100  0.702100  0.357500  1
  H  H953  1  0.286100  0.797900  0.357500  1
  H  H954  1  0.286100  0.702100  0.142500  1
  H  H955  1  0.213900  0.202100  0.857500  1
  H  H956  1  0.213900  0.297900  0.642500  1
  H  H957  1  0.703800  0.239300  0.617300  1
  H  H958  1  0.703800  0.260700  0.882700  1
  H  H959  1  0.796200  0.760700  0.117300  1
  H  H960  1  0.796200  0.739300  0.382700  1
  H  H961  1  0.296200  0.760700  0.382700  1
  H  H962  1  0.296200  0.739300  0.117300  1
  H  H963  1  0.203800  0.239300  0.882700  1
  H  H964  1  0.203800  0.260700  0.617300  1
  H  H965  1  0.781200  0.289700  0.648800  1
  H  H966  1  0.781200  0.210300  0.851200  1
  H  H967  1  0.718800  0.710300  0.148800  1
  H  H968  1  0.718800  0.789700  0.351200  1
  H  H969  1  0.218800  0.710300  0.351200  1
  H  H970  1  0.218800  0.789700  0.148800  1
  H  H971  1  0.281200  0.289700  0.851200  1
  H  H972  1  0.281200  0.210300  0.648800  1
  H  H973  1  0.662300  0.314600  0.578500  1
  H  H974  1  0.662300  0.185400  0.921500  1
  H  H975  1  0.837700  0.685400  0.078500  1
  H  H976  1  0.837700  0.814600  0.421500  1
  H  H977  1  0.337700  0.685400  0.421500  1
  H  H978  1  0.337700  0.814600  0.078500  1
  H  H979  1  0.162300  0.314600  0.921500  1
  H  H980  1  0.162300  0.185400  0.578500  1
  H  H981  1  0.706100  0.372700  0.536500  1
  H  H982  1  0.706100  0.127300  0.963500  1
  H  H983  1  0.793900  0.627300  0.036500  1
  H  H984  1  0.793900  0.872700  0.463500  1
  H  H985  1  0.293900  0.627300  0.463500  1
  H  H986  1  0.293900  0.872700  0.036500  1
  H  H987  1  0.206100  0.372700  0.963500  1
  H  H988  1  0.206100  0.127300  0.536500  1
  H  H989  1  0.771600  0.343600  0.584200  1
  H  H990  1  0.771600  0.156400  0.915800  1
  H  H991  1  0.728400  0.656400  0.084200  1
  H  H992  1  0.728400  0.843600  0.415800  1
  H  H993  1  0.228400  0.656400  0.415800  1
  H  H994  1  0.228400  0.843600  0.084200  1
  H  H995  1  0.271600  0.343600  0.915800  1
  H  H996  1  0.271600  0.156400  0.584200  1
  H  H997  1  0.543200  0.345200  0.553800  1
  H  H998  1  0.543200  0.154800  0.946200  1
  H  H999  1  0.956800  0.654800  0.053800  1
  H  H1000  1  0.956800  0.845200  0.446200  1
  H  H1001  1  0.456800  0.654800  0.446200  1
  H  H1002  1  0.456800  0.845200  0.053800  1
  H  H1003  1  0.043200  0.345200  0.946200  1
  H  H1004  1  0.043200  0.154800  0.553800  1
  H  H1005  1  0.483400  0.359900  0.541600  1
  H  H1006  1  0.483400  0.140100  0.958400  1
  H  H1007  1  0.016600  0.640100  0.041600  1
  H  H1008  1  0.016600  0.859900  0.458400  1
  H  H1009  1  0.516600  0.640100  0.458400  1
  H  H1010  1  0.516600  0.859900  0.041600  1
  H  H1011  1  0.983400  0.359900  0.958400  1
  H  H1012  1  0.983400  0.140100  0.541600  1
  H  H1013  1  0.594900  0.374000  0.498200  1
  H  H1014  1  0.594900  0.126000  0.001800  1
  H  H1015  1  0.905100  0.626000  0.998200  1
  H  H1016  1  0.905100  0.874000  0.501800  1
  H  H1017  1  0.405100  0.626000  0.501800  1
  H  H1018  1  0.405100  0.874000  0.998200  1
  H  H1019  1  0.094900  0.374000  0.001800  1
  H  H1020  1  0.094900  0.126000  0.498200  1
  H  H1021  1  0.437400  0.418400  0.468100  1
  H  H1022  1  0.437400  0.081600  0.031900  1
  H  H1023  1  0.062600  0.581600  0.968100  1
  H  H1024  1  0.062600  0.918400  0.531900  1
  H  H1025  1  0.562600  0.581600  0.531900  1
  H  H1026  1  0.562600  0.918400  0.968100  1
  H  H1027  1  0.937400  0.418400  0.031900  1
  H  H1028  1  0.937400  0.081600  0.468100  1
  H  H1029  1  0.469500  0.432300  0.436200  1
  H  H1030  1  0.469500  0.067700  0.063800  1
  H  H1031  1  0.030500  0.567700  0.936200  1
  H  H1032  1  0.030500  0.932300  0.563800  1
  H  H1033  1  0.530500  0.567700  0.563800  1
  H  H1034  1  0.530500  0.932300  0.936200  1
  H  H1035  1  0.969500  0.432300  0.063800  1
  H  H1036  1  0.969500  0.067700  0.436200  1
  H  H1037  1  0.570200  0.401100  0.459600  1
  H  H1038  1  0.570200  0.098900  0.040400  1
  H  H1039  1  0.929800  0.598900  0.959600  1
  H  H1040  1  0.929800  0.901100  0.540400  1
  H  H1041  1  0.429800  0.598900  0.540400  1
  H  H1042  1  0.429800  0.901100  0.959600  1
  H  H1043  1  0.070200  0.401100  0.040400  1
  H  H1044  1  0.070200  0.098900  0.459600  1
  H  H1045  1  0.535500  0.460800  0.371800  1
  H  H1046  1  0.535500  0.039200  0.128200  1
  H  H1047  1  0.964500  0.539200  0.871800  1
  H  H1048  1  0.964500  0.960800  0.628200  1
  H  H1049  1  0.464500  0.539200  0.628200  1
  H  H1050  1  0.464500  0.960800  0.871800  1
  H  H1051  1  0.035500  0.460800  0.128200  1
  H  H1052  1  0.035500  0.039200  0.371800  1
  H  H1053  1  0.554700  0.454100  0.334900  1
  H  H1054  1  0.554700  0.045900  0.165100  1
  H  H1055  1  0.945300  0.545900  0.834900  1
  H  H1056  1  0.945300  0.954100  0.665100  1
  H  H1057  1  0.445300  0.545900  0.665100  1
  H  H1058  1  0.445300  0.954100  0.834900  1
  H  H1059  1  0.054700  0.454100  0.165100  1
  H  H1060  1  0.054700  0.045900  0.334900  1
  H  H1061  1  0.594900  0.416800  0.325900  1
  H  H1062  1  0.594900  0.083200  0.174100  1
  H  H1063  1  0.905100  0.583200  0.825900  1
  H  H1064  1  0.905100  0.916800  0.674100  1
  H  H1065  1  0.405100  0.583200  0.674100  1
  H  H1066  1  0.405100  0.916800  0.825900  1
  H  H1067  1  0.094900  0.416800  0.174100  1
  H  H1068  1  0.094900  0.083200  0.325900  1
  H  H1069  1  0.602300  0.393300  0.387800  1
  H  H1070  1  0.602300  0.106700  0.112200  1
  H  H1071  1  0.897700  0.606700  0.887800  1
  H  H1072  1  0.897700  0.893300  0.612200  1
  H  H1073  1  0.397700  0.606700  0.612200  1
  H  H1074  1  0.397700  0.893300  0.887800  1
  H  H1075  1  0.102300  0.393300  0.112200  1
  H  H1076  1  0.102300  0.106700  0.387800  1
  H  H1077  1  0.764200  0.166700  0.691600  1
  H  H1078  1  0.764200  0.333300  0.808400  1
  H  H1079  1  0.735800  0.833300  0.191600  1
  H  H1080  1  0.735800  0.666700  0.308400  1
  H  H1081  1  0.235800  0.833300  0.308400  1
  H  H1082  1  0.235800  0.666700  0.191600  1
  H  H1083  1  0.264200  0.166700  0.808400  1
  H  H1084  1  0.264200  0.333300  0.691600  1
  H  H1085  1  0.743300  0.167300  0.668000  1
  H  H1086  1  0.743300  0.332700  0.832000  1
  H  H1087  1  0.756700  0.832700  0.168000  1
  H  H1088  1  0.756700  0.667300  0.332000  1
  H  H1089  1  0.256700  0.832700  0.332000  1
  H  H1090  1  0.256700  0.667300  0.168000  1
  H  H1091  1  0.243300  0.167300  0.832000  1
  H  H1092  1  0.243300  0.332700  0.668000  1
  H  H1093  1  0.712500  0.193900  0.706700  1
  H  H1094  1  0.712500  0.306100  0.793300  1
  H  H1095  1  0.787500  0.806100  0.206700  1
  H  H1096  1  0.787500  0.693900  0.293300  1
  H  H1097  1  0.287500  0.806100  0.293300  1
  H  H1098  1  0.287500  0.693900  0.206700  1
  H  H1099  1  0.212500  0.193900  0.793300  1
  H  H1100  1  0.212500  0.306100  0.706700  1
  H  H1101  1  0.691600  0.193800  0.683300  1
  H  H1102  1  0.691600  0.306200  0.816700  1
  H  H1103  1  0.808400  0.806200  0.183300  1
  H  H1104  1  0.808400  0.693800  0.316700  1
  H  H1105  1  0.308400  0.806200  0.316700  1
  H  H1106  1  0.308400  0.693800  0.183300  1
  H  H1107  1  0.191600  0.193800  0.816700  1
  H  H1108  1  0.191600  0.306200  0.683300  1
  H  H1109  1  0.704600  0.143500  0.708500  1
  H  H1110  1  0.704600  0.356500  0.791500  1
  H  H1111  1  0.795400  0.856500  0.208500  1
  H  H1112  1  0.795400  0.643500  0.291500  1
  H  H1113  1  0.295400  0.856500  0.291500  1
  H  H1114  1  0.295400  0.643500  0.208500  1
  H  H1115  1  0.204600  0.143500  0.791500  1
  H  H1116  1  0.204600  0.356500  0.708500  1
  H  H1117  1  0.680100  0.145200  0.686000  1
  H  H1118  1  0.680100  0.354800  0.814000  1
  H  H1119  1  0.819900  0.854800  0.186000  1
  H  H1120  1  0.819900  0.645200  0.314000  1
  H  H1121  1  0.319900  0.854800  0.314000  1
  H  H1122  1  0.319900  0.645200  0.186000  1
  H  H1123  1  0.180100  0.145200  0.814000  1
  H  H1124  1  0.180100  0.354800  0.686000  1
  H  H1125  1  0.659700  0.173100  0.727400  1
  H  H1126  1  0.659700  0.326900  0.772600  1
  H  H1127  1  0.840300  0.826900  0.227400  1
  H  H1128  1  0.840300  0.673100  0.272600  1
  H  H1129  1  0.340300  0.826900  0.272600  1
  H  H1130  1  0.340300  0.673100  0.227400  1
  H  H1131  1  0.159700  0.173100  0.772600  1
  H  H1132  1  0.159700  0.326900  0.727400  1
  H  H1133  1  0.638100  0.181000  0.704800  1
  H  H1134  1  0.638100  0.319000  0.795200  1
  H  H1135  1  0.861900  0.819000  0.204800  1
  H  H1136  1  0.861900  0.681000  0.295200  1
  H  H1137  1  0.361900  0.819000  0.295200  1
  H  H1138  1  0.361900  0.681000  0.204800  1
  H  H1139  1  0.138100  0.181000  0.795200  1
  H  H1140  1  0.138100  0.319000  0.704800  1
  H  H1141  1  0.639800  0.123000  0.722000  1
  H  H1142  1  0.639800  0.377000  0.778000  1
  H  H1143  1  0.860200  0.877000  0.222000  1
  H  H1144  1  0.860200  0.623000  0.278000  1
  H  H1145  1  0.360200  0.877000  0.278000  1
  H  H1146  1  0.360200  0.623000  0.222000  1
  H  H1147  1  0.139800  0.123000  0.778000  1
  H  H1148  1  0.139800  0.377000  0.722000  1
  H  H1149  1  0.613900  0.133600  0.701500  1
  H  H1150  1  0.613900  0.366400  0.798500  1
  H  H1151  1  0.886100  0.866400  0.201500  1
  H  H1152  1  0.886100  0.633600  0.298500  1
  H  H1153  1  0.386100  0.866400  0.298500  1
  H  H1154  1  0.386100  0.633600  0.201500  1
  H  H1155  1  0.113900  0.133600  0.798500  1
  H  H1156  1  0.113900  0.366400  0.701500  1
  H  H1157  1  0.574800  0.137800  0.736400  1
  H  H1158  1  0.574800  0.362200  0.763600  1
  H  H1159  1  0.925200  0.862200  0.236400  1
  H  H1160  1  0.925200  0.637800  0.263600  1
  H  H1161  1  0.425200  0.862200  0.263600  1
  H  H1162  1  0.425200  0.637800  0.236400  1
  H  H1163  1  0.074800  0.137800  0.763600  1
  H  H1164  1  0.074800  0.362200  0.736400  1
  H  H1165  1  0.606900  0.158500  0.746500  1
  H  H1166  1  0.606900  0.341500  0.753500  1
  H  H1167  1  0.893100  0.841500  0.246500  1
  H  H1168  1  0.893100  0.658500  0.253500  1
  H  H1169  1  0.393100  0.841500  0.253500  1
  H  H1170  1  0.393100  0.658500  0.246500  1
  H  H1171  1  0.106900  0.158500  0.753500  1
  H  H1172  1  0.106900  0.341500  0.746500  1
  H  H1173  1  0.581200  0.169000  0.726200  1
  H  H1174  1  0.581200  0.331000  0.773800  1
  H  H1175  1  0.918800  0.831000  0.226200  1
  H  H1176  1  0.918800  0.669000  0.273800  1
  H  H1177  1  0.418800  0.831000  0.273800  1
  H  H1178  1  0.418800  0.669000  0.226200  1
  H  H1179  1  0.081200  0.169000  0.773800  1
  H  H1180  1  0.081200  0.331000  0.726200  1
  H  H1181  1  0.415200  0.385600  0.498700  1
  H  H1182  1  0.415200  0.114400  0.001300  1
  H  H1183  1  0.084800  0.614400  0.998700  1
  H  H1184  1  0.084800  0.885600  0.501300  1
  H  H1185  1  0.584800  0.614400  0.501300  1
  H  H1186  1  0.584800  0.885600  0.998700  1
  H  H1187  1  0.915200  0.385600  0.001300  1
  H  H1188  1  0.915200  0.114400  0.498700  1
  H  H1189  1  0.430600  0.373400  0.521800  1
  H  H1190  1  0.430600  0.126600  0.978200  1
  H  H1191  1  0.069400  0.626600  0.021800  1
  H  H1192  1  0.069400  0.873400  0.478200  1
  H  H1193  1  0.569400  0.626600  0.478200  1
  H  H1194  1  0.569400  0.873400  0.021800  1
  H  H1195  1  0.930600  0.373400  0.978200  1
  H  H1196  1  0.930600  0.126600  0.521800  1
  H  H1197  1  0.417700  0.429500  0.509300  1
  H  H1198  1  0.417700  0.070500  0.990700  1
  H  H1199  1  0.082300  0.570500  0.009300  1
  H  H1200  1  0.082300  0.929500  0.490700  1
  H  H1201  1  0.582300  0.570500  0.490700  1
  H  H1202  1  0.582300  0.929500  0.009300  1
  H  H1203  1  0.917700  0.429500  0.990700  1
  H  H1204  1  0.917700  0.070500  0.509300  1
  H  H1205  1  0.400000  0.413000  0.529600  1
  H  H1206  1  0.400000  0.087000  0.970400  1
  H  H1207  1  0.100000  0.587000  0.029600  1
  H  H1208  1  0.100000  0.913000  0.470400  1
  H  H1209  1  0.600000  0.587000  0.470400  1
  H  H1210  1  0.600000  0.913000  0.029600  1
  H  H1211  1  0.900000  0.413000  0.970400  1
  H  H1212  1  0.900000  0.087000  0.529600  1
  H  H1213  1  0.473300  0.434900  0.530900  1
  H  H1214  1  0.473300  0.065100  0.969100  1
  H  H1215  1  0.026700  0.565100  0.030900  1
  H  H1216  1  0.026700  0.934900  0.469100  1
  H  H1217  1  0.526700  0.565100  0.469100  1
  H  H1218  1  0.526700  0.934900  0.030900  1
  H  H1219  1  0.973300  0.434900  0.969100  1
  H  H1220  1  0.973300  0.065100  0.530900  1
  H  H1221  1  0.447200  0.424600  0.551100  1
  H  H1222  1  0.447200  0.075400  0.948900  1
  H  H1223  1  0.052800  0.575400  0.051100  1
  H  H1224  1  0.052800  0.924600  0.448900  1
  H  H1225  1  0.552800  0.575400  0.448900  1
  H  H1226  1  0.552800  0.924600  0.051100  1
  H  H1227  1  0.947200  0.424600  0.948900  1
  H  H1228  1  0.947200  0.075400  0.551100  1
  H  H1229  1  0.441800  0.476800  0.527200  1
  H  H1230  1  0.441800  0.023200  0.972800  1
  H  H1231  1  0.058200  0.523200  0.027200  1
  H  H1232  1  0.058200  0.976800  0.472800  1
  H  H1233  1  0.558200  0.523200  0.472800  1
  H  H1234  1  0.558200  0.976800  0.027200  1
  H  H1235  1  0.941800  0.476800  0.972800  1
  H  H1236  1  0.941800  0.023200  0.527200  1
  H  H1237  1  0.402200  0.463900  0.536100  1
  H  H1238  1  0.402200  0.036100  0.963900  1
  H  H1239  1  0.097800  0.536100  0.036100  1
  H  H1240  1  0.097800  0.963900  0.463900  1
  H  H1241  1  0.597800  0.536100  0.463900  1
  H  H1242  1  0.597800  0.963900  0.036100  1
  H  H1243  1  0.902200  0.463900  0.963900  1
  H  H1244  1  0.902200  0.036100  0.536100  1
  H  H1245  1  0.413000  0.485500  0.566400  1
  H  H1246  1  0.413000  0.014500  0.933600  1
  H  H1247  1  0.087000  0.514500  0.066400  1
  H  H1248  1  0.087000  0.985500  0.433600  1
  H  H1249  1  0.587000  0.514500  0.433600  1
  H  H1250  1  0.587000  0.985500  0.066400  1
  H  H1251  1  0.913000  0.485500  0.933600  1
  H  H1252  1  0.913000  0.014500  0.566400  1
  H  H1253  1  0.445100  0.462100  0.571100  1
  H  H1254  1  0.445100  0.037900  0.928900  1
  H  H1255  1  0.054900  0.537900  0.071100  1
  H  H1256  1  0.054900  0.962100  0.428900  1
  H  H1257  1  0.554900  0.537900  0.428900  1
  H  H1258  1  0.554900  0.962100  0.071100  1
  H  H1259  1  0.945100  0.462100  0.928900  1
  H  H1260  1  0.945100  0.037900  0.571100  1
  H  H1261  1  0.467800  0.506600  0.578200  1
  H  H1262  1  0.467800  0.993400  0.921800  1
  H  H1263  1  0.032200  0.493400  0.078200  1
  H  H1264  1  0.032200  0.006600  0.421800  1
  H  H1265  1  0.532200  0.493400  0.421800  1
  H  H1266  1  0.532200  0.006600  0.078200  1
  H  H1267  1  0.967800  0.506600  0.921800  1
  H  H1268  1  0.967800  0.993400  0.578200  1
  H  H1269  1  0.491300  0.492800  0.558200  1
  H  H1270  1  0.491300  0.007200  0.941800  1
  H  H1271  1  0.008700  0.507200  0.058200  1
  H  H1272  1  0.008700  0.992800  0.441800  1
  H  H1273  1  0.508700  0.507200  0.441800  1
  H  H1274  1  0.508700  0.992800  0.058200  1
  H  H1275  1  0.991300  0.492800  0.941800  1
  H  H1276  1  0.991300  0.007200  0.558200  1
  H  H1277  1  0.459000  0.516300  0.553400  1
  H  H1278  1  0.459000  0.983700  0.946600  1
  H  H1279  1  0.041000  0.483700  0.053400  1
  H  H1280  1  0.041000  0.016300  0.446600  1
  H  H1281  1  0.541000  0.483700  0.446600  1
  H  H1282  1  0.541000  0.016300  0.053400  1
  H  H1283  1  0.959000  0.516300  0.946600  1
  H  H1284  1  0.959000  0.983700  0.553400  1
  H  H1285  1  0.892900  0.368600  0.794000  1
  H  H1286  1  0.892900  0.131400  0.706000  1
  H  H1287  1  0.607100  0.631400  0.294000  1
  H  H1288  1  0.607100  0.868600  0.206000  1
  H  H1289  1  0.107100  0.631400  0.206000  1
  H  H1290  1  0.107100  0.868600  0.294000  1
  H  H1291  1  0.392900  0.368600  0.706000  1
  H  H1292  1  0.392900  0.131400  0.794000  1
  H  H1293  1  0.832200  0.363500  0.808600  1
  H  H1294  1  0.832200  0.136500  0.691400  1
  H  H1295  1  0.667800  0.636500  0.308600  1
  H  H1296  1  0.667800  0.863500  0.191400  1
  H  H1297  1  0.167800  0.636500  0.191400  1
  H  H1298  1  0.167800  0.863500  0.308600  1
  H  H1299  1  0.332200  0.363500  0.691400  1
  H  H1300  1  0.332200  0.136500  0.808600  1
  H  H1301  1  0.778700  0.372800  0.786600  1
  H  H1302  1  0.778700  0.127200  0.713400  1
  H  H1303  1  0.721300  0.627200  0.286600  1
  H  H1304  1  0.721300  0.872800  0.213400  1
  H  H1305  1  0.221300  0.627200  0.213400  1
  H  H1306  1  0.221300  0.872800  0.286600  1
  H  H1307  1  0.278700  0.372800  0.713400  1
  H  H1308  1  0.278700  0.127200  0.786600  1
  H  H1309  1  0.851600  0.393800  0.737200  1
  H  H1310  1  0.851600  0.106200  0.762800  1
  H  H1311  1  0.648400  0.606200  0.237200  1
  H  H1312  1  0.648400  0.893800  0.262800  1
  H  H1313  1  0.148400  0.606200  0.262800  1
  H  H1314  1  0.148400  0.893800  0.237200  1
  H  H1315  1  0.351600  0.393800  0.762800  1
  H  H1316  1  0.351600  0.106200  0.737200  1
  H  H1317  1  0.678900  0.388900  0.746400  1
  H  H1318  1  0.678900  0.111100  0.753600  1
  H  H1319  1  0.821100  0.611100  0.246400  1
  H  H1320  1  0.821100  0.888900  0.253600  1
  H  H1321  1  0.321100  0.611100  0.253600  1
  H  H1322  1  0.321100  0.888900  0.246400  1
  H  H1323  1  0.178900  0.388900  0.753600  1
  H  H1324  1  0.178900  0.111100  0.746400  1
  H  H1325  1  0.621400  0.404300  0.730300  1
  H  H1326  1  0.621400  0.095700  0.769700  1
  H  H1327  1  0.878600  0.595700  0.230300  1
  H  H1328  1  0.878600  0.904300  0.269700  1
  H  H1329  1  0.378600  0.595700  0.269700  1
  H  H1330  1  0.378600  0.904300  0.230300  1
  H  H1331  1  0.121400  0.404300  0.769700  1
  H  H1332  1  0.121400  0.095700  0.730300  1
  H  H1333  1  0.741500  0.417500  0.694800  1
  H  H1334  1  0.741500  0.082500  0.805200  1
  H  H1335  1  0.758500  0.582500  0.194800  1
  H  H1336  1  0.758500  0.917500  0.305200  1
  H  H1337  1  0.258500  0.582500  0.305200  1
  H  H1338  1  0.258500  0.917500  0.194800  1
  H  H1339  1  0.241500  0.417500  0.805200  1
  H  H1340  1  0.241500  0.082500  0.694800  1
  H  H1341  1  0.590400  0.453700  0.650800  1
  H  H1342  1  0.590400  0.046300  0.849200  1
  H  H1343  1  0.909600  0.546300  0.150800  1
  H  H1344  1  0.909600  0.953700  0.349200  1
  H  H1345  1  0.409600  0.546300  0.349200  1
  H  H1346  1  0.409600  0.953700  0.150800  1
  H  H1347  1  0.090400  0.453700  0.849200  1
  H  H1348  1  0.090400  0.046300  0.650800  1
  H  H1349  1  0.628600  0.462700  0.619700  1
  H  H1350  1  0.628600  0.037300  0.880300  1
  H  H1351  1  0.871400  0.537300  0.119700  1
  H  H1352  1  0.871400  0.962700  0.380300  1
  H  H1353  1  0.371400  0.537300  0.380300  1
  H  H1354  1  0.371400  0.962700  0.119700  1
  H  H1355  1  0.128600  0.462700  0.880300  1
  H  H1356  1  0.128600  0.037300  0.619700  1
  H  H1357  1  0.724500  0.436300  0.652100  1
  H  H1358  1  0.724500  0.063700  0.847900  1
  H  H1359  1  0.775500  0.563700  0.152100  1
  H  H1360  1  0.775500  0.936300  0.347900  1
  H  H1361  1  0.275500  0.563700  0.347900  1
  H  H1362  1  0.275500  0.936300  0.152100  1
  H  H1363  1  0.224500  0.436300  0.847900  1
  H  H1364  1  0.224500  0.063700  0.652100  1
  H  H1365  1  0.713300  0.487500  0.558700  1
  H  H1366  1  0.713300  0.012500  0.941300  1
  H  H1367  1  0.786700  0.512500  0.058700  1
  H  H1368  1  0.786700  0.987500  0.441300  1
  H  H1369  1  0.286700  0.512500  0.441300  1
  H  H1370  1  0.286700  0.987500  0.058700  1
  H  H1371  1  0.213300  0.487500  0.941300  1
  H  H1372  1  0.213300  0.012500  0.558700  1
  H  H1373  1  0.766700  0.430000  0.519500  1
  H  H1374  1  0.766700  0.070000  0.980500  1
  H  H1375  1  0.733300  0.570000  0.019500  1
  H  H1376  1  0.733300  0.930000  0.480500  1
  H  H1377  1  0.233300  0.570000  0.480500  1
  H  H1378  1  0.233300  0.930000  0.019500  1
  H  H1379  1  0.266700  0.430000  0.980500  1
  H  H1380  1  0.266700  0.070000  0.519500  1
  H  H1381  1  0.755800  0.413500  0.582900  1
  H  H1382  1  0.755800  0.086500  0.917100  1
  H  H1383  1  0.744200  0.586500  0.082900  1
  H  H1384  1  0.744200  0.913500  0.417100  1
  H  H1385  1  0.244200  0.586500  0.417100  1
  H  H1386  1  0.244200  0.913500  0.082900  1
  H  H1387  1  0.255800  0.413500  0.917100  1
  H  H1388  1  0.255800  0.086500  0.582900  1
  H  H1389  1  0.770100  0.549300  0.502000  1
  H  H1390  1  0.770100  0.950700  0.998000  1
  H  H1391  1  0.729900  0.450700  0.002000  1
  H  H1392  1  0.729900  0.049300  0.498000  1
  H  H1393  1  0.229900  0.450700  0.498000  1
  H  H1394  1  0.229900  0.049300  0.002000  1
  H  H1395  1  0.270100  0.549300  0.998000  1
  H  H1396  1  0.270100  0.950700  0.502000  1
  H  H1397  1  0.790800  0.576700  0.472200  1
  H  H1398  1  0.790800  0.923300  0.027800  1
  H  H1399  1  0.709200  0.423300  0.972200  1
  H  H1400  1  0.709200  0.076700  0.527800  1
  H  H1401  1  0.209200  0.423300  0.527800  1
  H  H1402  1  0.209200  0.076700  0.972200  1
  H  H1403  1  0.290800  0.576700  0.027800  1
  H  H1404  1  0.290800  0.923300  0.472200  1
  H  H1405  1  0.738300  0.485000  0.460800  1
  H  H1406  1  0.738300  0.015000  0.039200  1
  H  H1407  1  0.761700  0.515000  0.960800  1
  H  H1408  1  0.761700  0.985000  0.539200  1
  H  H1409  1  0.261700  0.515000  0.539200  1
  H  H1410  1  0.261700  0.985000  0.960800  1
  H  H1411  1  0.238300  0.485000  0.039200  1
  H  H1412  1  0.238300  0.015000  0.460800  1
  H  H1413  1  0.789400  0.560300  0.383400  1
  H  H1414  1  0.789400  0.939700  0.116600  1
  H  H1415  1  0.710600  0.439700  0.883400  1
  H  H1416  1  0.710600  0.060300  0.616600  1
  H  H1417  1  0.210600  0.439700  0.616600  1
  H  H1418  1  0.210600  0.060300  0.883400  1
  H  H1419  1  0.289400  0.560300  0.116600  1
  H  H1420  1  0.289400  0.939700  0.383400  1
  H  H1421  1  0.773000  0.521300  0.361200  1
  H  H1422  1  0.773000  0.978700  0.138800  1
  H  H1423  1  0.727000  0.478700  0.861200  1
  H  H1424  1  0.727000  0.021300  0.638800  1
  H  H1425  1  0.227000  0.478700  0.638800  1
  H  H1426  1  0.227000  0.021300  0.861200  1
  H  H1427  1  0.273000  0.521300  0.138800  1
  H  H1428  1  0.273000  0.978700  0.361200  1
  H  H1429  1  0.739100  0.476100  0.414700  1
  H  H1430  1  0.739100  0.023900  0.085300  1
  H  H1431  1  0.760900  0.523900  0.914700  1
  H  H1432  1  0.760900  0.976100  0.585300  1
  H  H1433  1  0.260900  0.523900  0.585300  1
  H  H1434  1  0.260900  0.976100  0.914700  1
  H  H1435  1  0.239100  0.476100  0.085300  1
  H  H1436  1  0.239100  0.023900  0.414700  1
  H  H1437  1  0.745300  0.448700  0.316600  1
  H  H1438  1  0.745300  0.051300  0.183400  1
  H  H1439  1  0.754700  0.551300  0.816600  1
  H  H1440  1  0.754700  0.948700  0.683400  1
  H  H1441  1  0.254700  0.551300  0.683400  1
  H  H1442  1  0.254700  0.948700  0.816600  1
  H  H1443  1  0.245300  0.448700  0.183400  1
  H  H1444  1  0.245300  0.051300  0.316600  1
  H  H1445  1  0.716200  0.417100  0.292100  1
  H  H1446  1  0.716200  0.082900  0.207900  1
  H  H1447  1  0.783800  0.582900  0.792100  1
  H  H1448  1  0.783800  0.917100  0.707900  1
  H  H1449  1  0.283800  0.582900  0.707900  1
  H  H1450  1  0.283800  0.917100  0.792100  1
  H  H1451  1  0.216200  0.417100  0.207900  1
  H  H1452  1  0.216200  0.082900  0.292100  1
  H  H1453  1  0.672700  0.383900  0.306000  1
  H  H1454  1  0.672700  0.116100  0.194000  1
  H  H1455  1  0.827300  0.616100  0.806000  1
  H  H1456  1  0.827300  0.883900  0.694000  1
  H  H1457  1  0.327300  0.616100  0.694000  1
  H  H1458  1  0.327300  0.883900  0.806000  1
  H  H1459  1  0.172700  0.383900  0.194000  1
  H  H1460  1  0.172700  0.116100  0.306000  1
  H  H1461  1  0.686600  0.412500  0.366200  1
  H  H1462  1  0.686600  0.087500  0.133800  1
  H  H1463  1  0.813400  0.587500  0.866200  1
  H  H1464  1  0.813400  0.912500  0.633800  1
  H  H1465  1  0.313400  0.587500  0.633800  1
  H  H1466  1  0.313400  0.912500  0.866200  1
  H  H1467  1  0.186600  0.412500  0.133800  1
  H  H1468  1  0.186600  0.087500  0.366200  1
  H  H1469  1  0.573100  0.419800  0.708800  1
  H  H1470  1  0.573100  0.080200  0.791200  1
  H  H1471  1  0.926900  0.580200  0.208800  1
  H  H1472  1  0.926900  0.919800  0.291200  1
  H  H1473  1  0.426900  0.580200  0.291200  1
  H  H1474  1  0.426900  0.919800  0.208800  1
  H  H1475  1  0.073100  0.419800  0.791200  1
  H  H1476  1  0.073100  0.080200  0.708800  1
  H  H1477  1  0.561300  0.424800  0.683400  1
  H  H1478  1  0.561300  0.075200  0.816600  1
  H  H1479  1  0.938700  0.575200  0.183400  1
  H  H1480  1  0.938700  0.924800  0.316600  1
  H  H1481  1  0.438700  0.575200  0.316600  1
  H  H1482  1  0.438700  0.924800  0.183400  1
  H  H1483  1  0.061300  0.424800  0.816600  1
  H  H1484  1  0.061300  0.075200  0.683400  1
  H  H1485  1  0.588600  0.468700  0.712500  1
  H  H1486  1  0.588600  0.031300  0.787500  1
  H  H1487  1  0.911400  0.531300  0.212500  1
  H  H1488  1  0.911400  0.968700  0.287500  1
  H  H1489  1  0.411400  0.531300  0.287500  1
  H  H1490  1  0.411400  0.968700  0.212500  1
  H  H1491  1  0.088600  0.468700  0.787500  1
  H  H1492  1  0.088600  0.031300  0.712500  1
  H  H1493  1  0.579500  0.474100  0.687200  1
  H  H1494  1  0.579500  0.025900  0.812800  1
  H  H1495  1  0.920500  0.525900  0.187200  1
  H  H1496  1  0.920500  0.974100  0.312800  1
  H  H1497  1  0.420500  0.525900  0.312800  1
  H  H1498  1  0.420500  0.974100  0.187200  1
  H  H1499  1  0.079500  0.474100  0.812800  1
  H  H1500  1  0.079500  0.025900  0.687200  1
  H  H1501  1  0.808200  0.596000  0.439600  1
  H  H1502  1  0.808200  0.904000  0.060400  1
  H  H1503  1  0.691800  0.404000  0.939600  1
  H  H1504  1  0.691800  0.096000  0.560400  1
  H  H1505  1  0.191800  0.404000  0.560400  1
  H  H1506  1  0.191800  0.096000  0.939600  1
  H  H1507  1  0.308200  0.596000  0.060400  1
  H  H1508  1  0.308200  0.904000  0.439600  1
  H  H1509  1  0.794100  0.597400  0.414600  1
  H  H1510  1  0.794100  0.902600  0.085400  1
  H  H1511  1  0.705900  0.402600  0.914600  1
  H  H1512  1  0.705900  0.097400  0.585400  1
  H  H1513  1  0.205900  0.402600  0.585400  1
  H  H1514  1  0.205900  0.097400  0.914600  1
  H  H1515  1  0.294100  0.597400  0.085400  1
  H  H1516  1  0.294100  0.902600  0.414600  1
  H  H1517  1  0.533300  0.505800  0.639300  1
  H  H1518  1  0.533300  0.994200  0.860700  1
  H  H1519  1  0.966700  0.494200  0.139300  1
  H  H1520  1  0.966700  0.005800  0.360700  1
  H  H1521  1  0.466700  0.494200  0.360700  1
  H  H1522  1  0.466700  0.005800  0.139300  1
  H  H1523  1  0.033300  0.505800  0.860700  1
  H  H1524  1  0.033300  0.994200  0.639300  1
  H  H1525  1  0.533900  0.530300  0.657800  1
  H  H1526  1  0.533900  0.969700  0.842200  1
  H  H1527  1  0.966100  0.469700  0.157800  1
  H  H1528  1  0.966100  0.030300  0.342200  1
  H  H1529  1  0.466100  0.469700  0.342200  1
  H  H1530  1  0.466100  0.030300  0.157800  1
  H  H1531  1  0.033900  0.530300  0.842200  1
  H  H1532  1  0.033900  0.969700  0.657800  1
  H  H1533  1  0.562100  0.503400  0.659800  1
  H  H1534  1  0.562100  0.996600  0.840200  1
  H  H1535  1  0.937900  0.496600  0.159800  1
  H  H1536  1  0.937900  0.003400  0.340200  1
  H  H1537  1  0.437900  0.496600  0.340200  1
  H  H1538  1  0.437900  0.003400  0.159800  1
  H  H1539  1  0.062100  0.503400  0.840200  1
  H  H1540  1  0.062100  0.996600  0.659800  1
  H  H1541  1  0.507700  0.472300  0.666100  1
  H  H1542  1  0.507700  0.027700  0.833900  1
  H  H1543  1  0.992300  0.527700  0.166100  1
  H  H1544  1  0.992300  0.972300  0.333900  1
  H  H1545  1  0.492300  0.527700  0.333900  1
  H  H1546  1  0.492300  0.972300  0.166100  1
  H  H1547  1  0.007700  0.472300  0.833900  1
  H  H1548  1  0.007700  0.027700  0.666100  1
  H  H1549  1  0.479300  0.499300  0.664000  1
  H  H1550  1  0.479300  0.000700  0.836000  1
  H  H1551  1  0.020700  0.500700  0.164000  1
  H  H1552  1  0.020700  0.999300  0.336000  1
  H  H1553  1  0.520700  0.500700  0.336000  1
  H  H1554  1  0.520700  0.999300  0.164000  1
  H  H1555  1  0.979300  0.499300  0.836000  1
  H  H1556  1  0.979300  0.000700  0.664000  1
  H  H1557  1  0.531300  0.517900  0.694800  1
  H  H1558  1  0.531300  0.982100  0.805200  1
  H  H1559  1  0.968700  0.482100  0.194800  1
  H  H1560  1  0.968700  0.017900  0.305200  1
  H  H1561  1  0.468700  0.482100  0.305200  1
  H  H1562  1  0.468700  0.017900  0.194800  1
  H  H1563  1  0.031300  0.517900  0.805200  1
  H  H1564  1  0.031300  0.982100  0.694800  1
  H  H1565  1  0.489400  0.506700  0.701400  1
  H  H1566  1  0.489400  0.993300  0.798600  1
  H  H1567  1  0.010600  0.493300  0.201400  1
  H  H1568  1  0.010600  0.006700  0.298600  1
  H  H1569  1  0.510600  0.493300  0.298600  1
  H  H1570  1  0.510600  0.006700  0.201400  1
  H  H1571  1  0.989400  0.506700  0.798600  1
  H  H1572  1  0.989400  0.993300  0.701400  1
  H  H1573  1  0.533500  0.480500  0.722300  1
  H  H1574  1  0.533500  0.019500  0.777700  1
  H  H1575  1  0.966500  0.519500  0.222300  1
  H  H1576  1  0.966500  0.980500  0.277700  1
  H  H1577  1  0.466500  0.519500  0.277700  1
  H  H1578  1  0.466500  0.980500  0.222300  1
  H  H1579  1  0.033500  0.480500  0.777700  1
  H  H1580  1  0.033500  0.019500  0.722300  1
  H  H1581  1  0.513800  0.459200  0.705300  1
  H  H1582  1  0.513800  0.040800  0.794700  1
  H  H1583  1  0.986200  0.540800  0.205300  1
  H  H1584  1  0.986200  0.959200  0.294700  1
  H  H1585  1  0.486200  0.540800  0.294700  1
  H  H1586  1  0.486200  0.959200  0.205300  1
  H  H1587  1  0.013800  0.459200  0.794700  1
  H  H1588  1  0.013800  0.040800  0.705300  1
  H  H1589  1  0.846900  0.575600  0.402300  1
  H  H1590  1  0.846900  0.924400  0.097700  1
  H  H1591  1  0.653100  0.424400  0.902300  1
  H  H1592  1  0.653100  0.075600  0.597700  1
  H  H1593  1  0.153100  0.424400  0.597700  1
  H  H1594  1  0.153100  0.075600  0.902300  1
  H  H1595  1  0.346900  0.575600  0.097700  1
  H  H1596  1  0.346900  0.924400  0.402300  1
  H  H1597  1  0.859900  0.601000  0.418100  1
  H  H1598  1  0.859900  0.899000  0.081900  1
  H  H1599  1  0.640100  0.399000  0.918100  1
  H  H1600  1  0.640100  0.101000  0.581900  1
  H  H1601  1  0.140100  0.399000  0.581900  1
  H  H1602  1  0.140100  0.101000  0.918100  1
  H  H1603  1  0.359900  0.601000  0.081900  1
  H  H1604  1  0.359900  0.899000  0.418100  1
  H  H1605  1  0.860200  0.544400  0.428500  1
  H  H1606  1  0.860200  0.955600  0.071500  1
  H  H1607  1  0.639800  0.455600  0.928500  1
  H  H1608  1  0.639800  0.044400  0.571500  1
  H  H1609  1  0.139800  0.455600  0.571500  1
  H  H1610  1  0.139800  0.044400  0.928500  1
  H  H1611  1  0.360200  0.544400  0.071500  1
  H  H1612  1  0.360200  0.955600  0.428500  1
  H  H1613  1  0.873000  0.569900  0.444500  1
  H  H1614  1  0.873000  0.930100  0.055500  1
  H  H1615  1  0.627000  0.430100  0.944500  1
  H  H1616  1  0.627000  0.069900  0.555500  1
  H  H1617  1  0.127000  0.430100  0.555500  1
  H  H1618  1  0.127000  0.069900  0.944500  1
  H  H1619  1  0.373000  0.569900  0.055500  1
  H  H1620  1  0.373000  0.930100  0.444500  1
  H  H1621  1  0.915000  0.553300  0.403500  1
  H  H1622  1  0.915000  0.946700  0.096500  1
  H  H1623  1  0.585000  0.446700  0.903500  1
  H  H1624  1  0.585000  0.053300  0.596500  1
  H  H1625  1  0.085000  0.446700  0.596500  1
  H  H1626  1  0.085000  0.053300  0.903500  1
  H  H1627  1  0.415000  0.553300  0.096500  1
  H  H1628  1  0.415000  0.946700  0.403500  1
  H  H1629  1  0.925500  0.582700  0.416300  1
  H  H1630  1  0.925500  0.917300  0.083700  1
  H  H1631  1  0.574500  0.417300  0.916300  1
  H  H1632  1  0.574500  0.082700  0.583700  1
  H  H1633  1  0.074500  0.417300  0.583700  1
  H  H1634  1  0.074500  0.082700  0.916300  1
  H  H1635  1  0.425500  0.582700  0.083700  1
  H  H1636  1  0.425500  0.917300  0.416300  1
  H  H1637  1  0.918100  0.529800  0.438700  1
  H  H1638  1  0.918100  0.970200  0.061300  1
  H  H1639  1  0.581900  0.470200  0.938700  1
  H  H1640  1  0.581900  0.029800  0.561300  1
  H  H1641  1  0.081900  0.470200  0.561300  1
  H  H1642  1  0.081900  0.029800  0.938700  1
  H  H1643  1  0.418100  0.529800  0.061300  1
  H  H1644  1  0.418100  0.970200  0.438700  1
  H  H1645  1  0.935100  0.558700  0.448800  1
  H  H1646  1  0.935100  0.941300  0.051200  1
  H  H1647  1  0.564900  0.441300  0.948800  1
  H  H1648  1  0.564900  0.058700  0.551200  1
  H  H1649  1  0.064900  0.441300  0.551200  1
  H  H1650  1  0.064900  0.058700  0.948800  1
  H  H1651  1  0.435100  0.558700  0.051200  1
  H  H1652  1  0.435100  0.941300  0.448800  1
  H  H1653  1  0.984200  0.526400  0.442200  1
  H  H1654  1  0.984200  0.973600  0.057800  1
  H  H1655  1  0.515800  0.473600  0.942200  1
  H  H1656  1  0.515800  0.026400  0.557800  1
  H  H1657  1  0.015800  0.473600  0.557800  1
  H  H1658  1  0.015800  0.026400  0.942200  1
  H  H1659  1  0.484200  0.526400  0.057800  1
  H  H1660  1  0.484200  0.973600  0.442200  1
  H  H1661  1  0.972700  0.524800  0.416700  1
  H  H1662  1  0.972700  0.975200  0.083300  1
  H  H1663  1  0.527300  0.475200  0.916700  1
  H  H1664  1  0.527300  0.024800  0.583300  1
  H  H1665  1  0.027300  0.475200  0.583300  1
  H  H1666  1  0.027300  0.024800  0.916700  1
  H  H1667  1  0.472700  0.524800  0.083300  1
  H  H1668  1  0.472700  0.975200  0.416700  1
  H  H1669  1  0.989800  0.553800  0.426800  1
  H  H1670  1  0.989800  0.946200  0.073200  1
  H  H1671  1  0.510200  0.446200  0.926800  1
  H  H1672  1  0.510200  0.053800  0.573200  1
  H  H1673  1  0.010200  0.446200  0.573200  1
  H  H1674  1  0.010200  0.053800  0.926800  1
  H  H1675  1  0.489800  0.553800  0.073200  1
  H  H1676  1  0.489800  0.946200  0.426800  1
  H  H1677  1  0.840600  0.424000  0.688200  1
  H  H1678  1  0.840600  0.076000  0.811800  1
  H  H1679  1  0.659400  0.576000  0.188200  1
  H  H1680  1  0.659400  0.924000  0.311800  1
  H  H1681  1  0.159400  0.576000  0.311800  1
  H  H1682  1  0.159400  0.924000  0.188200  1
  H  H1683  1  0.340600  0.424000  0.811800  1
  H  H1684  1  0.340600  0.076000  0.688200  1
  H  H1685  1  0.821800  0.471200  0.692600  1
  H  H1686  1  0.821800  0.028800  0.807400  1
  H  H1687  1  0.678200  0.528800  0.192600  1
  H  H1688  1  0.678200  0.971200  0.307400  1
  H  H1689  1  0.178200  0.528800  0.307400  1
  H  H1690  1  0.178200  0.971200  0.192600  1
  H  H1691  1  0.321800  0.471200  0.807400  1
  H  H1692  1  0.321800  0.028800  0.692600  1
  H  H1693  1  0.812400  0.499500  0.661100  1
  H  H1694  1  0.812400  0.000500  0.838900  1
  H  H1695  1  0.687600  0.500500  0.161100  1
  H  H1696  1  0.687600  0.999500  0.338900  1
  H  H1697  1  0.187600  0.500500  0.338900  1
  H  H1698  1  0.187600  0.999500  0.161100  1
  H  H1699  1  0.312400  0.499500  0.838900  1
  H  H1700  1  0.312400  0.000500  0.661100  1
  H  H1701  1  0.842000  0.431700  0.623700  1
  H  H1702  1  0.842000  0.068300  0.876300  1
  H  H1703  1  0.658000  0.568300  0.123700  1
  H  H1704  1  0.658000  0.931700  0.376300  1
  H  H1705  1  0.158000  0.568300  0.376300  1
  H  H1706  1  0.158000  0.931700  0.123700  1
  H  H1707  1  0.342000  0.431700  0.876300  1
  H  H1708  1  0.342000  0.068300  0.623700  1
  H  H1709  1  0.861600  0.549400  0.600600  1
  H  H1710  1  0.861600  0.950600  0.899400  1
  H  H1711  1  0.638400  0.450600  0.100600  1
  H  H1712  1  0.638400  0.049400  0.399400  1
  H  H1713  1  0.138400  0.450600  0.399400  1
  H  H1714  1  0.138400  0.049400  0.100600  1
  H  H1715  1  0.361600  0.549400  0.899400  1
  H  H1716  1  0.361600  0.950600  0.600600  1
  H  H1717  1  0.883000  0.575500  0.570500  1
  H  H1718  1  0.883000  0.924500  0.929500  1
  H  H1719  1  0.617000  0.424500  0.070500  1
  H  H1720  1  0.617000  0.075500  0.429500  1
  H  H1721  1  0.117000  0.424500  0.429500  1
  H  H1722  1  0.117000  0.075500  0.070500  1
  H  H1723  1  0.383000  0.575500  0.929500  1
  H  H1724  1  0.383000  0.924500  0.570500  1
  H  H1725  1  0.825200  0.484900  0.561700  1
  H  H1726  1  0.825200  0.015100  0.938300  1
  H  H1727  1  0.674800  0.515100  0.061700  1
  H  H1728  1  0.674800  0.984900  0.438300  1
  H  H1729  1  0.174800  0.515100  0.438300  1
  H  H1730  1  0.174800  0.984900  0.061700  1
  H  H1731  1  0.325200  0.484900  0.938300  1
  H  H1732  1  0.325200  0.015100  0.561700  1
  H  H1733  1  0.884400  0.553700  0.482300  1
  H  H1734  1  0.884400  0.946300  0.017700  1
  H  H1735  1  0.615600  0.446300  0.982300  1
  H  H1736  1  0.615600  0.053700  0.517700  1
  H  H1737  1  0.115600  0.446300  0.517700  1
  H  H1738  1  0.115600  0.053700  0.982300  1
  H  H1739  1  0.384400  0.553700  0.017700  1
  H  H1740  1  0.384400  0.946300  0.482300  1
  H  H1741  1  0.863100  0.514900  0.461500  1
  H  H1742  1  0.863100  0.985100  0.038500  1
  H  H1743  1  0.636900  0.485100  0.961500  1
  H  H1744  1  0.636900  0.014900  0.538500  1
  H  H1745  1  0.136900  0.485100  0.538500  1
  H  H1746  1  0.136900  0.014900  0.961500  1
  H  H1747  1  0.363100  0.514900  0.038500  1
  H  H1748  1  0.363100  0.985100  0.461500  1
  H  H1749  1  0.829200  0.472500  0.516000  1
  H  H1750  1  0.829200  0.027500  0.984000  1
  H  H1751  1  0.670800  0.527500  0.016000  1
  H  H1752  1  0.670800  0.972500  0.484000  1
  H  H1753  1  0.170800  0.527500  0.484000  1
  H  H1754  1  0.170800  0.972500  0.016000  1
  H  H1755  1  0.329200  0.472500  0.984000  1
  H  H1756  1  0.329200  0.027500  0.516000  1
  H  H1757  1  0.834200  0.439700  0.418700  1
  H  H1758  1  0.834200  0.060300  0.081300  1
  H  H1759  1  0.665800  0.560300  0.918700  1
  H  H1760  1  0.665800  0.939700  0.581300  1
  H  H1761  1  0.165800  0.560300  0.581300  1
  H  H1762  1  0.165800  0.939700  0.918700  1
  H  H1763  1  0.334200  0.439700  0.081300  1
  H  H1764  1  0.334200  0.060300  0.418700  1
  H  H1765  1  0.749100  0.382600  0.408700  1
  H  H1766  1  0.749100  0.117400  0.091300  1
  H  H1767  1  0.750900  0.617400  0.908700  1
  H  H1768  1  0.750900  0.882600  0.591300  1
  H  H1769  1  0.250900  0.617400  0.591300  1
  H  H1770  1  0.250900  0.882600  0.908700  1
  H  H1771  1  0.249100  0.382600  0.091300  1
  H  H1772  1  0.249100  0.117400  0.408700  1
  H  H1773  1  0.762300  0.415700  0.467500  1
  H  H1774  1  0.762300  0.084300  0.032500  1
  H  H1775  1  0.737700  0.584300  0.967500  1
  H  H1776  1  0.737700  0.915700  0.532500  1
  H  H1777  1  0.237700  0.584300  0.532500  1
  H  H1778  1  0.237700  0.915700  0.967500  1
  H  H1779  1  0.262300  0.415700  0.032500  1
  H  H1780  1  0.262300  0.084300  0.467500  1
  H  H1781  1  0.887900  0.398400  0.357100  1
  H  H1782  1  0.887900  0.101600  0.142900  1
  H  H1783  1  0.612100  0.601600  0.857100  1
  H  H1784  1  0.612100  0.898400  0.642900  1
  H  H1785  1  0.112100  0.601600  0.642900  1
  H  H1786  1  0.112100  0.898400  0.857100  1
  H  H1787  1  0.387900  0.398400  0.142900  1
  H  H1788  1  0.387900  0.101600  0.357100  1
  H  H1789  1  0.915500  0.376800  0.326300  1
  H  H1790  1  0.915500  0.123200  0.173700  1
  H  H1791  1  0.584500  0.623200  0.826300  1
  H  H1792  1  0.584500  0.876800  0.673700  1
  H  H1793  1  0.084500  0.623200  0.673700  1
  H  H1794  1  0.084500  0.876800  0.826300  1
  H  H1795  1  0.415500  0.376800  0.173700  1
  H  H1796  1  0.415500  0.123200  0.326300  1
  H  H1797  1  0.780800  0.377200  0.336500  1
  H  H1798  1  0.780800  0.122800  0.163500  1
  H  H1799  1  0.719200  0.622800  0.836500  1
  H  H1800  1  0.719200  0.877200  0.663500  1
  H  H1801  1  0.219200  0.622800  0.663500  1
  H  H1802  1  0.219200  0.877200  0.836500  1
  H  H1803  1  0.280800  0.377200  0.163500  1
  H  H1804  1  0.280800  0.122800  0.336500  1
  H  H1805  1  0.855200  0.313300  0.259200  1
  H  H1806  1  0.855200  0.186700  0.240800  1
  H  H1807  1  0.644800  0.686700  0.759200  1
  H  H1808  1  0.644800  0.813300  0.740800  1
  H  H1809  1  0.144800  0.686700  0.740800  1
  H  H1810  1  0.144800  0.813300  0.759200  1
  H  H1811  1  0.355200  0.313300  0.240800  1
  H  H1812  1  0.355200  0.186700  0.259200  1
  H  H1813  1  0.792900  0.304900  0.247400  1
  H  H1814  1  0.792900  0.195100  0.252600  1
  H  H1815  1  0.707100  0.695100  0.747400  1
  H  H1816  1  0.707100  0.804900  0.752600  1
  H  H1817  1  0.207100  0.695100  0.752600  1
  H  H1818  1  0.207100  0.804900  0.747400  1
  H  H1819  1  0.292900  0.304900  0.252600  1
  H  H1820  1  0.292900  0.195100  0.247400  1
  H  H1821  1  0.749100  0.348300  0.299500  1
  H  H1822  1  0.749100  0.151700  0.200500  1
  H  H1823  1  0.750900  0.651700  0.799500  1
  H  H1824  1  0.750900  0.848300  0.700500  1
  H  H1825  1  0.250900  0.651700  0.700500  1
  H  H1826  1  0.250900  0.848300  0.799500  1
  H  H1827  1  0.249100  0.348300  0.200500  1
  H  H1828  1  0.249100  0.151700  0.299500  1
  H  H1829  1  0.678800  0.297200  0.215400  1
  H  H1830  1  0.678800  0.202800  0.284600  1
  H  H1831  1  0.821200  0.702800  0.715400  1
  H  H1832  1  0.821200  0.797200  0.784600  1
  H  H1833  1  0.321200  0.702800  0.784600  1
  H  H1834  1  0.321200  0.797200  0.715400  1
  H  H1835  1  0.178800  0.297200  0.284600  1
  H  H1836  1  0.178800  0.202800  0.215400  1
  H  H1837  1  0.620500  0.302800  0.196200  1
  H  H1838  1  0.620500  0.197200  0.303800  1
  H  H1839  1  0.879500  0.697200  0.696200  1
  H  H1840  1  0.879500  0.802800  0.803800  1
  H  H1841  1  0.379500  0.697200  0.803800  1
  H  H1842  1  0.379500  0.802800  0.696200  1
  H  H1843  1  0.120500  0.302800  0.303800  1
  H  H1844  1  0.120500  0.197200  0.196200  1
  H  H1845  1  0.573400  0.331600  0.211100  1
  H  H1846  1  0.573400  0.168400  0.288900  1
  H  H1847  1  0.926600  0.668400  0.711100  1
  H  H1848  1  0.926600  0.831600  0.788900  1
  H  H1849  1  0.426600  0.668400  0.788900  1
  H  H1850  1  0.426600  0.831600  0.711100  1
  H  H1851  1  0.073400  0.331600  0.288900  1
  H  H1852  1  0.073400  0.168400  0.211100  1
  H  H1853  1  0.637000  0.349500  0.262500  1
  H  H1854  1  0.637000  0.150500  0.237500  1
  H  H1855  1  0.863000  0.650500  0.762500  1
  H  H1856  1  0.863000  0.849500  0.737500  1
  H  H1857  1  0.363000  0.650500  0.737500  1
  H  H1858  1  0.363000  0.849500  0.762500  1
  H  H1859  1  0.137000  0.349500  0.237500  1
  H  H1860  1  0.137000  0.150500  0.262500  1
  H  H1861  1  0.892300  0.596200  0.535800  1
  H  H1862  1  0.892300  0.903800  0.964200  1
  H  H1863  1  0.607700  0.403800  0.035800  1
  H  H1864  1  0.607700  0.096200  0.464200  1
  H  H1865  1  0.107700  0.403800  0.464200  1
  H  H1866  1  0.107700  0.096200  0.035800  1
  H  H1867  1  0.392300  0.596200  0.964200  1
  H  H1868  1  0.392300  0.903800  0.535800  1
  H  H1869  1  0.892300  0.590500  0.509800  1
  H  H1870  1  0.892300  0.909500  0.990200  1
  H  H1871  1  0.607700  0.409500  0.009800  1
  H  H1872  1  0.607700  0.090500  0.490200  1
  H  H1873  1  0.107700  0.409500  0.490200  1
  H  H1874  1  0.107700  0.090500  0.009800  1
  H  H1875  1  0.392300  0.590500  0.990200  1
  H  H1876  1  0.392300  0.909500  0.509800  1
  H  H1877  1  0.953900  0.597500  0.522800  1
  H  H1878  1  0.953900  0.902500  0.977200  1
  H  H1879  1  0.546100  0.402500  0.022800  1
  H  H1880  1  0.546100  0.097500  0.477200  1
  H  H1881  1  0.046100  0.402500  0.477200  1
  H  H1882  1  0.046100  0.097500  0.022800  1
  H  H1883  1  0.453900  0.597500  0.977200  1
  H  H1884  1  0.453900  0.902500  0.522800  1
  H  H1885  1  0.949000  0.571900  0.539800  1
  H  H1886  1  0.949000  0.928100  0.960200  1
  H  H1887  1  0.551000  0.428100  0.039800  1
  H  H1888  1  0.551000  0.071900  0.460200  1
  H  H1889  1  0.051000  0.428100  0.460200  1
  H  H1890  1  0.051000  0.071900  0.039800  1
  H  H1891  1  0.449000  0.571900  0.960200  1
  H  H1892  1  0.449000  0.928100  0.539800  1
  H  H1893  1  0.955800  0.566200  0.494200  1
  H  H1894  1  0.955800  0.933800  0.005800  1
  H  H1895  1  0.544200  0.433800  0.994200  1
  H  H1896  1  0.544200  0.066200  0.505800  1
  H  H1897  1  0.044200  0.433800  0.505800  1
  H  H1898  1  0.044200  0.066200  0.994200  1
  H  H1899  1  0.455800  0.566200  0.005800  1
  H  H1900  1  0.455800  0.933800  0.494200  1
  H  H1901  1  0.949000  0.540200  0.510800  1
  H  H1902  1  0.949000  0.959800  0.989200  1
  H  H1903  1  0.551000  0.459800  0.010800  1
  H  H1904  1  0.551000  0.040200  0.489200  1
  H  H1905  1  0.051000  0.459800  0.489200  1
  H  H1906  1  0.051000  0.040200  0.010800  1
  H  H1907  1  0.449000  0.540200  0.989200  1
  H  H1908  1  0.449000  0.959800  0.510800  1
  H  H1909  1  0.013600  0.551300  0.497100  1
  H  H1910  1  0.013600  0.948700  0.002900  1
  H  H1911  1  0.486400  0.448700  0.997100  1
  H  H1912  1  0.486400  0.051300  0.502900  1
  H  H1913  1  0.986400  0.448700  0.502900  1
  H  H1914  1  0.986400  0.051300  0.997100  1
  H  H1915  1  0.513600  0.551300  0.002900  1
  H  H1916  1  0.513600  0.948700  0.497100  1
  H  H1917  1  0.013600  0.574800  0.516000  1
  H  H1918  1  0.013600  0.925200  0.984000  1
  H  H1919  1  0.486400  0.425200  0.016000  1
  H  H1920  1  0.486400  0.074800  0.484000  1
  H  H1921  1  0.986400  0.425200  0.484000  1
  H  H1922  1  0.986400  0.074800  0.016000  1
  H  H1923  1  0.513600  0.574800  0.984000  1
  H  H1924  1  0.513600  0.925200  0.516000  1
  H  H1925  1  0.000200  0.519600  0.526500  1
  H  H1926  1  0.000200  0.980400  0.973500  1
  H  H1927  1  0.499800  0.480400  0.026500  1
  H  H1928  1  0.499800  0.019600  0.473500  1
  H  H1929  1  0.999800  0.480400  0.473500  1
  H  H1930  1  0.999800  0.019600  0.026500  1
  H  H1931  1  0.500200  0.519600  0.973500  1
  H  H1932  1  0.500200  0.980400  0.526500  1
  H  H1933  1  0.016400  0.544800  0.541300  1
  H  H1934  1  0.016400  0.955200  0.958700  1
  H  H1935  1  0.483600  0.455200  0.041300  1
  H  H1936  1  0.483600  0.044800  0.458700  1
  H  H1937  1  0.983600  0.455200  0.458700  1
  H  H1938  1  0.983600  0.044800  0.041300  1
  H  H1939  1  0.516400  0.544800  0.958700  1
  H  H1940  1  0.516400  0.955200  0.541300  1
  H  H1941  1  0.061800  0.510600  0.536500  1
  H  H1942  1  0.061800  0.989400  0.963500  1
  H  H1943  1  0.438200  0.489400  0.036500  1
  H  H1944  1  0.438200  0.010600  0.463500  1
  H  H1945  1  0.938200  0.489400  0.463500  1
  H  H1946  1  0.938200  0.010600  0.036500  1
  H  H1947  1  0.561800  0.510600  0.963500  1
  H  H1948  1  0.561800  0.989400  0.536500  1
  H  H1949  1  0.059800  0.514300  0.510300  1
  H  H1950  1  0.059800  0.985700  0.989700  1
  H  H1951  1  0.440200  0.485700  0.010300  1
  H  H1952  1  0.440200  0.014300  0.489700  1
  H  H1953  1  0.940200  0.485700  0.489700  1
  H  H1954  1  0.940200  0.014300  0.010300  1
  H  H1955  1  0.559800  0.514300  0.989700  1
  H  H1956  1  0.559800  0.985700  0.510300  1
  H  H1957  1  0.076100  0.539700  0.525300  1
  H  H1958  1  0.076100  0.960300  0.974700  1
  H  H1959  1  0.423900  0.460300  0.025300  1
  H  H1960  1  0.423900  0.039700  0.474700  1
  H  H1961  1  0.923900  0.460300  0.474700  1
  H  H1962  1  0.923900  0.039700  0.025300  1
  H  H1963  1  0.576100  0.539700  0.974700  1
  H  H1964  1  0.576100  0.960300  0.525300  1
  H  H1965  1  0.928500  0.356700  0.289000  1
  H  H1966  1  0.928500  0.143300  0.211000  1
  H  H1967  1  0.571500  0.643300  0.789000  1
  H  H1968  1  0.571500  0.856700  0.711000  1
  H  H1969  1  0.071500  0.643300  0.711000  1
  H  H1970  1  0.071500  0.856700  0.789000  1
  H  H1971  1  0.428500  0.356700  0.211000  1
  H  H1972  1  0.428500  0.143300  0.289000  1
  H  H1973  1  0.911600  0.332800  0.272800  1
  H  H1974  1  0.911600  0.167200  0.227200  1
  H  H1975  1  0.588400  0.667200  0.772800  1
  H  H1976  1  0.588400  0.832800  0.727200  1
  H  H1977  1  0.088400  0.667200  0.727200  1
  H  H1978  1  0.088400  0.832800  0.772800  1
  H  H1979  1  0.411600  0.332800  0.227200  1
  H  H1980  1  0.411600  0.167200  0.272800  1
  H  H1981  1  0.956500  0.311300  0.297200  1
  H  H1982  1  0.956500  0.188700  0.202800  1
  H  H1983  1  0.543500  0.688700  0.797200  1
  H  H1984  1  0.543500  0.811300  0.702800  1
  H  H1985  1  0.043500  0.688700  0.702800  1
  H  H1986  1  0.043500  0.811300  0.797200  1
  H  H1987  1  0.456500  0.311300  0.202800  1
  H  H1988  1  0.456500  0.188700  0.297200  1
  H  H1989  1  0.934500  0.323700  0.318100  1
  H  H1990  1  0.934500  0.176300  0.181900  1
  H  H1991  1  0.565500  0.676300  0.818100  1
  H  H1992  1  0.565500  0.823700  0.681900  1
  H  H1993  1  0.065500  0.676300  0.681900  1
  H  H1994  1  0.065500  0.823700  0.818100  1
  H  H1995  1  0.434500  0.323700  0.181900  1
  H  H1996  1  0.434500  0.176300  0.318100  1
  H  H1997  1  0.903600  0.278900  0.292600  1
  H  H1998  1  0.903600  0.221100  0.207400  1
  H  H1999  1  0.596400  0.721100  0.792600  1
  H  H2000  1  0.596400  0.778900  0.707400  1
  H  H2001  1  0.096400  0.721100  0.707400  1
  H  H2002  1  0.096400  0.778900  0.792600  1
  H  H2003  1  0.403600  0.278900  0.207400  1
  H  H2004  1  0.403600  0.221100  0.292600  1
  H  H2005  1  0.889000  0.289300  0.316300  1
  H  H2006  1  0.889000  0.210700  0.183700  1
  H  H2007  1  0.611000  0.710700  0.816300  1
  H  H2008  1  0.611000  0.789300  0.683700  1
  H  H2009  1  0.111000  0.710700  0.683700  1
  H  H2010  1  0.111000  0.789300  0.816300  1
  H  H2011  1  0.389000  0.289300  0.183700  1
  H  H2012  1  0.389000  0.210700  0.316300  1
  H  H2013  1  0.956300  0.257700  0.307000  1
  H  H2014  1  0.956300  0.242300  0.193000  1
  H  H2015  1  0.543700  0.742300  0.807000  1
  H  H2016  1  0.543700  0.757700  0.693000  1
  H  H2017  1  0.043700  0.742300  0.693000  1
  H  H2018  1  0.043700  0.757700  0.807000  1
  H  H2019  1  0.456300  0.257700  0.193000  1
  H  H2020  1  0.456300  0.242300  0.307000  1
  H  H2021  1  0.951700  0.273800  0.330000  1
  H  H2022  1  0.951700  0.226200  0.170000  1
  H  H2023  1  0.548300  0.726200  0.830000  1
  H  H2024  1  0.548300  0.773800  0.670000  1
  H  H2025  1  0.048300  0.726200  0.670000  1
  H  H2026  1  0.048300  0.773800  0.830000  1
  H  H2027  1  0.451700  0.273800  0.170000  1
  H  H2028  1  0.451700  0.226200  0.330000  1
  H  H2029  1  0.897100  0.244600  0.337400  1
  H  H2030  1  0.897100  0.255400  0.162600  1
  H  H2031  1  0.602900  0.755400  0.837400  1
  H  H2032  1  0.602900  0.744600  0.662600  1
  H  H2033  1  0.102900  0.755400  0.662600  1
  H  H2034  1  0.102900  0.744600  0.837400  1
  H  H2035  1  0.397100  0.244600  0.162600  1
  H  H2036  1  0.397100  0.255400  0.337400  1
  H  H2037  1  0.906300  0.227200  0.315400  1
  H  H2038  1  0.906300  0.272800  0.184600  1
  H  H2039  1  0.593700  0.772800  0.815400  1
  H  H2040  1  0.593700  0.727200  0.684600  1
  H  H2041  1  0.093700  0.772800  0.684600  1
  H  H2042  1  0.093700  0.727200  0.815400  1
  H  H2043  1  0.406300  0.227200  0.184600  1
  H  H2044  1  0.406300  0.272800  0.315400  1
  H  H2045  1  0.930600  0.203400  0.345700  1
  H  H2046  1  0.930600  0.296600  0.154300  1
  H  H2047  1  0.569400  0.796600  0.845700  1
  H  H2048  1  0.569400  0.703400  0.654300  1
  H  H2049  1  0.069400  0.796600  0.654300  1
  H  H2050  1  0.069400  0.703400  0.845700  1
  H  H2051  1  0.430600  0.203400  0.154300  1
  H  H2052  1  0.430600  0.296600  0.345700  1
  H  H2053  1  0.965100  0.213300  0.330000  1
  H  H2054  1  0.965100  0.286700  0.170000  1
  H  H2055  1  0.534900  0.786700  0.830000  1
  H  H2056  1  0.534900  0.713300  0.670000  1
  H  H2057  1  0.034900  0.786700  0.670000  1
  H  H2058  1  0.034900  0.713300  0.830000  1
  H  H2059  1  0.465100  0.213300  0.170000  1
  H  H2060  1  0.465100  0.286700  0.330000  1
  H  H2061  1  0.955900  0.230700  0.352100  1
  H  H2062  1  0.955900  0.269300  0.147900  1
  H  H2063  1  0.544100  0.769300  0.852100  1
  H  H2064  1  0.544100  0.730700  0.647900  1
  H  H2065  1  0.044100  0.769300  0.647900  1
  H  H2066  1  0.044100  0.730700  0.852100  1
  H  H2067  1  0.455900  0.230700  0.147900  1
  H  H2068  1  0.455900  0.269300  0.352100  1
  H  H2069  1  0.930000  0.350500  0.669300  1
  H  H2070  1  0.930000  0.149500  0.830700  1
  H  H2071  1  0.570000  0.649500  0.169300  1
  H  H2072  1  0.570000  0.850500  0.330700  1
  H  H2073  1  0.070000  0.649500  0.330700  1
  H  H2074  1  0.070000  0.850500  0.169300  1
  H  H2075  1  0.430000  0.350500  0.830700  1
  H  H2076  1  0.430000  0.149500  0.669300  1
  H  H2077  1  0.953900  0.304200  0.666000  1
  H  H2078  1  0.953900  0.195800  0.834000  1
  H  H2079  1  0.546100  0.695800  0.166000  1
  H  H2080  1  0.546100  0.804200  0.334000  1
  H  H2081  1  0.046100  0.695800  0.334000  1
  H  H2082  1  0.046100  0.804200  0.166000  1
  H  H2083  1  0.453900  0.304200  0.834000  1
  H  H2084  1  0.453900  0.195800  0.666000  1
  H  H2085  1  0.926300  0.273100  0.639900  1
  H  H2086  1  0.926300  0.226900  0.860100  1
  H  H2087  1  0.573700  0.726900  0.139900  1
  H  H2088  1  0.573700  0.773100  0.360100  1
  H  H2089  1  0.073700  0.726900  0.360100  1
  H  H2090  1  0.073700  0.773100  0.139900  1
  H  H2091  1  0.426300  0.273100  0.860100  1
  H  H2092  1  0.426300  0.226900  0.639900  1
  H  H2093  1  0.848800  0.334500  0.625800  1
  H  H2094  1  0.848800  0.165500  0.874200  1
  H  H2095  1  0.651200  0.665500  0.125800  1
  H  H2096  1  0.651200  0.834500  0.374200  1
  H  H2097  1  0.151200  0.665500  0.374200  1
  H  H2098  1  0.151200  0.834500  0.125800  1
  H  H2099  1  0.348800  0.334500  0.874200  1
  H  H2100  1  0.348800  0.165500  0.625800  1
  H  H2101  1  0.837300  0.211600  0.613800  1
  H  H2102  1  0.837300  0.288400  0.886200  1
  H  H2103  1  0.662700  0.788400  0.113800  1
  H  H2104  1  0.662700  0.711600  0.386200  1
  H  H2105  1  0.162700  0.788400  0.386200  1
  H  H2106  1  0.162700  0.711600  0.113800  1
  H  H2107  1  0.337300  0.211600  0.886200  1
  H  H2108  1  0.337300  0.288400  0.613800  1
  H  H2109  1  0.795200  0.177400  0.600100  1
  H  H2110  1  0.795200  0.322600  0.899900  1
  H  H2111  1  0.704800  0.822600  0.100100  1
  H  H2112  1  0.704800  0.677400  0.399900  1
  H  H2113  1  0.204800  0.822600  0.399900  1
  H  H2114  1  0.204800  0.677400  0.100100  1
  H  H2115  1  0.295200  0.177400  0.899900  1
  H  H2116  1  0.295200  0.322600  0.600100  1
  H  H2117  1  0.789600  0.273600  0.576600  1
  H  H2118  1  0.789600  0.226400  0.923400  1
  H  H2119  1  0.710400  0.726400  0.076600  1
  H  H2120  1  0.710400  0.773600  0.423400  1
  H  H2121  1  0.210400  0.726400  0.423400  1
  H  H2122  1  0.210400  0.773600  0.076600  1
  H  H2123  1  0.289600  0.273600  0.923400  1
  H  H2124  1  0.289600  0.226400  0.576600  1
  H  H2125  1  0.678400  0.183300  0.540200  1
  H  H2126  1  0.678400  0.316700  0.959800  1
  H  H2127  1  0.821600  0.816700  0.040200  1
  H  H2128  1  0.821600  0.683300  0.459800  1
  H  H2129  1  0.321600  0.816700  0.459800  1
  H  H2130  1  0.321600  0.683300  0.040200  1
  H  H2131  1  0.178400  0.183300  0.959800  1
  H  H2132  1  0.178400  0.316700  0.540200  1
  H  H2133  1  0.652700  0.220400  0.519700  1
  H  H2134  1  0.652700  0.279600  0.980300  1
  H  H2135  1  0.847300  0.779600  0.019700  1
  H  H2136  1  0.847300  0.720400  0.480300  1
  H  H2137  1  0.347300  0.779600  0.480300  1
  H  H2138  1  0.347300  0.720400  0.019700  1
  H  H2139  1  0.152700  0.220400  0.980300  1
  H  H2140  1  0.152700  0.279600  0.519700  1
  H  H2141  1  0.727300  0.277200  0.546600  1
  H  H2142  1  0.727300  0.222800  0.953400  1
  H  H2143  1  0.772700  0.722800  0.046600  1
  H  H2144  1  0.772700  0.777200  0.453400  1
  H  H2145  1  0.272700  0.722800  0.453400  1
  H  H2146  1  0.272700  0.777200  0.046600  1
  H  H2147  1  0.227300  0.277200  0.953400  1
  H  H2148  1  0.227300  0.222800  0.546600  1
  H  H2149  1  0.591900  0.298600  0.484800  1
  H  H2150  1  0.591900  0.201400  0.015200  1
  H  H2151  1  0.908100  0.701400  0.984800  1
  H  H2152  1  0.908100  0.798600  0.515200  1
  H  H2153  1  0.408100  0.701400  0.515200  1
  H  H2154  1  0.408100  0.798600  0.984800  1
  H  H2155  1  0.091900  0.298600  0.015200  1
  H  H2156  1  0.091900  0.201400  0.484800  1
  H  H2157  1  0.628000  0.357600  0.441000  1
  H  H2158  1  0.628000  0.142400  0.059000  1
  H  H2159  1  0.872000  0.642400  0.941000  1
  H  H2160  1  0.872000  0.857600  0.559000  1
  H  H2161  1  0.372000  0.642400  0.559000  1
  H  H2162  1  0.372000  0.857600  0.941000  1
  H  H2163  1  0.128000  0.357600  0.059000  1
  H  H2164  1  0.128000  0.142400  0.441000  1
  H  H2165  1  0.700700  0.329500  0.485700  1
  H  H2166  1  0.700700  0.170500  0.014300  1
  H  H2167  1  0.799300  0.670500  0.985700  1
  H  H2168  1  0.799300  0.829500  0.514300  1
  H  H2169  1  0.299300  0.670500  0.514300  1
  H  H2170  1  0.299300  0.829500  0.985700  1
  H  H2171  1  0.200700  0.329500  0.014300  1
  H  H2172  1  0.200700  0.170500  0.485700  1
  H  H2173  1  0.468500  0.332900  0.463900  1
  H  H2174  1  0.468500  0.167100  0.036100  1
  H  H2175  1  0.031500  0.667100  0.963900  1
  H  H2176  1  0.031500  0.832900  0.536100  1
  H  H2177  1  0.531500  0.667100  0.536100  1
  H  H2178  1  0.531500  0.832900  0.963900  1
  H  H2179  1  0.968500  0.332900  0.036100  1
  H  H2180  1  0.968500  0.167100  0.463900  1
  H  H2181  1  0.407800  0.347900  0.451900  1
  H  H2182  1  0.407800  0.152100  0.048100  1
  H  H2183  1  0.092200  0.652100  0.951900  1
  H  H2184  1  0.092200  0.847900  0.548100  1
  H  H2185  1  0.592200  0.652100  0.548100  1
  H  H2186  1  0.592200  0.847900  0.951900  1
  H  H2187  1  0.907800  0.347900  0.048100  1
  H  H2188  1  0.907800  0.152100  0.451900  1
  H  H2189  1  0.516700  0.357500  0.406000  1
  H  H2190  1  0.516700  0.142500  0.094000  1
  H  H2191  1  0.983300  0.642500  0.906000  1
  H  H2192  1  0.983300  0.857500  0.594000  1
  H  H2193  1  0.483300  0.642500  0.594000  1
  H  H2194  1  0.483300  0.857500  0.906000  1
  H  H2195  1  0.016700  0.357500  0.094000  1
  H  H2196  1  0.016700  0.142500  0.406000  1
  H  H2197  1  0.356200  0.395700  0.375500  1
  H  H2198  1  0.356200  0.104300  0.124500  1
  H  H2199  1  0.143800  0.604300  0.875500  1
  H  H2200  1  0.143800  0.895700  0.624500  1
  H  H2201  1  0.643800  0.604300  0.624500  1
  H  H2202  1  0.643800  0.895700  0.875500  1
  H  H2203  1  0.856200  0.395700  0.124500  1
  H  H2204  1  0.856200  0.104300  0.375500  1
  H  H2205  1  0.386300  0.407900  0.342400  1
  H  H2206  1  0.386300  0.092100  0.157600  1
  H  H2207  1  0.113700  0.592100  0.842400  1
  H  H2208  1  0.113700  0.907900  0.657600  1
  H  H2209  1  0.613700  0.592100  0.657600  1
  H  H2210  1  0.613700  0.907900  0.842400  1
  H  H2211  1  0.886300  0.407900  0.157600  1
  H  H2212  1  0.886300  0.092100  0.342400  1
  H  H2213  1  0.489600  0.380800  0.365800  1
  H  H2214  1  0.489600  0.119200  0.134200  1
  H  H2215  1  0.010400  0.619200  0.865800  1
  H  H2216  1  0.010400  0.880800  0.634200  1
  H  H2217  1  0.510400  0.619200  0.634200  1
  H  H2218  1  0.510400  0.880800  0.865800  1
  H  H2219  1  0.989600  0.380800  0.134200  1
  H  H2220  1  0.989600  0.119200  0.365800  1
  H  H2221  1  0.443800  0.442700  0.280200  1
  H  H2222  1  0.443800  0.057300  0.219800  1
  H  H2223  1  0.056200  0.557300  0.780200  1
  H  H2224  1  0.056200  0.942700  0.719800  1
  H  H2225  1  0.556200  0.557300  0.719800  1
  H  H2226  1  0.556200  0.942700  0.780200  1
  H  H2227  1  0.943800  0.442700  0.219800  1
  H  H2228  1  0.943800  0.057300  0.280200  1
  H  H2229  1  0.464800  0.443500  0.243500  1
  H  H2230  1  0.464800  0.056500  0.256500  1
  H  H2231  1  0.035200  0.556500  0.743500  1
  H  H2232  1  0.035200  0.943500  0.756500  1
  H  H2233  1  0.535200  0.556500  0.756500  1
  H  H2234  1  0.535200  0.943500  0.743500  1
  H  H2235  1  0.964800  0.443500  0.256500  1
  H  H2236  1  0.964800  0.056500  0.243500  1
  H  H2237  1  0.513200  0.414000  0.232200  1
  H  H2238  1  0.513200  0.086000  0.267800  1
  H  H2239  1  0.986800  0.586000  0.732200  1
  H  H2240  1  0.986800  0.914000  0.767800  1
  H  H2241  1  0.486800  0.586000  0.767800  1
  H  H2242  1  0.486800  0.914000  0.732200  1
  H  H2243  1  0.013200  0.414000  0.267800  1
  H  H2244  1  0.013200  0.086000  0.232200  1
  H  H2245  1  0.521100  0.380200  0.291100  1
  H  H2246  1  0.521100  0.119800  0.208900  1
  H  H2247  1  0.978900  0.619800  0.791100  1
  H  H2248  1  0.978900  0.880200  0.708900  1
  H  H2249  1  0.478900  0.619800  0.708900  1
  H  H2250  1  0.478900  0.880200  0.791100  1
  H  H2251  1  0.021100  0.380200  0.208900  1
  H  H2252  1  0.021100  0.119800  0.291100  1
  H  H2253  1  0.709900  0.154000  0.564500  1
  H  H2254  1  0.709900  0.346000  0.935500  1
  H  H2255  1  0.790100  0.846000  0.064500  1
  H  H2256  1  0.790100  0.654000  0.435500  1
  H  H2257  1  0.290100  0.846000  0.435500  1
  H  H2258  1  0.290100  0.654000  0.064500  1
  H  H2259  1  0.209900  0.154000  0.935500  1
  H  H2260  1  0.209900  0.346000  0.564500  1
  H  H2261  1  0.733300  0.154700  0.587200  1
  H  H2262  1  0.733300  0.345300  0.912800  1
  H  H2263  1  0.766700  0.845300  0.087200  1
  H  H2264  1  0.766700  0.654700  0.412800  1
  H  H2265  1  0.266700  0.845300  0.412800  1
  H  H2266  1  0.266700  0.654700  0.087200  1
  H  H2267  1  0.233300  0.154700  0.912800  1
  H  H2268  1  0.233300  0.345300  0.587200  1
  H  H2269  1  0.790900  0.150300  0.567000  1
  H  H2270  1  0.790900  0.349700  0.933000  1
  H  H2271  1  0.709100  0.849700  0.067000  1
  H  H2272  1  0.709100  0.650300  0.433000  1
  H  H2273  1  0.209100  0.849700  0.433000  1
  H  H2274  1  0.209100  0.650300  0.067000  1
  H  H2275  1  0.290900  0.150300  0.933000  1
  H  H2276  1  0.290900  0.349700  0.567000  1
  H  H2277  1  0.763800  0.123000  0.565100  1
  H  H2278  1  0.763800  0.377000  0.934900  1
  H  H2279  1  0.736200  0.877000  0.065100  1
  H  H2280  1  0.736200  0.623000  0.434900  1
  H  H2281  1  0.236200  0.877000  0.434900  1
  H  H2282  1  0.236200  0.623000  0.065100  1
  H  H2283  1  0.263800  0.123000  0.934900  1
  H  H2284  1  0.263800  0.377000  0.565100  1
  H  H2285  1  0.777000  0.164200  0.533000  1
  H  H2286  1  0.777000  0.335800  0.967000  1
  H  H2287  1  0.723000  0.835800  0.033000  1
  H  H2288  1  0.723000  0.664200  0.467000  1
  H  H2289  1  0.223000  0.835800  0.467000  1
  H  H2290  1  0.223000  0.664200  0.033000  1
  H  H2291  1  0.277000  0.164200  0.967000  1
  H  H2292  1  0.277000  0.335800  0.533000  1
  H  H2293  1  0.743000  0.141400  0.531000  1
  H  H2294  1  0.743000  0.358600  0.969000  1
  H  H2295  1  0.757000  0.858600  0.031000  1
  H  H2296  1  0.757000  0.641400  0.469000  1
  H  H2297  1  0.257000  0.858600  0.469000  1
  H  H2298  1  0.257000  0.641400  0.031000  1
  H  H2299  1  0.243000  0.141400  0.969000  1
  H  H2300  1  0.243000  0.358600  0.531000  1
  H  H2301  1  0.792500  0.103800  0.533500  1
  H  H2302  1  0.792500  0.396200  0.966500  1
  H  H2303  1  0.707500  0.896200  0.033500  1
  H  H2304  1  0.707500  0.603800  0.466500  1
  H  H2305  1  0.207500  0.896200  0.466500  1
  H  H2306  1  0.207500  0.603800  0.033500  1
  H  H2307  1  0.292500  0.103800  0.966500  1
  H  H2308  1  0.292500  0.396200  0.533500  1
  H  H2309  1  0.823800  0.128600  0.530600  1
  H  H2310  1  0.823800  0.371400  0.969400  1
  H  H2311  1  0.676200  0.871400  0.030600  1
  H  H2312  1  0.676200  0.628600  0.469400  1
  H  H2313  1  0.176200  0.871400  0.469400  1
  H  H2314  1  0.176200  0.628600  0.030600  1
  H  H2315  1  0.323800  0.128600  0.969400  1
  H  H2316  1  0.323800  0.371400  0.530600  1
  H  H2317  1  0.765200  0.114700  0.498400  1
  H  H2318  1  0.765200  0.385300  0.001600  1
  H  H2319  1  0.734800  0.885300  0.998400  1
  H  H2320  1  0.734800  0.614700  0.501600  1
  H  H2321  1  0.234800  0.885300  0.501600  1
  H  H2322  1  0.234800  0.614700  0.998400  1
  H  H2323  1  0.265200  0.114700  0.001600  1
  H  H2324  1  0.265200  0.385300  0.498400  1
  H  H2325  1  0.793000  0.141500  0.495700  1
  H  H2326  1  0.793000  0.358500  0.004300  1
  H  H2327  1  0.707000  0.858500  0.995700  1
  H  H2328  1  0.707000  0.641500  0.504300  1
  H  H2329  1  0.207000  0.858500  0.504300  1
  H  H2330  1  0.207000  0.641500  0.995700  1
  H  H2331  1  0.293000  0.141500  0.004300  1
  H  H2332  1  0.293000  0.358500  0.495700  1
  H  H2333  1  0.811100  0.105600  0.473600  1
  H  H2334  1  0.811100  0.394400  0.026400  1
  H  H2335  1  0.688900  0.894400  0.973600  1
  H  H2336  1  0.688900  0.605600  0.526400  1
  H  H2337  1  0.188900  0.894400  0.526400  1
  H  H2338  1  0.188900  0.605600  0.973600  1
  H  H2339  1  0.311100  0.105600  0.026400  1
  H  H2340  1  0.311100  0.394400  0.473600  1
  H  H2341  1  0.843700  0.111800  0.491600  1
  H  H2342  1  0.843700  0.388200  0.008400  1
  H  H2343  1  0.656300  0.888200  0.991600  1
  H  H2344  1  0.656300  0.611800  0.508400  1
  H  H2345  1  0.156300  0.888200  0.508400  1
  H  H2346  1  0.156300  0.611800  0.991600  1
  H  H2347  1  0.343700  0.111800  0.008400  1
  H  H2348  1  0.343700  0.388200  0.491600  1
  H  H2349  1  0.815800  0.084900  0.494400  1
  H  H2350  1  0.815800  0.415100  0.005600  1
  H  H2351  1  0.684200  0.915100  0.994400  1
  H  H2352  1  0.684200  0.584900  0.505600  1
  H  H2353  1  0.184200  0.915100  0.505600  1
  H  H2354  1  0.184200  0.584900  0.994400  1
  H  H2355  1  0.315800  0.084900  0.005600  1
  H  H2356  1  0.315800  0.415100  0.494400  1
  H  H2357  1  0.348200  0.357300  0.427900  1
  H  H2358  1  0.348200  0.142700  0.072100  1
  H  H2359  1  0.151800  0.642700  0.927900  1
  H  H2360  1  0.151800  0.857300  0.572100  1
  H  H2361  1  0.651800  0.642700  0.572100  1
  H  H2362  1  0.651800  0.857300  0.927900  1
  H  H2363  1  0.848200  0.357300  0.072100  1
  H  H2364  1  0.848200  0.142700  0.427900  1
  H  H2365  1  0.337000  0.377600  0.407600  1
  H  H2366  1  0.337000  0.122400  0.092400  1
  H  H2367  1  0.163000  0.622400  0.907600  1
  H  H2368  1  0.163000  0.877600  0.592400  1
  H  H2369  1  0.663000  0.622400  0.592400  1
  H  H2370  1  0.663000  0.877600  0.907600  1
  H  H2371  1  0.837000  0.377600  0.092400  1
  H  H2372  1  0.837000  0.122400  0.407600  1
  H  H2373  1  0.325600  0.403200  0.439000  1
  H  H2374  1  0.325600  0.096800  0.061000  1
  H  H2375  1  0.174400  0.596800  0.939000  1
  H  H2376  1  0.174400  0.903200  0.561000  1
  H  H2377  1  0.674400  0.596800  0.561000  1
  H  H2378  1  0.674400  0.903200  0.939000  1
  H  H2379  1  0.825600  0.403200  0.061000  1
  H  H2380  1  0.825600  0.096800  0.439000  1
  H  H2381  1  0.365600  0.394300  0.449500  1
  H  H2382  1  0.365600  0.105700  0.050500  1
  H  H2383  1  0.134400  0.605700  0.949500  1
  H  H2384  1  0.134400  0.894300  0.550500  1
  H  H2385  1  0.634400  0.605700  0.550500  1
  H  H2386  1  0.634400  0.894300  0.949500  1
  H  H2387  1  0.865600  0.394300  0.050500  1
  H  H2388  1  0.865600  0.105700  0.449500  1
  H  H2389  1  0.396400  0.425900  0.428800  1
  H  H2390  1  0.396400  0.074100  0.071200  1
  H  H2391  1  0.103600  0.574100  0.928800  1
  H  H2392  1  0.103600  0.925900  0.571200  1
  H  H2393  1  0.603600  0.574100  0.571200  1
  H  H2394  1  0.603600  0.925900  0.928800  1
  H  H2395  1  0.896400  0.425900  0.071200  1
  H  H2396  1  0.896400  0.074100  0.428800  1
  H  H2397  1  0.358400  0.433300  0.415700  1
  H  H2398  1  0.358400  0.066700  0.084300  1
  H  H2399  1  0.141600  0.566700  0.915700  1
  H  H2400  1  0.141600  0.933300  0.584300  1
  H  H2401  1  0.641600  0.566700  0.584300  1
  H  H2402  1  0.641600  0.933300  0.915700  1
  H  H2403  1  0.858400  0.433300  0.084300  1
  H  H2404  1  0.858400  0.066700  0.415700  1
  H  H2405  1  0.372200  0.448300  0.458600  1
  H  H2406  1  0.372200  0.051700  0.041400  1
  H  H2407  1  0.127800  0.551700  0.958600  1
  H  H2408  1  0.127800  0.948300  0.541400  1
  H  H2409  1  0.627800  0.551700  0.541400  1
  H  H2410  1  0.627800  0.948300  0.958600  1
  H  H2411  1  0.872200  0.448300  0.041400  1
  H  H2412  1  0.872200  0.051700  0.458600  1
  H  H2413  1  0.335500  0.456700  0.444600  1
  H  H2414  1  0.335500  0.043300  0.055400  1
  H  H2415  1  0.164500  0.543300  0.944600  1
  H  H2416  1  0.164500  0.956700  0.555400  1
  H  H2417  1  0.664500  0.543300  0.555400  1
  H  H2418  1  0.664500  0.956700  0.944600  1
  H  H2419  1  0.835500  0.456700  0.055400  1
  H  H2420  1  0.835500  0.043300  0.444600  1
  H  H2421  1  0.369300  0.490700  0.425200  1
  H  H2422  1  0.369300  0.009300  0.074800  1
  H  H2423  1  0.130700  0.509300  0.925200  1
  H  H2424  1  0.130700  0.990700  0.574800  1
  H  H2425  1  0.630700  0.509300  0.574800  1
  H  H2426  1  0.630700  0.990700  0.925200  1
  H  H2427  1  0.869300  0.490700  0.074800  1
  H  H2428  1  0.869300  0.009300  0.425200  1
  H  H2429  1  0.409300  0.480300  0.436100  1
  H  H2430  1  0.409300  0.019700  0.063900  1
  H  H2431  1  0.090700  0.519700  0.936100  1
  H  H2432  1  0.090700  0.980300  0.563900  1
  H  H2433  1  0.590700  0.519700  0.563900  1
  H  H2434  1  0.590700  0.980300  0.936100  1
  H  H2435  1  0.909300  0.480300  0.063900  1
  H  H2436  1  0.909300  0.019700  0.436100  1
  H  H2437  1  0.380300  0.517800  0.459900  1
  H  H2438  1  0.380300  0.982200  0.040100  1
  H  H2439  1  0.119700  0.482200  0.959900  1
  H  H2440  1  0.119700  0.017800  0.540100  1
  H  H2441  1  0.619700  0.482200  0.540100  1
  H  H2442  1  0.619700  0.017800  0.959900  1
  H  H2443  1  0.880300  0.517800  0.040100  1
  H  H2444  1  0.880300  0.982200  0.459900  1
  H  H2445  1  0.342600  0.498600  0.462400  1
  H  H2446  1  0.342600  0.001400  0.037600  1
  H  H2447  1  0.157400  0.501400  0.962400  1
  H  H2448  1  0.157400  0.998600  0.537600  1
  H  H2449  1  0.657400  0.501400  0.537600  1
  H  H2450  1  0.657400  0.998600  0.962400  1
  H  H2451  1  0.842600  0.498600  0.037600  1
  H  H2452  1  0.842600  0.001400  0.462400  1
  H  H2453  1  0.382100  0.488200  0.473200  1
  H  H2454  1  0.382100  0.011800  0.026800  1
  H  H2455  1  0.117900  0.511800  0.973200  1
  H  H2456  1  0.117900  0.988200  0.526800  1
  H  H2457  1  0.617900  0.511800  0.526800  1
  H  H2458  1  0.617900  0.988200  0.973200  1
  H  H2459  1  0.882100  0.488200  0.026800  1
  H  H2460  1  0.882100  0.011800  0.473200  1
  H  H2461  1  0.841900  0.353800  0.692200  1
  H  H2462  1  0.841900  0.146200  0.807800  1
  H  H2463  1  0.658100  0.646200  0.192200  1
  H  H2464  1  0.658100  0.853800  0.307800  1
  H  H2465  1  0.158100  0.646200  0.307800  1
  H  H2466  1  0.158100  0.853800  0.192200  1
  H  H2467  1  0.341900  0.353800  0.807800  1
  H  H2468  1  0.341900  0.146200  0.692200  1
  H  H2469  1  0.788500  0.331300  0.707100  1
  H  H2470  1  0.788500  0.168700  0.792900  1
  H  H2471  1  0.711500  0.668700  0.207100  1
  H  H2472  1  0.711500  0.831300  0.292900  1
  H  H2473  1  0.211500  0.668700  0.292900  1
  H  H2474  1  0.211500  0.831300  0.207100  1
  H  H2475  1  0.288500  0.331300  0.792900  1
  H  H2476  1  0.288500  0.168700  0.707100  1
  H  H2477  1  0.729500  0.333333  0.688400  1
  H  H2478  1  0.729500  0.166667  0.811600  1
  H  H2479  1  0.770500  0.666667  0.188400  1
  H  H2480  1  0.770500  0.833333  0.311600  1
  H  H2481  1  0.270500  0.666667  0.311600  1
  H  H2482  1  0.270500  0.833333  0.188400  1
  H  H2483  1  0.229500  0.333333  0.811600  1
  H  H2484  1  0.229500  0.166667  0.688400  1
  H  H2485  1  0.783500  0.377100  0.639900  1
  H  H2486  1  0.783500  0.122900  0.860100  1
  H  H2487  1  0.716500  0.622900  0.139900  1
  H  H2488  1  0.716500  0.877100  0.360100  1
  H  H2489  1  0.216500  0.622900  0.360100  1
  H  H2490  1  0.216500  0.877100  0.139900  1
  H  H2491  1  0.283500  0.377100  0.860100  1
  H  H2492  1  0.283500  0.122900  0.639900  1
  H  H2493  1  0.616700  0.361300  0.660100  1
  H  H2494  1  0.616700  0.138700  0.839900  1
  H  H2495  1  0.883300  0.638700  0.160100  1
  H  H2496  1  0.883300  0.861300  0.339900  1
  H  H2497  1  0.383300  0.638700  0.339900  1
  H  H2498  1  0.383300  0.861300  0.160100  1
  H  H2499  1  0.116700  0.361300  0.839900  1
  H  H2500  1  0.116700  0.138700  0.660100  1
  H  H2501  1  0.556700  0.373600  0.645800  1
  H  H2502  1  0.556700  0.126400  0.854200  1
  H  H2503  1  0.943300  0.626400  0.145800  1
  H  H2504  1  0.943300  0.873600  0.354200  1
  H  H2505  1  0.443300  0.626400  0.354200  1
  H  H2506  1  0.443300  0.873600  0.145800  1
  H  H2507  1  0.056700  0.373600  0.854200  1
  H  H2508  1  0.056700  0.126400  0.645800  1
  H  H2509  1  0.669700  0.387400  0.603800  1
  H  H2510  1  0.669700  0.112600  0.896200  1
  H  H2511  1  0.830300  0.612600  0.103800  1
  H  H2512  1  0.830300  0.887400  0.396200  1
  H  H2513  1  0.330300  0.612600  0.396200  1
  H  H2514  1  0.330300  0.887400  0.103800  1
  H  H2515  1  0.169700  0.387400  0.896200  1
  H  H2516  1  0.169700  0.112600  0.603800  1
  H  H2517  1  0.512600  0.423900  0.568500  1
  H  H2518  1  0.512600  0.076100  0.931500  1
  H  H2519  1  0.987400  0.576100  0.068500  1
  H  H2520  1  0.987400  0.923900  0.431500  1
  H  H2521  1  0.487400  0.576100  0.431500  1
  H  H2522  1  0.487400  0.923900  0.068500  1
  H  H2523  1  0.012600  0.423900  0.931500  1
  H  H2524  1  0.012600  0.076100  0.568500  1
  H  H2525  1  0.546300  0.439600  0.537700  1
  H  H2526  1  0.546300  0.060400  0.962300  1
  H  H2527  1  0.953700  0.560400  0.037700  1
  H  H2528  1  0.953700  0.939600  0.462300  1
  H  H2529  1  0.453700  0.560400  0.462300  1
  H  H2530  1  0.453700  0.939600  0.037700  1
  H  H2531  1  0.046300  0.439600  0.962300  1
  H  H2532  1  0.046300  0.060400  0.537700  1
  H  H2533  1  0.647200  0.411700  0.563700  1
  H  H2534  1  0.647200  0.088300  0.936300  1
  H  H2535  1  0.852800  0.588300  0.063700  1
  H  H2536  1  0.852800  0.911700  0.436300  1
  H  H2537  1  0.352800  0.588300  0.436300  1
  H  H2538  1  0.352800  0.911700  0.063700  1
  H  H2539  1  0.147200  0.411700  0.936300  1
  H  H2540  1  0.147200  0.088300  0.563700  1
  H  H2541  1  0.624300  0.470500  0.476000  1
  H  H2542  1  0.624300  0.029500  0.024000  1
  H  H2543  1  0.875700  0.529500  0.976000  1
  H  H2544  1  0.875700  0.970500  0.524000  1
  H  H2545  1  0.375700  0.529500  0.524000  1
  H  H2546  1  0.375700  0.970500  0.976000  1
  H  H2547  1  0.124300  0.470500  0.024000  1
  H  H2548  1  0.124300  0.029500  0.476000  1
  H  H2549  1  0.677100  0.422100  0.429500  1
  H  H2550  1  0.677100  0.077900  0.070500  1
  H  H2551  1  0.822900  0.577900  0.929500  1
  H  H2552  1  0.822900  0.922100  0.570500  1
  H  H2553  1  0.322900  0.577900  0.570500  1
  H  H2554  1  0.322900  0.922100  0.929500  1
  H  H2555  1  0.177100  0.422100  0.070500  1
  H  H2556  1  0.177100  0.077900  0.429500  1
  H  H2557  1  0.673000  0.395000  0.490600  1
  H  H2558  1  0.673000  0.105000  0.009400  1
  H  H2559  1  0.827000  0.605000  0.990600  1
  H  H2560  1  0.827000  0.895000  0.509400  1
  H  H2561  1  0.327000  0.605000  0.509400  1
  H  H2562  1  0.327000  0.895000  0.990600  1
  H  H2563  1  0.173000  0.395000  0.009400  1
  H  H2564  1  0.173000  0.105000  0.490600  1
  H  H2565  1  0.668300  0.541500  0.422000  1
  H  H2566  1  0.668300  0.958500  0.078000  1
  H  H2567  1  0.831700  0.458500  0.922000  1
  H  H2568  1  0.831700  0.041500  0.578000  1
  H  H2569  1  0.331700  0.458500  0.578000  1
  H  H2570  1  0.331700  0.041500  0.922000  1
  H  H2571  1  0.168300  0.541500  0.078000  1
  H  H2572  1  0.168300  0.958500  0.422000  1
  H  H2573  1  0.685400  0.573700  0.394300  1
  H  H2574  1  0.685400  0.926300  0.105700  1
  H  H2575  1  0.814600  0.426300  0.894300  1
  H  H2576  1  0.814600  0.073700  0.605700  1
  H  H2577  1  0.314600  0.426300  0.605700  1
  H  H2578  1  0.314600  0.073700  0.894300  1
  H  H2579  1  0.185400  0.573700  0.105700  1
  H  H2580  1  0.185400  0.926300  0.394300  1
  H  H2581  1  0.642500  0.479400  0.377600  1
  H  H2582  1  0.642500  0.020600  0.122400  1
  H  H2583  1  0.857500  0.520600  0.877600  1
  H  H2584  1  0.857500  0.979400  0.622400  1
  H  H2585  1  0.357500  0.520600  0.622400  1
  H  H2586  1  0.357500  0.979400  0.877600  1
  H  H2587  1  0.142500  0.479400  0.122400  1
  H  H2588  1  0.142500  0.020600  0.377600  1
  H  H2589  1  0.686700  0.564100  0.305000  1
  H  H2590  1  0.686700  0.935900  0.195000  1
  H  H2591  1  0.813300  0.435900  0.805000  1
  H  H2592  1  0.813300  0.064100  0.695000  1
  H  H2593  1  0.313300  0.435900  0.695000  1
  H  H2594  1  0.313300  0.064100  0.805000  1
  H  H2595  1  0.186700  0.564100  0.195000  1
  H  H2596  1  0.186700  0.935900  0.305000  1
  H  H2597  1  0.674800  0.526700  0.280500  1
  H  H2598  1  0.674800  0.973300  0.219500  1
  H  H2599  1  0.825200  0.473300  0.780500  1
  H  H2600  1  0.825200  0.026700  0.719500  1
  H  H2601  1  0.325200  0.473300  0.719500  1
  H  H2602  1  0.325200  0.026700  0.780500  1
  H  H2603  1  0.174800  0.526700  0.219500  1
  H  H2604  1  0.174800  0.973300  0.280500  1
  H  H2605  1  0.647000  0.473900  0.331500  1
  H  H2606  1  0.647000  0.026100  0.168500  1
  H  H2607  1  0.853000  0.526100  0.831500  1
  H  H2608  1  0.853000  0.973900  0.668500  1
  H  H2609  1  0.353000  0.526100  0.668500  1
  H  H2610  1  0.353000  0.973900  0.831500  1
  H  H2611  1  0.147000  0.473900  0.168500  1
  H  H2612  1  0.147000  0.026100  0.331500  1
  H  H2613  1  0.652500  0.466500  0.230900  1
  H  H2614  1  0.652500  0.033500  0.269100  1
  H  H2615  1  0.847500  0.533500  0.730900  1
  H  H2616  1  0.847500  0.966500  0.769100  1
  H  H2617  1  0.347500  0.533500  0.769100  1
  H  H2618  1  0.347500  0.966500  0.730900  1
  H  H2619  1  0.152500  0.466500  0.269100  1
  H  H2620  1  0.152500  0.033500  0.230900  1
  H  H2621  1  0.626400  0.439400  0.202300  1
  H  H2622  1  0.626400  0.060600  0.297700  1
  H  H2623  1  0.873600  0.560600  0.702300  1
  H  H2624  1  0.873600  0.939400  0.797700  1
  H  H2625  1  0.373600  0.560600  0.797700  1
  H  H2626  1  0.373600  0.939400  0.702300  1
  H  H2627  1  0.126400  0.439400  0.297700  1
  H  H2628  1  0.126400  0.060600  0.202300  1
  H  H2629  1  0.590300  0.399000  0.210000  1
  H  H2630  1  0.590300  0.101000  0.290000  1
  H  H2631  1  0.909700  0.601000  0.710000  1
  H  H2632  1  0.909700  0.899000  0.790000  1
  H  H2633  1  0.409700  0.601000  0.790000  1
  H  H2634  1  0.409700  0.899000  0.710000  1
  H  H2635  1  0.090300  0.399000  0.290000  1
  H  H2636  1  0.090300  0.101000  0.210000  1
  H  H2637  1  0.603200  0.411500  0.273400  1
  H  H2638  1  0.603200  0.088500  0.226600  1
  H  H2639  1  0.896800  0.588500  0.773400  1
  H  H2640  1  0.896800  0.911500  0.726600  1
  H  H2641  1  0.396800  0.588500  0.726600  1
  H  H2642  1  0.396800  0.911500  0.773400  1
  H  H2643  1  0.103200  0.411500  0.226600  1
  H  H2644  1  0.103200  0.088500  0.273400  1
  H  H2645  1  0.504000  0.394800  0.627200  1
  H  H2646  1  0.504000  0.105200  0.872800  1
  H  H2647  1  0.996000  0.605200  0.127200  1
  H  H2648  1  0.996000  0.894800  0.372800  1
  H  H2649  1  0.496000  0.605200  0.372800  1
  H  H2650  1  0.496000  0.894800  0.127200  1
  H  H2651  1  0.004000  0.394800  0.872800  1
  H  H2652  1  0.004000  0.105200  0.627200  1
  H  H2653  1  0.494000  0.417000  0.608000  1
  H  H2654  1  0.494000  0.083000  0.892000  1
  H  H2655  1  0.006000  0.583000  0.108000  1
  H  H2656  1  0.006000  0.917000  0.392000  1
  H  H2657  1  0.506000  0.583000  0.392000  1
  H  H2658  1  0.506000  0.917000  0.108000  1
  H  H2659  1  0.994000  0.417000  0.892000  1
  H  H2660  1  0.994000  0.083000  0.608000  1
  H  H2661  1  0.488700  0.378400  0.583100  1
  H  H2662  1  0.488700  0.121600  0.916900  1
  H  H2663  1  0.011300  0.621600  0.083100  1
  H  H2664  1  0.011300  0.878400  0.416900  1
  H  H2665  1  0.511300  0.621600  0.416900  1
  H  H2666  1  0.511300  0.878400  0.083100  1
  H  H2667  1  0.988700  0.378400  0.916900  1
  H  H2668  1  0.988700  0.121600  0.583100  1
  H  H2669  1  0.457300  0.377500  0.602300  1
  H  H2670  1  0.457300  0.122500  0.897700  1
  H  H2671  1  0.042700  0.622500  0.102300  1
  H  H2672  1  0.042700  0.877500  0.397700  1
  H  H2673  1  0.542700  0.622500  0.397700  1
  H  H2674  1  0.542700  0.877500  0.102300  1
  H  H2675  1  0.957300  0.377500  0.897700  1
  H  H2676  1  0.957300  0.122500  0.602300  1
  H  H2677  1  0.495000  0.343300  0.621500  1
  H  H2678  1  0.495000  0.156700  0.878500  1
  H  H2679  1  0.005000  0.656700  0.121500  1
  H  H2680  1  0.005000  0.843300  0.378500  1
  H  H2681  1  0.505000  0.656700  0.378500  1
  H  H2682  1  0.505000  0.843300  0.121500  1
  H  H2683  1  0.995000  0.343300  0.878500  1
  H  H2684  1  0.995000  0.156700  0.621500  1
  H  H2685  1  0.525800  0.343900  0.602000  1
  H  H2686  1  0.525800  0.156100  0.898000  1
  H  H2687  1  0.974200  0.656100  0.102000  1
  H  H2688  1  0.974200  0.843900  0.398000  1
  H  H2689  1  0.474200  0.656100  0.398000  1
  H  H2690  1  0.474200  0.843900  0.102000  1
  H  H2691  1  0.025800  0.343900  0.898000  1
  H  H2692  1  0.025800  0.156100  0.602000  1
  H  H2693  1  0.449200  0.320700  0.599600  1
  H  H2694  1  0.449200  0.179300  0.900400  1
  H  H2695  1  0.050800  0.679300  0.099600  1
  H  H2696  1  0.050800  0.820700  0.400400  1
  H  H2697  1  0.550800  0.679300  0.400400  1
  H  H2698  1  0.550800  0.820700  0.099600  1
  H  H2699  1  0.949200  0.320700  0.900400  1
  H  H2700  1  0.949200  0.179300  0.599600  1
  H  H2701  1  0.472400  0.327600  0.577400  1
  H  H2702  1  0.472400  0.172400  0.922600  1
  H  H2703  1  0.027600  0.672400  0.077400  1
  H  H2704  1  0.027600  0.827600  0.422600  1
  H  H2705  1  0.527600  0.672400  0.422600  1
  H  H2706  1  0.527600  0.827600  0.077400  1
  H  H2707  1  0.972400  0.327600  0.922600  1
  H  H2708  1  0.972400  0.172400  0.577400  1
  H  H2709  1  0.501900  0.291300  0.610300  1
  H  H2710  1  0.501900  0.208700  0.889700  1
  H  H2711  1  0.998100  0.708700  0.110300  1
  H  H2712  1  0.998100  0.791300  0.389700  1
  H  H2713  1  0.498100  0.708700  0.389700  1
  H  H2714  1  0.498100  0.791300  0.110300  1
  H  H2715  1  0.001900  0.291300  0.889700  1
  H  H2716  1  0.001900  0.208700  0.610300  1
  H  H2717  1  0.519100  0.295800  0.586200  1
  H  H2718  1  0.519100  0.204200  0.913800  1
  H  H2719  1  0.980900  0.704200  0.086200  1
  H  H2720  1  0.980900  0.795800  0.413800  1
  H  H2721  1  0.480900  0.704200  0.413800  1
  H  H2722  1  0.480900  0.795800  0.086200  1
  H  H2723  1  0.019100  0.295800  0.913800  1
  H  H2724  1  0.019100  0.204200  0.586200  1
  H  H2725  1  0.491000  0.250900  0.589000  1
  H  H2726  1  0.491000  0.249100  0.911000  1
  H  H2727  1  0.009000  0.749100  0.089000  1
  H  H2728  1  0.009000  0.750900  0.411000  1
  H  H2729  1  0.509000  0.749100  0.411000  1
  H  H2730  1  0.509000  0.750900  0.089000  1
  H  H2731  1  0.991000  0.250900  0.911000  1
  H  H2732  1  0.991000  0.249100  0.589000  1
  H  H2733  1  0.450600  0.264900  0.595400  1
  H  H2734  1  0.450600  0.235100  0.904600  1
  H  H2735  1  0.049400  0.735100  0.095400  1
  H  H2736  1  0.049400  0.764900  0.404600  1
  H  H2737  1  0.549400  0.735100  0.404600  1
  H  H2738  1  0.549400  0.764900  0.095400  1
  H  H2739  1  0.950600  0.264900  0.904600  1
  H  H2740  1  0.950600  0.235100  0.595400  1
  H  H2741  1  0.467900  0.269400  0.571200  1
  H  H2742  1  0.467900  0.230600  0.928800  1
  H  H2743  1  0.032100  0.730600  0.071200  1
  H  H2744  1  0.032100  0.769400  0.428800  1
  H  H2745  1  0.532100  0.730600  0.428800  1
  H  H2746  1  0.532100  0.769400  0.071200  1
  H  H2747  1  0.967900  0.269400  0.928800  1
  H  H2748  1  0.967900  0.230600  0.571200  1
  H  H2749  1  0.704500  0.593900  0.335300  1
  H  H2750  1  0.704500  0.906100  0.164700  1
  H  H2751  1  0.795500  0.406100  0.835300  1
  H  H2752  1  0.795500  0.093900  0.664700  1
  H  H2753  1  0.295500  0.406100  0.664700  1
  H  H2754  1  0.295500  0.093900  0.835300  1
  H  H2755  1  0.204500  0.593900  0.164700  1
  H  H2756  1  0.204500  0.906100  0.335300  1
  H  H2757  1  0.704000  0.596000  0.361700  1
  H  H2758  1  0.704000  0.904000  0.138300  1
  H  H2759  1  0.796000  0.404000  0.861700  1
  H  H2760  1  0.796000  0.096000  0.638300  1
  H  H2761  1  0.296000  0.404000  0.638300  1
  H  H2762  1  0.296000  0.096000  0.861700  1
  H  H2763  1  0.204000  0.596000  0.138300  1
  H  H2764  1  0.204000  0.904000  0.361700  1
  H  H2765  1  0.647700  0.610100  0.331600  1
  H  H2766  1  0.647700  0.889900  0.168400  1
  H  H2767  1  0.852300  0.389900  0.831600  1
  H  H2768  1  0.852300  0.110100  0.668400  1
  H  H2769  1  0.352300  0.389900  0.668400  1
  H  H2770  1  0.352300  0.110100  0.831600  1
  H  H2771  1  0.147700  0.610100  0.168400  1
  H  H2772  1  0.147700  0.889900  0.331600  1
  H  H2773  1  0.633000  0.596400  0.353900  1
  H  H2774  1  0.633000  0.903600  0.146100  1
  H  H2775  1  0.867000  0.403600  0.853900  1
  H  H2776  1  0.867000  0.096400  0.646100  1
  H  H2777  1  0.367000  0.403600  0.646100  1
  H  H2778  1  0.367000  0.096400  0.853900  1
  H  H2779  1  0.133000  0.596400  0.146100  1
  H  H2780  1  0.133000  0.903600  0.353900  1
  H  H2781  1  0.671500  0.646300  0.355800  1
  H  H2782  1  0.671500  0.853700  0.144200  1
  H  H2783  1  0.828500  0.353700  0.855800  1
  H  H2784  1  0.828500  0.146300  0.644200  1
  H  H2785  1  0.328500  0.353700  0.644200  1
  H  H2786  1  0.328500  0.146300  0.855800  1
  H  H2787  1  0.171500  0.646300  0.144200  1
  H  H2788  1  0.171500  0.853700  0.355800  1
  H  H2789  1  0.640300  0.633500  0.372000  1
  H  H2790  1  0.640300  0.866500  0.128000  1
  H  H2791  1  0.859700  0.366500  0.872000  1
  H  H2792  1  0.859700  0.133500  0.628000  1
  H  H2793  1  0.359700  0.366500  0.628000  1
  H  H2794  1  0.359700  0.133500  0.872000  1
  H  H2795  1  0.140300  0.633500  0.128000  1
  H  H2796  1  0.140300  0.866500  0.372000  1
  H  H2797  1  0.593700  0.655700  0.356500  1
  H  H2798  1  0.593700  0.844300  0.143500  1
  H  H2799  1  0.906300  0.344300  0.856500  1
  H  H2800  1  0.906300  0.155700  0.643500  1
  H  H2801  1  0.406300  0.344300  0.643500  1
  H  H2802  1  0.406300  0.155700  0.856500  1
  H  H2803  1  0.093700  0.655700  0.143500  1
  H  H2804  1  0.093700  0.844300  0.356500  1
  H  H2805  1  0.609700  0.650600  0.332100  1
  H  H2806  1  0.609700  0.849400  0.167900  1
  H  H2807  1  0.890300  0.349400  0.832100  1
  H  H2808  1  0.890300  0.150600  0.667900  1
  H  H2809  1  0.390300  0.349400  0.667900  1
  H  H2810  1  0.390300  0.150600  0.832100  1
  H  H2811  1  0.109700  0.650600  0.167900  1
  H  H2812  1  0.109700  0.849400  0.332100  1
  H  H2813  1  0.644800  0.693300  0.359300  1
  H  H2814  1  0.644800  0.806700  0.140700  1
  H  H2815  1  0.855200  0.306700  0.859300  1
  H  H2816  1  0.855200  0.193300  0.640700  1
  H  H2817  1  0.355200  0.306700  0.640700  1
  H  H2818  1  0.355200  0.193300  0.859300  1
  H  H2819  1  0.144800  0.693300  0.140700  1
  H  H2820  1  0.144800  0.806700  0.359300  1
  H  H2821  1  0.646700  0.691200  0.333000  1
  H  H2822  1  0.646700  0.808800  0.167000  1
  H  H2823  1  0.853300  0.308800  0.833000  1
  H  H2824  1  0.853300  0.191200  0.667000  1
  H  H2825  1  0.353300  0.308800  0.667000  1
  H  H2826  1  0.353300  0.191200  0.833000  1
  H  H2827  1  0.146700  0.691200  0.167000  1
  H  H2828  1  0.146700  0.808800  0.333000  1
  H  H2829  1  0.605100  0.727700  0.343500  1
  H  H2830  1  0.605100  0.772300  0.156500  1
  H  H2831  1  0.894900  0.272300  0.843500  1
  H  H2832  1  0.894900  0.227700  0.656500  1
  H  H2833  1  0.394900  0.272300  0.656500  1
  H  H2834  1  0.394900  0.227700  0.843500  1
  H  H2835  1  0.105100  0.727700  0.156500  1
  H  H2836  1  0.105100  0.772300  0.343500  1
  H  H2837  1  0.581700  0.703300  0.330900  1
  H  H2838  1  0.581700  0.796700  0.169100  1
  H  H2839  1  0.918300  0.296700  0.830900  1
  H  H2840  1  0.918300  0.203300  0.669100  1
  H  H2841  1  0.418300  0.296700  0.669100  1
  H  H2842  1  0.418300  0.203300  0.830900  1
  H  H2843  1  0.081700  0.703300  0.169100  1
  H  H2844  1  0.081700  0.796700  0.330900  1
  H  H2845  1  0.579800  0.705400  0.357200  1
  H  H2846  1  0.579800  0.794600  0.142800  1
  H  H2847  1  0.920200  0.294600  0.857200  1
  H  H2848  1  0.920200  0.205400  0.642800  1
  H  H2849  1  0.420200  0.294600  0.642800  1
  H  H2850  1  0.420200  0.205400  0.857200  1
  H  H2851  1  0.079800  0.705400  0.142800  1
  H  H2852  1  0.079800  0.794600  0.357200  1
  H  H2853  1  0.932200  0.419800  0.667100  1
  H  H2854  1  0.932200  0.080200  0.832900  1
  H  H2855  1  0.567800  0.580200  0.167100  1
  H  H2856  1  0.567800  0.919800  0.332900  1
  H  H2857  1  0.067800  0.580200  0.332900  1
  H  H2858  1  0.067800  0.919800  0.167100  1
  H  H2859  1  0.432200  0.419800  0.832900  1
  H  H2860  1  0.432200  0.080200  0.667100  1
  H  H2861  1  0.989600  0.435900  0.653600  1
  H  H2862  1  0.989600  0.064100  0.846400  1
  H  H2863  1  0.510400  0.564100  0.153600  1
  H  H2864  1  0.510400  0.935900  0.346400  1
  H  H2865  1  0.010400  0.564100  0.346400  1
  H  H2866  1  0.010400  0.935900  0.153600  1
  H  H2867  1  0.489600  0.435900  0.846400  1
  H  H2868  1  0.489600  0.064100  0.653600  1
  H  H2869  1  0.004800  0.428500  0.616400  1
  H  H2870  1  0.004800  0.071500  0.883600  1
  H  H2871  1  0.495200  0.571500  0.116400  1
  H  H2872  1  0.495200  0.928500  0.383600  1
  H  H2873  1  0.995200  0.571500  0.383600  1
  H  H2874  1  0.995200  0.928500  0.116400  1
  H  H2875  1  0.504800  0.428500  0.883600  1
  H  H2876  1  0.504800  0.071500  0.616400  1
  H  H2877  1  0.903200  0.388100  0.609600  1
  H  H2878  1  0.903200  0.111900  0.890400  1
  H  H2879  1  0.596800  0.611900  0.109600  1
  H  H2880  1  0.596800  0.888100  0.390400  1
  H  H2881  1  0.096800  0.611900  0.390400  1
  H  H2882  1  0.096800  0.888100  0.109600  1
  H  H2883  1  0.403200  0.388100  0.890400  1
  H  H2884  1  0.403200  0.111900  0.609600  1
  H  H2885  1  0.041600  0.387900  0.553500  1
  H  H2886  1  0.041600  0.112100  0.946500  1
  H  H2887  1  0.458400  0.612100  0.053500  1
  H  H2888  1  0.458400  0.887900  0.446500  1
  H  H2889  1  0.958400  0.612100  0.446500  1
  H  H2890  1  0.958400  0.887900  0.053500  1
  H  H2891  1  0.541600  0.387900  0.946500  1
  H  H2892  1  0.541600  0.112100  0.553500  1
  H  H2893  1  0.064600  0.366200  0.521300  1
  H  H2894  1  0.064600  0.133800  0.978700  1
  H  H2895  1  0.435400  0.633800  0.021300  1
  H  H2896  1  0.435400  0.866200  0.478700  1
  H  H2897  1  0.935400  0.633800  0.478700  1
  H  H2898  1  0.935400  0.866200  0.021300  1
  H  H2899  1  0.564600  0.366200  0.978700  1
  H  H2900  1  0.564600  0.133800  0.521300  1
  H  H2901  1  0.931400  0.367400  0.537800  1
  H  H2902  1  0.931400  0.132600  0.962200  1
  H  H2903  1  0.568600  0.632600  0.037800  1
  H  H2904  1  0.568600  0.867400  0.462200  1
  H  H2905  1  0.068600  0.632600  0.462200  1
  H  H2906  1  0.068600  0.867400  0.037800  1
  H  H2907  1  0.431400  0.367400  0.962200  1
  H  H2908  1  0.431400  0.132600  0.537800  1
  H  H2909  1  0.994100  0.310000  0.454000  1
  H  H2910  1  0.994100  0.190000  0.046000  1
  H  H2911  1  0.505900  0.690000  0.954000  1
  H  H2912  1  0.505900  0.810000  0.546000  1
  H  H2913  1  0.005900  0.690000  0.546000  1
  H  H2914  1  0.005900  0.810000  0.954000  1
  H  H2915  1  0.494100  0.310000  0.046000  1
  H  H2916  1  0.494100  0.190000  0.454000  1
  H  H2917  1  0.930600  0.301200  0.445300  1
  H  H2918  1  0.930600  0.198800  0.054700  1
  H  H2919  1  0.569400  0.698800  0.945300  1
  H  H2920  1  0.569400  0.801200  0.554700  1
  H  H2921  1  0.069400  0.698800  0.554700  1
  H  H2922  1  0.069400  0.801200  0.945300  1
  H  H2923  1  0.430600  0.301200  0.054700  1
  H  H2924  1  0.430600  0.198800  0.445300  1
  H  H2925  1  0.894500  0.338600  0.501900  1
  H  H2926  1  0.894500  0.161400  0.998100  1
  H  H2927  1  0.605500  0.661400  0.001900  1
  H  H2928  1  0.605500  0.838600  0.498100  1
  H  H2929  1  0.105500  0.661400  0.498100  1
  H  H2930  1  0.105500  0.838600  0.001900  1
  H  H2931  1  0.394500  0.338600  0.998100  1
  H  H2932  1  0.394500  0.161400  0.501900  1
  H  H2933  1  0.802200  0.274400  0.429700  1
  H  H2934  1  0.802200  0.225600  0.070300  1
  H  H2935  1  0.697800  0.725600  0.929700  1
  H  H2936  1  0.697800  0.774400  0.570300  1
  H  H2937  1  0.197800  0.725600  0.570300  1
  H  H2938  1  0.197800  0.774400  0.929700  1
  H  H2939  1  0.302200  0.274400  0.070300  1
  H  H2940  1  0.302200  0.225600  0.429700  1
  H  H2941  1  0.705500  0.321000  0.421600  1
  H  H2942  1  0.705500  0.179000  0.078400  1
  H  H2943  1  0.794500  0.679000  0.921600  1
  H  H2944  1  0.794500  0.821000  0.578400  1
  H  H2945  1  0.294500  0.679000  0.578400  1
  H  H2946  1  0.294500  0.821000  0.921600  1
  H  H2947  1  0.205500  0.321000  0.078400  1
  H  H2948  1  0.205500  0.179000  0.421600  1
  H  H2949  1  0.784100  0.348200  0.462800  1
  H  H2950  1  0.784100  0.151800  0.037200  1
  H  H2951  1  0.715900  0.651800  0.962800  1
  H  H2952  1  0.715900  0.848200  0.537200  1
  H  H2953  1  0.215900  0.651800  0.537200  1
  H  H2954  1  0.215900  0.848200  0.962800  1
  H  H2955  1  0.284100  0.348200  0.037200  1
  H  H2956  1  0.284100  0.151800  0.462800  1
  H  H2957  1  0.713200  0.200500  0.406600  1
  H  H2958  1  0.713200  0.299500  0.093400  1
  H  H2959  1  0.786800  0.799500  0.906600  1
  H  H2960  1  0.786800  0.700500  0.593400  1
  H  H2961  1  0.286800  0.799500  0.593400  1
  H  H2962  1  0.286800  0.700500  0.906600  1
  H  H2963  1  0.213200  0.200500  0.093400  1
  H  H2964  1  0.213200  0.299500  0.406600  1
  H  H2965  1  0.671100  0.166100  0.392400  1
  H  H2966  1  0.671100  0.333900  0.107600  1
  H  H2967  1  0.828900  0.833900  0.892400  1
  H  H2968  1  0.828900  0.666100  0.607600  1
  H  H2969  1  0.328900  0.833900  0.607600  1
  H  H2970  1  0.328900  0.666100  0.892400  1
  H  H2971  1  0.171100  0.166100  0.107600  1
  H  H2972  1  0.171100  0.333900  0.392400  1
  H  H2973  1  0.662200  0.262400  0.370200  1
  H  H2974  1  0.662200  0.237600  0.129800  1
  H  H2975  1  0.837800  0.737600  0.870200  1
  H  H2976  1  0.837800  0.762400  0.629800  1
  H  H2977  1  0.337800  0.737600  0.629800  1
  H  H2978  1  0.337800  0.762400  0.870200  1
  H  H2979  1  0.162200  0.262400  0.129800  1
  H  H2980  1  0.162200  0.237600  0.370200  1
  H  H2981  1  0.549800  0.170900  0.336300  1
  H  H2982  1  0.549800  0.329100  0.163700  1
  H  H2983  1  0.950200  0.829100  0.836300  1
  H  H2984  1  0.950200  0.670900  0.663700  1
  H  H2985  1  0.450200  0.829100  0.663700  1
  H  H2986  1  0.450200  0.670900  0.836300  1
  H  H2987  1  0.049800  0.170900  0.163700  1
  H  H2988  1  0.049800  0.329100  0.336300  1
  H  H2989  1  0.523200  0.207100  0.315200  1
  H  H2990  1  0.523200  0.292900  0.184800  1
  H  H2991  1  0.976800  0.792900  0.815200  1
  H  H2992  1  0.976800  0.707100  0.684800  1
  H  H2993  1  0.476800  0.792900  0.684800  1
  H  H2994  1  0.476800  0.707100  0.815200  1
  H  H2995  1  0.023200  0.207100  0.184800  1
  H  H2996  1  0.023200  0.292900  0.315200  1
  H  H2997  1  0.600200  0.264200  0.338700  1
  H  H2998  1  0.600200  0.235800  0.161300  1
  H  H2999  1  0.899800  0.735800  0.838700  1
  H  H3000  1  0.899800  0.764200  0.661300  1
  H  H3001  1  0.399800  0.735800  0.661300  1
  H  H3002  1  0.399800  0.764200  0.838700  1
  H  H3003  1  0.100200  0.264200  0.161300  1
  H  H3004  1  0.100200  0.235800  0.338700  1
  H  H3005  1  0.472500  0.267900  0.269200  1
  H  H3006  1  0.472500  0.232100  0.230800  1
  H  H3007  1  0.027500  0.732100  0.769200  1
  H  H3008  1  0.027500  0.767900  0.730800  1
  H  H3009  1  0.527500  0.732100  0.730800  1
  H  H3010  1  0.527500  0.767900  0.769200  1
  H  H3011  1  0.972500  0.267900  0.230800  1
  H  H3012  1  0.972500  0.232100  0.269200  1
  H  H3013  1  0.457600  0.296500  0.238600  1
  H  H3014  1  0.457600  0.203500  0.261400  1
  H  H3015  1  0.042400  0.703500  0.738600  1
  H  H3016  1  0.042400  0.796500  0.761400  1
  H  H3017  1  0.542400  0.703500  0.761400  1
  H  H3018  1  0.542400  0.796500  0.738600  1
  H  H3019  1  0.957600  0.296500  0.261400  1
  H  H3020  1  0.957600  0.203500  0.238600  1
  H  H3021  1  0.492000  0.337600  0.232400  1
  H  H3022  1  0.492000  0.162400  0.267600  1
  H  H3023  1  0.008000  0.662400  0.732400  1
  H  H3024  1  0.008000  0.837600  0.767600  1
  H  H3025  1  0.508000  0.662400  0.767600  1
  H  H3026  1  0.508000  0.837600  0.732400  1
  H  H3027  1  0.992000  0.337600  0.267600  1
  H  H3028  1  0.992000  0.162400  0.232400  1
  H  H3029  1  0.559200  0.322300  0.282400  1
  H  H3030  1  0.559200  0.177700  0.217600  1
  H  H3031  1  0.940800  0.677700  0.782400  1
  H  H3032  1  0.940800  0.822300  0.717600  1
  H  H3033  1  0.440800  0.677700  0.717600  1
  H  H3034  1  0.440800  0.822300  0.782400  1
  H  H3035  1  0.059200  0.322300  0.217600  1
  H  H3036  1  0.059200  0.177700  0.282400  1
  H  H3037  1  0.054000  0.334200  0.465700  1
  H  H3038  1  0.054000  0.165800  0.034300  1
  H  H3039  1  0.446000  0.665800  0.965700  1
  H  H3040  1  0.446000  0.834200  0.534300  1
  H  H3041  1  0.946000  0.665800  0.534300  1
  H  H3042  1  0.946000  0.834200  0.965700  1
  H  H3043  1  0.554000  0.334200  0.034300  1
  H  H3044  1  0.554000  0.165800  0.465700  1
  H  H3045  1  0.074000  0.347200  0.487300  1
  H  H3046  1  0.074000  0.152800  0.012700  1
  H  H3047  1  0.426000  0.652800  0.987300  1
  H  H3048  1  0.426000  0.847200  0.512700  1
  H  H3049  1  0.926000  0.652800  0.512700  1
  H  H3050  1  0.926000  0.847200  0.987300  1
  H  H3051  1  0.574000  0.347200  0.012700  1
  H  H3052  1  0.574000  0.152800  0.487300  1
  H  H3053  1  0.748800  0.114300  0.276900  1
  H  H3054  1  0.748800  0.385700  0.223100  1
  H  H3055  1  0.751200  0.885700  0.776900  1
  H  H3056  1  0.751200  0.614300  0.723100  1
  H  H3057  1  0.251200  0.885700  0.723100  1
  H  H3058  1  0.251200  0.614300  0.776900  1
  H  H3059  1  0.248800  0.114300  0.223100  1
  H  H3060  1  0.248800  0.385700  0.276900  1
  H  H3061  1  0.743800  0.093600  0.297700  1
  H  H3062  1  0.743800  0.406400  0.202300  1
  H  H3063  1  0.756200  0.906400  0.797700  1
  H  H3064  1  0.756200  0.593600  0.702300  1
  H  H3065  1  0.256200  0.906400  0.702300  1
  H  H3066  1  0.256200  0.593600  0.797700  1
  H  H3067  1  0.243800  0.093600  0.202300  1
  H  H3068  1  0.243800  0.406400  0.297700  1
  H  H3069  1  0.711400  0.094600  0.279000  1
  H  H3070  1  0.711400  0.405400  0.221000  1
  H  H3071  1  0.788600  0.905400  0.779000  1
  H  H3072  1  0.788600  0.594600  0.721000  1
  H  H3073  1  0.288600  0.905400  0.721000  1
  H  H3074  1  0.288600  0.594600  0.779000  1
  H  H3075  1  0.211400  0.094600  0.221000  1
  H  H3076  1  0.211400  0.405400  0.279000  1
  H  H3077  1  0.696200  0.142700  0.289200  1
  H  H3078  1  0.696200  0.357300  0.210800  1
  H  H3079  1  0.803800  0.857300  0.789200  1
  H  H3080  1  0.803800  0.642700  0.710800  1
  H  H3081  1  0.303800  0.857300  0.710800  1
  H  H3082  1  0.303800  0.642700  0.789200  1
  H  H3083  1  0.196200  0.142700  0.210800  1
  H  H3084  1  0.196200  0.357300  0.289200  1
  H  H3085  1  0.728600  0.141700  0.307900  1
  H  H3086  1  0.728600  0.358300  0.192100  1
  H  H3087  1  0.771400  0.858300  0.807900  1
  H  H3088  1  0.771400  0.641700  0.692100  1
  H  H3089  1  0.271400  0.858300  0.692100  1
  H  H3090  1  0.271400  0.641700  0.807900  1
  H  H3091  1  0.228600  0.141700  0.192100  1
  H  H3092  1  0.228600  0.358300  0.307900  1
  H  H3093  1  0.656800  0.111100  0.307900  1
  H  H3094  1  0.656800  0.388900  0.192100  1
  H  H3095  1  0.843200  0.888900  0.807900  1
  H  H3096  1  0.843200  0.611100  0.692100  1
  H  H3097  1  0.343200  0.888900  0.692100  1
  H  H3098  1  0.343200  0.611100  0.807900  1
  H  H3099  1  0.156800  0.111100  0.192100  1
  H  H3100  1  0.156800  0.388900  0.307900  1
  H  H3101  1  0.690900  0.099600  0.322800  1
  H  H3102  1  0.690900  0.400400  0.177200  1
  H  H3103  1  0.809100  0.900400  0.822800  1
  H  H3104  1  0.809100  0.599600  0.677200  1
  H  H3105  1  0.309100  0.900400  0.677200  1
  H  H3106  1  0.309100  0.599600  0.822800  1
  H  H3107  1  0.190900  0.099600  0.177200  1
  H  H3108  1  0.190900  0.400400  0.322800  1
  H  H3109  1  0.685400  0.134000  0.346900  1
  H  H3110  1  0.685400  0.366000  0.153100  1
  H  H3111  1  0.814600  0.866000  0.846900  1
  H  H3112  1  0.814600  0.634000  0.653100  1
  H  H3113  1  0.314600  0.866000  0.653100  1
  H  H3114  1  0.314600  0.634000  0.846900  1
  H  H3115  1  0.185400  0.134000  0.153100  1
  H  H3116  1  0.185400  0.366000  0.346900  1
  H  H3117  1  0.665100  0.155000  0.330100  1
  H  H3118  1  0.665100  0.345000  0.169900  1
  H  H3119  1  0.834900  0.845000  0.830100  1
  H  H3120  1  0.834900  0.655000  0.669900  1
  H  H3121  1  0.334900  0.845000  0.669900  1
  H  H3122  1  0.334900  0.655000  0.830100  1
  H  H3123  1  0.165100  0.155000  0.169900  1
  H  H3124  1  0.165100  0.345000  0.330100  1
  H  H3125  1  0.057000  0.291100  0.477200  1
  H  H3126  1  0.057000  0.208900  0.022800  1
  H  H3127  1  0.443000  0.708900  0.977200  1
  H  H3128  1  0.443000  0.791100  0.522800  1
  H  H3129  1  0.943000  0.708900  0.522800  1
  H  H3130  1  0.943000  0.791100  0.977200  1
  H  H3131  1  0.557000  0.291100  0.022800  1
  H  H3132  1  0.557000  0.208900  0.477200  1
  H  H3133  1  0.096000  0.304000  0.486200  1
  H  H3134  1  0.096000  0.196000  0.013800  1
  H  H3135  1  0.404000  0.696000  0.986200  1
  H  H3136  1  0.404000  0.804000  0.513800  1
  H  H3137  1  0.904000  0.696000  0.513800  1
  H  H3138  1  0.904000  0.804000  0.986200  1
  H  H3139  1  0.596000  0.304000  0.013800  1
  H  H3140  1  0.596000  0.196000  0.486200  1
  H  H3141  1  0.035800  0.296300  0.513100  1
  H  H3142  1  0.035800  0.203700  0.986900  1
  H  H3143  1  0.464200  0.703700  0.013100  1
  H  H3144  1  0.464200  0.796300  0.486900  1
  H  H3145  1  0.964200  0.703700  0.486900  1
  H  H3146  1  0.964200  0.796300  0.013100  1
  H  H3147  1  0.535800  0.296300  0.986900  1
  H  H3148  1  0.535800  0.203700  0.513100  1
  H  H3149  1  0.080200  0.299400  0.518800  1
  H  H3150  1  0.080200  0.200600  0.981200  1
  H  H3151  1  0.419800  0.700600  0.018800  1
  H  H3152  1  0.419800  0.799400  0.481200  1
  H  H3153  1  0.919800  0.700600  0.481200  1
  H  H3154  1  0.919800  0.799400  0.018800  1
  H  H3155  1  0.580200  0.299400  0.981200  1
  H  H3156  1  0.580200  0.200600  0.518800  1
  H  H3157  1  0.045300  0.248800  0.500000  1
  H  H3158  1  0.045300  0.251200  0.000000  1
  H  H3159  1  0.454700  0.751200  0.000000  1
  H  H3160  1  0.454700  0.748800  0.500000  1
  H  H3161  1  0.954700  0.751200  0.500000  1
  H  H3162  1  0.954700  0.748800  0.000000  1
  H  H3163  1  0.545300  0.248800  0.000000  1
  H  H3164  1  0.545300  0.251200  0.500000  1
  H  H3165  1  0.090800  0.251800  0.503000  1
  H  H3166  1  0.090800  0.248200  0.997000  1
  H  H3167  1  0.409200  0.748200  0.003000  1
  H  H3168  1  0.409200  0.751800  0.497000  1
  H  H3169  1  0.909200  0.748200  0.497000  1
  H  H3170  1  0.909200  0.751800  0.003000  1
  H  H3171  1  0.590800  0.251800  0.997000  1
  H  H3172  1  0.590800  0.248200  0.503000  1
  H  H3173  1  0.037900  0.255500  0.538000  1
  H  H3174  1  0.037900  0.244500  0.962000  1
  H  H3175  1  0.462100  0.744500  0.038000  1
  H  H3176  1  0.462100  0.755500  0.462000  1
  H  H3177  1  0.962100  0.744500  0.462000  1
  H  H3178  1  0.962100  0.755500  0.038000  1
  H  H3179  1  0.537900  0.255500  0.962000  1
  H  H3180  1  0.537900  0.244500  0.538000  1
  H  H3181  1  0.083700  0.256100  0.540400  1
  H  H3182  1  0.083700  0.243900  0.959600  1
  H  H3183  1  0.416300  0.743900  0.040400  1
  H  H3184  1  0.416300  0.756100  0.459600  1
  H  H3185  1  0.916300  0.743900  0.459600  1
  H  H3186  1  0.916300  0.756100  0.040400  1
  H  H3187  1  0.583700  0.256100  0.959600  1
  H  H3188  1  0.583700  0.243900  0.540400  1
  H  H3189  1  0.060300  0.210500  0.548700  1
  H  H3190  1  0.060300  0.289500  0.951300  1
  H  H3191  1  0.439700  0.789500  0.048700  1
  H  H3192  1  0.439700  0.710500  0.451300  1
  H  H3193  1  0.939700  0.789500  0.451300  1
  H  H3194  1  0.939700  0.710500  0.048700  1
  H  H3195  1  0.560300  0.210500  0.951300  1
  H  H3196  1  0.560300  0.289500  0.548700  1
  H  H3197  1  0.041200  0.208400  0.524800  1
  H  H3198  1  0.041200  0.291600  0.975200  1
  H  H3199  1  0.458800  0.791600  0.024800  1
  H  H3200  1  0.458800  0.708400  0.475200  1
  H  H3201  1  0.958800  0.791600  0.475200  1
  H  H3202  1  0.958800  0.708400  0.024800  1
  H  H3203  1  0.541200  0.208400  0.975200  1
  H  H3204  1  0.541200  0.291600  0.524800  1
  H  H3205  1  0.086900  0.209000  0.527300  1
  H  H3206  1  0.086900  0.291000  0.972700  1
  H  H3207  1  0.413100  0.791000  0.027300  1
  H  H3208  1  0.413100  0.709000  0.472700  1
  H  H3209  1  0.913100  0.791000  0.472700  1
  H  H3210  1  0.913100  0.709000  0.027300  1
  H  H3211  1  0.586900  0.209000  0.972700  1
  H  H3212  1  0.586900  0.291000  0.527300  1
  H  H3213  1  0.581000  0.142900  0.363800  1
  H  H3214  1  0.581000  0.357100  0.136200  1
  H  H3215  1  0.919000  0.857100  0.863800  1
  H  H3216  1  0.919000  0.642900  0.636200  1
  H  H3217  1  0.419000  0.857100  0.636200  1
  H  H3218  1  0.419000  0.642900  0.863800  1
  H  H3219  1  0.081000  0.142900  0.136200  1
  H  H3220  1  0.081000  0.357100  0.363800  1
  H  H3221  1  0.618200  0.141300  0.379200  1
  H  H3222  1  0.618200  0.358700  0.120800  1
  H  H3223  1  0.881800  0.858700  0.879200  1
  H  H3224  1  0.881800  0.641300  0.620800  1
  H  H3225  1  0.381800  0.858700  0.620800  1
  H  H3226  1  0.381800  0.641300  0.879200  1
  H  H3227  1  0.118200  0.141300  0.120800  1
  H  H3228  1  0.118200  0.358700  0.379200  1
  H  H3229  1  0.631600  0.111700  0.353200  1
  H  H3230  1  0.631600  0.388300  0.146800  1
  H  H3231  1  0.868400  0.888300  0.853200  1
  H  H3232  1  0.868400  0.611700  0.646800  1
  H  H3233  1  0.368400  0.888300  0.646800  1
  H  H3234  1  0.368400  0.611700  0.853200  1
  H  H3235  1  0.131600  0.111700  0.146800  1
  H  H3236  1  0.131600  0.388300  0.353200  1
  H  H3237  1  0.610400  0.129700  0.334900  1
  H  H3238  1  0.610400  0.370300  0.165100  1
  H  H3239  1  0.889600  0.870300  0.834900  1
  H  H3240  1  0.889600  0.629700  0.665100  1
  H  H3241  1  0.389600  0.870300  0.665100  1
  H  H3242  1  0.389600  0.629700  0.834900  1
  H  H3243  1  0.110400  0.129700  0.165100  1
  H  H3244  1  0.110400  0.370300  0.334900  1
  Pd  Pd3245  1  0.931240  0.390380  0.753510  1
  Pd  Pd3246  1  0.931240  0.109620  0.746490  1
  Pd  Pd3247  1  0.568760  0.609620  0.253510  1
  Pd  Pd3248  1  0.568760  0.890380  0.246490  1
  Pd  Pd3249  1  0.068760  0.609620  0.246490  1
  Pd  Pd3250  1  0.068760  0.890380  0.253510  1
  Pd  Pd3251  1  0.431240  0.390380  0.746490  1
  Pd  Pd3252  1  0.431240  0.109620  0.753510  1
  Pd  Pd3253  1  0.789130  0.380680  0.547010  1
  Pd  Pd3254  1  0.789130  0.119320  0.952990  1
  Pd  Pd3255  1  0.710870  0.619320  0.047010  1
  Pd  Pd3256  1  0.710870  0.880680  0.452990  1
  Pd  Pd3257  1  0.210870  0.619320  0.452990  1
  Pd  Pd3258  1  0.210870  0.880680  0.047010  1
  Pd  Pd3259  1  0.289130  0.380680  0.952990  1
  Pd  Pd3260  1  0.289130  0.119320  0.547010  1
  Pd  Pd3261  1  0.635570  0.368860  0.348190  1
  Pd  Pd3262  1  0.635570  0.131140  0.151810  1
  Pd  Pd3263  1  0.864430  0.631140  0.848190  1
  Pd  Pd3264  1  0.864430  0.868860  0.651810  1
  Pd  Pd3265  1  0.364430  0.631140  0.651810  1
  Pd  Pd3266  1  0.364430  0.868860  0.848190  1
  Pd  Pd3267  1  0.135570  0.368860  0.151810  1
  Pd  Pd3268  1  0.135570  0.131140  0.348190  1
  Pd  Pd3269  1  0.864740  0.384910  0.652120  1
  Pd  Pd3270  1  0.864740  0.115090  0.847880  1
  Pd  Pd3271  1  0.635260  0.615090  0.152120  1
  Pd  Pd3272  1  0.635260  0.884910  0.347880  1
  Pd  Pd3273  1  0.135260  0.615090  0.347880  1
  Pd  Pd3274  1  0.135260  0.884910  0.152120  1
  Pd  Pd3275  1  0.364740  0.384910  0.847880  1
  Pd  Pd3276  1  0.364740  0.115090  0.652120  1
  Pd  Pd3277  1  0.709690  0.371670  0.450670  1
  Pd  Pd3278  1  0.709690  0.128330  0.049330  1
  Pd  Pd3279  1  0.790310  0.628330  0.950670  1
  Pd  Pd3280  1  0.790310  0.871670  0.549330  1
  Pd  Pd3281  1  0.290310  0.628330  0.549330  1
  Pd  Pd3282  1  0.290310  0.871670  0.950670  1
  Pd  Pd3283  1  0.209690  0.371670  0.049330  1
  Pd  Pd3284  1  0.209690  0.128330  0.450670  1
  Pd  Pd3285  1  0.560560  0.368180  0.249880  1
  Pd  Pd3286  1  0.560560  0.131820  0.250120  1
  Pd  Pd3287  1  0.939440  0.631820  0.749880  1
  Pd  Pd3288  1  0.939440  0.868180  0.750120  1
  Pd  Pd3289  1  0.439440  0.631820  0.750120  1
  Pd  Pd3290  1  0.439440  0.868180  0.749880  1
  Pd  Pd3291  1  0.060560  0.368180  0.250120  1
  Pd  Pd3292  1  0.060560  0.131820  0.249880  1
  C  C3293  1  0.924200  0.445700  0.773940  1
  C  C3294  1  0.924200  0.054300  0.726060  1
  C  C3295  1  0.575800  0.554300  0.273940  1
  C  C3296  1  0.575800  0.945700  0.226060  1
  C  C3297  1  0.075800  0.554300  0.226060  1
  C  C3298  1  0.075800  0.945700  0.273940  1
  C  C3299  1  0.424200  0.445700  0.726060  1
  C  C3300  1  0.424200  0.054300  0.773940  1
  C  C3301  1  0.925300  0.474800  0.776020  1
  C  C3302  1  0.925300  0.025200  0.723980  1
  C  C3303  1  0.574700  0.525200  0.276020  1
  C  C3304  1  0.574700  0.974800  0.223980  1
  C  C3305  1  0.074700  0.525200  0.223980  1
  C  C3306  1  0.074700  0.974800  0.276020  1
  C  C3307  1  0.425300  0.474800  0.723980  1
  C  C3308  1  0.425300  0.025200  0.776020  1
  C  C3309  1  0.924500  0.490700  0.756760  1
  C  C3310  1  0.924500  0.009300  0.743240  1
  C  C3311  1  0.575500  0.509300  0.256760  1
  C  C3312  1  0.575500  0.990700  0.243240  1
  C  C3313  1  0.075500  0.509300  0.243240  1
  C  C3314  1  0.075500  0.990700  0.256760  1
  C  C3315  1  0.424500  0.490700  0.743240  1
  C  C3316  1  0.424500  0.009300  0.756760  1
  C  C3317  1  0.922000  0.476300  0.736770  1
  C  C3318  1  0.922000  0.023700  0.763230  1
  C  C3319  1  0.578000  0.523700  0.236770  1
  C  C3320  1  0.578000  0.976300  0.263230  1
  C  C3321  1  0.078000  0.523700  0.263230  1
  C  C3322  1  0.078000  0.976300  0.236770  1
  C  C3323  1  0.422000  0.476300  0.763230  1
  C  C3324  1  0.422000  0.023700  0.736770  1
  C  C3325  1  0.920900  0.446900  0.736670  1
  C  C3326  1  0.920900  0.053100  0.763330  1
  C  C3327  1  0.579100  0.553100  0.236670  1
  C  C3328  1  0.579100  0.946900  0.263330  1
  C  C3329  1  0.079100  0.553100  0.263330  1
  C  C3330  1  0.079100  0.946900  0.236670  1
  C  C3331  1  0.420900  0.446900  0.763330  1
  C  C3332  1  0.420900  0.053100  0.736670  1
  C  C3333  1  0.924800  0.491000  0.716160  1
  C  C3334  1  0.924800  0.009000  0.783840  1
  C  C3335  1  0.575200  0.509000  0.216160  1
  C  C3336  1  0.575200  0.991000  0.283840  1
  C  C3337  1  0.075200  0.509000  0.283840  1
  C  C3338  1  0.075200  0.991000  0.216160  1
  C  C3339  1  0.424800  0.491000  0.783840  1
  C  C3340  1  0.424800  0.009000  0.716160  1
  C  C3341  1  0.928400  0.501800  0.698840  1
  C  C3342  1  0.928400  0.998200  0.801160  1
  C  C3343  1  0.571600  0.498200  0.198840  1
  C  C3344  1  0.571600  0.001800  0.301160  1
  C  C3345  1  0.071600  0.498200  0.301160  1
  C  C3346  1  0.071600  0.001800  0.198840  1
  C  C3347  1  0.428400  0.501800  0.801160  1
  C  C3348  1  0.428400  0.998200  0.698840  1
  C  C3349  1  0.937800  0.517830  0.679380  1
  C  C3350  1  0.937800  0.982170  0.820620  1
  C  C3351  1  0.562200  0.482170  0.179380  1
  C  C3352  1  0.562200  0.017830  0.320620  1
  C  C3353  1  0.062200  0.482170  0.320620  1
  C  C3354  1  0.062200  0.017830  0.179380  1
  C  C3355  1  0.437800  0.517830  0.820620  1
  C  C3356  1  0.437800  0.982170  0.679380  1
  C  C3357  1  0.954300  0.544200  0.680780  1
  C  C3358  1  0.954300  0.955800  0.819220  1
  C  C3359  1  0.545700  0.455800  0.180780  1
  C  C3360  1  0.545700  0.044200  0.319220  1
  C  C3361  1  0.045700  0.455800  0.319220  1
  C  C3362  1  0.045700  0.044200  0.180780  1
  C  C3363  1  0.454300  0.544200  0.819220  1
  C  C3364  1  0.454300  0.955800  0.680780  1
  C  C3365  1  0.967100  0.559380  0.662990  1
  C  C3366  1  0.967100  0.940620  0.837010  1
  C  C3367  1  0.532900  0.440620  0.162990  1
  C  C3368  1  0.532900  0.059380  0.337010  1
  C  C3369  1  0.032900  0.440620  0.337010  1
  C  C3370  1  0.032900  0.059380  0.162990  1
  C  C3371  1  0.467100  0.559380  0.837010  1
  C  C3372  1  0.467100  0.940620  0.662990  1
  C  C3373  1  0.962100  0.545990  0.642880  1
  C  C3374  1  0.962100  0.954010  0.857120  1
  C  C3375  1  0.537900  0.454010  0.142880  1
  C  C3376  1  0.537900  0.045990  0.357120  1
  C  C3377  1  0.037900  0.454010  0.357120  1
  C  C3378  1  0.037900  0.045990  0.142880  1
  C  C3379  1  0.462100  0.545990  0.857120  1
  C  C3380  1  0.462100  0.954010  0.642880  1
  C  C3381  1  0.944400  0.519250  0.640730  1
  C  C3382  1  0.944400  0.980750  0.859270  1
  C  C3383  1  0.555600  0.480750  0.140730  1
  C  C3384  1  0.555600  0.019250  0.359270  1
  C  C3385  1  0.055600  0.480750  0.359270  1
  C  C3386  1  0.055600  0.019250  0.140730  1
  C  C3387  1  0.444400  0.519250  0.859270  1
  C  C3388  1  0.444400  0.980750  0.640730  1
  C  C3389  1  0.932100  0.504430  0.659070  1
  C  C3390  1  0.932100  0.995570  0.840930  1
  C  C3391  1  0.567900  0.495570  0.159070  1
  C  C3392  1  0.567900  0.004430  0.340930  1
  C  C3393  1  0.067900  0.495570  0.340930  1
  C  C3394  1  0.067900  0.004430  0.159070  1
  C  C3395  1  0.432100  0.504430  0.840930  1
  C  C3396  1  0.432100  0.995570  0.659070  1
  C  C3397  1  0.962200  0.535690  0.606880  1
  C  C3398  1  0.962200  0.964310  0.893120  1
  C  C3399  1  0.537800  0.464310  0.106880  1
  C  C3400  1  0.537800  0.035690  0.393120  1
  C  C3401  1  0.037800  0.464310  0.393120  1
  C  C3402  1  0.037800  0.035690  0.106880  1
  C  C3403  1  0.462200  0.535690  0.893120  1
  C  C3404  1  0.462200  0.964310  0.606880  1
  C  C3405  1  0.966800  0.536750  0.584360  1
  C  C3406  1  0.966800  0.963250  0.915640  1
  C  C3407  1  0.533200  0.463250  0.084360  1
  C  C3408  1  0.533200  0.036750  0.415640  1
  C  C3409  1  0.033200  0.463250  0.415640  1
  C  C3410  1  0.033200  0.036750  0.084360  1
  C  C3411  1  0.466800  0.536750  0.915640  1
  C  C3412  1  0.466800  0.963250  0.584360  1
  C  C3413  1  0.953300  0.513910  0.572330  1
  C  C3414  1  0.953300  0.986090  0.927670  1
  C  C3415  1  0.546700  0.486090  0.072330  1
  C  C3416  1  0.546700  0.013910  0.427670  1
  C  C3417  1  0.046700  0.486090  0.427670  1
  C  C3418  1  0.046700  0.013910  0.072330  1
  C  C3419  1  0.453300  0.513910  0.927670  1
  C  C3420  1  0.453300  0.986090  0.572330  1
  C  C3421  1  0.935900  0.490710  0.582410  1
  C  C3422  1  0.935900  0.009290  0.917590  1
  C  C3423  1  0.564100  0.509290  0.082410  1
  C  C3424  1  0.564100  0.990710  0.417590  1
  C  C3425  1  0.064100  0.509290  0.417590  1
  C  C3426  1  0.064100  0.990710  0.082410  1
  C  C3427  1  0.435900  0.490710  0.917590  1
  C  C3428  1  0.435900  0.009290  0.582410  1
  C  C3429  1  0.930700  0.489640  0.605180  1
  C  C3430  1  0.930700  0.010360  0.894820  1
  C  C3431  1  0.569300  0.510360  0.105180  1
  C  C3432  1  0.569300  0.989640  0.394820  1
  C  C3433  1  0.069300  0.510360  0.394820  1
  C  C3434  1  0.069300  0.989640  0.105180  1
  C  C3435  1  0.430700  0.489640  0.894820  1
  C  C3436  1  0.430700  0.010360  0.605180  1
  C  C3437  1  0.944300  0.512740  0.617380  1
  C  C3438  1  0.944300  0.987260  0.882620  1
  C  C3439  1  0.555700  0.487260  0.117380  1
  C  C3440  1  0.555700  0.012740  0.382620  1
  C  C3441  1  0.055700  0.487260  0.382620  1
  C  C3442  1  0.055700  0.012740  0.117380  1
  C  C3443  1  0.444300  0.512740  0.882620  1
  C  C3444  1  0.444300  0.987260  0.617380  1
  C  C3445  1  0.920800  0.468270  0.568930  1
  C  C3446  1  0.920800  0.031730  0.931070  1
  C  C3447  1  0.579200  0.531730  0.068930  1
  C  C3448  1  0.579200  0.968270  0.431070  1
  C  C3449  1  0.079200  0.531730  0.431070  1
  C  C3450  1  0.079200  0.968270  0.068930  1
  C  C3451  1  0.420800  0.468270  0.931070  1
  C  C3452  1  0.420800  0.031730  0.568930  1
  C  C3453  1  0.907600  0.450640  0.557020  1
  C  C3454  1  0.907600  0.049360  0.942980  1
  C  C3455  1  0.592400  0.549360  0.057020  1
  C  C3456  1  0.592400  0.950640  0.442980  1
  C  C3457  1  0.092400  0.549360  0.442980  1
  C  C3458  1  0.092400  0.950640  0.057020  1
  C  C3459  1  0.407600  0.450640  0.942980  1
  C  C3460  1  0.407600  0.049360  0.557020  1
  C  C3461  1  0.889600  0.431550  0.542160  1
  C  C3462  1  0.889600  0.068450  0.957840  1
  C  C3463  1  0.610400  0.568450  0.042160  1
  C  C3464  1  0.610400  0.931550  0.457840  1
  C  C3465  1  0.110400  0.568450  0.457840  1
  C  C3466  1  0.110400  0.931550  0.042160  1
  C  C3467  1  0.389600  0.431550  0.957840  1
  C  C3468  1  0.389600  0.068450  0.542160  1
  C  C3469  1  0.901800  0.427510  0.520570  1
  C  C3470  1  0.901800  0.072490  0.979430  1
  C  C3471  1  0.598200  0.572490  0.020570  1
  C  C3472  1  0.598200  0.927510  0.479430  1
  C  C3473  1  0.098200  0.572490  0.479430  1
  C  C3474  1  0.098200  0.927510  0.020570  1
  C  C3475  1  0.401800  0.427510  0.979430  1
  C  C3476  1  0.401800  0.072490  0.520570  1
  C  C3477  1  0.880300  0.410410  0.506500  1
  C  C3478  1  0.880300  0.089590  0.993500  1
  C  C3479  1  0.619700  0.589590  0.006500  1
  C  C3480  1  0.619700  0.910410  0.493500  1
  C  C3481  1  0.119700  0.589590  0.493500  1
  C  C3482  1  0.119700  0.910410  0.006500  1
  C  C3483  1  0.380300  0.410410  0.993500  1
  C  C3484  1  0.380300  0.089590  0.506500  1
  C  C3485  1  0.847300  0.397700  0.514750  1
  C  C3486  1  0.847300  0.102300  0.985250  1
  C  C3487  1  0.652700  0.602300  0.014750  1
  C  C3488  1  0.652700  0.897700  0.485250  1
  C  C3489  1  0.152700  0.602300  0.485250  1
  C  C3490  1  0.152700  0.897700  0.014750  1
  C  C3491  1  0.347300  0.397700  0.985250  1
  C  C3492  1  0.347300  0.102300  0.514750  1
  C  C3493  1  0.856200  0.417330  0.549080  1
  C  C3494  1  0.856200  0.082670  0.950920  1
  C  C3495  1  0.643800  0.582670  0.049080  1
  C  C3496  1  0.643800  0.917330  0.450920  1
  C  C3497  1  0.143800  0.582670  0.450920  1
  C  C3498  1  0.143800  0.917330  0.049080  1
  C  C3499  1  0.356200  0.417330  0.950920  1
  C  C3500  1  0.356200  0.082670  0.549080  1
  C  C3501  1  0.892200  0.404210  0.484550  1
  C  C3502  1  0.892200  0.095790  0.015450  1
  C  C3503  1  0.607800  0.595790  0.984550  1
  C  C3504  1  0.607800  0.904210  0.515450  1
  C  C3505  1  0.107800  0.595790  0.515450  1
  C  C3506  1  0.107800  0.904210  0.984550  1
  C  C3507  1  0.392200  0.404210  0.015450  1
  C  C3508  1  0.392200  0.095790  0.484550  1
  C  C3509  1  0.902300  0.395970  0.467020  1
  C  C3510  1  0.902300  0.104030  0.032980  1
  C  C3511  1  0.597700  0.604030  0.967020  1
  C  C3512  1  0.597700  0.895970  0.532980  1
  C  C3513  1  0.097700  0.604030  0.532980  1
  C  C3514  1  0.097700  0.895970  0.967020  1
  C  C3515  1  0.402300  0.395970  0.032980  1
  C  C3516  1  0.402300  0.104030  0.467020  1
  C  C3517  1  0.915800  0.384040  0.446720  1
  C  C3518  1  0.915800  0.115960  0.053280  1
  C  C3519  1  0.584200  0.615960  0.946720  1
  C  C3520  1  0.584200  0.884040  0.553280  1
  C  C3521  1  0.084200  0.615960  0.553280  1
  C  C3522  1  0.084200  0.884040  0.946720  1
  C  C3523  1  0.415800  0.384040  0.053280  1
  C  C3524  1  0.415800  0.115960  0.446720  1
  C  C3525  1  0.955100  0.383570  0.442240  1
  C  C3526  1  0.955100  0.116430  0.057760  1
  C  C3527  1  0.544900  0.616430  0.942240  1
  C  C3528  1  0.544900  0.883570  0.557760  1
  C  C3529  1  0.044900  0.616430  0.557760  1
  C  C3530  1  0.044900  0.883570  0.942240  1
  C  C3531  1  0.455100  0.383570  0.057760  1
  C  C3532  1  0.455100  0.116430  0.442240  1
  C  C3533  1  0.968800  0.369880  0.423840  1
  C  C3534  1  0.968800  0.130120  0.076160  1
  C  C3535  1  0.531200  0.630120  0.923840  1
  C  C3536  1  0.531200  0.869880  0.576160  1
  C  C3537  1  0.031200  0.630120  0.576160  1
  C  C3538  1  0.031200  0.869880  0.923840  1
  C  C3539  1  0.468800  0.369880  0.076160  1
  C  C3540  1  0.468800  0.130120  0.423840  1
  C  C3541  1  0.942200  0.357160  0.409890  1
  C  C3542  1  0.942200  0.142840  0.090110  1
  C  C3543  1  0.557800  0.642840  0.909890  1
  C  C3544  1  0.557800  0.857160  0.590110  1
  C  C3545  1  0.057800  0.642840  0.590110  1
  C  C3546  1  0.057800  0.857160  0.909890  1
  C  C3547  1  0.442200  0.357160  0.090110  1
  C  C3548  1  0.442200  0.142840  0.409890  1
  C  C3549  1  0.902600  0.357880  0.414140  1
  C  C3550  1  0.902600  0.142120  0.085860  1
  C  C3551  1  0.597400  0.642120  0.914140  1
  C  C3552  1  0.597400  0.857880  0.585860  1
  C  C3553  1  0.097400  0.642120  0.585860  1
  C  C3554  1  0.097400  0.857880  0.914140  1
  C  C3555  1  0.402600  0.357880  0.085860  1
  C  C3556  1  0.402600  0.142120  0.414140  1
  C  C3557  1  0.889200  0.371100  0.433000  1
  C  C3558  1  0.889200  0.128900  0.067000  1
  C  C3559  1  0.610800  0.628900  0.933000  1
  C  C3560  1  0.610800  0.871100  0.567000  1
  C  C3561  1  0.110800  0.628900  0.567000  1
  C  C3562  1  0.110800  0.871100  0.933000  1
  C  C3563  1  0.389200  0.371100  0.067000  1
  C  C3564  1  0.389200  0.128900  0.433000  1
  C  C3565  1  0.913300  0.333390  0.382300  1
  C  C3566  1  0.913300  0.166610  0.117700  1
  C  C3567  1  0.586700  0.666610  0.882300  1
  C  C3568  1  0.586700  0.833390  0.617700  1
  C  C3569  1  0.086700  0.666610  0.617700  1
  C  C3570  1  0.086700  0.833390  0.882300  1
  C  C3571  1  0.413300  0.333390  0.117700  1
  C  C3572  1  0.413300  0.166610  0.382300  1
  C  C3573  1  0.905100  0.318200  0.363370  1
  C  C3574  1  0.905100  0.181800  0.136630  1
  C  C3575  1  0.594900  0.681800  0.863370  1
  C  C3576  1  0.594900  0.818200  0.636630  1
  C  C3577  1  0.094900  0.681800  0.636630  1
  C  C3578  1  0.094900  0.818200  0.863370  1
  C  C3579  1  0.405100  0.318200  0.136630  1
  C  C3580  1  0.405100  0.181800  0.363370  1
  C  C3581  1  0.867400  0.311900  0.358780  1
  C  C3582  1  0.867400  0.188100  0.141220  1
  C  C3583  1  0.632600  0.688100  0.858780  1
  C  C3584  1  0.632600  0.811900  0.641220  1
  C  C3585  1  0.132600  0.688100  0.641220  1
  C  C3586  1  0.132600  0.811900  0.858780  1
  C  C3587  1  0.367400  0.311900  0.141220  1
  C  C3588  1  0.367400  0.188100  0.358780  1
  C  C3589  1  0.837500  0.321100  0.372410  1
  C  C3590  1  0.837500  0.178900  0.127590  1
  C  C3591  1  0.662500  0.678900  0.872410  1
  C  C3592  1  0.662500  0.821100  0.627590  1
  C  C3593  1  0.162500  0.678900  0.627590  1
  C  C3594  1  0.162500  0.821100  0.872410  1
  C  C3595  1  0.337500  0.321100  0.127590  1
  C  C3596  1  0.337500  0.178900  0.372410  1
  C  C3597  1  0.845600  0.336100  0.391590  1
  C  C3598  1  0.845600  0.163900  0.108410  1
  C  C3599  1  0.654400  0.663900  0.891590  1
  C  C3600  1  0.654400  0.836100  0.608410  1
  C  C3601  1  0.154400  0.663900  0.608410  1
  C  C3602  1  0.154400  0.836100  0.891590  1
  C  C3603  1  0.345600  0.336100  0.108410  1
  C  C3604  1  0.345600  0.163900  0.391590  1
  C  C3605  1  0.883800  0.342630  0.396470  1
  C  C3606  1  0.883800  0.157370  0.103530  1
  C  C3607  1  0.616200  0.657370  0.896470  1
  C  C3608  1  0.616200  0.842630  0.603530  1
  C  C3609  1  0.116200  0.657370  0.603530  1
  C  C3610  1  0.116200  0.842630  0.896470  1
  C  C3611  1  0.383800  0.342630  0.103530  1
  C  C3612  1  0.383800  0.157370  0.396470  1
  C  C3613  1  0.798500  0.316000  0.366160  1
  C  C3614  1  0.798500  0.184000  0.133840  1
  C  C3615  1  0.701500  0.684000  0.866160  1
  C  C3616  1  0.701500  0.816000  0.633840  1
  C  C3617  1  0.201500  0.684000  0.633840  1
  C  C3618  1  0.201500  0.816000  0.866160  1
  C  C3619  1  0.298500  0.316000  0.133840  1
  C  C3620  1  0.298500  0.184000  0.366160  1
  C  C3621  1  0.766800  0.312800  0.358970  1
  C  C3622  1  0.766800  0.187200  0.141030  1
  C  C3623  1  0.733200  0.687200  0.858970  1
  C  C3624  1  0.733200  0.812800  0.641030  1
  C  C3625  1  0.233200  0.687200  0.641030  1
  C  C3626  1  0.233200  0.812800  0.858970  1
  C  C3627  1  0.266800  0.312800  0.141030  1
  C  C3628  1  0.266800  0.187200  0.358970  1
  C  C3629  1  0.730000  0.311700  0.348240  1
  C  C3630  1  0.730000  0.188300  0.151760  1
  C  C3631  1  0.770000  0.688300  0.848240  1
  C  C3632  1  0.770000  0.811700  0.651760  1
  C  C3633  1  0.270000  0.688300  0.651760  1
  C  C3634  1  0.270000  0.811700  0.848240  1
  C  C3635  1  0.230000  0.311700  0.151760  1
  C  C3636  1  0.230000  0.188300  0.348240  1
  C  C3637  1  0.720300  0.291400  0.332570  1
  C  C3638  1  0.720300  0.208600  0.167430  1
  C  C3639  1  0.779700  0.708600  0.832570  1
  C  C3640  1  0.779700  0.791400  0.667430  1
  C  C3641  1  0.279700  0.708600  0.667430  1
  C  C3642  1  0.279700  0.791400  0.832570  1
  C  C3643  1  0.220300  0.291400  0.167430  1
  C  C3644  1  0.220300  0.208600  0.332570  1
  C  C3645  1  0.685900  0.293900  0.321440  1
  C  C3646  1  0.685900  0.206100  0.178560  1
  C  C3647  1  0.814100  0.706100  0.821440  1
  C  C3648  1  0.814100  0.793900  0.678560  1
  C  C3649  1  0.314100  0.706100  0.678560  1
  C  C3650  1  0.314100  0.793900  0.821440  1
  C  C3651  1  0.185900  0.293900  0.178560  1
  C  C3652  1  0.185900  0.206100  0.321440  1
  C  C3653  1  0.661800  0.316700  0.326110  1
  C  C3654  1  0.661800  0.183300  0.173890  1
  C  C3655  1  0.838200  0.683300  0.826110  1
  C  C3656  1  0.838200  0.816700  0.673890  1
  C  C3657  1  0.338200  0.683300  0.673890  1
  C  C3658  1  0.338200  0.816700  0.826110  1
  C  C3659  1  0.161800  0.316700  0.173890  1
  C  C3660  1  0.161800  0.183300  0.326110  1
  C  C3661  1  0.703800  0.333750  0.352120  1
  C  C3662  1  0.703800  0.166250  0.147880  1
  C  C3663  1  0.796200  0.666250  0.852120  1
  C  C3664  1  0.796200  0.833750  0.647880  1
  C  C3665  1  0.296200  0.666250  0.647880  1
  C  C3666  1  0.296200  0.833750  0.852120  1
  C  C3667  1  0.203800  0.333750  0.147880  1
  C  C3668  1  0.203800  0.166250  0.352120  1
  C  C3669  1  0.995100  0.581270  0.618360  1
  C  C3670  1  0.995100  0.918730  0.881640  1
  C  C3671  1  0.504900  0.418730  0.118360  1
  C  C3672  1  0.504900  0.081270  0.381640  1
  C  C3673  1  0.004900  0.418730  0.381640  1
  C  C3674  1  0.004900  0.081270  0.118360  1
  C  C3675  1  0.495100  0.581270  0.881640  1
  C  C3676  1  0.495100  0.918730  0.618360  1
  C  C3677  1  0.037200  0.576800  0.623270  1
  C  C3678  1  0.037200  0.923200  0.876730  1
  C  C3679  1  0.462800  0.423200  0.123270  1
  C  C3680  1  0.462800  0.076800  0.376730  1
  C  C3681  1  0.962800  0.423200  0.376730  1
  C  C3682  1  0.962800  0.076800  0.123270  1
  C  C3683  1  0.537200  0.576800  0.876730  1
  C  C3684  1  0.537200  0.923200  0.623270  1
  C  C3685  1  0.056100  0.556000  0.608100  1
  C  C3686  1  0.056100  0.944000  0.891900  1
  C  C3687  1  0.443900  0.444000  0.108100  1
  C  C3688  1  0.443900  0.056000  0.391900  1
  C  C3689  1  0.943900  0.444000  0.391900  1
  C  C3690  1  0.943900  0.056000  0.108100  1
  C  C3691  1  0.556100  0.556000  0.891900  1
  C  C3692  1  0.556100  0.944000  0.608100  1
  C  C3693  1  0.096900  0.547600  0.612000  1
  C  C3694  1  0.096900  0.952400  0.888000  1
  C  C3695  1  0.403100  0.452400  0.112000  1
  C  C3696  1  0.403100  0.047600  0.388000  1
  C  C3697  1  0.903100  0.452400  0.388000  1
  C  C3698  1  0.903100  0.047600  0.112000  1
  C  C3699  1  0.596900  0.547600  0.888000  1
  C  C3700  1  0.596900  0.952400  0.612000  1
  C  C3701  1  0.109000  0.523900  0.597300  1
  C  C3702  1  0.109000  0.976100  0.902700  1
  C  C3703  1  0.391000  0.476100  0.097300  1
  C  C3704  1  0.391000  0.023900  0.402700  1
  C  C3705  1  0.891000  0.476100  0.402700  1
  C  C3706  1  0.891000  0.023900  0.097300  1
  C  C3707  1  0.609000  0.523900  0.902700  1
  C  C3708  1  0.609000  0.976100  0.597300  1
  C  C3709  1  0.145900  0.512700  0.605500  1
  C  C3710  1  0.145900  0.987300  0.894500  1
  C  C3711  1  0.354100  0.487300  0.105500  1
  C  C3712  1  0.354100  0.012700  0.394500  1
  C  C3713  1  0.854100  0.487300  0.394500  1
  C  C3714  1  0.854100  0.012700  0.105500  1
  C  C3715  1  0.645900  0.512700  0.894500  1
  C  C3716  1  0.645900  0.987300  0.605500  1
  C  C3717  1  0.986100  0.335700  0.381120  1
  C  C3718  1  0.986100  0.164300  0.118880  1
  C  C3719  1  0.513900  0.664300  0.881120  1
  C  C3720  1  0.513900  0.835700  0.618880  1
  C  C3721  1  0.013900  0.664300  0.618880  1
  C  C3722  1  0.013900  0.835700  0.881120  1
  C  C3723  1  0.486100  0.335700  0.118880  1
  C  C3724  1  0.486100  0.164300  0.381120  1
  C  C3725  1  0.997600  0.305500  0.384480  1
  C  C3726  1  0.997600  0.194500  0.115520  1
  C  C3727  1  0.502400  0.694500  0.884480  1
  C  C3728  1  0.502400  0.805500  0.615520  1
  C  C3729  1  0.002400  0.694500  0.615520  1
  C  C3730  1  0.002400  0.805500  0.884480  1
  C  C3731  1  0.497600  0.305500  0.115520  1
  C  C3732  1  0.497600  0.194500  0.384480  1
  C  C3733  1  0.995900  0.293600  0.406680  1
  C  C3734  1  0.995900  0.206400  0.093320  1
  C  C3735  1  0.504100  0.706400  0.906680  1
  C  C3736  1  0.504100  0.793600  0.593320  1
  C  C3737  1  0.004100  0.706400  0.593320  1
  C  C3738  1  0.004100  0.793600  0.906680  1
  C  C3739  1  0.495900  0.293600  0.093320  1
  C  C3740  1  0.495900  0.206400  0.406680  1
  C  C3741  1  0.001600  0.261900  0.408500  1
  C  C3742  1  0.001600  0.238100  0.091500  1
  C  C3743  1  0.498400  0.738100  0.908500  1
  C  C3744  1  0.498400  0.761900  0.591500  1
  C  C3745  1  0.998400  0.738100  0.591500  1
  C  C3746  1  0.998400  0.761900  0.908500  1
  C  C3747  1  0.501600  0.261900  0.091500  1
  C  C3748  1  0.501600  0.238100  0.408500  1
  C  C3749  1  0.000800  0.251500  0.431200  1
  C  C3750  1  0.000800  0.248500  0.068800  1
  C  C3751  1  0.499200  0.748500  0.931200  1
  C  C3752  1  0.499200  0.751500  0.568800  1
  C  C3753  1  0.999200  0.748500  0.568800  1
  C  C3754  1  0.999200  0.751500  0.931200  1
  C  C3755  1  0.500800  0.251500  0.068800  1
  C  C3756  1  0.500800  0.248500  0.431200  1
  C  C3757  1  0.998200  0.222300  0.436500  1
  C  C3758  1  0.998200  0.277700  0.063500  1
  C  C3759  1  0.501800  0.777700  0.936500  1
  C  C3760  1  0.501800  0.722300  0.563500  1
  C  C3761  1  0.001800  0.777700  0.563500  1
  C  C3762  1  0.001800  0.722300  0.936500  1
  C  C3763  1  0.498200  0.222300  0.063500  1
  C  C3764  1  0.498200  0.277700  0.436500  1
  C  C3765  1  0.006400  0.417600  0.753900  1
  C  C3766  1  0.006400  0.082400  0.746100  1
  C  C3767  1  0.493600  0.582400  0.253900  1
  C  C3768  1  0.493600  0.917600  0.246100  1
  C  C3769  1  0.993600  0.582400  0.246100  1
  C  C3770  1  0.993600  0.917600  0.253900  1
  C  C3771  1  0.506400  0.417600  0.746100  1
  C  C3772  1  0.506400  0.082400  0.753900  1
  C  C3773  1  0.041700  0.426800  0.745900  1
  C  C3774  1  0.041700  0.073200  0.754100  1
  C  C3775  1  0.458300  0.573200  0.245900  1
  C  C3776  1  0.458300  0.926800  0.254100  1
  C  C3777  1  0.958300  0.573200  0.254100  1
  C  C3778  1  0.958300  0.926800  0.245900  1
  C  C3779  1  0.541700  0.426800  0.754100  1
  C  C3780  1  0.541700  0.073200  0.745900  1
  C  C3781  1  0.052400  0.418500  0.724900  1
  C  C3782  1  0.052400  0.081500  0.775100  1
  C  C3783  1  0.447600  0.581500  0.224900  1
  C  C3784  1  0.447600  0.918500  0.275100  1
  C  C3785  1  0.947600  0.581500  0.275100  1
  C  C3786  1  0.947600  0.918500  0.224900  1
  C  C3787  1  0.552400  0.418500  0.775100  1
  C  C3788  1  0.552400  0.081500  0.724900  1
  C  C3789  1  0.027400  0.400900  0.712870  1
  C  C3790  1  0.027400  0.099100  0.787130  1
  C  C3791  1  0.472600  0.599100  0.212870  1
  C  C3792  1  0.472600  0.900900  0.287130  1
  C  C3793  1  0.972600  0.599100  0.287130  1
  C  C3794  1  0.972600  0.900900  0.212870  1
  C  C3795  1  0.527400  0.400900  0.787130  1
  C  C3796  1  0.527400  0.099100  0.712870  1
  C  C3797  1  0.993100  0.392400  0.722300  1
  C  C3798  1  0.993100  0.107600  0.777700  1
  C  C3799  1  0.506900  0.607600  0.222300  1
  C  C3800  1  0.506900  0.892400  0.277700  1
  C  C3801  1  0.006900  0.607600  0.277700  1
  C  C3802  1  0.006900  0.892400  0.222300  1
  C  C3803  1  0.493100  0.392400  0.777700  1
  C  C3804  1  0.493100  0.107600  0.722300  1
  C  C3805  1  0.038300  0.390900  0.691480  1
  C  C3806  1  0.038300  0.109100  0.808520  1
  C  C3807  1  0.461700  0.609100  0.191480  1
  C  C3808  1  0.461700  0.890900  0.308520  1
  C  C3809  1  0.961700  0.609100  0.308520  1
  C  C3810  1  0.961700  0.890900  0.191480  1
  C  C3811  1  0.538300  0.390900  0.808520  1
  C  C3812  1  0.538300  0.109100  0.691480  1
  C  C3813  1  0.046800  0.381500  0.673850  1
  C  C3814  1  0.046800  0.118500  0.826150  1
  C  C3815  1  0.453200  0.618500  0.173850  1
  C  C3816  1  0.453200  0.881500  0.326150  1
  C  C3817  1  0.953200  0.618500  0.326150  1
  C  C3818  1  0.953200  0.881500  0.173850  1
  C  C3819  1  0.546800  0.381500  0.826150  1
  C  C3820  1  0.546800  0.118500  0.673850  1
  C  C3821  1  0.058300  0.370000  0.653050  1
  C  C3822  1  0.058300  0.130000  0.846950  1
  C  C3823  1  0.441700  0.630000  0.153050  1
  C  C3824  1  0.441700  0.870000  0.346950  1
  C  C3825  1  0.941700  0.630000  0.346950  1
  C  C3826  1  0.941700  0.870000  0.153050  1
  C  C3827  1  0.558300  0.370000  0.846950  1
  C  C3828  1  0.558300  0.130000  0.653050  1
  C  C3829  1  0.096800  0.368700  0.648020  1
  C  C3830  1  0.096800  0.131300  0.851980  1
  C  C3831  1  0.403200  0.631300  0.148020  1
  C  C3832  1  0.403200  0.868700  0.351980  1
  C  C3833  1  0.903200  0.631300  0.351980  1
  C  C3834  1  0.903200  0.868700  0.148020  1
  C  C3835  1  0.596800  0.368700  0.851980  1
  C  C3836  1  0.596800  0.131300  0.648020  1
  C  C3837  1  0.110500  0.356600  0.628890  1
  C  C3838  1  0.110500  0.143400  0.871110  1
  C  C3839  1  0.389500  0.643400  0.128890  1
  C  C3840  1  0.389500  0.856600  0.371110  1
  C  C3841  1  0.889500  0.643400  0.371110  1
  C  C3842  1  0.889500  0.856600  0.128890  1
  C  C3843  1  0.610500  0.356600  0.871110  1
  C  C3844  1  0.610500  0.143400  0.628890  1
  C  C3845  1  0.082800  0.345620  0.614710  1
  C  C3846  1  0.082800  0.154380  0.885290  1
  C  C3847  1  0.417200  0.654380  0.114710  1
  C  C3848  1  0.417200  0.845620  0.385290  1
  C  C3849  1  0.917200  0.654380  0.385290  1
  C  C3850  1  0.917200  0.845620  0.114710  1
  C  C3851  1  0.582800  0.345620  0.885290  1
  C  C3852  1  0.582800  0.154380  0.614710  1
  C  C3853  1  0.043200  0.347100  0.619230  1
  C  C3854  1  0.043200  0.152900  0.880770  1
  C  C3855  1  0.456800  0.652900  0.119230  1
  C  C3856  1  0.456800  0.847100  0.380770  1
  C  C3857  1  0.956800  0.652900  0.380770  1
  C  C3858  1  0.956800  0.847100  0.119230  1
  C  C3859  1  0.543200  0.347100  0.880770  1
  C  C3860  1  0.543200  0.152900  0.619230  1
  C  C3861  1  0.030200  0.359100  0.638940  1
  C  C3862  1  0.030200  0.140900  0.861060  1
  C  C3863  1  0.469800  0.640900  0.138940  1
  C  C3864  1  0.469800  0.859100  0.361060  1
  C  C3865  1  0.969800  0.640900  0.361060  1
  C  C3866  1  0.969800  0.859100  0.138940  1
  C  C3867  1  0.530200  0.359100  0.861060  1
  C  C3868  1  0.530200  0.140900  0.638940  1
  C  C3869  1  0.052700  0.324480  0.586380  1
  C  C3870  1  0.052700  0.175520  0.913620  1
  C  C3871  1  0.447300  0.675520  0.086380  1
  C  C3872  1  0.447300  0.824480  0.413620  1
  C  C3873  1  0.947300  0.675520  0.413620  1
  C  C3874  1  0.947300  0.824480  0.086380  1
  C  C3875  1  0.552700  0.324480  0.913620  1
  C  C3876  1  0.552700  0.175520  0.586380  1
  C  C3877  1  0.044000  0.310400  0.566950  1
  C  C3878  1  0.044000  0.189600  0.933050  1
  C  C3879  1  0.456000  0.689600  0.066950  1
  C  C3880  1  0.456000  0.810400  0.433050  1
  C  C3881  1  0.956000  0.689600  0.433050  1
  C  C3882  1  0.956000  0.810400  0.066950  1
  C  C3883  1  0.544000  0.310400  0.933050  1
  C  C3884  1  0.544000  0.189600  0.566950  1
  C  C3885  1  0.005800  0.306260  0.561980  1
  C  C3886  1  0.005800  0.193740  0.938020  1
  C  C3887  1  0.494200  0.693740  0.061980  1
  C  C3888  1  0.494200  0.806260  0.438020  1
  C  C3889  1  0.994200  0.693740  0.438020  1
  C  C3890  1  0.994200  0.806260  0.061980  1
  C  C3891  1  0.505800  0.306260  0.938020  1
  C  C3892  1  0.505800  0.193740  0.561980  1
  C  C3893  1  0.976900  0.315150  0.575970  1
  C  C3894  1  0.976900  0.184850  0.924030  1
  C  C3895  1  0.523100  0.684850  0.075970  1
  C  C3896  1  0.523100  0.815150  0.424030  1
  C  C3897  1  0.023100  0.684850  0.424030  1
  C  C3898  1  0.023100  0.815150  0.075970  1
  C  C3899  1  0.476900  0.315150  0.924030  1
  C  C3900  1  0.476900  0.184850  0.575970  1
  C  C3901  1  0.985300  0.328610  0.595900  1
  C  C3902  1  0.985300  0.171390  0.904100  1
  C  C3903  1  0.514700  0.671390  0.095900  1
  C  C3904  1  0.514700  0.828610  0.404100  1
  C  C3905  1  0.014700  0.671390  0.404100  1
  C  C3906  1  0.014700  0.828610  0.095900  1
  C  C3907  1  0.485300  0.328610  0.904100  1
  C  C3908  1  0.485300  0.171390  0.595900  1
  C  C3909  1  0.023800  0.333540  0.600910  1
  C  C3910  1  0.023800  0.166460  0.899090  1
  C  C3911  1  0.476200  0.666460  0.100910  1
  C  C3912  1  0.476200  0.833540  0.399090  1
  C  C3913  1  0.976200  0.666460  0.399090  1
  C  C3914  1  0.976200  0.833540  0.100910  1
  C  C3915  1  0.523800  0.333540  0.899090  1
  C  C3916  1  0.523800  0.166460  0.600910  1
  C  C3917  1  0.937500  0.311600  0.569170  1
  C  C3918  1  0.937500  0.188400  0.930830  1
  C  C3919  1  0.562500  0.688400  0.069170  1
  C  C3920  1  0.562500  0.811600  0.430830  1
  C  C3921  1  0.062500  0.688400  0.430830  1
  C  C3922  1  0.062500  0.811600  0.069170  1
  C  C3923  1  0.437500  0.311600  0.930830  1
  C  C3924  1  0.437500  0.188400  0.569170  1
  C  C3925  1  0.906400  0.309510  0.561150  1
  C  C3926  1  0.906400  0.190490  0.938850  1
  C  C3927  1  0.593600  0.690490  0.061150  1
  C  C3928  1  0.593600  0.809510  0.438850  1
  C  C3929  1  0.093600  0.690490  0.438850  1
  C  C3930  1  0.093600  0.809510  0.061150  1
  C  C3931  1  0.406400  0.309510  0.938850  1
  C  C3932  1  0.406400  0.190490  0.561150  1
  C  C3933  1  0.869600  0.312590  0.550940  1
  C  C3934  1  0.869600  0.187410  0.949060  1
  C  C3935  1  0.630400  0.687410  0.050940  1
  C  C3936  1  0.630400  0.812590  0.449060  1
  C  C3937  1  0.130400  0.687410  0.449060  1
  C  C3938  1  0.130400  0.812590  0.050940  1
  C  C3939  1  0.369600  0.312590  0.949060  1
  C  C3940  1  0.369600  0.187410  0.550940  1
  C  C3941  1  0.855000  0.292130  0.536610  1
  C  C3942  1  0.855000  0.207870  0.963390  1
  C  C3943  1  0.645000  0.707870  0.036610  1
  C  C3944  1  0.645000  0.792130  0.463390  1
  C  C3945  1  0.145000  0.707870  0.463390  1
  C  C3946  1  0.145000  0.792130  0.036610  1
  C  C3947  1  0.355000  0.292130  0.963390  1
  C  C3948  1  0.355000  0.207870  0.536610  1
  C  C3949  1  0.820500  0.297840  0.525820  1
  C  C3950  1  0.820500  0.202160  0.974180  1
  C  C3951  1  0.679500  0.702160  0.025820  1
  C  C3952  1  0.679500  0.797840  0.474180  1
  C  C3953  1  0.179500  0.702160  0.474180  1
  C  C3954  1  0.179500  0.797840  0.025820  1
  C  C3955  1  0.320500  0.297840  0.974180  1
  C  C3956  1  0.320500  0.202160  0.525820  1
  C  C3957  1  0.802500  0.323900  0.529310  1
  C  C3958  1  0.802500  0.176100  0.970690  1
  C  C3959  1  0.697500  0.676100  0.029310  1
  C  C3960  1  0.697500  0.823900  0.470690  1
  C  C3961  1  0.197500  0.676100  0.470690  1
  C  C3962  1  0.197500  0.823900  0.029310  1
  C  C3963  1  0.302500  0.323900  0.970690  1
  C  C3964  1  0.302500  0.176100  0.529310  1
  C  C3965  1  0.849000  0.337890  0.554050  1
  C  C3966  1  0.849000  0.162110  0.945950  1
  C  C3967  1  0.651000  0.662110  0.054050  1
  C  C3968  1  0.651000  0.837890  0.445950  1
  C  C3969  1  0.151000  0.662110  0.445950  1
  C  C3970  1  0.151000  0.837890  0.054050  1
  C  C3971  1  0.349000  0.337890  0.945950  1
  C  C3972  1  0.349000  0.162110  0.554050  1
  C  C3973  1  0.801800  0.277160  0.512000  1
  C  C3974  1  0.801800  0.222840  0.988000  1
  C  C3975  1  0.698200  0.722840  0.012000  1
  C  C3976  1  0.698200  0.777160  0.488000  1
  C  C3977  1  0.198200  0.722840  0.488000  1
  C  C3978  1  0.198200  0.777160  0.012000  1
  C  C3979  1  0.301800  0.277160  0.988000  1
  C  C3980  1  0.301800  0.222840  0.512000  1
  C  C3981  1  0.781400  0.261240  0.502230  1
  C  C3982  1  0.781400  0.238760  0.997770  1
  C  C3983  1  0.718600  0.738760  0.002230  1
  C  C3984  1  0.718600  0.761240  0.497770  1
  C  C3985  1  0.218600  0.738760  0.497770  1
  C  C3986  1  0.218600  0.761240  0.002230  1
  C  C3987  1  0.281400  0.261240  0.997770  1
  C  C3988  1  0.281400  0.238760  0.502230  1
  C  C3989  1  0.756400  0.240950  0.491960  1
  C  C3990  1  0.756400  0.259050  0.008040  1
  C  C3991  1  0.743600  0.759050  0.991960  1
  C  C3992  1  0.743600  0.740950  0.508040  1
  C  C3993  1  0.243600  0.759050  0.508040  1
  C  C3994  1  0.243600  0.740950  0.991960  1
  C  C3995  1  0.256400  0.240950  0.008040  1
  C  C3996  1  0.256400  0.259050  0.491960  1
  C  C3997  1  0.759300  0.212190  0.497910  1
  C  C3998  1  0.759300  0.287810  0.002090  1
  C  C3999  1  0.740700  0.787810  0.997910  1
  C  C4000  1  0.740700  0.712190  0.502090  1
  C  C4001  1  0.240700  0.787810  0.502090  1
  C  C4002  1  0.240700  0.712190  0.997910  1
  C  C4003  1  0.259300  0.212190  0.002090  1
  C  C4004  1  0.259300  0.287810  0.497910  1
  C  C4005  1  0.734200  0.192390  0.489270  1
  C  C4006  1  0.734200  0.307610  0.010730  1
  C  C4007  1  0.765800  0.807610  0.989270  1
  C  C4008  1  0.765800  0.692390  0.510730  1
  C  C4009  1  0.265800  0.807610  0.510730  1
  C  C4010  1  0.265800  0.692390  0.989270  1
  C  C4011  1  0.234200  0.192390  0.010730  1
  C  C4012  1  0.234200  0.307610  0.489270  1
  C  C4013  1  0.706010  0.201870  0.475000  1
  C  C4014  1  0.706010  0.298130  0.025000  1
  C  C4015  1  0.793990  0.798130  0.975000  1
  C  C4016  1  0.793990  0.701870  0.525000  1
  C  C4017  1  0.293990  0.798130  0.525000  1
  C  C4018  1  0.293990  0.701870  0.975000  1
  C  C4019  1  0.206010  0.201870  0.025000  1
  C  C4020  1  0.206010  0.298130  0.475000  1
  C  C4021  1  0.702700  0.230520  0.468690  1
  C  C4022  1  0.702700  0.269480  0.031310  1
  C  C4023  1  0.797300  0.769480  0.968690  1
  C  C4024  1  0.797300  0.730520  0.531310  1
  C  C4025  1  0.297300  0.769480  0.531310  1
  C  C4026  1  0.297300  0.730520  0.968690  1
  C  C4027  1  0.202700  0.230520  0.031310  1
  C  C4028  1  0.202700  0.269480  0.468690  1
  C  C4029  1  0.728300  0.250300  0.477450  1
  C  C4030  1  0.728300  0.249700  0.022550  1
  C  C4031  1  0.771700  0.749700  0.977450  1
  C  C4032  1  0.771700  0.750300  0.522550  1
  C  C4033  1  0.271700  0.749700  0.522550  1
  C  C4034  1  0.271700  0.750300  0.977450  1
  C  C4035  1  0.228300  0.250300  0.022550  1
  C  C4036  1  0.228300  0.249700  0.477450  1
  C  C4037  1  0.655970  0.204320  0.451730  1
  C  C4038  1  0.655970  0.295680  0.048270  1
  C  C4039  1  0.844030  0.795680  0.951730  1
  C  C4040  1  0.844030  0.704320  0.548270  1
  C  C4041  1  0.344030  0.795680  0.548270  1
  C  C4042  1  0.344030  0.704320  0.951730  1
  C  C4043  1  0.155970  0.204320  0.048270  1
  C  C4044  1  0.155970  0.295680  0.451730  1
  C  C4045  1  0.625100  0.198140  0.438200  1
  C  C4046  1  0.625100  0.301860  0.061800  1
  C  C4047  1  0.874900  0.801860  0.938200  1
  C  C4048  1  0.874900  0.698140  0.561800  1
  C  C4049  1  0.374900  0.801860  0.561800  1
  C  C4050  1  0.374900  0.698140  0.938200  1
  C  C4051  1  0.125100  0.198140  0.061800  1
  C  C4052  1  0.125100  0.301860  0.438200  1
  C  C4053  1  0.608300  0.220020  0.426620  1
  C  C4054  1  0.608300  0.279980  0.073380  1
  C  C4055  1  0.891700  0.779980  0.926620  1
  C  C4056  1  0.891700  0.720020  0.573380  1
  C  C4057  1  0.391700  0.779980  0.573380  1
  C  C4058  1  0.391700  0.720020  0.926620  1
  C  C4059  1  0.108300  0.220020  0.073380  1
  C  C4060  1  0.108300  0.279980  0.426620  1
  C  C4061  1  0.622000  0.247840  0.428360  1
  C  C4062  1  0.622000  0.252160  0.071640  1
  C  C4063  1  0.878000  0.752160  0.928360  1
  C  C4064  1  0.878000  0.747840  0.571640  1
  C  C4065  1  0.378000  0.752160  0.571640  1
  C  C4066  1  0.378000  0.747840  0.928360  1
  C  C4067  1  0.122000  0.247840  0.071640  1
  C  C4068  1  0.122000  0.252160  0.428360  1
  C  C4069  1  0.653000  0.254040  0.442090  1
  C  C4070  1  0.653000  0.245960  0.057910  1
  C  C4071  1  0.847000  0.745960  0.942090  1
  C  C4072  1  0.847000  0.754040  0.557910  1
  C  C4073  1  0.347000  0.745960  0.557910  1
  C  C4074  1  0.347000  0.754040  0.942090  1
  C  C4075  1  0.153000  0.254040  0.057910  1
  C  C4076  1  0.153000  0.245960  0.442090  1
  C  C4077  1  0.670400  0.232270  0.453690  1
  C  C4078  1  0.670400  0.267730  0.046310  1
  C  C4079  1  0.829600  0.767730  0.953690  1
  C  C4080  1  0.829600  0.732270  0.546310  1
  C  C4081  1  0.329600  0.767730  0.546310  1
  C  C4082  1  0.329600  0.732270  0.953690  1
  C  C4083  1  0.170400  0.232270  0.046310  1
  C  C4084  1  0.170400  0.267730  0.453690  1
  C  C4085  1  0.606100  0.269620  0.414720  1
  C  C4086  1  0.606100  0.230380  0.085280  1
  C  C4087  1  0.893900  0.730380  0.914720  1
  C  C4088  1  0.893900  0.769620  0.585280  1
  C  C4089  1  0.393900  0.730380  0.585280  1
  C  C4090  1  0.393900  0.769620  0.914720  1
  C  C4091  1  0.106100  0.269620  0.085280  1
  C  C4092  1  0.106100  0.230380  0.414720  1
  C  C4093  1  0.593100  0.286070  0.401690  1
  C  C4094  1  0.593100  0.213930  0.098310  1
  C  C4095  1  0.906900  0.713930  0.901690  1
  C  C4096  1  0.906900  0.786070  0.598310  1
  C  C4097  1  0.406900  0.713930  0.598310  1
  C  C4098  1  0.406900  0.786070  0.901690  1
  C  C4099  1  0.093100  0.286070  0.098310  1
  C  C4100  1  0.093100  0.213930  0.401690  1
  C  C4101  1  0.579700  0.304200  0.384390  1
  C  C4102  1  0.579700  0.195800  0.115610  1
  C  C4103  1  0.920300  0.695800  0.884390  1
  C  C4104  1  0.920300  0.804200  0.615610  1
  C  C4105  1  0.420300  0.695800  0.615610  1
  C  C4106  1  0.420300  0.804200  0.884390  1
  C  C4107  1  0.079700  0.304200  0.115610  1
  C  C4108  1  0.079700  0.195800  0.384390  1
  C  C4109  1  0.544800  0.300450  0.373770  1
  C  C4110  1  0.544800  0.199550  0.126230  1
  C  C4111  1  0.955200  0.699550  0.873770  1
  C  C4112  1  0.955200  0.800450  0.626230  1
  C  C4113  1  0.455200  0.699550  0.626230  1
  C  C4114  1  0.455200  0.800450  0.873770  1
  C  C4115  1  0.044800  0.300450  0.126230  1
  C  C4116  1  0.044800  0.199550  0.373770  1
  C  C4117  1  0.536100  0.317500  0.355900  1
  C  C4118  1  0.536100  0.182500  0.144100  1
  C  C4119  1  0.963900  0.682500  0.855900  1
  C  C4120  1  0.963900  0.817500  0.644100  1
  C  C4121  1  0.463900  0.682500  0.644100  1
  C  C4122  1  0.463900  0.817500  0.855900  1
  C  C4123  1  0.036100  0.317500  0.144100  1
  C  C4124  1  0.036100  0.182500  0.355900  1
  C  C4125  1  0.562100  0.337400  0.349350  1
  C  C4126  1  0.562100  0.162600  0.150650  1
  C  C4127  1  0.937900  0.662600  0.849350  1
  C  C4128  1  0.937900  0.837400  0.650650  1
  C  C4129  1  0.437900  0.662600  0.650650  1
  C  C4130  1  0.437900  0.837400  0.849350  1
  C  C4131  1  0.062100  0.337400  0.150650  1
  C  C4132  1  0.062100  0.162600  0.349350  1
  C  C4133  1  0.604000  0.325510  0.376950  1
  C  C4134  1  0.604000  0.174490  0.123050  1
  C  C4135  1  0.896000  0.674490  0.876950  1
  C  C4136  1  0.896000  0.825510  0.623050  1
  C  C4137  1  0.396000  0.674490  0.623050  1
  C  C4138  1  0.396000  0.825510  0.876950  1
  C  C4139  1  0.104000  0.325510  0.123050  1
  C  C4140  1  0.104000  0.174490  0.376950  1
  C  C4141  1  0.125800  0.323100  0.586000  1
  C  C4142  1  0.125800  0.176900  0.914000  1
  C  C4143  1  0.374200  0.676900  0.086000  1
  C  C4144  1  0.374200  0.823100  0.414000  1
  C  C4145  1  0.874200  0.676900  0.414000  1
  C  C4146  1  0.874200  0.823100  0.086000  1
  C  C4147  1  0.625800  0.323100  0.914000  1
  C  C4148  1  0.625800  0.176900  0.586000  1
  C  C4149  1  0.140300  0.296100  0.597300  1
  C  C4150  1  0.140300  0.203900  0.902700  1
  C  C4151  1  0.359700  0.703900  0.097300  1
  C  C4152  1  0.359700  0.796100  0.402700  1
  C  C4153  1  0.859700  0.703900  0.402700  1
  C  C4154  1  0.859700  0.796100  0.097300  1
  C  C4155  1  0.640300  0.296100  0.902700  1
  C  C4156  1  0.640300  0.203900  0.597300  1
  C  C4157  1  0.116600  0.269600  0.589500  1
  C  C4158  1  0.116600  0.230400  0.910500  1
  C  C4159  1  0.383400  0.730400  0.089500  1
  C  C4160  1  0.383400  0.769600  0.410500  1
  C  C4161  1  0.883400  0.730400  0.410500  1
  C  C4162  1  0.883400  0.769600  0.089500  1
  C  C4163  1  0.616600  0.269600  0.910500  1
  C  C4164  1  0.616600  0.230400  0.589500  1
  C  C4165  1  0.125900  0.242300  0.601300  1
  C  C4166  1  0.125900  0.257700  0.898700  1
  C  C4167  1  0.374100  0.757700  0.101300  1
  C  C4168  1  0.374100  0.742300  0.398700  1
  C  C4169  1  0.874100  0.757700  0.398700  1
  C  C4170  1  0.874100  0.742300  0.101300  1
  C  C4171  1  0.625900  0.242300  0.898700  1
  C  C4172  1  0.625900  0.257700  0.601300  1
  C  C4173  1  0.098500  0.219000  0.596500  1
  C  C4174  1  0.098500  0.281000  0.903500  1
  C  C4175  1  0.401500  0.781000  0.096500  1
  C  C4176  1  0.401500  0.719000  0.403500  1
  C  C4177  1  0.901500  0.781000  0.403500  1
  C  C4178  1  0.901500  0.719000  0.096500  1
  C  C4179  1  0.598500  0.219000  0.903500  1
  C  C4180  1  0.598500  0.281000  0.596500  1
  C  C4181  1  0.105900  0.194000  0.613300  1
  C  C4182  1  0.105900  0.306000  0.886700  1
  C  C4183  1  0.394100  0.806000  0.113300  1
  C  C4184  1  0.394100  0.694000  0.386700  1
  C  C4185  1  0.894100  0.806000  0.386700  1
  C  C4186  1  0.894100  0.694000  0.113300  1
  C  C4187  1  0.605900  0.194000  0.886700  1
  C  C4188  1  0.605900  0.306000  0.613300  1
  C  C4189  1  0.674300  0.155310  0.465680  1
  C  C4190  1  0.674300  0.344690  0.034320  1
  C  C4191  1  0.825700  0.844690  0.965680  1
  C  C4192  1  0.825700  0.655310  0.534320  1
  C  C4193  1  0.325700  0.844690  0.534320  1
  C  C4194  1  0.325700  0.655310  0.965680  1
  C  C4195  1  0.174300  0.155310  0.034320  1
  C  C4196  1  0.174300  0.344690  0.465680  1
  C  C4197  1  0.700600  0.141730  0.448930  1
  C  C4198  1  0.700600  0.358270  0.051070  1
  C  C4199  1  0.799400  0.858270  0.948930  1
  C  C4200  1  0.799400  0.641730  0.551070  1
  C  C4201  1  0.299400  0.858270  0.551070  1
  C  C4202  1  0.299400  0.641730  0.948930  1
  C  C4203  1  0.200600  0.141730  0.051070  1
  C  C4204  1  0.200600  0.358270  0.448930  1
  C  C4205  1  0.703700  0.110000  0.451800  1
  C  C4206  1  0.703700  0.390000  0.048200  1
  C  C4207  1  0.796300  0.890000  0.951800  1
  C  C4208  1  0.796300  0.610000  0.548200  1
  C  C4209  1  0.296300  0.890000  0.548200  1
  C  C4210  1  0.296300  0.610000  0.951800  1
  C  C4211  1  0.203700  0.110000  0.048200  1
  C  C4212  1  0.203700  0.390000  0.451800  1
  C  C4213  1  0.727500  0.095000  0.434500  1
  C  C4214  1  0.727500  0.405000  0.065500  1
  C  C4215  1  0.772500  0.905000  0.934500  1
  C  C4216  1  0.772500  0.595000  0.565500  1
  C  C4217  1  0.272500  0.905000  0.565500  1
  C  C4218  1  0.272500  0.595000  0.934500  1
  C  C4219  1  0.227500  0.095000  0.065500  1
  C  C4220  1  0.227500  0.405000  0.434500  1
  C  C4221  1  0.735100  0.063400  0.438100  1
  C  C4222  1  0.735100  0.436600  0.061900  1
  C  C4223  1  0.764900  0.936600  0.938100  1
  C  C4224  1  0.764900  0.563400  0.561900  1
  C  C4225  1  0.264900  0.936600  0.561900  1
  C  C4226  1  0.264900  0.563400  0.938100  1
  C  C4227  1  0.235100  0.063400  0.061900  1
  C  C4228  1  0.235100  0.436600  0.438100  1
  C  C4229  1  0.752000  0.049400  0.416700  1
  C  C4230  1  0.752000  0.450600  0.083300  1
  C  C4231  1  0.748000  0.950600  0.916700  1
  C  C4232  1  0.748000  0.549400  0.583300  1
  C  C4233  1  0.248000  0.950600  0.583300  1
  C  C4234  1  0.248000  0.549400  0.916700  1
  C  C4235  1  0.252000  0.049400  0.083300  1
  C  C4236  1  0.252000  0.450600  0.416700  1
  C  C4237  1  0.965100  0.337900  0.768300  1
  C  C4238  1  0.965100  0.162100  0.731700  1
  C  C4239  1  0.534900  0.662100  0.268300  1
  C  C4240  1  0.534900  0.837900  0.231700  1
  C  C4241  1  0.034900  0.662100  0.231700  1
  C  C4242  1  0.034900  0.837900  0.268300  1
  C  C4243  1  0.465100  0.337900  0.731700  1
  C  C4244  1  0.465100  0.162100  0.768300  1
  C  C4245  1  0.967900  0.309100  0.771900  1
  C  C4246  1  0.967900  0.190900  0.728100  1
  C  C4247  1  0.532100  0.690900  0.271900  1
  C  C4248  1  0.532100  0.809100  0.228100  1
  C  C4249  1  0.032100  0.690900  0.228100  1
  C  C4250  1  0.032100  0.809100  0.271900  1
  C  C4251  1  0.467900  0.309100  0.728100  1
  C  C4252  1  0.467900  0.190900  0.771900  1
  C  C4253  1  0.945700  0.291000  0.759200  1
  C  C4254  1  0.945700  0.209000  0.740800  1
  C  C4255  1  0.554300  0.709000  0.259200  1
  C  C4256  1  0.554300  0.791000  0.240800  1
  C  C4257  1  0.054300  0.709000  0.240800  1
  C  C4258  1  0.054300  0.791000  0.259200  1
  C  C4259  1  0.445700  0.291000  0.740800  1
  C  C4260  1  0.445700  0.209000  0.759200  1
  C  C4261  1  0.921100  0.302400  0.743650  1
  C  C4262  1  0.921100  0.197600  0.756350  1
  C  C4263  1  0.578900  0.697600  0.243650  1
  C  C4264  1  0.578900  0.802400  0.256350  1
  C  C4265  1  0.078900  0.697600  0.256350  1
  C  C4266  1  0.078900  0.802400  0.243650  1
  C  C4267  1  0.421100  0.302400  0.756350  1
  C  C4268  1  0.421100  0.197600  0.743650  1
  C  C4269  1  0.920000  0.331800  0.741400  1
  C  C4270  1  0.920000  0.168200  0.758600  1
  C  C4271  1  0.580000  0.668200  0.241400  1
  C  C4272  1  0.580000  0.831800  0.258600  1
  C  C4273  1  0.080000  0.668200  0.258600  1
  C  C4274  1  0.080000  0.831800  0.241400  1
  C  C4275  1  0.420000  0.331800  0.758600  1
  C  C4276  1  0.420000  0.168200  0.741400  1
  C  C4277  1  0.896100  0.284900  0.730700  1
  C  C4278  1  0.896100  0.215100  0.769300  1
  C  C4279  1  0.603900  0.715100  0.230700  1
  C  C4280  1  0.603900  0.784900  0.269300  1
  C  C4281  1  0.103900  0.715100  0.269300  1
  C  C4282  1  0.103900  0.784900  0.230700  1
  C  C4283  1  0.396100  0.284900  0.769300  1
  C  C4284  1  0.396100  0.215100  0.730700  1
  C  C4285  1  0.873800  0.271300  0.720300  1
  C  C4286  1  0.873800  0.228700  0.779700  1
  C  C4287  1  0.626200  0.728700  0.220300  1
  C  C4288  1  0.626200  0.771300  0.279700  1
  C  C4289  1  0.126200  0.728700  0.279700  1
  C  C4290  1  0.126200  0.771300  0.220300  1
  C  C4291  1  0.373800  0.271300  0.779700  1
  C  C4292  1  0.373800  0.228700  0.720300  1
  C  C4293  1  0.845700  0.253800  0.709720  1
  C  C4294  1  0.845700  0.246200  0.790280  1
  C  C4295  1  0.654300  0.746200  0.209720  1
  C  C4296  1  0.654300  0.753800  0.290280  1
  C  C4297  1  0.154300  0.746200  0.290280  1
  C  C4298  1  0.154300  0.753800  0.209720  1
  C  C4299  1  0.345700  0.253800  0.790280  1
  C  C4300  1  0.345700  0.246200  0.709720  1
  C  C4301  1  0.836700  0.227100  0.718390  1
  C  C4302  1  0.836700  0.272900  0.781610  1
  C  C4303  1  0.663300  0.772900  0.218390  1
  C  C4304  1  0.663300  0.727100  0.281610  1
  C  C4305  1  0.163300  0.772900  0.281610  1
  C  C4306  1  0.163300  0.727100  0.218390  1
  C  C4307  1  0.336700  0.227100  0.781610  1
  C  C4308  1  0.336700  0.272900  0.718390  1
  C  C4309  1  0.809200  0.209900  0.709110  1
  C  C4310  1  0.809200  0.290100  0.790890  1
  C  C4311  1  0.690800  0.790100  0.209110  1
  C  C4312  1  0.690800  0.709900  0.290890  1
  C  C4313  1  0.190800  0.790100  0.290890  1
  C  C4314  1  0.190800  0.709900  0.209110  1
  C  C4315  1  0.309200  0.209900  0.790890  1
  C  C4316  1  0.309200  0.290100  0.709110  1
  C  C4317  1  0.791600  0.219400  0.690050  1
  C  C4318  1  0.791600  0.280600  0.809950  1
  C  C4319  1  0.708400  0.780600  0.190050  1
  C  C4320  1  0.708400  0.719400  0.309950  1
  C  C4321  1  0.208400  0.780600  0.309950  1
  C  C4322  1  0.208400  0.719400  0.190050  1
  C  C4323  1  0.291600  0.219400  0.809950  1
  C  C4324  1  0.291600  0.280600  0.690050  1
  C  C4325  1  0.799800  0.246400  0.681020  1
  C  C4326  1  0.799800  0.253600  0.818980  1
  C  C4327  1  0.700200  0.753600  0.181020  1
  C  C4328  1  0.700200  0.746400  0.318980  1
  C  C4329  1  0.200200  0.753600  0.318980  1
  C  C4330  1  0.200200  0.746400  0.181020  1
  C  C4331  1  0.299800  0.246400  0.818980  1
  C  C4332  1  0.299800  0.253600  0.681020  1
  C  C4333  1  0.826900  0.263600  0.691120  1
  C  C4334  1  0.826900  0.236400  0.808880  1
  C  C4335  1  0.673100  0.736400  0.191120  1
  C  C4336  1  0.673100  0.763600  0.308880  1
  C  C4337  1  0.173100  0.736400  0.308880  1
  C  C4338  1  0.173100  0.763600  0.191120  1
  C  C4339  1  0.326900  0.263600  0.808880  1
  C  C4340  1  0.326900  0.236400  0.691120  1
  C  C4341  1  0.753600  0.224330  0.660400  1
  C  C4342  1  0.753600  0.275670  0.839600  1
  C  C4343  1  0.746400  0.775670  0.160400  1
  C  C4344  1  0.746400  0.724330  0.339600  1
  C  C4345  1  0.246400  0.775670  0.339600  1
  C  C4346  1  0.246400  0.724330  0.160400  1
  C  C4347  1  0.253600  0.224330  0.839600  1
  C  C4348  1  0.253600  0.275670  0.660400  1
  C  C4349  1  0.727300  0.219700  0.643750  1
  C  C4350  1  0.727300  0.280300  0.856250  1
  C  C4351  1  0.772700  0.780300  0.143750  1
  C  C4352  1  0.772700  0.719700  0.356250  1
  C  C4353  1  0.272700  0.780300  0.356250  1
  C  C4354  1  0.272700  0.719700  0.143750  1
  C  C4355  1  0.227300  0.219700  0.856250  1
  C  C4356  1  0.227300  0.280300  0.643750  1
  C  C4357  1  0.721400  0.241770  0.629110  1
  C  C4358  1  0.721400  0.258230  0.870890  1
  C  C4359  1  0.778600  0.758230  0.129110  1
  C  C4360  1  0.778600  0.741770  0.370890  1
  C  C4361  1  0.278600  0.758230  0.370890  1
  C  C4362  1  0.278600  0.741770  0.129110  1
  C  C4363  1  0.221400  0.241770  0.870890  1
  C  C4364  1  0.221400  0.258230  0.629110  1
  C  C4365  1  0.740600  0.267590  0.631320  1
  C  C4366  1  0.740600  0.232410  0.868680  1
  C  C4367  1  0.759400  0.732410  0.131320  1
  C  C4368  1  0.759400  0.767590  0.368680  1
  C  C4369  1  0.259400  0.732410  0.368680  1
  C  C4370  1  0.259400  0.767590  0.131320  1
  C  C4371  1  0.240600  0.267590  0.868680  1
  C  C4372  1  0.240600  0.232410  0.631320  1
  C  C4373  1  0.767800  0.272080  0.647700  1
  C  C4374  1  0.767800  0.227920  0.852300  1
  C  C4375  1  0.732200  0.727920  0.147700  1
  C  C4376  1  0.732200  0.772080  0.352300  1
  C  C4377  1  0.232200  0.727920  0.352300  1
  C  C4378  1  0.232200  0.772080  0.147700  1
  C  C4379  1  0.267800  0.272080  0.852300  1
  C  C4380  1  0.267800  0.227920  0.647700  1
  C  C4381  1  0.774700  0.249830  0.662480  1
  C  C4382  1  0.774700  0.250170  0.837520  1
  C  C4383  1  0.725300  0.750170  0.162480  1
  C  C4384  1  0.725300  0.749830  0.337520  1
  C  C4385  1  0.225300  0.750170  0.337520  1
  C  C4386  1  0.225300  0.749830  0.162480  1
  C  C4387  1  0.274700  0.249830  0.837520  1
  C  C4388  1  0.274700  0.250170  0.662480  1
  C  C4389  1  0.732500  0.290090  0.616130  1
  C  C4390  1  0.732500  0.209910  0.883870  1
  C  C4391  1  0.767500  0.709910  0.116130  1
  C  C4392  1  0.767500  0.790090  0.383870  1
  C  C4393  1  0.267500  0.709910  0.383870  1
  C  C4394  1  0.267500  0.790090  0.116130  1
  C  C4395  1  0.232500  0.290090  0.883870  1
  C  C4396  1  0.232500  0.209910  0.616130  1
  C  C4397  1  0.725000  0.307200  0.602560  1
  C  C4398  1  0.725000  0.192800  0.897440  1
  C  C4399  1  0.775000  0.692800  0.102560  1
  C  C4400  1  0.775000  0.807200  0.397440  1
  C  C4401  1  0.275000  0.692800  0.397440  1
  C  C4402  1  0.275000  0.807200  0.102560  1
  C  C4403  1  0.225000  0.307200  0.897440  1
  C  C4404  1  0.225000  0.192800  0.602560  1
  C  C4405  1  0.718000  0.325940  0.584420  1
  C  C4406  1  0.718000  0.174060  0.915580  1
  C  C4407  1  0.782000  0.674060  0.084420  1
  C  C4408  1  0.782000  0.825940  0.415580  1
  C  C4409  1  0.282000  0.674060  0.415580  1
  C  C4410  1  0.282000  0.825940  0.084420  1
  C  C4411  1  0.218000  0.325940  0.915580  1
  C  C4412  1  0.218000  0.174060  0.584420  1
  C  C4413  1  0.682800  0.326390  0.573610  1
  C  C4414  1  0.682800  0.173610  0.926390  1
  C  C4415  1  0.817200  0.673610  0.073610  1
  C  C4416  1  0.817200  0.826390  0.426390  1
  C  C4417  1  0.317200  0.673610  0.426390  1
  C  C4418  1  0.317200  0.826390  0.073610  1
  C  C4419  1  0.182800  0.326390  0.926390  1
  C  C4420  1  0.182800  0.173610  0.573610  1
  C  C4421  1  0.678000  0.344260  0.555500  1
  C  C4422  1  0.678000  0.155740  0.944500  1
  C  C4423  1  0.822000  0.655740  0.055500  1
  C  C4424  1  0.822000  0.844260  0.444500  1
  C  C4425  1  0.322000  0.655740  0.444500  1
  C  C4426  1  0.322000  0.844260  0.055500  1
  C  C4427  1  0.178000  0.344260  0.944500  1
  C  C4428  1  0.178000  0.155740  0.555500  1
  C  C4429  1  0.709000  0.360440  0.548850  1
  C  C4430  1  0.709000  0.139560  0.951150  1
  C  C4431  1  0.791000  0.639560  0.048850  1
  C  C4432  1  0.791000  0.860440  0.451150  1
  C  C4433  1  0.291000  0.639560  0.451150  1
  C  C4434  1  0.291000  0.860440  0.048850  1
  C  C4435  1  0.209000  0.360440  0.951150  1
  C  C4436  1  0.209000  0.139560  0.548850  1
  C  C4437  1  0.747600  0.343400  0.576680  1
  C  C4438  1  0.747600  0.156600  0.923320  1
  C  C4439  1  0.752400  0.656600  0.076680  1
  C  C4440  1  0.752400  0.843400  0.423320  1
  C  C4441  1  0.252400  0.656600  0.423320  1
  C  C4442  1  0.252400  0.843400  0.076680  1
  C  C4443  1  0.247600  0.343400  0.923320  1
  C  C4444  1  0.247600  0.156600  0.576680  1
  C  C4445  1  0.641300  0.347300  0.544940  1
  C  C4446  1  0.641300  0.152700  0.955060  1
  C  C4447  1  0.858700  0.652700  0.044940  1
  C  C4448  1  0.858700  0.847300  0.455060  1
  C  C4449  1  0.358700  0.652700  0.455060  1
  C  C4450  1  0.358700  0.847300  0.044940  1
  C  C4451  1  0.141300  0.347300  0.955060  1
  C  C4452  1  0.141300  0.152700  0.544940  1
  C  C4453  1  0.611500  0.352200  0.536530  1
  C  C4454  1  0.611500  0.147800  0.963470  1
  C  C4455  1  0.888500  0.647800  0.036530  1
  C  C4456  1  0.888500  0.852200  0.463470  1
  C  C4457  1  0.388500  0.647800  0.463470  1
  C  C4458  1  0.388500  0.852200  0.036530  1
  C  C4459  1  0.111500  0.352200  0.963470  1
  C  C4460  1  0.111500  0.147800  0.536530  1
  C  C4461  1  0.574400  0.359100  0.527790  1
  C  C4462  1  0.574400  0.140900  0.972210  1
  C  C4463  1  0.925600  0.640900  0.027790  1
  C  C4464  1  0.925600  0.859100  0.472210  1
  C  C4465  1  0.425600  0.640900  0.472210  1
  C  C4466  1  0.425600  0.859100  0.027790  1
  C  C4467  1  0.074400  0.359100  0.972210  1
  C  C4468  1  0.074400  0.140900  0.527790  1
  C  C4469  1  0.541200  0.354600  0.540010  1
  C  C4470  1  0.541200  0.145400  0.959990  1
  C  C4471  1  0.958800  0.645400  0.040010  1
  C  C4472  1  0.958800  0.854600  0.459990  1
  C  C4473  1  0.458800  0.645400  0.459990  1
  C  C4474  1  0.458800  0.854600  0.040010  1
  C  C4475  1  0.041200  0.354600  0.959990  1
  C  C4476  1  0.041200  0.145400  0.540010  1
  C  C4477  1  0.505800  0.363200  0.533080  1
  C  C4478  1  0.505800  0.136800  0.966920  1
  C  C4479  1  0.994200  0.636800  0.033080  1
  C  C4480  1  0.994200  0.863200  0.466920  1
  C  C4481  1  0.494200  0.636800  0.466920  1
  C  C4482  1  0.494200  0.863200  0.033080  1
  C  C4483  1  0.005800  0.363200  0.966920  1
  C  C4484  1  0.005800  0.136800  0.533080  1
  C  C4485  1  0.504100  0.377100  0.512850  1
  C  C4486  1  0.504100  0.122900  0.987150  1
  C  C4487  1  0.995900  0.622900  0.012850  1
  C  C4488  1  0.995900  0.877100  0.487150  1
  C  C4489  1  0.495900  0.622900  0.487150  1
  C  C4490  1  0.495900  0.877100  0.012850  1
  C  C4491  1  0.004100  0.377100  0.987150  1
  C  C4492  1  0.004100  0.122900  0.512850  1
  C  C4493  1  0.537000  0.381200  0.499810  1
  C  C4494  1  0.537000  0.118800  0.000190  1
  C  C4495  1  0.963000  0.618800  0.999810  1
  C  C4496  1  0.963000  0.881200  0.500190  1
  C  C4497  1  0.463000  0.618800  0.500190  1
  C  C4498  1  0.463000  0.881200  0.999810  1
  C  C4499  1  0.037000  0.381200  0.000190  1
  C  C4500  1  0.037000  0.118800  0.499810  1
  C  C4501  1  0.572500  0.371800  0.507040  1
  C  C4502  1  0.572500  0.128200  0.992960  1
  C  C4503  1  0.927500  0.628200  0.007040  1
  C  C4504  1  0.927500  0.871800  0.492960  1
  C  C4505  1  0.427500  0.628200  0.492960  1
  C  C4506  1  0.427500  0.871800  0.007040  1
  C  C4507  1  0.072500  0.371800  0.992960  1
  C  C4508  1  0.072500  0.128200  0.507040  1
  C  C4509  1  0.485100  0.401400  0.482880  1
  C  C4510  1  0.485100  0.098600  0.017120  1
  C  C4511  1  0.014900  0.598600  0.982880  1
  C  C4512  1  0.014900  0.901400  0.517120  1
  C  C4513  1  0.514900  0.598600  0.517120  1
  C  C4514  1  0.514900  0.901400  0.982880  1
  C  C4515  1  0.985100  0.401400  0.017120  1
  C  C4516  1  0.985100  0.098600  0.482880  1
  C  C4517  1  0.464100  0.414900  0.466430  1
  C  C4518  1  0.464100  0.085100  0.033570  1
  C  C4519  1  0.035900  0.585100  0.966430  1
  C  C4520  1  0.035900  0.914900  0.533570  1
  C  C4521  1  0.535900  0.585100  0.533570  1
  C  C4522  1  0.535900  0.914900  0.966430  1
  C  C4523  1  0.964100  0.414900  0.033570  1
  C  C4524  1  0.964100  0.085100  0.466430  1
  C  C4525  1  0.483300  0.422900  0.447640  1
  C  C4526  1  0.483300  0.077100  0.052360  1
  C  C4527  1  0.016700  0.577100  0.947640  1
  C  C4528  1  0.016700  0.922900  0.552360  1
  C  C4529  1  0.516700  0.577100  0.552360  1
  C  C4530  1  0.516700  0.922900  0.947640  1
  C  C4531  1  0.983300  0.422900  0.052360  1
  C  C4532  1  0.983300  0.077100  0.447640  1
  C  C4533  1  0.522200  0.417700  0.444850  1
  C  C4534  1  0.522200  0.082300  0.055150  1
  C  C4535  1  0.977800  0.582300  0.944850  1
  C  C4536  1  0.977800  0.917700  0.555150  1
  C  C4537  1  0.477800  0.582300  0.555150  1
  C  C4538  1  0.477800  0.917700  0.944850  1
  C  C4539  1  0.022200  0.417700  0.055150  1
  C  C4540  1  0.022200  0.082300  0.444850  1
  C  C4541  1  0.543500  0.404400  0.461320  1
  C  C4542  1  0.543500  0.095600  0.038680  1
  C  C4543  1  0.956500  0.595600  0.961320  1
  C  C4544  1  0.956500  0.904400  0.538680  1
  C  C4545  1  0.456500  0.595600  0.538680  1
  C  C4546  1  0.456500  0.904400  0.961320  1
  C  C4547  1  0.043500  0.404400  0.038680  1
  C  C4548  1  0.043500  0.095600  0.461320  1
  C  C4549  1  0.524600  0.396100  0.480360  1
  C  C4550  1  0.524600  0.103900  0.019640  1
  C  C4551  1  0.975400  0.603900  0.980360  1
  C  C4552  1  0.975400  0.896100  0.519640  1
  C  C4553  1  0.475400  0.603900  0.519640  1
  C  C4554  1  0.475400  0.896100  0.980360  1
  C  C4555  1  0.024600  0.396100  0.019640  1
  C  C4556  1  0.024600  0.103900  0.480360  1
  C  C4557  1  0.540600  0.423500  0.424090  1
  C  C4558  1  0.540600  0.076500  0.075910  1
  C  C4559  1  0.959400  0.576500  0.924090  1
  C  C4560  1  0.959400  0.923500  0.575910  1
  C  C4561  1  0.459400  0.576500  0.575910  1
  C  C4562  1  0.459400  0.923500  0.924090  1
  C  C4563  1  0.040600  0.423500  0.075910  1
  C  C4564  1  0.040600  0.076500  0.424090  1
  C  C4565  1  0.552500  0.426700  0.406010  1
  C  C4566  1  0.552500  0.073300  0.093990  1
  C  C4567  1  0.947500  0.573300  0.906010  1
  C  C4568  1  0.947500  0.926700  0.593990  1
  C  C4569  1  0.447500  0.573300  0.593990  1
  C  C4570  1  0.447500  0.926700  0.906010  1
  C  C4571  1  0.052500  0.426700  0.093990  1
  C  C4572  1  0.052500  0.073300  0.406010  1
  C  C4573  1  0.565800  0.426500  0.383650  1
  C  C4574  1  0.565800  0.073500  0.116350  1
  C  C4575  1  0.934200  0.573500  0.883650  1
  C  C4576  1  0.934200  0.926500  0.616350  1
  C  C4577  1  0.434200  0.573500  0.616350  1
  C  C4578  1  0.434200  0.926500  0.883650  1
  C  C4579  1  0.065800  0.426500  0.116350  1
  C  C4580  1  0.065800  0.073500  0.383650  1
  C  C4581  1  0.552100  0.445500  0.367830  1
  C  C4582  1  0.552100  0.054500  0.132170  1
  C  C4583  1  0.947900  0.554500  0.867830  1
  C  C4584  1  0.947900  0.945500  0.632170  1
  C  C4585  1  0.447900  0.554500  0.632170  1
  C  C4586  1  0.447900  0.945500  0.867830  1
  C  C4587  1  0.052100  0.445500  0.132170  1
  C  C4588  1  0.052100  0.054500  0.367830  1
  C  C4589  1  0.563600  0.441500  0.346060  1
  C  C4590  1  0.563600  0.058500  0.153940  1
  C  C4591  1  0.936400  0.558500  0.846060  1
  C  C4592  1  0.936400  0.941500  0.653940  1
  C  C4593  1  0.436400  0.558500  0.653940  1
  C  C4594  1  0.436400  0.941500  0.846060  1
  C  C4595  1  0.063600  0.441500  0.153940  1
  C  C4596  1  0.063600  0.058500  0.346060  1
  C  C4597  1  0.587700  0.419500  0.340820  1
  C  C4598  1  0.587700  0.080500  0.159180  1
  C  C4599  1  0.912300  0.580500  0.840820  1
  C  C4600  1  0.912300  0.919500  0.659180  1
  C  C4601  1  0.412300  0.580500  0.659180  1
  C  C4602  1  0.412300  0.919500  0.840820  1
  C  C4603  1  0.087700  0.419500  0.159180  1
  C  C4604  1  0.087700  0.080500  0.340820  1
  C  C4605  1  0.591500  0.405530  0.376970  1
  C  C4606  1  0.591500  0.094470  0.123030  1
  C  C4607  1  0.908500  0.594470  0.876970  1
  C  C4608  1  0.908500  0.905530  0.623030  1
  C  C4609  1  0.408500  0.594470  0.623030  1
  C  C4610  1  0.408500  0.905530  0.876970  1
  C  C4611  1  0.091500  0.405530  0.123030  1
  C  C4612  1  0.091500  0.094470  0.376970  1
  C  C4613  1  0.747000  0.177900  0.681900  1
  C  C4614  1  0.747000  0.322100  0.818100  1
  C  C4615  1  0.753000  0.822100  0.181900  1
  C  C4616  1  0.753000  0.677900  0.318100  1
  C  C4617  1  0.253000  0.822100  0.318100  1
  C  C4618  1  0.253000  0.677900  0.181900  1
  C  C4619  1  0.247000  0.177900  0.818100  1
  C  C4620  1  0.247000  0.322100  0.681900  1
  C  C4621  1  0.708300  0.182500  0.693200  1
  C  C4622  1  0.708300  0.317500  0.806800  1
  C  C4623  1  0.791700  0.817500  0.193200  1
  C  C4624  1  0.791700  0.682500  0.306800  1
  C  C4625  1  0.291700  0.817500  0.306800  1
  C  C4626  1  0.291700  0.682500  0.193200  1
  C  C4627  1  0.208300  0.182500  0.806800  1
  C  C4628  1  0.208300  0.317500  0.693200  1
  C  C4629  1  0.687900  0.155900  0.699400  1
  C  C4630  1  0.687900  0.344100  0.800600  1
  C  C4631  1  0.812100  0.844100  0.199400  1
  C  C4632  1  0.812100  0.655900  0.300600  1
  C  C4633  1  0.312100  0.844100  0.300600  1
  C  C4634  1  0.312100  0.655900  0.199400  1
  C  C4635  1  0.187900  0.155900  0.800600  1
  C  C4636  1  0.187900  0.344100  0.699400  1
  C  C4637  1  0.651900  0.165700  0.712800  1
  C  C4638  1  0.651900  0.334300  0.787200  1
  C  C4639  1  0.848100  0.834300  0.212800  1
  C  C4640  1  0.848100  0.665700  0.287200  1
  C  C4641  1  0.348100  0.834300  0.287200  1
  C  C4642  1  0.348100  0.665700  0.212800  1
  C  C4643  1  0.151900  0.165700  0.787200  1
  C  C4644  1  0.151900  0.334300  0.712800  1
  C  C4645  1  0.625800  0.139400  0.715600  1
  C  C4646  1  0.625800  0.360600  0.784400  1
  C  C4647  1  0.874200  0.860600  0.215600  1
  C  C4648  1  0.874200  0.639400  0.284400  1
  C  C4649  1  0.374200  0.860600  0.284400  1
  C  C4650  1  0.374200  0.639400  0.215600  1
  C  C4651  1  0.125800  0.139400  0.784400  1
  C  C4652  1  0.125800  0.360600  0.715600  1
  C  C4653  1  0.594000  0.152500  0.732900  1
  C  C4654  1  0.594000  0.347500  0.767100  1
  C  C4655  1  0.906000  0.847500  0.232900  1
  C  C4656  1  0.906000  0.652500  0.267100  1
  C  C4657  1  0.406000  0.847500  0.267100  1
  C  C4658  1  0.406000  0.652500  0.232900  1
  C  C4659  1  0.094000  0.152500  0.767100  1
  C  C4660  1  0.094000  0.347500  0.732900  1
  C  C4661  1  0.433400  0.389100  0.511000  1
  C  C4662  1  0.433400  0.110900  0.989000  1
  C  C4663  1  0.066600  0.610900  0.011000  1
  C  C4664  1  0.066600  0.889100  0.489000  1
  C  C4665  1  0.566600  0.610900  0.489000  1
  C  C4666  1  0.566600  0.889100  0.011000  1
  C  C4667  1  0.933400  0.389100  0.989000  1
  C  C4668  1  0.933400  0.110900  0.511000  1
  C  C4669  1  0.424300  0.416500  0.521600  1
  C  C4670  1  0.424300  0.083500  0.978400  1
  C  C4671  1  0.075700  0.583500  0.021600  1
  C  C4672  1  0.075700  0.916500  0.478400  1
  C  C4673  1  0.575700  0.583500  0.478400  1
  C  C4674  1  0.575700  0.916500  0.021600  1
  C  C4675  1  0.924300  0.416500  0.978400  1
  C  C4676  1  0.924300  0.083500  0.521600  1
  C  C4677  1  0.446600  0.433800  0.536400  1
  C  C4678  1  0.446600  0.066200  0.963600  1
  C  C4679  1  0.053400  0.566200  0.036400  1
  C  C4680  1  0.053400  0.933800  0.463600  1
  C  C4681  1  0.553400  0.566200  0.463600  1
  C  C4682  1  0.553400  0.933800  0.036400  1
  C  C4683  1  0.946600  0.433800  0.963600  1
  C  C4684  1  0.946600  0.066200  0.536400  1
  C  C4685  1  0.430200  0.464500  0.538700  1
  C  C4686  1  0.430200  0.035500  0.961300  1
  C  C4687  1  0.069800  0.535500  0.038700  1
  C  C4688  1  0.069800  0.964500  0.461300  1
  C  C4689  1  0.569800  0.535500  0.461300  1
  C  C4690  1  0.569800  0.964500  0.038700  1
  C  C4691  1  0.930200  0.464500  0.961300  1
  C  C4692  1  0.930200  0.035500  0.538700  1
  C  C4693  1  0.437600  0.477700  0.560900  1
  C  C4694  1  0.437600  0.022300  0.939100  1
  C  C4695  1  0.062400  0.522300  0.060900  1
  C  C4696  1  0.062400  0.977700  0.439100  1
  C  C4697  1  0.562400  0.522300  0.439100  1
  C  C4698  1  0.562400  0.977700  0.060900  1
  C  C4699  1  0.937600  0.477700  0.939100  1
  C  C4700  1  0.937600  0.022300  0.560900  1
  C  C4701  1  0.466300  0.500200  0.562800  1
  C  C4702  1  0.466300  0.999800  0.937200  1
  C  C4703  1  0.033700  0.499800  0.062800  1
  C  C4704  1  0.033700  0.000200  0.437200  1
  C  C4705  1  0.533700  0.499800  0.437200  1
  C  C4706  1  0.533700  0.000200  0.062800  1
  C  C4707  1  0.966300  0.500200  0.937200  1
  C  C4708  1  0.966300  0.999800  0.562800  1
  C  C4709  1  0.871400  0.372900  0.785000  1
  C  C4710  1  0.871400  0.127100  0.715000  1
  C  C4711  1  0.628600  0.627100  0.285000  1
  C  C4712  1  0.628600  0.872900  0.215000  1
  C  C4713  1  0.128600  0.627100  0.215000  1
  C  C4714  1  0.128600  0.872900  0.285000  1
  C  C4715  1  0.371400  0.372900  0.715000  1
  C  C4716  1  0.371400  0.127100  0.785000  1
  C  C4717  1  0.835300  0.369500  0.793800  1
  C  C4718  1  0.835300  0.130500  0.706200  1
  C  C4719  1  0.664700  0.630500  0.293800  1
  C  C4720  1  0.664700  0.869500  0.206200  1
  C  C4721  1  0.164700  0.630500  0.206200  1
  C  C4722  1  0.164700  0.869500  0.293800  1
  C  C4723  1  0.335300  0.369500  0.706200  1
  C  C4724  1  0.335300  0.130500  0.793800  1
  C  C4725  1  0.803900  0.375000  0.780800  1
  C  C4726  1  0.803900  0.125000  0.719200  1
  C  C4727  1  0.696100  0.625000  0.280800  1
  C  C4728  1  0.696100  0.875000  0.219200  1
  C  C4729  1  0.196100  0.625000  0.219200  1
  C  C4730  1  0.196100  0.875000  0.280800  1
  C  C4731  1  0.303900  0.375000  0.719200  1
  C  C4732  1  0.303900  0.125000  0.780800  1
  C  C4733  1  0.809600  0.384000  0.758800  1
  C  C4734  1  0.809600  0.116000  0.741200  1
  C  C4735  1  0.690400  0.616000  0.258800  1
  C  C4736  1  0.690400  0.884000  0.241200  1
  C  C4737  1  0.190400  0.616000  0.241200  1
  C  C4738  1  0.190400  0.884000  0.258800  1
  C  C4739  1  0.309600  0.384000  0.741200  1
  C  C4740  1  0.309600  0.116000  0.758800  1
  C  C4741  1  0.847300  0.387300  0.751900  1
  C  C4742  1  0.847300  0.112700  0.748100  1
  C  C4743  1  0.652700  0.612700  0.251900  1
  C  C4744  1  0.652700  0.887300  0.248100  1
  C  C4745  1  0.152700  0.612700  0.248100  1
  C  C4746  1  0.152700  0.887300  0.251900  1
  C  C4747  1  0.347300  0.387300  0.748100  1
  C  C4748  1  0.347300  0.112700  0.751900  1
  C  C4749  1  0.777700  0.390000  0.744800  1
  C  C4750  1  0.777700  0.110000  0.755200  1
  C  C4751  1  0.722300  0.610000  0.244800  1
  C  C4752  1  0.722300  0.890000  0.255200  1
  C  C4753  1  0.222300  0.610000  0.255200  1
  C  C4754  1  0.222300  0.890000  0.244800  1
  C  C4755  1  0.277700  0.390000  0.755200  1
  C  C4756  1  0.277700  0.110000  0.744800  1
  C  C4757  1  0.750200  0.395800  0.733900  1
  C  C4758  1  0.750200  0.104200  0.766100  1
  C  C4759  1  0.749800  0.604200  0.233900  1
  C  C4760  1  0.749800  0.895800  0.266100  1
  C  C4761  1  0.249800  0.604200  0.266100  1
  C  C4762  1  0.249800  0.895800  0.233900  1
  C  C4763  1  0.250200  0.395800  0.766100  1
  C  C4764  1  0.250200  0.104200  0.733900  1
  C  C4765  1  0.715000  0.402700  0.722700  1
  C  C4766  1  0.715000  0.097300  0.777300  1
  C  C4767  1  0.785000  0.597300  0.222700  1
  C  C4768  1  0.785000  0.902700  0.277300  1
  C  C4769  1  0.285000  0.597300  0.277300  1
  C  C4770  1  0.285000  0.902700  0.222700  1
  C  C4771  1  0.215000  0.402700  0.777300  1
  C  C4772  1  0.215000  0.097300  0.722700  1
  C  C4773  1  0.679600  0.398300  0.732500  1
  C  C4774  1  0.679600  0.101700  0.767500  1
  C  C4775  1  0.820400  0.601700  0.232500  1
  C  C4776  1  0.820400  0.898300  0.267500  1
  C  C4777  1  0.320400  0.601700  0.267500  1
  C  C4778  1  0.320400  0.898300  0.232500  1
  C  C4779  1  0.179600  0.398300  0.767500  1
  C  C4780  1  0.179600  0.101700  0.732500  1
  C  C4781  1  0.645300  0.407000  0.723100  1
  C  C4782  1  0.645300  0.093000  0.776900  1
  C  C4783  1  0.854700  0.593000  0.223100  1
  C  C4784  1  0.854700  0.907000  0.276900  1
  C  C4785  1  0.354700  0.593000  0.276900  1
  C  C4786  1  0.354700  0.907000  0.223100  1
  C  C4787  1  0.145300  0.407000  0.776900  1
  C  C4788  1  0.145300  0.093000  0.723100  1
  C  C4789  1  0.647900  0.419900  0.702620  1
  C  C4790  1  0.647900  0.080100  0.797380  1
  C  C4791  1  0.852100  0.580100  0.202620  1
  C  C4792  1  0.852100  0.919900  0.297380  1
  C  C4793  1  0.352100  0.580100  0.297380  1
  C  C4794  1  0.352100  0.919900  0.202620  1
  C  C4795  1  0.147900  0.419900  0.797380  1
  C  C4796  1  0.147900  0.080100  0.702620  1
  C  C4797  1  0.683500  0.423300  0.691690  1
  C  C4798  1  0.683500  0.076700  0.808310  1
  C  C4799  1  0.816500  0.576700  0.191690  1
  C  C4800  1  0.816500  0.923300  0.308310  1
  C  C4801  1  0.316500  0.576700  0.308310  1
  C  C4802  1  0.316500  0.923300  0.191690  1
  C  C4803  1  0.183500  0.423300  0.808310  1
  C  C4804  1  0.183500  0.076700  0.691690  1
  C  C4805  1  0.717400  0.415000  0.701800  1
  C  C4806  1  0.717400  0.085000  0.798200  1
  C  C4807  1  0.782600  0.585000  0.201800  1
  C  C4808  1  0.782600  0.915000  0.298200  1
  C  C4809  1  0.282600  0.585000  0.298200  1
  C  C4810  1  0.282600  0.915000  0.201800  1
  C  C4811  1  0.217400  0.415000  0.798200  1
  C  C4812  1  0.217400  0.085000  0.701800  1
  C  C4813  1  0.635000  0.439000  0.669510  1
  C  C4814  1  0.635000  0.061000  0.830490  1
  C  C4815  1  0.865000  0.561000  0.169510  1
  C  C4816  1  0.865000  0.939000  0.330490  1
  C  C4817  1  0.365000  0.561000  0.330490  1
  C  C4818  1  0.365000  0.939000  0.169510  1
  C  C4819  1  0.135000  0.439000  0.830490  1
  C  C4820  1  0.135000  0.061000  0.669510  1
  C  C4821  1  0.617200  0.450000  0.650980  1
  C  C4822  1  0.617200  0.050000  0.849020  1
  C  C4823  1  0.882800  0.550000  0.150980  1
  C  C4824  1  0.882800  0.950000  0.349020  1
  C  C4825  1  0.382800  0.550000  0.349020  1
  C  C4826  1  0.382800  0.950000  0.150980  1
  C  C4827  1  0.117200  0.450000  0.849020  1
  C  C4828  1  0.117200  0.050000  0.650980  1
  C  C4829  1  0.639900  0.455300  0.632800  1
  C  C4830  1  0.639900  0.044700  0.867200  1
  C  C4831  1  0.860100  0.544700  0.132800  1
  C  C4832  1  0.860100  0.955300  0.367200  1
  C  C4833  1  0.360100  0.544700  0.367200  1
  C  C4834  1  0.360100  0.955300  0.132800  1
  C  C4835  1  0.139900  0.455300  0.867200  1
  C  C4836  1  0.139900  0.044700  0.632800  1
  C  C4837  1  0.678800  0.449900  0.633220  1
  C  C4838  1  0.678800  0.050100  0.866780  1
  C  C4839  1  0.821200  0.550100  0.133220  1
  C  C4840  1  0.821200  0.949900  0.366780  1
  C  C4841  1  0.321200  0.550100  0.366780  1
  C  C4842  1  0.321200  0.949900  0.133220  1
  C  C4843  1  0.178800  0.449900  0.866780  1
  C  C4844  1  0.178800  0.050100  0.633220  1
  C  C4845  1  0.697600  0.439700  0.651950  1
  C  C4846  1  0.697600  0.060300  0.848050  1
  C  C4847  1  0.802400  0.560300  0.151950  1
  C  C4848  1  0.802400  0.939700  0.348050  1
  C  C4849  1  0.302400  0.560300  0.348050  1
  C  C4850  1  0.302400  0.939700  0.151950  1
  C  C4851  1  0.197600  0.439700  0.848050  1
  C  C4852  1  0.197600  0.060300  0.651950  1
  C  C4853  1  0.675100  0.434700  0.670360  1
  C  C4854  1  0.675100  0.065300  0.829640  1
  C  C4855  1  0.824900  0.565300  0.170360  1
  C  C4856  1  0.824900  0.934700  0.329640  1
  C  C4857  1  0.324900  0.565300  0.329640  1
  C  C4858  1  0.324900  0.934700  0.170360  1
  C  C4859  1  0.175100  0.434700  0.829640  1
  C  C4860  1  0.175100  0.065300  0.670360  1
  C  C4861  1  0.700500  0.454200  0.613330  1
  C  C4862  1  0.700500  0.045800  0.886670  1
  C  C4863  1  0.799500  0.545800  0.113330  1
  C  C4864  1  0.799500  0.954200  0.386670  1
  C  C4865  1  0.299500  0.545800  0.386670  1
  C  C4866  1  0.299500  0.954200  0.113330  1
  C  C4867  1  0.200500  0.454200  0.886670  1
  C  C4868  1  0.200500  0.045800  0.613330  1
  C  C4869  1  0.715600  0.456100  0.595850  1
  C  C4870  1  0.715600  0.043900  0.904150  1
  C  C4871  1  0.784400  0.543900  0.095850  1
  C  C4872  1  0.784400  0.956100  0.404150  1
  C  C4873  1  0.284400  0.543900  0.404150  1
  C  C4874  1  0.284400  0.956100  0.095850  1
  C  C4875  1  0.215600  0.456100  0.904150  1
  C  C4876  1  0.215600  0.043900  0.595850  1
  C  C4877  1  0.731300  0.451450  0.574410  1
  C  C4878  1  0.731300  0.048550  0.925590  1
  C  C4879  1  0.768700  0.548550  0.074410  1
  C  C4880  1  0.768700  0.951450  0.425590  1
  C  C4881  1  0.268700  0.548550  0.425590  1
  C  C4882  1  0.268700  0.951450  0.074410  1
  C  C4883  1  0.231300  0.451450  0.925590  1
  C  C4884  1  0.231300  0.048550  0.574410  1
  C  C4885  1  0.726200  0.469780  0.556740  1
  C  C4886  1  0.726200  0.030220  0.943260  1
  C  C4887  1  0.773800  0.530220  0.056740  1
  C  C4888  1  0.773800  0.969780  0.443260  1
  C  C4889  1  0.273800  0.530220  0.443260  1
  C  C4890  1  0.273800  0.969780  0.056740  1
  C  C4891  1  0.226200  0.469780  0.943260  1
  C  C4892  1  0.226200  0.030220  0.556740  1
  C  C4893  1  0.740000  0.462240  0.536140  1
  C  C4894  1  0.740000  0.037760  0.963860  1
  C  C4895  1  0.760000  0.537760  0.036140  1
  C  C4896  1  0.760000  0.962240  0.463860  1
  C  C4897  1  0.260000  0.537760  0.463860  1
  C  C4898  1  0.260000  0.962240  0.036140  1
  C  C4899  1  0.240000  0.462240  0.963860  1
  C  C4900  1  0.240000  0.037760  0.536140  1
  C  C4901  1  0.757900  0.435640  0.533680  1
  C  C4902  1  0.757900  0.064360  0.966320  1
  C  C4903  1  0.742100  0.564360  0.033680  1
  C  C4904  1  0.742100  0.935640  0.466320  1
  C  C4905  1  0.242100  0.564360  0.466320  1
  C  C4906  1  0.242100  0.935640  0.033680  1
  C  C4907  1  0.257900  0.435640  0.966320  1
  C  C4908  1  0.257900  0.064360  0.533680  1
  C  C4909  1  0.750800  0.425860  0.570740  1
  C  C4910  1  0.750800  0.074140  0.929260  1
  C  C4911  1  0.749200  0.574140  0.070740  1
  C  C4912  1  0.749200  0.925860  0.429260  1
  C  C4913  1  0.249200  0.574140  0.429260  1
  C  C4914  1  0.249200  0.925860  0.070740  1
  C  C4915  1  0.250800  0.425860  0.929260  1
  C  C4916  1  0.250800  0.074140  0.570740  1
  C  C4917  1  0.739300  0.481400  0.517860  1
  C  C4918  1  0.739300  0.018600  0.982140  1
  C  C4919  1  0.760700  0.518600  0.017860  1
  C  C4920  1  0.760700  0.981400  0.482140  1
  C  C4921  1  0.260700  0.518600  0.482140  1
  C  C4922  1  0.260700  0.981400  0.017860  1
  C  C4923  1  0.239300  0.481400  0.982140  1
  C  C4924  1  0.239300  0.018600  0.517860  1
  C  C4925  1  0.744300  0.497100  0.502690  1
  C  C4926  1  0.744300  0.002900  0.997310  1
  C  C4927  1  0.755700  0.502900  0.002690  1
  C  C4928  1  0.755700  0.997100  0.497310  1
  C  C4929  1  0.255700  0.502900  0.497310  1
  C  C4930  1  0.255700  0.997100  0.002690  1
  C  C4931  1  0.244300  0.497100  0.997310  1
  C  C4932  1  0.244300  0.002900  0.502690  1
  C  C4933  1  0.752600  0.514810  0.484020  1
  C  C4934  1  0.752600  0.985190  0.015980  1
  C  C4935  1  0.747400  0.485190  0.984020  1
  C  C4936  1  0.747400  0.014810  0.515980  1
  C  C4937  1  0.247400  0.485190  0.515980  1
  C  C4938  1  0.247400  0.014810  0.984020  1
  C  C4939  1  0.252600  0.514810  0.015980  1
  C  C4940  1  0.252600  0.985190  0.484020  1
  C  C4941  1  0.767900  0.542010  0.487470  1
  C  C4942  1  0.767900  0.957990  0.012530  1
  C  C4943  1  0.732100  0.457990  0.987470  1
  C  C4944  1  0.732100  0.042010  0.512530  1
  C  C4945  1  0.232100  0.457990  0.512530  1
  C  C4946  1  0.232100  0.042010  0.987470  1
  C  C4947  1  0.267900  0.542010  0.012530  1
  C  C4948  1  0.267900  0.957990  0.487470  1
  C  C4949  1  0.779900  0.558300  0.469910  1
  C  C4950  1  0.779900  0.941700  0.030090  1
  C  C4951  1  0.720100  0.441700  0.969910  1
  C  C4952  1  0.720100  0.058300  0.530090  1
  C  C4953  1  0.220100  0.441700  0.530090  1
  C  C4954  1  0.220100  0.058300  0.969910  1
  C  C4955  1  0.279900  0.558300  0.030090  1
  C  C4956  1  0.279900  0.941700  0.469910  1
  C  C4957  1  0.775700  0.547430  0.448970  1
  C  C4958  1  0.775700  0.952570  0.051030  1
  C  C4959  1  0.724300  0.452570  0.948970  1
  C  C4960  1  0.724300  0.047430  0.551030  1
  C  C4961  1  0.224300  0.452570  0.551030  1
  C  C4962  1  0.224300  0.047430  0.948970  1
  C  C4963  1  0.275700  0.547430  0.051030  1
  C  C4964  1  0.275700  0.952570  0.448970  1
  C  C4965  1  0.760100  0.520020  0.445170  1
  C  C4966  1  0.760100  0.979980  0.054830  1
  C  C4967  1  0.739900  0.479980  0.945170  1
  C  C4968  1  0.739900  0.020020  0.554830  1
  C  C4969  1  0.239900  0.479980  0.554830  1
  C  C4970  1  0.239900  0.020020  0.945170  1
  C  C4971  1  0.260100  0.520020  0.054830  1
  C  C4972  1  0.260100  0.979980  0.445170  1
  C  C4973  1  0.748700  0.503580  0.462990  1
  C  C4974  1  0.748700  0.996420  0.037010  1
  C  C4975  1  0.751300  0.496420  0.962990  1
  C  C4976  1  0.751300  0.003580  0.537010  1
  C  C4977  1  0.251300  0.496420  0.537010  1
  C  C4978  1  0.251300  0.003580  0.962990  1
  C  C4979  1  0.248700  0.503580  0.037010  1
  C  C4980  1  0.248700  0.996420  0.462990  1
  C  C4981  1  0.775700  0.540300  0.412340  1
  C  C4982  1  0.775700  0.959700  0.087660  1
  C  C4983  1  0.724300  0.459700  0.912340  1
  C  C4984  1  0.724300  0.040300  0.587660  1
  C  C4985  1  0.224300  0.459700  0.587660  1
  C  C4986  1  0.224300  0.040300  0.912340  1
  C  C4987  1  0.275700  0.540300  0.087660  1
  C  C4988  1  0.275700  0.959700  0.412340  1
  C  C4989  1  0.779800  0.543150  0.389690  1
  C  C4990  1  0.779800  0.956850  0.110310  1
  C  C4991  1  0.720200  0.456850  0.889690  1
  C  C4992  1  0.720200  0.043150  0.610310  1
  C  C4993  1  0.220200  0.456850  0.610310  1
  C  C4994  1  0.220200  0.043150  0.889690  1
  C  C4995  1  0.279800  0.543150  0.110310  1
  C  C4996  1  0.279800  0.956850  0.389690  1
  C  C4997  1  0.769600  0.520220  0.376690  1
  C  C4998  1  0.769600  0.979780  0.123310  1
  C  C4999  1  0.730400  0.479780  0.876690  1
  C  C5000  1  0.730400  0.020220  0.623310  1
  C  C5001  1  0.230400  0.479780  0.623310  1
  C  C5002  1  0.230400  0.020220  0.876690  1
  C  C5003  1  0.269600  0.520220  0.123310  1
  C  C5004  1  0.269600  0.979780  0.376690  1
  C  C5005  1  0.754500  0.495680  0.385950  1
  C  C5006  1  0.754500  0.004320  0.114050  1
  C  C5007  1  0.745500  0.504320  0.885950  1
  C  C5008  1  0.745500  0.995680  0.614050  1
  C  C5009  1  0.245500  0.504320  0.614050  1
  C  C5010  1  0.245500  0.995680  0.885950  1
  C  C5011  1  0.254500  0.495680  0.114050  1
  C  C5012  1  0.254500  0.004320  0.385950  1
  C  C5013  1  0.749800  0.493020  0.408580  1
  C  C5014  1  0.749800  0.006980  0.091420  1
  C  C5015  1  0.750200  0.506980  0.908580  1
  C  C5016  1  0.750200  0.993020  0.591420  1
  C  C5017  1  0.250200  0.506980  0.591420  1
  C  C5018  1  0.250200  0.993020  0.908580  1
  C  C5019  1  0.249800  0.493020  0.091420  1
  C  C5020  1  0.249800  0.006980  0.408580  1
  C  C5021  1  0.760900  0.515430  0.422020  1
  C  C5022  1  0.760900  0.984570  0.077980  1
  C  C5023  1  0.739100  0.484570  0.922020  1
  C  C5024  1  0.739100  0.015430  0.577980  1
  C  C5025  1  0.239100  0.484570  0.577980  1
  C  C5026  1  0.239100  0.015430  0.922020  1
  C  C5027  1  0.260900  0.515430  0.077980  1
  C  C5028  1  0.260900  0.984570  0.422020  1
  C  C5029  1  0.742400  0.472300  0.372190  1
  C  C5030  1  0.742400  0.027700  0.127810  1
  C  C5031  1  0.757600  0.527700  0.872190  1
  C  C5032  1  0.757600  0.972300  0.627810  1
  C  C5033  1  0.257600  0.527700  0.627810  1
  C  C5034  1  0.257600  0.972300  0.872190  1
  C  C5035  1  0.242400  0.472300  0.127810  1
  C  C5036  1  0.242400  0.027700  0.372190  1
  C  C5037  1  0.732800  0.454900  0.359290  1
  C  C5038  1  0.732800  0.045100  0.140710  1
  C  C5039  1  0.767200  0.545100  0.859290  1
  C  C5040  1  0.767200  0.954900  0.640710  1
  C  C5041  1  0.267200  0.545100  0.640710  1
  C  C5042  1  0.267200  0.954900  0.859290  1
  C  C5043  1  0.232800  0.454900  0.140710  1
  C  C5044  1  0.232800  0.045100  0.359290  1
  C  C5045  1  0.718000  0.434540  0.343850  1
  C  C5046  1  0.718000  0.065460  0.156150  1
  C  C5047  1  0.782000  0.565460  0.843850  1
  C  C5048  1  0.782000  0.934540  0.656150  1
  C  C5049  1  0.282000  0.565460  0.656150  1
  C  C5050  1  0.282000  0.934540  0.843850  1
  C  C5051  1  0.218000  0.434540  0.156150  1
  C  C5052  1  0.218000  0.065460  0.343850  1
  C  C5053  1  0.727200  0.435200  0.321840  1
  C  C5054  1  0.727200  0.064800  0.178160  1
  C  C5055  1  0.772800  0.564800  0.821840  1
  C  C5056  1  0.772800  0.935200  0.678160  1
  C  C5057  1  0.272800  0.564800  0.678160  1
  C  C5058  1  0.272800  0.935200  0.821840  1
  C  C5059  1  0.227200  0.435200  0.178160  1
  C  C5060  1  0.227200  0.064800  0.321840  1
  C  C5061  1  0.710400  0.416600  0.307420  1
  C  C5062  1  0.710400  0.083400  0.192580  1
  C  C5063  1  0.789600  0.583400  0.807420  1
  C  C5064  1  0.789600  0.916600  0.692580  1
  C  C5065  1  0.289600  0.583400  0.692580  1
  C  C5066  1  0.289600  0.916600  0.807420  1
  C  C5067  1  0.210400  0.416600  0.192580  1
  C  C5068  1  0.210400  0.083400  0.307420  1
  C  C5069  1  0.684600  0.397000  0.315830  1
  C  C5070  1  0.684600  0.103000  0.184170  1
  C  C5071  1  0.815400  0.603000  0.815830  1
  C  C5072  1  0.815400  0.897000  0.684170  1
  C  C5073  1  0.315400  0.603000  0.684170  1
  C  C5074  1  0.315400  0.897000  0.815830  1
  C  C5075  1  0.184600  0.397000  0.184170  1
  C  C5076  1  0.184600  0.103000  0.315830  1
  C  C5077  1  0.692400  0.413780  0.350950  1
  C  C5078  1  0.692400  0.086220  0.149050  1
  C  C5079  1  0.807600  0.586220  0.850950  1
  C  C5080  1  0.807600  0.913780  0.649050  1
  C  C5081  1  0.307600  0.586220  0.649050  1
  C  C5082  1  0.307600  0.913780  0.850950  1
  C  C5083  1  0.192400  0.413780  0.149050  1
  C  C5084  1  0.192400  0.086220  0.350950  1
  C  C5085  1  0.578000  0.431600  0.695500  1
  C  C5086  1  0.578000  0.068400  0.804500  1
  C  C5087  1  0.922000  0.568400  0.195500  1
  C  C5088  1  0.922000  0.931600  0.304500  1
  C  C5089  1  0.422000  0.568400  0.304500  1
  C  C5090  1  0.422000  0.931600  0.195500  1
  C  C5091  1  0.078000  0.431600  0.804500  1
  C  C5092  1  0.078000  0.068400  0.695500  1
  C  C5093  1  0.570900  0.463400  0.700400  1
  C  C5094  1  0.570900  0.036600  0.799600  1
  C  C5095  1  0.929100  0.536600  0.200400  1
  C  C5096  1  0.929100  0.963400  0.299600  1
  C  C5097  1  0.429100  0.536600  0.299600  1
  C  C5098  1  0.429100  0.963400  0.200400  1
  C  C5099  1  0.070900  0.463400  0.799600  1
  C  C5100  1  0.070900  0.036600  0.700400  1
  C  C5101  1  0.807800  0.585300  0.425500  1
  C  C5102  1  0.807800  0.914700  0.074500  1
  C  C5103  1  0.692200  0.414700  0.925500  1
  C  C5104  1  0.692200  0.085300  0.574500  1
  C  C5105  1  0.192200  0.414700  0.574500  1
  C  C5106  1  0.192200  0.085300  0.925500  1
  C  C5107  1  0.307800  0.585300  0.074500  1
  C  C5108  1  0.307800  0.914700  0.425500  1
  C  C5109  1  0.536600  0.509700  0.655100  1
  C  C5110  1  0.536600  0.990300  0.844900  1
  C  C5111  1  0.963400  0.490300  0.155100  1
  C  C5112  1  0.963400  0.009700  0.344900  1
  C  C5113  1  0.463400  0.490300  0.344900  1
  C  C5114  1  0.463400  0.009700  0.155100  1
  C  C5115  1  0.036600  0.509700  0.844900  1
  C  C5116  1  0.036600  0.990300  0.655100  1
  C  C5117  1  0.505300  0.493200  0.668500  1
  C  C5118  1  0.505300  0.006800  0.831500  1
  C  C5119  1  0.994700  0.506800  0.168500  1
  C  C5120  1  0.994700  0.993200  0.331500  1
  C  C5121  1  0.494700  0.506800  0.331500  1
  C  C5122  1  0.494700  0.993200  0.168500  1
  C  C5123  1  0.005300  0.493200  0.831500  1
  C  C5124  1  0.005300  0.006800  0.668500  1
  C  C5125  1  0.513700  0.501300  0.694100  1
  C  C5126  1  0.513700  0.998700  0.805900  1
  C  C5127  1  0.986300  0.498700  0.194100  1
  C  C5128  1  0.986300  0.001300  0.305900  1
  C  C5129  1  0.486300  0.498700  0.305900  1
  C  C5130  1  0.486300  0.001300  0.194100  1
  C  C5131  1  0.013700  0.501300  0.805900  1
  C  C5132  1  0.013700  0.998700  0.694100  1
  C  C5133  1  0.532200  0.475200  0.706500  1
  C  C5134  1  0.532200  0.024800  0.793500  1
  C  C5135  1  0.967800  0.524800  0.206500  1
  C  C5136  1  0.967800  0.975200  0.293500  1
  C  C5137  1  0.467800  0.524800  0.293500  1
  C  C5138  1  0.467800  0.975200  0.206500  1
  C  C5139  1  0.032200  0.475200  0.793500  1
  C  C5140  1  0.032200  0.024800  0.706500  1
  C  C5141  1  0.847800  0.581900  0.417900  1
  C  C5142  1  0.847800  0.918100  0.082100  1
  C  C5143  1  0.652200  0.418100  0.917900  1
  C  C5144  1  0.652200  0.081900  0.582100  1
  C  C5145  1  0.152200  0.418100  0.582100  1
  C  C5146  1  0.152200  0.081900  0.917900  1
  C  C5147  1  0.347800  0.581900  0.082100  1
  C  C5148  1  0.347800  0.918100  0.417900  1
  C  C5149  1  0.871200  0.563900  0.428900  1
  C  C5150  1  0.871200  0.936100  0.071100  1
  C  C5151  1  0.628800  0.436100  0.928900  1
  C  C5152  1  0.628800  0.063900  0.571100  1
  C  C5153  1  0.128800  0.436100  0.571100  1
  C  C5154  1  0.128800  0.063900  0.928900  1
  C  C5155  1  0.371200  0.563900  0.071100  1
  C  C5156  1  0.371200  0.936100  0.428900  1
  C  C5157  1  0.914600  0.563300  0.417900  1
  C  C5158  1  0.914600  0.936700  0.082100  1
  C  C5159  1  0.585400  0.436700  0.917900  1
  C  C5160  1  0.585400  0.063300  0.582100  1
  C  C5161  1  0.085400  0.436700  0.582100  1
  C  C5162  1  0.085400  0.063300  0.917900  1
  C  C5163  1  0.414600  0.563300  0.082100  1
  C  C5164  1  0.414600  0.936700  0.417900  1
  C  C5165  1  0.933900  0.546800  0.435300  1
  C  C5166  1  0.933900  0.953200  0.064700  1
  C  C5167  1  0.566100  0.453200  0.935300  1
  C  C5168  1  0.566100  0.046800  0.564700  1
  C  C5169  1  0.066100  0.453200  0.564700  1
  C  C5170  1  0.066100  0.046800  0.935300  1
  C  C5171  1  0.433900  0.546800  0.064700  1
  C  C5172  1  0.433900  0.953200  0.435300  1
  C  C5173  1  0.973600  0.537100  0.429800  1
  C  C5174  1  0.973600  0.962900  0.070200  1
  C  C5175  1  0.526400  0.462900  0.929800  1
  C  C5176  1  0.526400  0.037100  0.570200  1
  C  C5177  1  0.026400  0.462900  0.570200  1
  C  C5178  1  0.026400  0.037100  0.929800  1
  C  C5179  1  0.473600  0.537100  0.070200  1
  C  C5180  1  0.473600  0.962900  0.429800  1
  C  C5181  1  0.836900  0.435500  0.675420  1
  C  C5182  1  0.836900  0.064500  0.824580  1
  C  C5183  1  0.663100  0.564500  0.175420  1
  C  C5184  1  0.663100  0.935500  0.324580  1
  C  C5185  1  0.163100  0.564500  0.324580  1
  C  C5186  1  0.163100  0.935500  0.175420  1
  C  C5187  1  0.336900  0.435500  0.824580  1
  C  C5188  1  0.336900  0.064500  0.675420  1
  C  C5189  1  0.825800  0.463500  0.678290  1
  C  C5190  1  0.825800  0.036500  0.821710  1
  C  C5191  1  0.674200  0.536500  0.178290  1
  C  C5192  1  0.674200  0.963500  0.321710  1
  C  C5193  1  0.174200  0.536500  0.321710  1
  C  C5194  1  0.174200  0.963500  0.178290  1
  C  C5195  1  0.325800  0.463500  0.821710  1
  C  C5196  1  0.325800  0.036500  0.678290  1
  C  C5197  1  0.820400  0.480200  0.659660  1
  C  C5198  1  0.820400  0.019800  0.840340  1
  C  C5199  1  0.679600  0.519800  0.159660  1
  C  C5200  1  0.679600  0.980200  0.340340  1
  C  C5201  1  0.179600  0.519800  0.340340  1
  C  C5202  1  0.179600  0.980200  0.159660  1
  C  C5203  1  0.320400  0.480200  0.840340  1
  C  C5204  1  0.320400  0.019800  0.659660  1
  C  C5205  1  0.826800  0.468540  0.639020  1
  C  C5206  1  0.826800  0.031460  0.860980  1
  C  C5207  1  0.673200  0.531460  0.139020  1
  C  C5208  1  0.673200  0.968540  0.360980  1
  C  C5209  1  0.173200  0.531460  0.360980  1
  C  C5210  1  0.173200  0.968540  0.139020  1
  C  C5211  1  0.326800  0.468540  0.860980  1
  C  C5212  1  0.326800  0.031460  0.639020  1
  C  C5213  1  0.837900  0.439950  0.637820  1
  C  C5214  1  0.837900  0.060050  0.862180  1
  C  C5215  1  0.662100  0.560050  0.137820  1
  C  C5216  1  0.662100  0.939950  0.362180  1
  C  C5217  1  0.162100  0.560050  0.362180  1
  C  C5218  1  0.162100  0.939950  0.137820  1
  C  C5219  1  0.337900  0.439950  0.862180  1
  C  C5220  1  0.337900  0.060050  0.637820  1
  C  C5221  1  0.826200  0.485810  0.619530  1
  C  C5222  1  0.826200  0.014190  0.880470  1
  C  C5223  1  0.673800  0.514190  0.119530  1
  C  C5224  1  0.673800  0.985810  0.380470  1
  C  C5225  1  0.173800  0.514190  0.380470  1
  C  C5226  1  0.173800  0.985810  0.119530  1
  C  C5227  1  0.326200  0.485810  0.880470  1
  C  C5228  1  0.326200  0.014190  0.619530  1
  C  C5229  1  0.831400  0.499120  0.603200  1
  C  C5230  1  0.831400  0.000880  0.896800  1
  C  C5231  1  0.668600  0.500880  0.103200  1
  C  C5232  1  0.668600  0.999120  0.396800  1
  C  C5233  1  0.168600  0.500880  0.396800  1
  C  C5234  1  0.168600  0.999120  0.103200  1
  C  C5235  1  0.331400  0.499120  0.896800  1
  C  C5236  1  0.331400  0.000880  0.603200  1
  C  C5237  1  0.842200  0.515120  0.584030  1
  C  C5238  1  0.842200  0.984880  0.915970  1
  C  C5239  1  0.657800  0.484880  0.084030  1
  C  C5240  1  0.657800  0.015120  0.415970  1
  C  C5241  1  0.157800  0.484880  0.415970  1
  C  C5242  1  0.157800  0.015120  0.084030  1
  C  C5243  1  0.342200  0.515120  0.915970  1
  C  C5244  1  0.342200  0.984880  0.584030  1
  C  C5245  1  0.858900  0.541580  0.586260  1
  C  C5246  1  0.858900  0.958420  0.913740  1
  C  C5247  1  0.641100  0.458420  0.086260  1
  C  C5248  1  0.641100  0.041580  0.413740  1
  C  C5249  1  0.141100  0.458420  0.413740  1
  C  C5250  1  0.141100  0.041580  0.086260  1
  C  C5251  1  0.358900  0.541580  0.913740  1
  C  C5252  1  0.358900  0.958420  0.586260  1
  C  C5253  1  0.871900  0.557150  0.568620  1
  C  C5254  1  0.871900  0.942850  0.931380  1
  C  C5255  1  0.628100  0.442850  0.068620  1
  C  C5256  1  0.628100  0.057150  0.431380  1
  C  C5257  1  0.128100  0.442850  0.431380  1
  C  C5258  1  0.128100  0.057150  0.068620  1
  C  C5259  1  0.371900  0.557150  0.931380  1
  C  C5260  1  0.371900  0.942850  0.568620  1
  C  C5261  1  0.868000  0.544880  0.548030  1
  C  C5262  1  0.868000  0.955120  0.951970  1
  C  C5263  1  0.632000  0.455120  0.048030  1
  C  C5264  1  0.632000  0.044880  0.451970  1
  C  C5265  1  0.132000  0.455120  0.451970  1
  C  C5266  1  0.132000  0.044880  0.048030  1
  C  C5267  1  0.368000  0.544880  0.951970  1
  C  C5268  1  0.368000  0.955120  0.548030  1
  C  C5269  1  0.851500  0.517690  0.545290  1
  C  C5270  1  0.851500  0.982310  0.954710  1
  C  C5271  1  0.648500  0.482310  0.045290  1
  C  C5272  1  0.648500  0.017690  0.454710  1
  C  C5273  1  0.148500  0.482310  0.454710  1
  C  C5274  1  0.148500  0.017690  0.045290  1
  C  C5275  1  0.351500  0.517690  0.954710  1
  C  C5276  1  0.351500  0.982310  0.545290  1
  C  C5277  1  0.837500  0.502850  0.563400  1
  C  C5278  1  0.837500  0.997150  0.936600  1
  C  C5279  1  0.662500  0.497150  0.063400  1
  C  C5280  1  0.662500  0.002850  0.436600  1
  C  C5281  1  0.162500  0.497150  0.436600  1
  C  C5282  1  0.162500  0.002850  0.063400  1
  C  C5283  1  0.337500  0.502850  0.936600  1
  C  C5284  1  0.337500  0.997150  0.563400  1
  C  C5285  1  0.869000  0.535940  0.511710  1
  C  C5286  1  0.869000  0.964060  0.988290  1
  C  C5287  1  0.631000  0.464060  0.011710  1
  C  C5288  1  0.631000  0.035940  0.488290  1
  C  C5289  1  0.131000  0.464060  0.488290  1
  C  C5290  1  0.131000  0.035940  0.011710  1
  C  C5291  1  0.369000  0.535940  0.988290  1
  C  C5292  1  0.369000  0.964060  0.511710  1
  C  C5293  1  0.873300  0.537420  0.489190  1
  C  C5294  1  0.873300  0.962580  0.010810  1
  C  C5295  1  0.626700  0.462580  0.989190  1
  C  C5296  1  0.626700  0.037420  0.510810  1
  C  C5297  1  0.126700  0.462580  0.510810  1
  C  C5298  1  0.126700  0.037420  0.989190  1
  C  C5299  1  0.373300  0.537420  0.010810  1
  C  C5300  1  0.373300  0.962580  0.489190  1
  C  C5301  1  0.860800  0.514340  0.477100  1
  C  C5302  1  0.860800  0.985660  0.022900  1
  C  C5303  1  0.639200  0.485660  0.977100  1
  C  C5304  1  0.639200  0.014340  0.522900  1
  C  C5305  1  0.139200  0.485660  0.522900  1
  C  C5306  1  0.139200  0.014340  0.977100  1
  C  C5307  1  0.360800  0.514340  0.022900  1
  C  C5308  1  0.360800  0.985660  0.477100  1
  C  C5309  1  0.845200  0.490360  0.486790  1
  C  C5310  1  0.845200  0.009640  0.013210  1
  C  C5311  1  0.654800  0.509640  0.986790  1
  C  C5312  1  0.654800  0.990360  0.513210  1
  C  C5313  1  0.154800  0.509640  0.513210  1
  C  C5314  1  0.154800  0.990360  0.986790  1
  C  C5315  1  0.345200  0.490360  0.013210  1
  C  C5316  1  0.345200  0.009640  0.486790  1
  C  C5317  1  0.840400  0.488860  0.509350  1
  C  C5318  1  0.840400  0.011140  0.990650  1
  C  C5319  1  0.659600  0.511140  0.009350  1
  C  C5320  1  0.659600  0.988860  0.490650  1
  C  C5321  1  0.159600  0.511140  0.490650  1
  C  C5322  1  0.159600  0.988860  0.009350  1
  C  C5323  1  0.340400  0.488860  0.990650  1
  C  C5324  1  0.340400  0.011140  0.509350  1
  C  C5325  1  0.852300  0.511890  0.522090  1
  C  C5326  1  0.852300  0.988110  0.977910  1
  C  C5327  1  0.647700  0.488110  0.022090  1
  C  C5328  1  0.647700  0.011890  0.477910  1
  C  C5329  1  0.147700  0.488110  0.477910  1
  C  C5330  1  0.147700  0.011890  0.022090  1
  C  C5331  1  0.352300  0.511890  0.977910  1
  C  C5332  1  0.352300  0.988110  0.522090  1
  C  C5333  1  0.831400  0.467510  0.473080  1
  C  C5334  1  0.831400  0.032490  0.026920  1
  C  C5335  1  0.668600  0.532490  0.973080  1
  C  C5336  1  0.668600  0.967510  0.526920  1
  C  C5337  1  0.168600  0.532490  0.526920  1
  C  C5338  1  0.168600  0.967510  0.973080  1
  C  C5339  1  0.331400  0.467510  0.026920  1
  C  C5340  1  0.331400  0.032490  0.473080  1
  C  C5341  1  0.819000  0.450430  0.460590  1
  C  C5342  1  0.819000  0.049570  0.039410  1
  C  C5343  1  0.681000  0.549570  0.960590  1
  C  C5344  1  0.681000  0.950430  0.539410  1
  C  C5345  1  0.181000  0.549570  0.539410  1
  C  C5346  1  0.181000  0.950430  0.960590  1
  C  C5347  1  0.319000  0.450430  0.039410  1
  C  C5348  1  0.319000  0.049570  0.460590  1
  C  C5349  1  0.800800  0.431160  0.445640  1
  C  C5350  1  0.800800  0.068840  0.054360  1
  C  C5351  1  0.699200  0.568840  0.945640  1
  C  C5352  1  0.699200  0.931160  0.554360  1
  C  C5353  1  0.199200  0.568840  0.554360  1
  C  C5354  1  0.199200  0.931160  0.945640  1
  C  C5355  1  0.300800  0.431160  0.054360  1
  C  C5356  1  0.300800  0.068840  0.445640  1
  C  C5357  1  0.813000  0.428860  0.423880  1
  C  C5358  1  0.813000  0.071140  0.076120  1
  C  C5359  1  0.687000  0.571140  0.923880  1
  C  C5360  1  0.687000  0.928860  0.576120  1
  C  C5361  1  0.187000  0.571140  0.576120  1
  C  C5362  1  0.187000  0.928860  0.923880  1
  C  C5363  1  0.313000  0.428860  0.076120  1
  C  C5364  1  0.313000  0.071140  0.423880  1
  C  C5365  1  0.793700  0.410450  0.409830  1
  C  C5366  1  0.793700  0.089550  0.090170  1
  C  C5367  1  0.706300  0.589550  0.909830  1
  C  C5368  1  0.706300  0.910450  0.590170  1
  C  C5369  1  0.206300  0.589550  0.590170  1
  C  C5370  1  0.206300  0.910450  0.909830  1
  C  C5371  1  0.293700  0.410450  0.090170  1
  C  C5372  1  0.293700  0.089550  0.409830  1
  C  C5373  1  0.762800  0.394940  0.418240  1
  C  C5374  1  0.762800  0.105060  0.081760  1
  C  C5375  1  0.737200  0.605060  0.918240  1
  C  C5376  1  0.737200  0.894940  0.581760  1
  C  C5377  1  0.237200  0.605060  0.581760  1
  C  C5378  1  0.237200  0.894940  0.918240  1
  C  C5379  1  0.262800  0.394940  0.081760  1
  C  C5380  1  0.262800  0.105060  0.418240  1
  C  C5381  1  0.770300  0.414460  0.452530  1
  C  C5382  1  0.770300  0.085540  0.047470  1
  C  C5383  1  0.729700  0.585540  0.952530  1
  C  C5384  1  0.729700  0.914460  0.547470  1
  C  C5385  1  0.229700  0.585540  0.547470  1
  C  C5386  1  0.229700  0.914460  0.952530  1
  C  C5387  1  0.270300  0.414460  0.047470  1
  C  C5388  1  0.270300  0.085540  0.452530  1
  C  C5389  1  0.805400  0.406010  0.387660  1
  C  C5390  1  0.805400  0.093990  0.112340  1
  C  C5391  1  0.694600  0.593990  0.887660  1
  C  C5392  1  0.694600  0.906010  0.612340  1
  C  C5393  1  0.194600  0.593990  0.612340  1
  C  C5394  1  0.194600  0.906010  0.887660  1
  C  C5395  1  0.305400  0.406010  0.112340  1
  C  C5396  1  0.305400  0.093990  0.387660  1
  C  C5397  1  0.816100  0.399300  0.369920  1
  C  C5398  1  0.816100  0.100700  0.130080  1
  C  C5399  1  0.683900  0.600700  0.869920  1
  C  C5400  1  0.683900  0.899300  0.630080  1
  C  C5401  1  0.183900  0.600700  0.630080  1
  C  C5402  1  0.183900  0.899300  0.869920  1
  C  C5403  1  0.316100  0.399300  0.130080  1
  C  C5404  1  0.316100  0.100700  0.369920  1
  C  C5405  1  0.832300  0.389000  0.349850  1
  C  C5406  1  0.832300  0.111000  0.150150  1
  C  C5407  1  0.667700  0.611000  0.849850  1
  C  C5408  1  0.667700  0.889000  0.650150  1
  C  C5409  1  0.167700  0.611000  0.650150  1
  C  C5410  1  0.167700  0.889000  0.849850  1
  C  C5411  1  0.332300  0.389000  0.150150  1
  C  C5412  1  0.332300  0.111000  0.349850  1
  C  C5413  1  0.871900  0.389100  0.346570  1
  C  C5414  1  0.871900  0.110900  0.153430  1
  C  C5415  1  0.628100  0.610900  0.846570  1
  C  C5416  1  0.628100  0.889100  0.653430  1
  C  C5417  1  0.128100  0.610900  0.653430  1
  C  C5418  1  0.128100  0.889100  0.846570  1
  C  C5419  1  0.371900  0.389100  0.153430  1
  C  C5420  1  0.371900  0.110900  0.346570  1
  C  C5421  1  0.888600  0.376300  0.328580  1
  C  C5422  1  0.888600  0.123700  0.171420  1
  C  C5423  1  0.611400  0.623700  0.828580  1
  C  C5424  1  0.611400  0.876300  0.671420  1
  C  C5425  1  0.111400  0.623700  0.671420  1
  C  C5426  1  0.111400  0.876300  0.828580  1
  C  C5427  1  0.388600  0.376300  0.171420  1
  C  C5428  1  0.388600  0.123700  0.328580  1
  C  C5429  1  0.864200  0.362600  0.313900  1
  C  C5430  1  0.864200  0.137400  0.186100  1
  C  C5431  1  0.635800  0.637400  0.813900  1
  C  C5432  1  0.635800  0.862600  0.686100  1
  C  C5433  1  0.135800  0.637400  0.686100  1
  C  C5434  1  0.135800  0.862600  0.813900  1
  C  C5435  1  0.364200  0.362600  0.186100  1
  C  C5436  1  0.364200  0.137400  0.313900  1
  C  C5437  1  0.823800  0.362500  0.316560  1
  C  C5438  1  0.823800  0.137500  0.183440  1
  C  C5439  1  0.676200  0.637500  0.816560  1
  C  C5440  1  0.676200  0.862500  0.683440  1
  C  C5441  1  0.176200  0.637500  0.683440  1
  C  C5442  1  0.176200  0.862500  0.816560  1
  C  C5443  1  0.323800  0.362500  0.183440  1
  C  C5444  1  0.323800  0.137500  0.316560  1
  C  C5445  1  0.807800  0.376300  0.334630  1
  C  C5446  1  0.807800  0.123700  0.165370  1
  C  C5447  1  0.692200  0.623700  0.834630  1
  C  C5448  1  0.692200  0.876300  0.665370  1
  C  C5449  1  0.192200  0.623700  0.665370  1
  C  C5450  1  0.192200  0.876300  0.834630  1
  C  C5451  1  0.307800  0.376300  0.165370  1
  C  C5452  1  0.307800  0.123700  0.334630  1
  C  C5453  1  0.839500  0.336800  0.286150  1
  C  C5454  1  0.839500  0.163200  0.213850  1
  C  C5455  1  0.660500  0.663200  0.786150  1
  C  C5456  1  0.660500  0.836800  0.713850  1
  C  C5457  1  0.160500  0.663200  0.713850  1
  C  C5458  1  0.160500  0.836800  0.786150  1
  C  C5459  1  0.339500  0.336800  0.213850  1
  C  C5460  1  0.339500  0.163200  0.286150  1
  C  C5461  1  0.834000  0.320600  0.267240  1
  C  C5462  1  0.834000  0.179400  0.232760  1
  C  C5463  1  0.666000  0.679400  0.767240  1
  C  C5464  1  0.666000  0.820600  0.732760  1
  C  C5465  1  0.166000  0.679400  0.732760  1
  C  C5466  1  0.166000  0.820600  0.767240  1
  C  C5467  1  0.334000  0.320600  0.232760  1
  C  C5468  1  0.334000  0.179400  0.267240  1
  C  C5469  1  0.797100  0.315600  0.260510  1
  C  C5470  1  0.797100  0.184400  0.239490  1
  C  C5471  1  0.702900  0.684400  0.760510  1
  C  C5472  1  0.702900  0.815600  0.739490  1
  C  C5473  1  0.202900  0.684400  0.739490  1
  C  C5474  1  0.202900  0.815600  0.760510  1
  C  C5475  1  0.297100  0.315600  0.239490  1
  C  C5476  1  0.297100  0.184400  0.260510  1
  C  C5477  1  0.765800  0.325600  0.272150  1
  C  C5478  1  0.765800  0.174400  0.227850  1
  C  C5479  1  0.734200  0.674400  0.772150  1
  C  C5480  1  0.734200  0.825600  0.727850  1
  C  C5481  1  0.234200  0.674400  0.727850  1
  C  C5482  1  0.234200  0.825600  0.772150  1
  C  C5483  1  0.265800  0.325600  0.227850  1
  C  C5484  1  0.265800  0.174400  0.272150  1
  C  C5485  1  0.770600  0.341300  0.291470  1
  C  C5486  1  0.770600  0.158700  0.208530  1
  C  C5487  1  0.729400  0.658700  0.791470  1
  C  C5488  1  0.729400  0.841300  0.708530  1
  C  C5489  1  0.229400  0.658700  0.708530  1
  C  C5490  1  0.229400  0.841300  0.791470  1
  C  C5491  1  0.270600  0.341300  0.208530  1
  C  C5492  1  0.270600  0.158700  0.291470  1
  C  C5493  1  0.808100  0.346700  0.298720  1
  C  C5494  1  0.808100  0.153300  0.201280  1
  C  C5495  1  0.691900  0.653300  0.798720  1
  C  C5496  1  0.691900  0.846700  0.701280  1
  C  C5497  1  0.191900  0.653300  0.701280  1
  C  C5498  1  0.191900  0.846700  0.798720  1
  C  C5499  1  0.308100  0.346700  0.201280  1
  C  C5500  1  0.308100  0.153300  0.298720  1
  C  C5501  1  0.727900  0.322600  0.263420  1
  C  C5502  1  0.727900  0.177400  0.236580  1
  C  C5503  1  0.772100  0.677400  0.763420  1
  C  C5504  1  0.772100  0.822600  0.736580  1
  C  C5505  1  0.272100  0.677400  0.736580  1
  C  C5506  1  0.272100  0.822600  0.763420  1
  C  C5507  1  0.227900  0.322600  0.236580  1
  C  C5508  1  0.227900  0.177400  0.263420  1
  C  C5509  1  0.698900  0.320600  0.253300  1
  C  C5510  1  0.698900  0.179400  0.246700  1
  C  C5511  1  0.801100  0.679400  0.753300  1
  C  C5512  1  0.801100  0.820600  0.746700  1
  C  C5513  1  0.301100  0.679400  0.746700  1
  C  C5514  1  0.301100  0.820600  0.753300  1
  C  C5515  1  0.198900  0.320600  0.246700  1
  C  C5516  1  0.198900  0.179400  0.253300  1
  C  C5517  1  0.663300  0.322500  0.241370  1
  C  C5518  1  0.663300  0.177500  0.258630  1
  C  C5519  1  0.836700  0.677500  0.741370  1
  C  C5520  1  0.836700  0.822500  0.758630  1
  C  C5521  1  0.336700  0.677500  0.758630  1
  C  C5522  1  0.336700  0.822500  0.741370  1
  C  C5523  1  0.163300  0.322500  0.258630  1
  C  C5524  1  0.163300  0.177500  0.241370  1
  C  C5525  1  0.658800  0.308700  0.221250  1
  C  C5526  1  0.658800  0.191300  0.278750  1
  C  C5527  1  0.841200  0.691300  0.721250  1
  C  C5528  1  0.841200  0.808700  0.778750  1
  C  C5529  1  0.341200  0.691300  0.778750  1
  C  C5530  1  0.341200  0.808700  0.721250  1
  C  C5531  1  0.158800  0.308700  0.278750  1
  C  C5532  1  0.158800  0.191300  0.221250  1
  C  C5533  1  0.624600  0.312100  0.209940  1
  C  C5534  1  0.624600  0.187900  0.290060  1
  C  C5535  1  0.875400  0.687900  0.709940  1
  C  C5536  1  0.875400  0.812100  0.790060  1
  C  C5537  1  0.375400  0.687900  0.790060  1
  C  C5538  1  0.375400  0.812100  0.709940  1
  C  C5539  1  0.124600  0.312100  0.290060  1
  C  C5540  1  0.124600  0.187900  0.209940  1
  C  C5541  1  0.596700  0.329300  0.218920  1
  C  C5542  1  0.596700  0.170700  0.281080  1
  C  C5543  1  0.903300  0.670700  0.718920  1
  C  C5544  1  0.903300  0.829300  0.781080  1
  C  C5545  1  0.403300  0.670700  0.781080  1
  C  C5546  1  0.403300  0.829300  0.718920  1
  C  C5547  1  0.096700  0.329300  0.281080  1
  C  C5548  1  0.096700  0.170700  0.218920  1
  C  C5549  1  0.633700  0.339600  0.248980  1
  C  C5550  1  0.633700  0.160400  0.251020  1
  C  C5551  1  0.866300  0.660400  0.748980  1
  C  C5552  1  0.866300  0.839600  0.751020  1
  C  C5553  1  0.366300  0.660400  0.751020  1
  C  C5554  1  0.366300  0.839600  0.748980  1
  C  C5555  1  0.133700  0.339600  0.251020  1
  C  C5556  1  0.133700  0.160400  0.248980  1
  C  C5557  1  0.899700  0.582300  0.524250  1
  C  C5558  1  0.899700  0.917700  0.975750  1
  C  C5559  1  0.600300  0.417700  0.024250  1
  C  C5560  1  0.600300  0.082300  0.475750  1
  C  C5561  1  0.100300  0.417700  0.475750  1
  C  C5562  1  0.100300  0.082300  0.024250  1
  C  C5563  1  0.399700  0.582300  0.975750  1
  C  C5564  1  0.399700  0.917700  0.524250  1
  C  C5565  1  0.942200  0.578400  0.524800  1
  C  C5566  1  0.942200  0.921600  0.975200  1
  C  C5567  1  0.557800  0.421600  0.024800  1
  C  C5568  1  0.557800  0.078400  0.475200  1
  C  C5569  1  0.057800  0.421600  0.475200  1
  C  C5570  1  0.057800  0.078400  0.024800  1
  C  C5571  1  0.442200  0.578400  0.975200  1
  C  C5572  1  0.442200  0.921600  0.524800  1
  C  C5573  1  0.961000  0.559300  0.509400  1
  C  C5574  1  0.961000  0.940700  0.990600  1
  C  C5575  1  0.539000  0.440700  0.009400  1
  C  C5576  1  0.539000  0.059300  0.490600  1
  C  C5577  1  0.039000  0.440700  0.490600  1
  C  C5578  1  0.039000  0.059300  0.009400  1
  C  C5579  1  0.461000  0.559300  0.990600  1
  C  C5580  1  0.461000  0.940700  0.509400  1
  C  C5581  1  0.003100  0.555900  0.511900  1
  C  C5582  1  0.003100  0.944100  0.988100  1
  C  C5583  1  0.496900  0.444100  0.011900  1
  C  C5584  1  0.496900  0.055900  0.488100  1
  C  C5585  1  0.996900  0.444100  0.488100  1
  C  C5586  1  0.996900  0.055900  0.011900  1
  C  C5587  1  0.503100  0.555900  0.988100  1
  C  C5588  1  0.503100  0.944100  0.511900  1
  C  C5589  1  0.018100  0.536100  0.526500  1
  C  C5590  1  0.018100  0.963900  0.973500  1
  C  C5591  1  0.481900  0.463900  0.026500  1
  C  C5592  1  0.481900  0.036100  0.473500  1
  C  C5593  1  0.981900  0.463900  0.473500  1
  C  C5594  1  0.981900  0.036100  0.026500  1
  C  C5595  1  0.518100  0.536100  0.973500  1
  C  C5596  1  0.518100  0.963900  0.526500  1
  C  C5597  1  0.057300  0.524100  0.524500  1
  C  C5598  1  0.057300  0.975900  0.975500  1
  C  C5599  1  0.442700  0.475900  0.024500  1
  C  C5600  1  0.442700  0.024100  0.475500  1
  C  C5601  1  0.942700  0.475900  0.475500  1
  C  C5602  1  0.942700  0.024100  0.024500  1
  C  C5603  1  0.557300  0.524100  0.975500  1
  C  C5604  1  0.557300  0.975900  0.524500  1
  C  C5605  1  0.912300  0.339400  0.288300  1
  C  C5606  1  0.912300  0.160600  0.211700  1
  C  C5607  1  0.587700  0.660600  0.788300  1
  C  C5608  1  0.587700  0.839400  0.711700  1
  C  C5609  1  0.087700  0.660600  0.711700  1
  C  C5610  1  0.087700  0.839400  0.788300  1
  C  C5611  1  0.412300  0.339400  0.211700  1
  C  C5612  1  0.412300  0.160600  0.288300  1
  C  C5613  1  0.930600  0.315200  0.303300  1
  C  C5614  1  0.930600  0.184800  0.196700  1
  C  C5615  1  0.569400  0.684800  0.803300  1
  C  C5616  1  0.569400  0.815200  0.696700  1
  C  C5617  1  0.069400  0.684800  0.696700  1
  C  C5618  1  0.069400  0.815200  0.803300  1
  C  C5619  1  0.430600  0.315200  0.196700  1
  C  C5620  1  0.430600  0.184800  0.303300  1
  C  C5621  1  0.912100  0.286500  0.307000  1
  C  C5622  1  0.912100  0.213500  0.193000  1
  C  C5623  1  0.587900  0.713500  0.807000  1
  C  C5624  1  0.587900  0.786500  0.693000  1
  C  C5625  1  0.087900  0.713500  0.693000  1
  C  C5626  1  0.087900  0.786500  0.807000  1
  C  C5627  1  0.412100  0.286500  0.193000  1
  C  C5628  1  0.412100  0.213500  0.307000  1
  C  C5629  1  0.937300  0.264300  0.318000  1
  C  C5630  1  0.937300  0.235700  0.182000  1
  C  C5631  1  0.562700  0.735700  0.818000  1
  C  C5632  1  0.562700  0.764300  0.682000  1
  C  C5633  1  0.062700  0.735700  0.682000  1
  C  C5634  1  0.062700  0.764300  0.818000  1
  C  C5635  1  0.437300  0.264300  0.182000  1
  C  C5636  1  0.437300  0.235700  0.318000  1
  C  C5637  1  0.918000  0.238400  0.327500  1
  C  C5638  1  0.918000  0.261600  0.172500  1
  C  C5639  1  0.582000  0.761600  0.827500  1
  C  C5640  1  0.582000  0.738400  0.672500  1
  C  C5641  1  0.082000  0.761600  0.672500  1
  C  C5642  1  0.082000  0.738400  0.827500  1
  C  C5643  1  0.418000  0.238400  0.172500  1
  C  C5644  1  0.418000  0.261600  0.327500  1
  C  C5645  1  0.944600  0.219900  0.339900  1
  C  C5646  1  0.944600  0.280100  0.160100  1
  C  C5647  1  0.555400  0.780100  0.839900  1
  C  C5648  1  0.555400  0.719900  0.660100  1
  C  C5649  1  0.055400  0.780100  0.660100  1
  C  C5650  1  0.055400  0.719900  0.839900  1
  C  C5651  1  0.444600  0.219900  0.160100  1
  C  C5652  1  0.444600  0.280100  0.339900  1
  C  C5653  1  0.918000  0.337500  0.659420  1
  C  C5654  1  0.918000  0.162500  0.840580  1
  C  C5655  1  0.582000  0.662500  0.159420  1
  C  C5656  1  0.582000  0.837500  0.340580  1
  C  C5657  1  0.082000  0.662500  0.340580  1
  C  C5658  1  0.082000  0.837500  0.159420  1
  C  C5659  1  0.418000  0.337500  0.840580  1
  C  C5660  1  0.418000  0.162500  0.659420  1
  C  C5661  1  0.932800  0.310200  0.657300  1
  C  C5662  1  0.932800  0.189800  0.842700  1
  C  C5663  1  0.567200  0.689800  0.157300  1
  C  C5664  1  0.567200  0.810200  0.342700  1
  C  C5665  1  0.067200  0.689800  0.342700  1
  C  C5666  1  0.067200  0.810200  0.157300  1
  C  C5667  1  0.432800  0.310200  0.842700  1
  C  C5668  1  0.432800  0.189800  0.657300  1
  C  C5669  1  0.916000  0.291700  0.642100  1
  C  C5670  1  0.916000  0.208300  0.857900  1
  C  C5671  1  0.584000  0.708300  0.142100  1
  C  C5672  1  0.584000  0.791700  0.357900  1
  C  C5673  1  0.084000  0.708300  0.357900  1
  C  C5674  1  0.084000  0.791700  0.142100  1
  C  C5675  1  0.416000  0.291700  0.857900  1
  C  C5676  1  0.416000  0.208300  0.642100  1
  C  C5677  1  0.884200  0.300600  0.630250  1
  C  C5678  1  0.884200  0.199400  0.869750  1
  C  C5679  1  0.615800  0.699400  0.130250  1
  C  C5680  1  0.615800  0.800600  0.369750  1
  C  C5681  1  0.115800  0.699400  0.369750  1
  C  C5682  1  0.115800  0.800600  0.130250  1
  C  C5683  1  0.384200  0.300600  0.869750  1
  C  C5684  1  0.384200  0.199400  0.630250  1
  C  C5685  1  0.870700  0.328240  0.633740  1
  C  C5686  1  0.870700  0.171760  0.866260  1
  C  C5687  1  0.629300  0.671760  0.133740  1
  C  C5688  1  0.629300  0.828240  0.366260  1
  C  C5689  1  0.129300  0.671760  0.366260  1
  C  C5690  1  0.129300  0.828240  0.133740  1
  C  C5691  1  0.370700  0.328240  0.866260  1
  C  C5692  1  0.370700  0.171760  0.633740  1
  C  C5693  1  0.862500  0.282000  0.616440  1
  C  C5694  1  0.862500  0.218000  0.883560  1
  C  C5695  1  0.637500  0.718000  0.116440  1
  C  C5696  1  0.637500  0.782000  0.383560  1
  C  C5697  1  0.137500  0.718000  0.383560  1
  C  C5698  1  0.137500  0.782000  0.116440  1
  C  C5699  1  0.362500  0.282000  0.883560  1
  C  C5700  1  0.362500  0.218000  0.616440  1
  C  C5701  1  0.841900  0.266200  0.606350  1
  C  C5702  1  0.841900  0.233800  0.893650  1
  C  C5703  1  0.658100  0.733800  0.106350  1
  C  C5704  1  0.658100  0.766200  0.393650  1
  C  C5705  1  0.158100  0.733800  0.393650  1
  C  C5706  1  0.158100  0.766200  0.106350  1
  C  C5707  1  0.341900  0.266200  0.893650  1
  C  C5708  1  0.341900  0.233800  0.606350  1
  C  C5709  1  0.817100  0.245310  0.596710  1
  C  C5710  1  0.817100  0.254690  0.903290  1
  C  C5711  1  0.682900  0.754690  0.096710  1
  C  C5712  1  0.682900  0.745310  0.403290  1
  C  C5713  1  0.182900  0.754690  0.403290  1
  C  C5714  1  0.182900  0.745310  0.096710  1
  C  C5715  1  0.317100  0.245310  0.903290  1
  C  C5716  1  0.317100  0.254690  0.596710  1
  C  C5717  1  0.818500  0.217150  0.603280  1
  C  C5718  1  0.818500  0.282850  0.896720  1
  C  C5719  1  0.681500  0.782850  0.103280  1
  C  C5720  1  0.681500  0.717150  0.396720  1
  C  C5721  1  0.181500  0.782850  0.396720  1
  C  C5722  1  0.181500  0.717150  0.103280  1
  C  C5723  1  0.318500  0.217150  0.896720  1
  C  C5724  1  0.318500  0.282850  0.603280  1
  C  C5725  1  0.793900  0.196740  0.595330  1
  C  C5726  1  0.793900  0.303260  0.904670  1
  C  C5727  1  0.706100  0.803260  0.095330  1
  C  C5728  1  0.706100  0.696740  0.404670  1
  C  C5729  1  0.206100  0.803260  0.404670  1
  C  C5730  1  0.206100  0.696740  0.095330  1
  C  C5731  1  0.293900  0.196740  0.904670  1
  C  C5732  1  0.293900  0.303260  0.595330  1
  C  C5733  1  0.767100  0.205820  0.579840  1
  C  C5734  1  0.767100  0.294180  0.920160  1
  C  C5735  1  0.732900  0.794180  0.079840  1
  C  C5736  1  0.732900  0.705820  0.420160  1
  C  C5737  1  0.232900  0.794180  0.420160  1
  C  C5738  1  0.232900  0.705820  0.079840  1
  C  C5739  1  0.267100  0.205820  0.920160  1
  C  C5740  1  0.267100  0.294180  0.579840  1
  C  C5741  1  0.765000  0.234430  0.572820  1
  C  C5742  1  0.765000  0.265570  0.927180  1
  C  C5743  1  0.735000  0.765570  0.072820  1
  C  C5744  1  0.735000  0.734430  0.427180  1
  C  C5745  1  0.235000  0.765570  0.427180  1
  C  C5746  1  0.235000  0.734430  0.072820  1
  C  C5747  1  0.265000  0.234430  0.927180  1
  C  C5748  1  0.265000  0.265570  0.572820  1
  C  C5749  1  0.790400  0.254220  0.581290  1
  C  C5750  1  0.790400  0.245780  0.918710  1
  C  C5751  1  0.709600  0.745780  0.081290  1
  C  C5752  1  0.709600  0.754220  0.418710  1
  C  C5753  1  0.209600  0.745780  0.418710  1
  C  C5754  1  0.209600  0.754220  0.081290  1
  C  C5755  1  0.290400  0.254220  0.918710  1
  C  C5756  1  0.290400  0.245780  0.581290  1
  C  C5757  1  0.719200  0.208250  0.555350  1
  C  C5758  1  0.719200  0.291750  0.944650  1
  C  C5759  1  0.780800  0.791750  0.055350  1
  C  C5760  1  0.780800  0.708250  0.444650  1
  C  C5761  1  0.280800  0.791750  0.444650  1
  C  C5762  1  0.280800  0.708250  0.055350  1
  C  C5763  1  0.219200  0.208250  0.944650  1
  C  C5764  1  0.219200  0.291750  0.555350  1
  C  C5765  1  0.688400  0.202090  0.541370  1
  C  C5766  1  0.688400  0.297910  0.958630  1
  C  C5767  1  0.811600  0.797910  0.041370  1
  C  C5768  1  0.811600  0.702090  0.458630  1
  C  C5769  1  0.311600  0.797910  0.458630  1
  C  C5770  1  0.311600  0.702090  0.041370  1
  C  C5771  1  0.188400  0.202090  0.958630  1
  C  C5772  1  0.188400  0.297910  0.541370  1
  C  C5773  1  0.673500  0.224070  0.529460  1
  C  C5774  1  0.673500  0.275930  0.970540  1
  C  C5775  1  0.826500  0.775930  0.029460  1
  C  C5776  1  0.826500  0.724070  0.470540  1
  C  C5777  1  0.326500  0.775930  0.470540  1
  C  C5778  1  0.326500  0.724070  0.029460  1
  C  C5779  1  0.173500  0.224070  0.970540  1
  C  C5780  1  0.173500  0.275930  0.529460  1
  C  C5781  1  0.687800  0.251820  0.531100  1
  C  C5782  1  0.687800  0.248180  0.968900  1
  C  C5783  1  0.812200  0.748180  0.031100  1
  C  C5784  1  0.812200  0.751820  0.468900  1
  C  C5785  1  0.312200  0.748180  0.468900  1
  C  C5786  1  0.312200  0.751820  0.031100  1
  C  C5787  1  0.187800  0.251820  0.968900  1
  C  C5788  1  0.187800  0.248180  0.531100  1
  C  C5789  1  0.718000  0.258240  0.545220  1
  C  C5790  1  0.718000  0.241760  0.954780  1
  C  C5791  1  0.782000  0.741760  0.045220  1
  C  C5792  1  0.782000  0.758240  0.454780  1
  C  C5793  1  0.282000  0.741760  0.454780  1
  C  C5794  1  0.282000  0.758240  0.045220  1
  C  C5795  1  0.218000  0.258240  0.954780  1
  C  C5796  1  0.218000  0.241760  0.545220  1
  C  C5797  1  0.734200  0.235980  0.557310  1
  C  C5798  1  0.734200  0.264020  0.942690  1
  C  C5799  1  0.765800  0.764020  0.057310  1
  C  C5800  1  0.765800  0.735980  0.442690  1
  C  C5801  1  0.265800  0.764020  0.442690  1
  C  C5802  1  0.265800  0.735980  0.057310  1
  C  C5803  1  0.234200  0.235980  0.942690  1
  C  C5804  1  0.234200  0.264020  0.557310  1
  C  C5805  1  0.672000  0.274010  0.517670  1
  C  C5806  1  0.672000  0.225990  0.982330  1
  C  C5807  1  0.828000  0.725990  0.017670  1
  C  C5808  1  0.828000  0.774010  0.482330  1
  C  C5809  1  0.328000  0.725990  0.482330  1
  C  C5810  1  0.328000  0.774010  0.017670  1
  C  C5811  1  0.172000  0.274010  0.982330  1
  C  C5812  1  0.172000  0.225990  0.517670  1
  C  C5813  1  0.658800  0.290730  0.504890  1
  C  C5814  1  0.658800  0.209270  0.995110  1
  C  C5815  1  0.841200  0.709270  0.004890  1
  C  C5816  1  0.841200  0.790730  0.495110  1
  C  C5817  1  0.341200  0.709270  0.495110  1
  C  C5818  1  0.341200  0.790730  0.004890  1
  C  C5819  1  0.158800  0.290730  0.995110  1
  C  C5820  1  0.158800  0.209270  0.504890  1
  C  C5821  1  0.648200  0.309990  0.487780  1
  C  C5822  1  0.648200  0.190010  0.012220  1
  C  C5823  1  0.851800  0.690010  0.987780  1
  C  C5824  1  0.851800  0.809990  0.512220  1
  C  C5825  1  0.351800  0.690010  0.512220  1
  C  C5826  1  0.351800  0.809990  0.987780  1
  C  C5827  1  0.148200  0.309990  0.012220  1
  C  C5828  1  0.148200  0.190010  0.487780  1
  C  C5829  1  0.611500  0.310420  0.478850  1
  C  C5830  1  0.611500  0.189580  0.021150  1
  C  C5831  1  0.888500  0.689580  0.978850  1
  C  C5832  1  0.888500  0.810420  0.521150  1
  C  C5833  1  0.388500  0.689580  0.521150  1
  C  C5834  1  0.388500  0.810420  0.978850  1
  C  C5835  1  0.111500  0.310420  0.021150  1
  C  C5836  1  0.111500  0.189580  0.478850  1
  C  C5837  1  0.603600  0.328430  0.461060  1
  C  C5838  1  0.603600  0.171570  0.038940  1
  C  C5839  1  0.896400  0.671570  0.961060  1
  C  C5840  1  0.896400  0.828430  0.538940  1
  C  C5841  1  0.396400  0.671570  0.538940  1
  C  C5842  1  0.396400  0.828430  0.961060  1
  C  C5843  1  0.103600  0.328430  0.038940  1
  C  C5844  1  0.103600  0.171570  0.461060  1
  C  C5845  1  0.633000  0.345540  0.453300  1
  C  C5846  1  0.633000  0.154460  0.046700  1
  C  C5847  1  0.867000  0.654460  0.953300  1
  C  C5848  1  0.867000  0.845540  0.546700  1
  C  C5849  1  0.367000  0.654460  0.546700  1
  C  C5850  1  0.367000  0.845540  0.953300  1
  C  C5851  1  0.133000  0.345540  0.046700  1
  C  C5852  1  0.133000  0.154460  0.453300  1
  C  C5853  1  0.675900  0.328900  0.479190  1
  C  C5854  1  0.675900  0.171100  0.020810  1
  C  C5855  1  0.824100  0.671100  0.979190  1
  C  C5856  1  0.824100  0.828900  0.520810  1
  C  C5857  1  0.324100  0.671100  0.520810  1
  C  C5858  1  0.324100  0.828900  0.979190  1
  C  C5859  1  0.175900  0.328900  0.020810  1
  C  C5860  1  0.175900  0.171100  0.479190  1
  C  C5861  1  0.566100  0.331000  0.451640  1
  C  C5862  1  0.566100  0.169000  0.048360  1
  C  C5863  1  0.933900  0.669000  0.951640  1
  C  C5864  1  0.933900  0.831000  0.548360  1
  C  C5865  1  0.433900  0.669000  0.548360  1
  C  C5866  1  0.433900  0.831000  0.951640  1
  C  C5867  1  0.066100  0.331000  0.048360  1
  C  C5868  1  0.066100  0.169000  0.451640  1
  C  C5869  1  0.535200  0.336200  0.444330  1
  C  C5870  1  0.535200  0.163800  0.055670  1
  C  C5871  1  0.964800  0.663800  0.944330  1
  C  C5872  1  0.964800  0.836200  0.555670  1
  C  C5873  1  0.464800  0.663800  0.555670  1
  C  C5874  1  0.464800  0.836200  0.944330  1
  C  C5875  1  0.035200  0.336200  0.055670  1
  C  C5876  1  0.035200  0.163800  0.444330  1
  C  C5877  1  0.497900  0.343900  0.436150  1
  C  C5878  1  0.497900  0.156100  0.063850  1
  C  C5879  1  0.002100  0.656100  0.936150  1
  C  C5880  1  0.002100  0.843900  0.563850  1
  C  C5881  1  0.502100  0.656100  0.563850  1
  C  C5882  1  0.502100  0.843900  0.936150  1
  C  C5883  1  0.997900  0.343900  0.063850  1
  C  C5884  1  0.997900  0.156100  0.436150  1
  C  C5885  1  0.465700  0.341000  0.449700  1
  C  C5886  1  0.465700  0.159000  0.050300  1
  C  C5887  1  0.034300  0.659000  0.949700  1
  C  C5888  1  0.034300  0.841000  0.550300  1
  C  C5889  1  0.534300  0.659000  0.550300  1
  C  C5890  1  0.534300  0.841000  0.949700  1
  C  C5891  1  0.965700  0.341000  0.050300  1
  C  C5892  1  0.965700  0.159000  0.449700  1
  C  C5893  1  0.429600  0.349800  0.442700  1
  C  C5894  1  0.429600  0.150200  0.057300  1
  C  C5895  1  0.070400  0.650200  0.942700  1
  C  C5896  1  0.070400  0.849800  0.557300  1
  C  C5897  1  0.570400  0.650200  0.557300  1
  C  C5898  1  0.570400  0.849800  0.942700  1
  C  C5899  1  0.929600  0.349800  0.057300  1
  C  C5900  1  0.929600  0.150200  0.442700  1
  C  C5901  1  0.426700  0.361500  0.421820  1
  C  C5902  1  0.426700  0.138500  0.078180  1
  C  C5903  1  0.073300  0.638500  0.921820  1
  C  C5904  1  0.073300  0.861500  0.578180  1
  C  C5905  1  0.573300  0.638500  0.578180  1
  C  C5906  1  0.573300  0.861500  0.921820  1
  C  C5907  1  0.926700  0.361500  0.078180  1
  C  C5908  1  0.926700  0.138500  0.421820  1
  C  C5909  1  0.458800  0.364000  0.407830  1
  C  C5910  1  0.458800  0.136000  0.092170  1
  C  C5911  1  0.041200  0.636000  0.907830  1
  C  C5912  1  0.041200  0.864000  0.592170  1
  C  C5913  1  0.541200  0.636000  0.592170  1
  C  C5914  1  0.541200  0.864000  0.907830  1
  C  C5915  1  0.958800  0.364000  0.092170  1
  C  C5916  1  0.958800  0.136000  0.407830  1
  C  C5917  1  0.494700  0.355500  0.415190  1
  C  C5918  1  0.494700  0.144500  0.084810  1
  C  C5919  1  0.005300  0.644500  0.915190  1
  C  C5920  1  0.005300  0.855500  0.584810  1
  C  C5921  1  0.505300  0.644500  0.584810  1
  C  C5922  1  0.505300  0.855500  0.915190  1
  C  C5923  1  0.994700  0.355500  0.084810  1
  C  C5924  1  0.994700  0.144500  0.415190  1
  C  C5925  1  0.405200  0.381100  0.390220  1
  C  C5926  1  0.405200  0.118900  0.109780  1
  C  C5927  1  0.094800  0.618900  0.890220  1
  C  C5928  1  0.094800  0.881100  0.609780  1
  C  C5929  1  0.594800  0.618900  0.609780  1
  C  C5930  1  0.594800  0.881100  0.890220  1
  C  C5931  1  0.905200  0.381100  0.109780  1
  C  C5932  1  0.905200  0.118900  0.390220  1
  C  C5933  1  0.382900  0.392800  0.373600  1
  C  C5934  1  0.382900  0.107200  0.126400  1
  C  C5935  1  0.117100  0.607200  0.873600  1
  C  C5936  1  0.117100  0.892800  0.626400  1
  C  C5937  1  0.617100  0.607200  0.626400  1
  C  C5938  1  0.617100  0.892800  0.873600  1
  C  C5939  1  0.882900  0.392800  0.126400  1
  C  C5940  1  0.882900  0.107200  0.373600  1
  C  C5941  1  0.401000  0.399900  0.354100  1
  C  C5942  1  0.401000  0.100100  0.145900  1
  C  C5943  1  0.099000  0.600100  0.854100  1
  C  C5944  1  0.099000  0.899900  0.645900  1
  C  C5945  1  0.599000  0.600100  0.645900  1
  C  C5946  1  0.599000  0.899900  0.854100  1
  C  C5947  1  0.901000  0.399900  0.145900  1
  C  C5948  1  0.901000  0.100100  0.354100  1
  C  C5949  1  0.440100  0.395700  0.351210  1
  C  C5950  1  0.440100  0.104300  0.148790  1
  C  C5951  1  0.059900  0.604300  0.851210  1
  C  C5952  1  0.059900  0.895700  0.648790  1
  C  C5953  1  0.559900  0.604300  0.648790  1
  C  C5954  1  0.559900  0.895700  0.851210  1
  C  C5955  1  0.940100  0.395700  0.148790  1
  C  C5956  1  0.940100  0.104300  0.351210  1
  C  C5957  1  0.462900  0.383800  0.367890  1
  C  C5958  1  0.462900  0.116200  0.132110  1
  C  C5959  1  0.037100  0.616200  0.867890  1
  C  C5960  1  0.037100  0.883800  0.632110  1
  C  C5961  1  0.537100  0.616200  0.632110  1
  C  C5962  1  0.537100  0.883800  0.867890  1
  C  C5963  1  0.962900  0.383800  0.132110  1
  C  C5964  1  0.962900  0.116200  0.367890  1
  C  C5965  1  0.445200  0.376500  0.387490  1
  C  C5966  1  0.445200  0.123500  0.112510  1
  C  C5967  1  0.054800  0.623500  0.887490  1
  C  C5968  1  0.054800  0.876500  0.612510  1
  C  C5969  1  0.554800  0.623500  0.612510  1
  C  C5970  1  0.554800  0.876500  0.887490  1
  C  C5971  1  0.945200  0.376500  0.112510  1
  C  C5972  1  0.945200  0.123500  0.387490  1
  C  C5973  1  0.457900  0.402800  0.330540  1
  C  C5974  1  0.457900  0.097200  0.169460  1
  C  C5975  1  0.042100  0.597200  0.830540  1
  C  C5976  1  0.042100  0.902800  0.669460  1
  C  C5977  1  0.542100  0.597200  0.669460  1
  C  C5978  1  0.542100  0.902800  0.830540  1
  C  C5979  1  0.957900  0.402800  0.169460  1
  C  C5980  1  0.957900  0.097200  0.330540  1
  C  C5981  1  0.469000  0.408700  0.312460  1
  C  C5982  1  0.469000  0.091300  0.187540  1
  C  C5983  1  0.031000  0.591300  0.812460  1
  C  C5984  1  0.031000  0.908700  0.687540  1
  C  C5985  1  0.531000  0.591300  0.687540  1
  C  C5986  1  0.531000  0.908700  0.812460  1
  C  C5987  1  0.969000  0.408700  0.187540  1
  C  C5988  1  0.969000  0.091300  0.312460  1
  C  C5989  1  0.480700  0.411000  0.289910  1
  C  C5990  1  0.480700  0.089000  0.210090  1
  C  C5991  1  0.019300  0.589000  0.789910  1
  C  C5992  1  0.019300  0.911000  0.710090  1
  C  C5993  1  0.519300  0.589000  0.710090  1
  C  C5994  1  0.519300  0.911000  0.789910  1
  C  C5995  1  0.980700  0.411000  0.210090  1
  C  C5996  1  0.980700  0.089000  0.289910  1
  C  C5997  1  0.463600  0.430200  0.275400  1
  C  C5998  1  0.463600  0.069800  0.224600  1
  C  C5999  1  0.036400  0.569800  0.775400  1
  C  C6000  1  0.036400  0.930200  0.724600  1
  C  C6001  1  0.536400  0.569800  0.724600  1
  C  C6002  1  0.536400  0.930200  0.775400  1
  C  C6003  1  0.963600  0.430200  0.224600  1
  C  C6004  1  0.963600  0.069800  0.275400  1
  C  C6005  1  0.476100  0.430600  0.253700  1
  C  C6006  1  0.476100  0.069400  0.246300  1
  C  C6007  1  0.023900  0.569400  0.753700  1
  C  C6008  1  0.023900  0.930600  0.746300  1
  C  C6009  1  0.523900  0.569400  0.746300  1
  C  C6010  1  0.523900  0.930600  0.753700  1
  C  C6011  1  0.976100  0.430600  0.246300  1
  C  C6012  1  0.976100  0.069400  0.253700  1
  C  C6013  1  0.504400  0.412800  0.247000  1
  C  C6014  1  0.504400  0.087200  0.253000  1
  C  C6015  1  0.995600  0.587200  0.747000  1
  C  C6016  1  0.995600  0.912800  0.753000  1
  C  C6017  1  0.495600  0.587200  0.753000  1
  C  C6018  1  0.495600  0.912800  0.747000  1
  C  C6019  1  0.004400  0.412800  0.253000  1
  C  C6020  1  0.004400  0.087200  0.247000  1
  C  C6021  1  0.509100  0.393300  0.281300  1
  C  C6022  1  0.509100  0.106700  0.218700  1
  C  C6023  1  0.990900  0.606700  0.781300  1
  C  C6024  1  0.990900  0.893300  0.718700  1
  C  C6025  1  0.490900  0.606700  0.718700  1
  C  C6026  1  0.490900  0.893300  0.781300  1
  C  C6027  1  0.009100  0.393300  0.218700  1
  C  C6028  1  0.009100  0.106700  0.281300  1
  C  C6029  1  0.734600  0.159620  0.571340  1
  C  C6030  1  0.734600  0.340380  0.928660  1
  C  C6031  1  0.765400  0.840380  0.071340  1
  C  C6032  1  0.765400  0.659620  0.428660  1
  C  C6033  1  0.265400  0.840380  0.428660  1
  C  C6034  1  0.265400  0.659620  0.071340  1
  C  C6035  1  0.234600  0.159620  0.928660  1
  C  C6036  1  0.234600  0.340380  0.571340  1
  C  C6037  1  0.766400  0.143300  0.560800  1
  C  C6038  1  0.766400  0.356700  0.939200  1
  C  C6039  1  0.733600  0.856700  0.060800  1
  C  C6040  1  0.733600  0.643300  0.439200  1
  C  C6041  1  0.233600  0.856700  0.439200  1
  C  C6042  1  0.233600  0.643300  0.060800  1
  C  C6043  1  0.266400  0.143300  0.939200  1
  C  C6044  1  0.266400  0.356700  0.560800  1
  C  C6045  1  0.768900  0.144700  0.537300  1
  C  C6046  1  0.768900  0.355300  0.962700  1
  C  C6047  1  0.731100  0.855300  0.037300  1
  C  C6048  1  0.731100  0.644700  0.462700  1
  C  C6049  1  0.231100  0.855300  0.462700  1
  C  C6050  1  0.231100  0.644700  0.037300  1
  C  C6051  1  0.268900  0.144700  0.962700  1
  C  C6052  1  0.268900  0.355300  0.537300  1
  C  C6053  1  0.797100  0.122900  0.527100  1
  C  C6054  1  0.797100  0.377100  0.972900  1
  C  C6055  1  0.702900  0.877100  0.027100  1
  C  C6056  1  0.702900  0.622900  0.472900  1
  C  C6057  1  0.202900  0.877100  0.472900  1
  C  C6058  1  0.202900  0.622900  0.027100  1
  C  C6059  1  0.297100  0.122900  0.972900  1
  C  C6060  1  0.297100  0.377100  0.527100  1
  C  C6061  1  0.791400  0.121800  0.501400  1
  C  C6062  1  0.791400  0.378200  0.998600  1
  C  C6063  1  0.708600  0.878200  0.001400  1
  C  C6064  1  0.708600  0.621800  0.498600  1
  C  C6065  1  0.208600  0.878200  0.498600  1
  C  C6066  1  0.208600  0.621800  0.001400  1
  C  C6067  1  0.291400  0.121800  0.998600  1
  C  C6068  1  0.291400  0.378200  0.501400  1
  C  C6069  1  0.817500  0.104700  0.489300  1
  C  C6070  1  0.817500  0.395300  0.010700  1
  C  C6071  1  0.682500  0.895300  0.989300  1
  C  C6072  1  0.682500  0.604700  0.510700  1
  C  C6073  1  0.182500  0.895300  0.510700  1
  C  C6074  1  0.182500  0.604700  0.989300  1
  C  C6075  1  0.317500  0.104700  0.010700  1
  C  C6076  1  0.317500  0.395300  0.489300  1
  C  C6077  1  0.355300  0.374900  0.419900  1
  C  C6078  1  0.355300  0.125100  0.080100  1
  C  C6079  1  0.144700  0.625100  0.919900  1
  C  C6080  1  0.144700  0.874900  0.580100  1
  C  C6081  1  0.644700  0.625100  0.580100  1
  C  C6082  1  0.644700  0.874900  0.919900  1
  C  C6083  1  0.855300  0.374900  0.080100  1
  C  C6084  1  0.855300  0.125100  0.419900  1
  C  C6085  1  0.353100  0.400400  0.435600  1
  C  C6086  1  0.353100  0.099600  0.064400  1
  C  C6087  1  0.146900  0.599600  0.935600  1
  C  C6088  1  0.146900  0.900400  0.564400  1
  C  C6089  1  0.646900  0.599600  0.564400  1
  C  C6090  1  0.646900  0.900400  0.935600  1
  C  C6091  1  0.853100  0.400400  0.064400  1
  C  C6092  1  0.853100  0.099600  0.435600  1
  C  C6093  1  0.368400  0.428400  0.430500  1
  C  C6094  1  0.368400  0.071600  0.069500  1
  C  C6095  1  0.131600  0.571600  0.930500  1
  C  C6096  1  0.131600  0.928400  0.569500  1
  C  C6097  1  0.631600  0.571600  0.569500  1
  C  C6098  1  0.631600  0.928400  0.930500  1
  C  C6099  1  0.868400  0.428400  0.069500  1
  C  C6100  1  0.868400  0.071600  0.430500  1
  C  C6101  1  0.363500  0.453400  0.443600  1
  C  C6102  1  0.363500  0.046600  0.056400  1
  C  C6103  1  0.136500  0.546600  0.943600  1
  C  C6104  1  0.136500  0.953400  0.556400  1
  C  C6105  1  0.636500  0.546600  0.556400  1
  C  C6106  1  0.636500  0.953400  0.943600  1
  C  C6107  1  0.863500  0.453400  0.056400  1
  C  C6108  1  0.863500  0.046600  0.443600  1
  C  C6109  1  0.381200  0.481700  0.438300  1
  C  C6110  1  0.381200  0.018300  0.061700  1
  C  C6111  1  0.118800  0.518300  0.938300  1
  C  C6112  1  0.118800  0.981700  0.561700  1
  C  C6113  1  0.618800  0.518300  0.561700  1
  C  C6114  1  0.618800  0.981700  0.938300  1
  C  C6115  1  0.881200  0.481700  0.061700  1
  C  C6116  1  0.881200  0.018300  0.438300  1
  C  C6117  1  0.370500  0.498200  0.460600  1
  C  C6118  1  0.370500  0.001800  0.039400  1
  C  C6119  1  0.129500  0.501800  0.960600  1
  C  C6120  1  0.129500  0.998200  0.539400  1
  C  C6121  1  0.629500  0.501800  0.539400  1
  C  C6122  1  0.629500  0.998200  0.960600  1
  C  C6123  1  0.870500  0.498200  0.039400  1
  C  C6124  1  0.870500  0.001800  0.460600  1
  C  C6125  1  0.818500  0.354100  0.684200  1
  C  C6126  1  0.818500  0.145900  0.815800  1
  C  C6127  1  0.681500  0.645900  0.184200  1
  C  C6128  1  0.681500  0.854100  0.315800  1
  C  C6129  1  0.181500  0.645900  0.315800  1
  C  C6130  1  0.181500  0.854100  0.184200  1
  C  C6131  1  0.318500  0.354100  0.815800  1
  C  C6132  1  0.318500  0.145900  0.684200  1
  C  C6133  1  0.786600  0.340900  0.693360  1
  C  C6134  1  0.786600  0.159100  0.806640  1
  C  C6135  1  0.713400  0.659100  0.193360  1
  C  C6136  1  0.713400  0.840900  0.306640  1
  C  C6137  1  0.213400  0.659100  0.306640  1
  C  C6138  1  0.213400  0.840900  0.193360  1
  C  C6139  1  0.286600  0.340900  0.806640  1
  C  C6140  1  0.286600  0.159100  0.693360  1
  C  C6141  1  0.751800  0.341900  0.682340  1
  C  C6142  1  0.751800  0.158100  0.817660  1
  C  C6143  1  0.748200  0.658100  0.182340  1
  C  C6144  1  0.748200  0.841900  0.317660  1
  C  C6145  1  0.248200  0.658100  0.317660  1
  C  C6146  1  0.248200  0.841900  0.182340  1
  C  C6147  1  0.251800  0.341900  0.817660  1
  C  C6148  1  0.251800  0.158100  0.682340  1
  C  C6149  1  0.750500  0.356000  0.661960  1
  C  C6150  1  0.750500  0.144000  0.838040  1
  C  C6151  1  0.749500  0.644000  0.161960  1
  C  C6152  1  0.749500  0.856000  0.338040  1
  C  C6153  1  0.249500  0.644000  0.338040  1
  C  C6154  1  0.249500  0.856000  0.161960  1
  C  C6155  1  0.250500  0.356000  0.838040  1
  C  C6156  1  0.250500  0.144000  0.661960  1
  C  C6157  1  0.784200  0.367800  0.653880  1
  C  C6158  1  0.784200  0.132200  0.846120  1
  C  C6159  1  0.715800  0.632200  0.153880  1
  C  C6160  1  0.715800  0.867800  0.346120  1
  C  C6161  1  0.215800  0.632200  0.346120  1
  C  C6162  1  0.215800  0.867800  0.153880  1
  C  C6163  1  0.284200  0.367800  0.846120  1
  C  C6164  1  0.284200  0.132200  0.653880  1
  C  C6165  1  0.714900  0.361000  0.651100  1
  C  C6166  1  0.714900  0.139000  0.848900  1
  C  C6167  1  0.785100  0.639000  0.151100  1
  C  C6168  1  0.785100  0.861000  0.348900  1
  C  C6169  1  0.285100  0.639000  0.348900  1
  C  C6170  1  0.285100  0.861000  0.151100  1
  C  C6171  1  0.214900  0.361000  0.848900  1
  C  C6172  1  0.214900  0.139000  0.651100  1
  C  C6173  1  0.684900  0.366500  0.642600  1
  C  C6174  1  0.684900  0.133500  0.857400  1
  C  C6175  1  0.815100  0.633500  0.142600  1
  C  C6176  1  0.815100  0.866500  0.357400  1
  C  C6177  1  0.315100  0.633500  0.357400  1
  C  C6178  1  0.315100  0.866500  0.142600  1
  C  C6179  1  0.184900  0.366500  0.857400  1
  C  C6180  1  0.184900  0.133500  0.642600  1
  C  C6181  1  0.648300  0.373100  0.633360  1
  C  C6182  1  0.648300  0.126900  0.866640  1
  C  C6183  1  0.851700  0.626900  0.133360  1
  C  C6184  1  0.851700  0.873100  0.366640  1
  C  C6185  1  0.351700  0.626900  0.366640  1
  C  C6186  1  0.351700  0.873100  0.133360  1
  C  C6187  1  0.148300  0.373100  0.866640  1
  C  C6188  1  0.148300  0.126900  0.633360  1
  C  C6189  1  0.614900  0.369300  0.645760  1
  C  C6190  1  0.614900  0.130700  0.854240  1
  C  C6191  1  0.885100  0.630700  0.145760  1
  C  C6192  1  0.885100  0.869300  0.354240  1
  C  C6193  1  0.385100  0.630700  0.354240  1
  C  C6194  1  0.385100  0.869300  0.145760  1
  C  C6195  1  0.114900  0.369300  0.854240  1
  C  C6196  1  0.114900  0.130700  0.645760  1
  C  C6197  1  0.579500  0.376900  0.637520  1
  C  C6198  1  0.579500  0.123100  0.862480  1
  C  C6199  1  0.920500  0.623100  0.137520  1
  C  C6200  1  0.920500  0.876900  0.362480  1
  C  C6201  1  0.420500  0.623100  0.362480  1
  C  C6202  1  0.420500  0.876900  0.137520  1
  C  C6203  1  0.079500  0.376900  0.862480  1
  C  C6204  1  0.079500  0.123100  0.637520  1
  C  C6205  1  0.578000  0.389500  0.616760  1
  C  C6206  1  0.578000  0.110500  0.883240  1
  C  C6207  1  0.922000  0.610500  0.116760  1
  C  C6208  1  0.922000  0.889500  0.383240  1
  C  C6209  1  0.422000  0.610500  0.383240  1
  C  C6210  1  0.422000  0.889500  0.116760  1
  C  C6211  1  0.078000  0.389500  0.883240  1
  C  C6212  1  0.078000  0.110500  0.616760  1
  C  C6213  1  0.611500  0.393500  0.604060  1
  C  C6214  1  0.611500  0.106500  0.895940  1
  C  C6215  1  0.888500  0.606500  0.104060  1
  C  C6216  1  0.888500  0.893500  0.395940  1
  C  C6217  1  0.388500  0.606500  0.395940  1
  C  C6218  1  0.388500  0.893500  0.104060  1
  C  C6219  1  0.111500  0.393500  0.895940  1
  C  C6220  1  0.111500  0.106500  0.604060  1
  C  C6221  1  0.647000  0.385100  0.612300  1
  C  C6222  1  0.647000  0.114900  0.887700  1
  C  C6223  1  0.853000  0.614900  0.112300  1
  C  C6224  1  0.853000  0.885100  0.387700  1
  C  C6225  1  0.353000  0.614900  0.387700  1
  C  C6226  1  0.353000  0.885100  0.112300  1
  C  C6227  1  0.147000  0.385100  0.887700  1
  C  C6228  1  0.147000  0.114900  0.612300  1
  C  C6229  1  0.560100  0.409800  0.584930  1
  C  C6230  1  0.560100  0.090200  0.915070  1
  C  C6231  1  0.939900  0.590200  0.084930  1
  C  C6232  1  0.939900  0.909800  0.415070  1
  C  C6233  1  0.439900  0.590200  0.415070  1
  C  C6234  1  0.439900  0.909800  0.084930  1
  C  C6235  1  0.060100  0.409800  0.915070  1
  C  C6236  1  0.060100  0.090200  0.584930  1
  C  C6237  1  0.539700  0.421800  0.567650  1
  C  C6238  1  0.539700  0.078200  0.932350  1
  C  C6239  1  0.960300  0.578200  0.067650  1
  C  C6240  1  0.960300  0.921800  0.432350  1
  C  C6241  1  0.460300  0.578200  0.432350  1
  C  C6242  1  0.460300  0.921800  0.067650  1
  C  C6243  1  0.039700  0.421800  0.932350  1
  C  C6244  1  0.039700  0.078200  0.567650  1
  C  C6245  1  0.559500  0.430500  0.549370  1
  C  C6246  1  0.559500  0.069500  0.950630  1
  C  C6247  1  0.940500  0.569500  0.049370  1
  C  C6248  1  0.940500  0.930500  0.450630  1
  C  C6249  1  0.440500  0.569500  0.450630  1
  C  C6250  1  0.440500  0.930500  0.049370  1
  C  C6251  1  0.059500  0.430500  0.950630  1
  C  C6252  1  0.059500  0.069500  0.549370  1
  C  C6253  1  0.598900  0.426000  0.547740  1
  C  C6254  1  0.598900  0.074000  0.952260  1
  C  C6255  1  0.901100  0.574000  0.047740  1
  C  C6256  1  0.901100  0.926000  0.452260  1
  C  C6257  1  0.401100  0.574000  0.452260  1
  C  C6258  1  0.401100  0.926000  0.047740  1
  C  C6259  1  0.098900  0.426000  0.952260  1
  C  C6260  1  0.098900  0.074000  0.547740  1
  C  C6261  1  0.620200  0.414200  0.564900  1
  C  C6262  1  0.620200  0.085800  0.935100  1
  C  C6263  1  0.879800  0.585800  0.064900  1
  C  C6264  1  0.879800  0.914200  0.435100  1
  C  C6265  1  0.379800  0.585800  0.435100  1
  C  C6266  1  0.379800  0.914200  0.064900  1
  C  C6267  1  0.120200  0.414200  0.935100  1
  C  C6268  1  0.120200  0.085800  0.564900  1
  C  C6269  1  0.600500  0.406300  0.583940  1
  C  C6270  1  0.600500  0.093700  0.916060  1
  C  C6271  1  0.899500  0.593700  0.083940  1
  C  C6272  1  0.899500  0.906300  0.416060  1
  C  C6273  1  0.399500  0.593700  0.416060  1
  C  C6274  1  0.399500  0.906300  0.083940  1
  C  C6275  1  0.100500  0.406300  0.916060  1
  C  C6276  1  0.100500  0.093700  0.583940  1
  C  C6277  1  0.618600  0.432000  0.527370  1
  C  C6278  1  0.618600  0.068000  0.972630  1
  C  C6279  1  0.881400  0.568000  0.027370  1
  C  C6280  1  0.881400  0.932000  0.472630  1
  C  C6281  1  0.381400  0.568000  0.472630  1
  C  C6282  1  0.381400  0.932000  0.027370  1
  C  C6283  1  0.118600  0.432000  0.972630  1
  C  C6284  1  0.118600  0.068000  0.527370  1
  C  C6285  1  0.632400  0.434600  0.509590  1
  C  C6286  1  0.632400  0.065400  0.990410  1
  C  C6287  1  0.867600  0.565400  0.009590  1
  C  C6288  1  0.867600  0.934600  0.490410  1
  C  C6289  1  0.367600  0.565400  0.490410  1
  C  C6290  1  0.367600  0.934600  0.009590  1
  C  C6291  1  0.132400  0.434600  0.990410  1
  C  C6292  1  0.132400  0.065400  0.509590  1
  C  C6293  1  0.646500  0.432920  0.487380  1
  C  C6294  1  0.646500  0.067080  0.012620  1
  C  C6295  1  0.853500  0.567080  0.987380  1
  C  C6296  1  0.853500  0.932920  0.512620  1
  C  C6297  1  0.353500  0.567080  0.512620  1
  C  C6298  1  0.353500  0.932920  0.987380  1
  C  C6299  1  0.146500  0.432920  0.012620  1
  C  C6300  1  0.146500  0.067080  0.487380  1
  C  C6301  1  0.638200  0.453900  0.471930  1
  C  C6302  1  0.638200  0.046100  0.028070  1
  C  C6303  1  0.861800  0.546100  0.971930  1
  C  C6304  1  0.861800  0.953900  0.528070  1
  C  C6305  1  0.361800  0.546100  0.528070  1
  C  C6306  1  0.361800  0.953900  0.971930  1
  C  C6307  1  0.138200  0.453900  0.028070  1
  C  C6308  1  0.138200  0.046100  0.471930  1
  C  C6309  1  0.650800  0.450020  0.450460  1
  C  C6310  1  0.650800  0.049980  0.049540  1
  C  C6311  1  0.849200  0.549980  0.950460  1
  C  C6312  1  0.849200  0.950020  0.549540  1
  C  C6313  1  0.349200  0.549980  0.549540  1
  C  C6314  1  0.349200  0.950020  0.950460  1
  C  C6315  1  0.150800  0.450020  0.049540  1
  C  C6316  1  0.150800  0.049980  0.450460  1
  C  C6317  1  0.670100  0.425040  0.444510  1
  C  C6318  1  0.670100  0.074960  0.055490  1
  C  C6319  1  0.829900  0.574960  0.944510  1
  C  C6320  1  0.829900  0.925040  0.555490  1
  C  C6321  1  0.329900  0.574960  0.555490  1
  C  C6322  1  0.329900  0.925040  0.944510  1
  C  C6323  1  0.170100  0.425040  0.055490  1
  C  C6324  1  0.170100  0.074960  0.444510  1
  C  C6325  1  0.666900  0.409390  0.480140  1
  C  C6326  1  0.666900  0.090610  0.019860  1
  C  C6327  1  0.833100  0.590610  0.980140  1
  C  C6328  1  0.833100  0.909390  0.519860  1
  C  C6329  1  0.333100  0.590610  0.519860  1
  C  C6330  1  0.333100  0.909390  0.980140  1
  C  C6331  1  0.166900  0.409390  0.019860  1
  C  C6332  1  0.166900  0.090610  0.480140  1
  C  C6333  1  0.646900  0.471800  0.434160  1
  C  C6334  1  0.646900  0.028200  0.065840  1
  C  C6335  1  0.853100  0.528200  0.934160  1
  C  C6336  1  0.853100  0.971800  0.565840  1
  C  C6337  1  0.353100  0.528200  0.565840  1
  C  C6338  1  0.353100  0.971800  0.934160  1
  C  C6339  1  0.146900  0.471800  0.065840  1
  C  C6340  1  0.146900  0.028200  0.434160  1
  C  C6341  1  0.648100  0.488700  0.419780  1
  C  C6342  1  0.648100  0.011300  0.080220  1
  C  C6343  1  0.851900  0.511300  0.919780  1
  C  C6344  1  0.851900  0.988700  0.580220  1
  C  C6345  1  0.351900  0.511300  0.580220  1
  C  C6346  1  0.351900  0.988700  0.919780  1
  C  C6347  1  0.148100  0.488700  0.080220  1
  C  C6348  1  0.148100  0.011300  0.419780  1
  C  C6349  1  0.654400  0.508400  0.402150  1
  C  C6350  1  0.654400  0.991600  0.097850  1
  C  C6351  1  0.845600  0.491600  0.902150  1
  C  C6352  1  0.845600  0.008400  0.597850  1
  C  C6353  1  0.345600  0.491600  0.597850  1
  C  C6354  1  0.345600  0.008400  0.902150  1
  C  C6355  1  0.154400  0.508400  0.097850  1
  C  C6356  1  0.154400  0.991600  0.402150  1
  C  C6357  1  0.666667  0.535800  0.407040  1
  C  C6358  1  0.666667  0.964200  0.092960  1
  C  C6359  1  0.833333  0.464200  0.907040  1
  C  C6360  1  0.833333  0.035800  0.592960  1
  C  C6361  1  0.333333  0.464200  0.592960  1
  C  C6362  1  0.333333  0.035800  0.907040  1
  C  C6363  1  0.166667  0.535800  0.092960  1
  C  C6364  1  0.166667  0.964200  0.407040  1
  C  C6365  1  0.676400  0.555000  0.390960  1
  C  C6366  1  0.676400  0.945000  0.109040  1
  C  C6367  1  0.823600  0.445000  0.890960  1
  C  C6368  1  0.823600  0.055000  0.609040  1
  C  C6369  1  0.323600  0.445000  0.609040  1
  C  C6370  1  0.323600  0.055000  0.890960  1
  C  C6371  1  0.176400  0.555000  0.109040  1
  C  C6372  1  0.176400  0.945000  0.390960  1
  C  C6373  1  0.672400  0.545300  0.369420  1
  C  C6374  1  0.672400  0.954700  0.130580  1
  C  C6375  1  0.827600  0.454700  0.869420  1
  C  C6376  1  0.827600  0.045300  0.630580  1
  C  C6377  1  0.327600  0.454700  0.630580  1
  C  C6378  1  0.327600  0.045300  0.869420  1
  C  C6379  1  0.172400  0.545300  0.130580  1
  C  C6380  1  0.172400  0.954700  0.369420  1
  C  C6381  1  0.660700  0.517370  0.364320  1
  C  C6382  1  0.660700  0.982630  0.135680  1
  C  C6383  1  0.839300  0.482630  0.864320  1
  C  C6384  1  0.839300  0.017370  0.635680  1
  C  C6385  1  0.339300  0.482630  0.635680  1
  C  C6386  1  0.339300  0.017370  0.864320  1
  C  C6387  1  0.160700  0.517370  0.135680  1
  C  C6388  1  0.160700  0.982630  0.364320  1
  C  C6389  1  0.651000  0.498300  0.380710  1
  C  C6390  1  0.651000  0.001700  0.119290  1
  C  C6391  1  0.849000  0.501700  0.880710  1
  C  C6392  1  0.849000  0.998300  0.619290  1
  C  C6393  1  0.349000  0.501700  0.619290  1
  C  C6394  1  0.349000  0.998300  0.880710  1
  C  C6395  1  0.151000  0.498300  0.119290  1
  C  C6396  1  0.151000  0.001700  0.380710  1
  C  C6397  1  0.673700  0.541380  0.332560  1
  C  C6398  1  0.673700  0.958620  0.167440  1
  C  C6399  1  0.826300  0.458620  0.832560  1
  C  C6400  1  0.826300  0.041380  0.667440  1
  C  C6401  1  0.326300  0.458620  0.667440  1
  C  C6402  1  0.326300  0.041380  0.832560  1
  C  C6403  1  0.173700  0.541380  0.167440  1
  C  C6404  1  0.173700  0.958620  0.332560  1
  C  C6405  1  0.678600  0.546000  0.310290  1
  C  C6406  1  0.678600  0.954000  0.189710  1
  C  C6407  1  0.821400  0.454000  0.810290  1
  C  C6408  1  0.821400  0.046000  0.689710  1
  C  C6409  1  0.321400  0.454000  0.689710  1
  C  C6410  1  0.321400  0.046000  0.810290  1
  C  C6411  1  0.178600  0.546000  0.189710  1
  C  C6412  1  0.178600  0.954000  0.310290  1
  C  C6413  1  0.671600  0.523800  0.295860  1
  C  C6414  1  0.671600  0.976200  0.204140  1
  C  C6415  1  0.828400  0.476200  0.795860  1
  C  C6416  1  0.828400  0.023800  0.704140  1
  C  C6417  1  0.328400  0.476200  0.704140  1
  C  C6418  1  0.328400  0.023800  0.795860  1
  C  C6419  1  0.171600  0.523800  0.204140  1
  C  C6420  1  0.171600  0.976200  0.295860  1
  C  C6421  1  0.659800  0.497200  0.303790  1
  C  C6422  1  0.659800  0.002800  0.196210  1
  C  C6423  1  0.840200  0.502800  0.803790  1
  C  C6424  1  0.840200  0.997200  0.696210  1
  C  C6425  1  0.340200  0.502800  0.696210  1
  C  C6426  1  0.340200  0.997200  0.803790  1
  C  C6427  1  0.159800  0.497200  0.196210  1
  C  C6428  1  0.159800  0.002800  0.303790  1
  C  C6429  1  0.654900  0.492100  0.326260  1
  C  C6430  1  0.654900  0.007900  0.173740  1
  C  C6431  1  0.845100  0.507900  0.826260  1
  C  C6432  1  0.845100  0.992100  0.673740  1
  C  C6433  1  0.345100  0.507900  0.673740  1
  C  C6434  1  0.345100  0.992100  0.826260  1
  C  C6435  1  0.154900  0.492100  0.173740  1
  C  C6436  1  0.154900  0.007900  0.326260  1
  C  C6437  1  0.662100  0.514550  0.340640  1
  C  C6438  1  0.662100  0.985450  0.159360  1
  C  C6439  1  0.837900  0.485450  0.840640  1
  C  C6440  1  0.837900  0.014550  0.659360  1
  C  C6441  1  0.337900  0.485450  0.659360  1
  C  C6442  1  0.337900  0.014550  0.840640  1
  C  C6443  1  0.162100  0.514550  0.159360  1
  C  C6444  1  0.162100  0.985450  0.340640  1
  C  C6445  1  0.650700  0.475000  0.288320  1
  C  C6446  1  0.650700  0.025000  0.211680  1
  C  C6447  1  0.849300  0.525000  0.788320  1
  C  C6448  1  0.849300  0.975000  0.711680  1
  C  C6449  1  0.349300  0.525000  0.711680  1
  C  C6450  1  0.349300  0.975000  0.788320  1
  C  C6451  1  0.150700  0.475000  0.211680  1
  C  C6452  1  0.150700  0.025000  0.288320  1
  C  C6453  1  0.642500  0.459600  0.273430  1
  C  C6454  1  0.642500  0.040400  0.226570  1
  C  C6455  1  0.857500  0.540400  0.773430  1
  C  C6456  1  0.857500  0.959600  0.726570  1
  C  C6457  1  0.357500  0.540400  0.726570  1
  C  C6458  1  0.357500  0.959600  0.773430  1
  C  C6459  1  0.142500  0.459600  0.226570  1
  C  C6460  1  0.142500  0.040400  0.273430  1
  C  C6461  1  0.630100  0.441900  0.255630  1
  C  C6462  1  0.630100  0.058100  0.244370  1
  C  C6463  1  0.869900  0.558100  0.755630  1
  C  C6464  1  0.869900  0.941900  0.744370  1
  C  C6465  1  0.369900  0.558100  0.744370  1
  C  C6466  1  0.369900  0.941900  0.755630  1
  C  C6467  1  0.130100  0.441900  0.244370  1
  C  C6468  1  0.130100  0.058100  0.255630  1
  C  C6469  1  0.637400  0.450100  0.234030  1
  C  C6470  1  0.637400  0.049900  0.265970  1
  C  C6471  1  0.862600  0.549900  0.734030  1
  C  C6472  1  0.862600  0.950100  0.765970  1
  C  C6473  1  0.362600  0.549900  0.765970  1
  C  C6474  1  0.362600  0.950100  0.734030  1
  C  C6475  1  0.137400  0.450100  0.265970  1
  C  C6476  1  0.137400  0.049900  0.234030  1
  C  C6477  1  0.622100  0.433900  0.217150  1
  C  C6478  1  0.622100  0.066100  0.282850  1
  C  C6479  1  0.877900  0.566100  0.717150  1
  C  C6480  1  0.877900  0.933900  0.782850  1
  C  C6481  1  0.377900  0.566100  0.782850  1
  C  C6482  1  0.377900  0.933900  0.717150  1
  C  C6483  1  0.122100  0.433900  0.282850  1
  C  C6484  1  0.122100  0.066100  0.217150  1
  C  C6485  1  0.600600  0.409900  0.221860  1
  C  C6486  1  0.600600  0.090100  0.278140  1
  C  C6487  1  0.899400  0.590100  0.721860  1
  C  C6488  1  0.899400  0.909900  0.778140  1
  C  C6489  1  0.399400  0.590100  0.778140  1
  C  C6490  1  0.399400  0.909900  0.721860  1
  C  C6491  1  0.100600  0.409900  0.278140  1
  C  C6492  1  0.100600  0.090100  0.221860  1
  C  C6493  1  0.608300  0.417400  0.258720  1
  C  C6494  1  0.608300  0.082600  0.241280  1
  C  C6495  1  0.891700  0.582600  0.758720  1
  C  C6496  1  0.891700  0.917400  0.741280  1
  C  C6497  1  0.391700  0.582600  0.741280  1
  C  C6498  1  0.391700  0.917400  0.758720  1
  C  C6499  1  0.108300  0.417400  0.241280  1
  C  C6500  1  0.108300  0.082600  0.258720  1
  C  C6501  1  0.506000  0.398300  0.611100  1
  C  C6502  1  0.506000  0.101700  0.888900  1
  C  C6503  1  0.994000  0.601700  0.111100  1
  C  C6504  1  0.994000  0.898300  0.388900  1
  C  C6505  1  0.494000  0.601700  0.388900  1
  C  C6506  1  0.494000  0.898300  0.111100  1
  C  C6507  1  0.006000  0.398300  0.888900  1
  C  C6508  1  0.006000  0.101700  0.611100  1
  C  C6509  1  0.485100  0.375700  0.599200  1
  C  C6510  1  0.485100  0.124300  0.900800  1
  C  C6511  1  0.014900  0.624300  0.099200  1
  C  C6512  1  0.014900  0.875700  0.400800  1
  C  C6513  1  0.514900  0.624300  0.400800  1
  C  C6514  1  0.514900  0.875700  0.099200  1
  C  C6515  1  0.985100  0.375700  0.900800  1
  C  C6516  1  0.985100  0.124300  0.599200  1
  C  C6517  1  0.498100  0.345900  0.605500  1
  C  C6518  1  0.498100  0.154100  0.894500  1
  C  C6519  1  0.001900  0.654100  0.105500  1
  C  C6520  1  0.001900  0.845900  0.394500  1
  C  C6521  1  0.501900  0.654100  0.394500  1
  C  C6522  1  0.501900  0.845900  0.105500  1
  C  C6523  1  0.998100  0.345900  0.894500  1
  C  C6524  1  0.998100  0.154100  0.605500  1
  C  C6525  1  0.475200  0.322300  0.593100  1
  C  C6526  1  0.475200  0.177700  0.906900  1
  C  C6527  1  0.024800  0.677700  0.093100  1
  C  C6528  1  0.024800  0.822300  0.406900  1
  C  C6529  1  0.524800  0.677700  0.406900  1
  C  C6530  1  0.524800  0.822300  0.093100  1
  C  C6531  1  0.975200  0.322300  0.906900  1
  C  C6532  1  0.975200  0.177700  0.593100  1
  C  C6533  1  0.494800  0.294300  0.594700  1
  C  C6534  1  0.494800  0.205700  0.905300  1
  C  C6535  1  0.005200  0.705700  0.094700  1
  C  C6536  1  0.005200  0.794300  0.405300  1
  C  C6537  1  0.505200  0.705700  0.405300  1
  C  C6538  1  0.505200  0.794300  0.094700  1
  C  C6539  1  0.994800  0.294300  0.905300  1
  C  C6540  1  0.994800  0.205700  0.594700  1
  C  C6541  1  0.474300  0.267500  0.586900  1
  C  C6542  1  0.474300  0.232500  0.913100  1
  C  C6543  1  0.025700  0.732500  0.086900  1
  C  C6544  1  0.025700  0.767500  0.413100  1
  C  C6545  1  0.525700  0.732500  0.413100  1
  C  C6546  1  0.525700  0.767500  0.086900  1
  C  C6547  1  0.974300  0.267500  0.913100  1
  C  C6548  1  0.974300  0.232500  0.586900  1
  C  C6549  1  0.688700  0.590500  0.348600  1
  C  C6550  1  0.688700  0.909500  0.151400  1
  C  C6551  1  0.811300  0.409500  0.848600  1
  C  C6552  1  0.811300  0.090500  0.651400  1
  C  C6553  1  0.311300  0.409500  0.651400  1
  C  C6554  1  0.311300  0.090500  0.848600  1
  C  C6555  1  0.188700  0.590500  0.151400  1
  C  C6556  1  0.188700  0.909500  0.348600  1
  C  C6557  1  0.653600  0.608500  0.347600  1
  C  C6558  1  0.653600  0.891500  0.152400  1
  C  C6559  1  0.846400  0.391500  0.847600  1
  C  C6560  1  0.846400  0.108500  0.652400  1
  C  C6561  1  0.346400  0.391500  0.652400  1
  C  C6562  1  0.346400  0.108500  0.847600  1
  C  C6563  1  0.153600  0.608500  0.152400  1
  C  C6564  1  0.153600  0.891500  0.347600  1
  C  C6565  1  0.646600  0.636200  0.356200  1
  C  C6566  1  0.646600  0.863800  0.143800  1
  C  C6567  1  0.853400  0.363800  0.856200  1
  C  C6568  1  0.853400  0.136200  0.643800  1
  C  C6569  1  0.353400  0.363800  0.643800  1
  C  C6570  1  0.353400  0.136200  0.856200  1
  C  C6571  1  0.146600  0.636200  0.143800  1
  C  C6572  1  0.146600  0.863800  0.356200  1
  C  C6573  1  0.616900  0.656900  0.347100  1
  C  C6574  1  0.616900  0.843100  0.152900  1
  C  C6575  1  0.883100  0.343100  0.847100  1
  C  C6576  1  0.883100  0.156900  0.652900  1
  C  C6577  1  0.383100  0.343100  0.652900  1
  C  C6578  1  0.383100  0.156900  0.847100  1
  C  C6579  1  0.116900  0.656900  0.152900  1
  C  C6580  1  0.116900  0.843100  0.347100  1
  C  C6581  1  0.629900  0.688500  0.346000  1
  C  C6582  1  0.629900  0.811500  0.154000  1
  C  C6583  1  0.870100  0.311500  0.846000  1
  C  C6584  1  0.870100  0.188500  0.654000  1
  C  C6585  1  0.370100  0.311500  0.654000  1
  C  C6586  1  0.370100  0.188500  0.846000  1
  C  C6587  1  0.129900  0.688500  0.154000  1
  C  C6588  1  0.129900  0.811500  0.346000  1
  C  C6589  1  0.596300  0.707900  0.344200  1
  C  C6590  1  0.596300  0.792100  0.155800  1
  C  C6591  1  0.903700  0.292100  0.844200  1
  C  C6592  1  0.903700  0.207900  0.655800  1
  C  C6593  1  0.403700  0.292100  0.655800  1
  C  C6594  1  0.403700  0.207900  0.844200  1
  C  C6595  1  0.096300  0.707900  0.155800  1
  C  C6596  1  0.096300  0.792100  0.344200  1
  C  C6597  1  0.938200  0.416400  0.652040  1
  C  C6598  1  0.938200  0.083600  0.847960  1
  C  C6599  1  0.561800  0.583600  0.152040  1
  C  C6600  1  0.561800  0.916400  0.347960  1
  C  C6601  1  0.061800  0.583600  0.347960  1
  C  C6602  1  0.061800  0.916400  0.152040  1
  C  C6603  1  0.438200  0.416400  0.847960  1
  C  C6604  1  0.438200  0.083600  0.652040  1
  C  C6605  1  0.972200  0.426100  0.644140  1
  C  C6606  1  0.972200  0.073900  0.855860  1
  C  C6607  1  0.527800  0.573900  0.144140  1
  C  C6608  1  0.527800  0.926100  0.355860  1
  C  C6609  1  0.027800  0.573900  0.355860  1
  C  C6610  1  0.027800  0.926100  0.144140  1
  C  C6611  1  0.472200  0.426100  0.855860  1
  C  C6612  1  0.472200  0.073900  0.644140  1
  C  C6613  1  0.981300  0.421700  0.622310  1
  C  C6614  1  0.981300  0.078300  0.877690  1
  C  C6615  1  0.518700  0.578300  0.122310  1
  C  C6616  1  0.518700  0.921700  0.377690  1
  C  C6617  1  0.018700  0.578300  0.377690  1
  C  C6618  1  0.018700  0.921700  0.122310  1
  C  C6619  1  0.481300  0.421700  0.877690  1
  C  C6620  1  0.481300  0.078300  0.622310  1
  C  C6621  1  0.955100  0.406940  0.609140  1
  C  C6622  1  0.955100  0.093060  0.890860  1
  C  C6623  1  0.544900  0.593060  0.109140  1
  C  C6624  1  0.544900  0.906940  0.390860  1
  C  C6625  1  0.044900  0.593060  0.390860  1
  C  C6626  1  0.044900  0.906940  0.109140  1
  C  C6627  1  0.455100  0.406940  0.890860  1
  C  C6628  1  0.455100  0.093060  0.609140  1
  C  C6629  1  0.921300  0.397850  0.618570  1
  C  C6630  1  0.921300  0.102150  0.881430  1
  C  C6631  1  0.578700  0.602150  0.118570  1
  C  C6632  1  0.578700  0.897850  0.381430  1
  C  C6633  1  0.078700  0.602150  0.381430  1
  C  C6634  1  0.078700  0.897850  0.118570  1
  C  C6635  1  0.421300  0.397850  0.881430  1
  C  C6636  1  0.421300  0.102150  0.618570  1
  C  C6637  1  0.964300  0.399430  0.586820  1
  C  C6638  1  0.964300  0.100570  0.913180  1
  C  C6639  1  0.535700  0.600570  0.086820  1
  C  C6640  1  0.535700  0.899430  0.413180  1
  C  C6641  1  0.035700  0.600570  0.413180  1
  C  C6642  1  0.035700  0.899430  0.086820  1
  C  C6643  1  0.464300  0.399430  0.913180  1
  C  C6644  1  0.464300  0.100570  0.586820  1
  C  C6645  1  0.972100  0.391180  0.568770  1
  C  C6646  1  0.972100  0.108820  0.931230  1
  C  C6647  1  0.527900  0.608820  0.068770  1
  C  C6648  1  0.527900  0.891180  0.431230  1
  C  C6649  1  0.027900  0.608820  0.431230  1
  C  C6650  1  0.027900  0.891180  0.068770  1
  C  C6651  1  0.472100  0.391180  0.931230  1
  C  C6652  1  0.472100  0.108820  0.568770  1
  C  C6653  1  0.985000  0.379390  0.548370  1
  C  C6654  1  0.985000  0.120610  0.951630  1
  C  C6655  1  0.515000  0.620610  0.048370  1
  C  C6656  1  0.515000  0.879390  0.451630  1
  C  C6657  1  0.015000  0.620610  0.451630  1
  C  C6658  1  0.015000  0.879390  0.048370  1
  C  C6659  1  0.485000  0.379390  0.951630  1
  C  C6660  1  0.485000  0.120610  0.548370  1
  C  C6661  1  0.024100  0.379130  0.543560  1
  C  C6662  1  0.024100  0.120870  0.956440  1
  C  C6663  1  0.475900  0.620870  0.043560  1
  C  C6664  1  0.475900  0.879130  0.456440  1
  C  C6665  1  0.975900  0.620870  0.456440  1
  C  C6666  1  0.975900  0.879130  0.043560  1
  C  C6667  1  0.524100  0.379130  0.956440  1
  C  C6668  1  0.524100  0.120870  0.543560  1
  C  C6669  1  0.038000  0.366490  0.524670  1
  C  C6670  1  0.038000  0.133510  0.975330  1
  C  C6671  1  0.462000  0.633510  0.024670  1
  C  C6672  1  0.462000  0.866490  0.475330  1
  C  C6673  1  0.962000  0.633510  0.475330  1
  C  C6674  1  0.962000  0.866490  0.024670  1
  C  C6675  1  0.538000  0.366490  0.975330  1
  C  C6676  1  0.538000  0.133510  0.524670  1
  C  C6677  1  0.011000  0.354060  0.510680  1
  C  C6678  1  0.011000  0.145940  0.989320  1
  C  C6679  1  0.489000  0.645940  0.010680  1
  C  C6680  1  0.489000  0.854060  0.489320  1
  C  C6681  1  0.989000  0.645940  0.489320  1
  C  C6682  1  0.989000  0.854060  0.010680  1
  C  C6683  1  0.511000  0.354060  0.989320  1
  C  C6684  1  0.511000  0.145940  0.510680  1
  C  C6685  1  0.971100  0.354420  0.515150  1
  C  C6686  1  0.971100  0.145580  0.984850  1
  C  C6687  1  0.528900  0.645580  0.015150  1
  C  C6688  1  0.528900  0.854420  0.484850  1
  C  C6689  1  0.028900  0.645580  0.484850  1
  C  C6690  1  0.028900  0.854420  0.015150  1
  C  C6691  1  0.471100  0.354420  0.984850  1
  C  C6692  1  0.471100  0.145580  0.515150  1
  C  C6693  1  0.957900  0.367110  0.534330  1
  C  C6694  1  0.957900  0.132890  0.965670  1
  C  C6695  1  0.542100  0.632890  0.034330  1
  C  C6696  1  0.542100  0.867110  0.465670  1
  C  C6697  1  0.042100  0.632890  0.465670  1
  C  C6698  1  0.042100  0.867110  0.034330  1
  C  C6699  1  0.457900  0.367110  0.965670  1
  C  C6700  1  0.457900  0.132890  0.534330  1
  C  C6701  1  0.982170  0.330590  0.482900  1
  C  C6702  1  0.982170  0.169410  0.017100  1
  C  C6703  1  0.517830  0.669410  0.982900  1
  C  C6704  1  0.517830  0.830590  0.517100  1
  C  C6705  1  0.017830  0.669410  0.517100  1
  C  C6706  1  0.017830  0.830590  0.982900  1
  C  C6707  1  0.482170  0.330590  0.017100  1
  C  C6708  1  0.482170  0.169410  0.482900  1
  C  C6709  1  0.974100  0.316100  0.463590  1
  C  C6710  1  0.974100  0.183900  0.036410  1
  C  C6711  1  0.525900  0.683900  0.963590  1
  C  C6712  1  0.525900  0.816100  0.536410  1
  C  C6713  1  0.025900  0.683900  0.536410  1
  C  C6714  1  0.025900  0.816100  0.963590  1
  C  C6715  1  0.474100  0.316100  0.036410  1
  C  C6716  1  0.474100  0.183900  0.463590  1
  C  C6717  1  0.936600  0.310840  0.458710  1
  C  C6718  1  0.936600  0.189160  0.041290  1
  C  C6719  1  0.563400  0.689160  0.958710  1
  C  C6720  1  0.563400  0.810840  0.541290  1
  C  C6721  1  0.063400  0.689160  0.541290  1
  C  C6722  1  0.063400  0.810840  0.958710  1
  C  C6723  1  0.436600  0.310840  0.041290  1
  C  C6724  1  0.436600  0.189160  0.458710  1
  C  C6725  1  0.906510  0.319080  0.472650  1
  C  C6726  1  0.906510  0.180920  0.027350  1
  C  C6727  1  0.593490  0.680920  0.972650  1
  C  C6728  1  0.593490  0.819080  0.527350  1
  C  C6729  1  0.093490  0.680920  0.527350  1
  C  C6730  1  0.093490  0.819080  0.972650  1
  C  C6731  1  0.406510  0.319080  0.027350  1
  C  C6732  1  0.406510  0.180920  0.472650  1
  C  C6733  1  0.914600  0.333150  0.492180  1
  C  C6734  1  0.914600  0.166850  0.007820  1
  C  C6735  1  0.585400  0.666850  0.992180  1
  C  C6736  1  0.585400  0.833150  0.507820  1
  C  C6737  1  0.085400  0.666850  0.507820  1
  C  C6738  1  0.085400  0.833150  0.992180  1
  C  C6739  1  0.414600  0.333150  0.007820  1
  C  C6740  1  0.414600  0.166850  0.492180  1
  C  C6741  1  0.952780  0.339210  0.497250  1
  C  C6742  1  0.952780  0.160790  0.002750  1
  C  C6743  1  0.547220  0.660790  0.997250  1
  C  C6744  1  0.547220  0.839210  0.502750  1
  C  C6745  1  0.047220  0.660790  0.502750  1
  C  C6746  1  0.047220  0.839210  0.997250  1
  C  C6747  1  0.452780  0.339210  0.002750  1
  C  C6748  1  0.452780  0.160790  0.497250  1
  C  C6749  1  0.867830  0.314170  0.465650  1
  C  C6750  1  0.867830  0.185830  0.034350  1
  C  C6751  1  0.632170  0.685830  0.965650  1
  C  C6752  1  0.632170  0.814170  0.534350  1
  C  C6753  1  0.132170  0.685830  0.534350  1
  C  C6754  1  0.132170  0.814170  0.965650  1
  C  C6755  1  0.367830  0.314170  0.034350  1
  C  C6756  1  0.367830  0.185830  0.465650  1
  C  C6757  1  0.836800  0.310410  0.457860  1
  C  C6758  1  0.836800  0.189590  0.042140  1
  C  C6759  1  0.663200  0.689590  0.957860  1
  C  C6760  1  0.663200  0.810410  0.542140  1
  C  C6761  1  0.163200  0.689590  0.542140  1
  C  C6762  1  0.163200  0.810410  0.957860  1
  C  C6763  1  0.336800  0.310410  0.042140  1
  C  C6764  1  0.336800  0.189590  0.457860  1
  C  C6765  1  0.799350  0.310820  0.448210  1
  C  C6766  1  0.799350  0.189180  0.051790  1
  C  C6767  1  0.700650  0.689180  0.948210  1
  C  C6768  1  0.700650  0.810820  0.551790  1
  C  C6769  1  0.200650  0.689180  0.551790  1
  C  C6770  1  0.200650  0.810820  0.948210  1
  C  C6771  1  0.299350  0.310820  0.051790  1
  C  C6772  1  0.299350  0.189180  0.448210  1
  C  C6773  1  0.786700  0.290430  0.433240  1
  C  C6774  1  0.786700  0.209570  0.066760  1
  C  C6775  1  0.713300  0.709570  0.933240  1
  C  C6776  1  0.713300  0.790430  0.566760  1
  C  C6777  1  0.213300  0.709570  0.566760  1
  C  C6778  1  0.213300  0.790430  0.933240  1
  C  C6779  1  0.286700  0.290430  0.066760  1
  C  C6780  1  0.286700  0.209570  0.433240  1
  C  C6781  1  0.750700  0.293920  0.423550  1
  C  C6782  1  0.750700  0.206080  0.076450  1
  C  C6783  1  0.749300  0.706080  0.923550  1
  C  C6784  1  0.749300  0.793920  0.576450  1
  C  C6785  1  0.249300  0.706080  0.576450  1
  C  C6786  1  0.249300  0.793920  0.923550  1
  C  C6787  1  0.250700  0.293920  0.076450  1
  C  C6788  1  0.250700  0.206080  0.423550  1
  C  C6789  1  0.729600  0.318180  0.428610  1
  C  C6790  1  0.729600  0.181820  0.071390  1
  C  C6791  1  0.770400  0.681820  0.928610  1
  C  C6792  1  0.770400  0.818180  0.571390  1
  C  C6793  1  0.270400  0.681820  0.571390  1
  C  C6794  1  0.270400  0.818180  0.928610  1
  C  C6795  1  0.229600  0.318180  0.071390  1
  C  C6796  1  0.229600  0.181820  0.428610  1
  C  C6797  1  0.775700  0.334210  0.452570  1
  C  C6798  1  0.775700  0.165790  0.047430  1
  C  C6799  1  0.724300  0.665790  0.952570  1
  C  C6800  1  0.724300  0.834210  0.547430  1
  C  C6801  1  0.224300  0.665790  0.547430  1
  C  C6802  1  0.224300  0.834210  0.952570  1
  C  C6803  1  0.275700  0.334210  0.047430  1
  C  C6804  1  0.275700  0.165790  0.452570  1
  C  C6805  1  0.733200  0.272620  0.410030  1
  C  C6806  1  0.733200  0.227380  0.089970  1
  C  C6807  1  0.766800  0.727380  0.910030  1
  C  C6808  1  0.766800  0.772620  0.589970  1
  C  C6809  1  0.266800  0.727380  0.589970  1
  C  C6810  1  0.266800  0.772620  0.910030  1
  C  C6811  1  0.233200  0.272620  0.089970  1
  C  C6812  1  0.233200  0.227380  0.410030  1
  C  C6813  1  0.715100  0.255100  0.400520  1
  C  C6814  1  0.715100  0.244900  0.099480  1
  C  C6815  1  0.784900  0.744900  0.900520  1
  C  C6816  1  0.784900  0.755100  0.599480  1
  C  C6817  1  0.284900  0.744900  0.599480  1
  C  C6818  1  0.284900  0.755100  0.900520  1
  C  C6819  1  0.215100  0.255100  0.099480  1
  C  C6820  1  0.215100  0.244900  0.400520  1
  C  C6821  1  0.691100  0.234200  0.389890  1
  C  C6822  1  0.691100  0.265800  0.110110  1
  C  C6823  1  0.808900  0.765800  0.889890  1
  C  C6824  1  0.808900  0.734200  0.610110  1
  C  C6825  1  0.308900  0.765800  0.610110  1
  C  C6826  1  0.308900  0.734200  0.889890  1
  C  C6827  1  0.191100  0.234200  0.110110  1
  C  C6828  1  0.191100  0.265800  0.389890  1
  C  C6829  1  0.694000  0.205920  0.396330  1
  C  C6830  1  0.694000  0.294080  0.103670  1
  C  C6831  1  0.806000  0.794080  0.896330  1
  C  C6832  1  0.806000  0.705920  0.603670  1
  C  C6833  1  0.306000  0.794080  0.603670  1
  C  C6834  1  0.306000  0.705920  0.896330  1
  C  C6835  1  0.194000  0.205920  0.103670  1
  C  C6836  1  0.194000  0.294080  0.396330  1
  C  C6837  1  0.669300  0.185540  0.388000  1
  C  C6838  1  0.669300  0.314460  0.112000  1
  C  C6839  1  0.830700  0.814460  0.888000  1
  C  C6840  1  0.830700  0.685540  0.612000  1
  C  C6841  1  0.330700  0.814460  0.612000  1
  C  C6842  1  0.330700  0.685540  0.888000  1
  C  C6843  1  0.169300  0.185540  0.112000  1
  C  C6844  1  0.169300  0.314460  0.388000  1
  C  C6845  1  0.641800  0.194430  0.373050  1
  C  C6846  1  0.641800  0.305570  0.126950  1
  C  C6847  1  0.858200  0.805570  0.873050  1
  C  C6848  1  0.858200  0.694430  0.626950  1
  C  C6849  1  0.358200  0.805570  0.626950  1
  C  C6850  1  0.358200  0.694430  0.873050  1
  C  C6851  1  0.141800  0.194430  0.126950  1
  C  C6852  1  0.141800  0.305570  0.373050  1
  C  C6853  1  0.638400  0.223070  0.366120  1
  C  C6854  1  0.638400  0.276930  0.133880  1
  C  C6855  1  0.861600  0.776930  0.866120  1
  C  C6856  1  0.861600  0.723070  0.633880  1
  C  C6857  1  0.361600  0.776930  0.633880  1
  C  C6858  1  0.361600  0.723070  0.866120  1
  C  C6859  1  0.138400  0.223070  0.133880  1
  C  C6860  1  0.138400  0.276930  0.366120  1
  C  C6861  1  0.663600  0.242980  0.374660  1
  C  C6862  1  0.663600  0.257020  0.125340  1
  C  C6863  1  0.836400  0.757020  0.874660  1
  C  C6864  1  0.836400  0.742980  0.625340  1
  C  C6865  1  0.336400  0.757020  0.625340  1
  C  C6866  1  0.336400  0.742980  0.874660  1
  C  C6867  1  0.163600  0.242980  0.125340  1
  C  C6868  1  0.163600  0.257020  0.374660  1
  C  C6869  1  0.591710  0.196180  0.349910  1
  C  C6870  1  0.591710  0.303820  0.150090  1
  C  C6871  1  0.908290  0.803820  0.849910  1
  C  C6872  1  0.908290  0.696180  0.650090  1
  C  C6873  1  0.408290  0.803820  0.650090  1
  C  C6874  1  0.408290  0.696180  0.849910  1
  C  C6875  1  0.091710  0.196180  0.150090  1
  C  C6876  1  0.091710  0.303820  0.349910  1
  C  C6877  1  0.560200  0.189620  0.336700  1
  C  C6878  1  0.560200  0.310380  0.163300  1
  C  C6879  1  0.939800  0.810380  0.836700  1
  C  C6880  1  0.939800  0.689620  0.663300  1
  C  C6881  1  0.439800  0.810380  0.663300  1
  C  C6882  1  0.439800  0.689620  0.836700  1
  C  C6883  1  0.060200  0.189620  0.163300  1
  C  C6884  1  0.060200  0.310380  0.336700  1
  C  C6885  1  0.544700  0.211140  0.324400  1
  C  C6886  1  0.544700  0.288860  0.175600  1
  C  C6887  1  0.955300  0.788860  0.824400  1
  C  C6888  1  0.955300  0.711140  0.675600  1
  C  C6889  1  0.455300  0.788860  0.675600  1
  C  C6890  1  0.455300  0.711140  0.824400  1
  C  C6891  1  0.044700  0.211140  0.175600  1
  C  C6892  1  0.044700  0.288860  0.324400  1
  C  C6893  1  0.559200  0.238470  0.324900  1
  C  C6894  1  0.559200  0.261530  0.175100  1
  C  C6895  1  0.940800  0.761530  0.824900  1
  C  C6896  1  0.940800  0.738470  0.675100  1
  C  C6897  1  0.440800  0.761530  0.675100  1
  C  C6898  1  0.440800  0.738470  0.824900  1
  C  C6899  1  0.059200  0.238470  0.175100  1
  C  C6900  1  0.059200  0.261530  0.324900  1
  C  C6901  1  0.590400  0.245340  0.338320  1
  C  C6902  1  0.590400  0.254660  0.161680  1
  C  C6903  1  0.909600  0.754660  0.838320  1
  C  C6904  1  0.909600  0.745340  0.661680  1
  C  C6905  1  0.409600  0.754660  0.661680  1
  C  C6906  1  0.409600  0.745340  0.838320  1
  C  C6907  1  0.090400  0.245340  0.161680  1
  C  C6908  1  0.090400  0.254660  0.338320  1
  C  C6909  1  0.606500  0.224080  0.351030  1
  C  C6910  1  0.606500  0.275920  0.148970  1
  C  C6911  1  0.893500  0.775920  0.851030  1
  C  C6912  1  0.893500  0.724080  0.648970  1
  C  C6913  1  0.393500  0.775920  0.648970  1
  C  C6914  1  0.393500  0.724080  0.851030  1
  C  C6915  1  0.106500  0.224080  0.148970  1
  C  C6916  1  0.106500  0.275920  0.351030  1
  C  C6917  1  0.543700  0.259800  0.310540  1
  C  C6918  1  0.543700  0.240200  0.189460  1
  C  C6919  1  0.956300  0.740200  0.810540  1
  C  C6920  1  0.956300  0.759800  0.689460  1
  C  C6921  1  0.456300  0.740200  0.689460  1
  C  C6922  1  0.456300  0.759800  0.810540  1
  C  C6923  1  0.043700  0.259800  0.189460  1
  C  C6924  1  0.043700  0.240200  0.310540  1
  C  C6925  1  0.530800  0.275200  0.296980  1
  C  C6926  1  0.530800  0.224800  0.203020  1
  C  C6927  1  0.969200  0.724800  0.796980  1
  C  C6928  1  0.969200  0.775200  0.703020  1
  C  C6929  1  0.469200  0.724800  0.703020  1
  C  C6930  1  0.469200  0.775200  0.796980  1
  C  C6931  1  0.030800  0.275200  0.203020  1
  C  C6932  1  0.030800  0.224800  0.296980  1
  C  C6933  1  0.518000  0.292500  0.278970  1
  C  C6934  1  0.518000  0.207500  0.221030  1
  C  C6935  1  0.982000  0.707500  0.778970  1
  C  C6936  1  0.982000  0.792500  0.721030  1
  C  C6937  1  0.482000  0.707500  0.721030  1
  C  C6938  1  0.482000  0.792500  0.778970  1
  C  C6939  1  0.018000  0.292500  0.221030  1
  C  C6940  1  0.018000  0.207500  0.278970  1
  C  C6941  1  0.487000  0.284600  0.265920  1
  C  C6942  1  0.487000  0.215400  0.234080  1
  C  C6943  1  0.013000  0.715400  0.765920  1
  C  C6944  1  0.013000  0.784600  0.734080  1
  C  C6945  1  0.513000  0.715400  0.734080  1
  C  C6946  1  0.513000  0.784600  0.765920  1
  C  C6947  1  0.987000  0.284600  0.234080  1
  C  C6948  1  0.987000  0.215400  0.265920  1
  C  C6949  1  0.478000  0.301600  0.248200  1
  C  C6950  1  0.478000  0.198400  0.251800  1
  C  C6951  1  0.022000  0.698400  0.748200  1
  C  C6952  1  0.022000  0.801600  0.751800  1
  C  C6953  1  0.522000  0.698400  0.751800  1
  C  C6954  1  0.522000  0.801600  0.748200  1
  C  C6955  1  0.978000  0.301600  0.251800  1
  C  C6956  1  0.978000  0.198400  0.248200  1
  C  C6957  1  0.499000  0.326000  0.244570  1
  C  C6958  1  0.499000  0.174000  0.255430  1
  C  C6959  1  0.001000  0.674000  0.744570  1
  C  C6960  1  0.001000  0.826000  0.755430  1
  C  C6961  1  0.501000  0.674000  0.755430  1
  C  C6962  1  0.501000  0.826000  0.744570  1
  C  C6963  1  0.999000  0.326000  0.255430  1
  C  C6964  1  0.999000  0.174000  0.244570  1
  C  C6965  1  0.537700  0.317300  0.273610  1
  C  C6966  1  0.537700  0.182700  0.226390  1
  C  C6967  1  0.962300  0.682700  0.773610  1
  C  C6968  1  0.962300  0.817300  0.726390  1
  C  C6969  1  0.462300  0.682700  0.726390  1
  C  C6970  1  0.462300  0.817300  0.773610  1
  C  C6971  1  0.037700  0.317300  0.226390  1
  C  C6972  1  0.037700  0.182700  0.273610  1
  C  C6973  1  0.055100  0.333000  0.481970  1
  C  C6974  1  0.055100  0.167000  0.018030  1
  C  C6975  1  0.444900  0.667000  0.981970  1
  C  C6976  1  0.444900  0.833000  0.518030  1
  C  C6977  1  0.944900  0.667000  0.518030  1
  C  C6978  1  0.944900  0.833000  0.981970  1
  C  C6979  1  0.555100  0.333000  0.018030  1
  C  C6980  1  0.555100  0.167000  0.481970  1
  C  C6981  1  0.730300  0.105900  0.287200  1
  C  C6982  1  0.730300  0.394100  0.212800  1
  C  C6983  1  0.769700  0.894100  0.787200  1
  C  C6984  1  0.769700  0.605900  0.712800  1
  C  C6985  1  0.269700  0.894100  0.712800  1
  C  C6986  1  0.269700  0.605900  0.787200  1
  C  C6987  1  0.230300  0.105900  0.212800  1
  C  C6988  1  0.230300  0.394100  0.287200  1
  C  C6989  1  0.709500  0.130100  0.299800  1
  C  C6990  1  0.709500  0.369900  0.200200  1
  C  C6991  1  0.790500  0.869900  0.799800  1
  C  C6992  1  0.790500  0.630100  0.700200  1
  C  C6993  1  0.290500  0.869900  0.700200  1
  C  C6994  1  0.290500  0.630100  0.799800  1
  C  C6995  1  0.209500  0.130100  0.200200  1
  C  C6996  1  0.209500  0.369900  0.299800  1
  C  C6997  1  0.679500  0.117200  0.316500  1
  C  C6998  1  0.679500  0.382800  0.183500  1
  C  C6999  1  0.820500  0.882800  0.816500  1
  C  C7000  1  0.820500  0.617200  0.683500  1
  C  C7001  1  0.320500  0.882800  0.683500  1
  C  C7002  1  0.320500  0.617200  0.816500  1
  C  C7003  1  0.179500  0.117200  0.183500  1
  C  C7004  1  0.179500  0.382800  0.316500  1
  C  C7005  1  0.665200  0.135000  0.335500  1
  C  C7006  1  0.665200  0.365000  0.164500  1
  C  C7007  1  0.834800  0.865000  0.835500  1
  C  C7008  1  0.834800  0.635000  0.664500  1
  C  C7009  1  0.334800  0.865000  0.664500  1
  C  C7010  1  0.334800  0.635000  0.835500  1
  C  C7011  1  0.165200  0.135000  0.164500  1
  C  C7012  1  0.165200  0.365000  0.335500  1
  C  C7013  1  0.067800  0.304200  0.488400  1
  C  C7014  1  0.067800  0.195800  0.011600  1
  C  C7015  1  0.432200  0.695800  0.988400  1
  C  C7016  1  0.432200  0.804200  0.511600  1
  C  C7017  1  0.932200  0.695800  0.511600  1
  C  C7018  1  0.932200  0.804200  0.988400  1
  C  C7019  1  0.567800  0.304200  0.011600  1
  C  C7020  1  0.567800  0.195800  0.488400  1
  C  C7021  1  0.061900  0.291200  0.508000  1
  C  C7022  1  0.061900  0.208800  0.992000  1
  C  C7023  1  0.438100  0.708800  0.008000  1
  C  C7024  1  0.438100  0.791200  0.492000  1
  C  C7025  1  0.938100  0.708800  0.492000  1
  C  C7026  1  0.938100  0.791200  0.008000  1
  C  C7027  1  0.561900  0.291200  0.992000  1
  C  C7028  1  0.561900  0.208800  0.508000  1
  C  C7029  1  0.065600  0.257700  0.509100  1
  C  C7030  1  0.065600  0.242300  0.990900  1
  C  C7031  1  0.434400  0.742300  0.009100  1
  C  C7032  1  0.434400  0.757700  0.490900  1
  C  C7033  1  0.934400  0.742300  0.490900  1
  C  C7034  1  0.934400  0.757700  0.009100  1
  C  C7035  1  0.565600  0.257700  0.990900  1
  C  C7036  1  0.565600  0.242300  0.509100  1
  C  C7037  1  0.062200  0.248200  0.531700  1
  C  C7038  1  0.062200  0.251800  0.968300  1
  C  C7039  1  0.437800  0.751800  0.031700  1
  C  C7040  1  0.437800  0.748200  0.468300  1
  C  C7041  1  0.937800  0.751800  0.468300  1
  C  C7042  1  0.937800  0.748200  0.031700  1
  C  C7043  1  0.562200  0.248200  0.968300  1
  C  C7044  1  0.562200  0.251800  0.531700  1
  C  C7045  1  0.062700  0.216200  0.533300  1
  C  C7046  1  0.062700  0.283800  0.966700  1
  C  C7047  1  0.437300  0.783800  0.033300  1
  C  C7048  1  0.437300  0.716200  0.466700  1
  C  C7049  1  0.937300  0.783800  0.466700  1
  C  C7050  1  0.937300  0.716200  0.033300  1
  C  C7051  1  0.562700  0.216200  0.966700  1
  C  C7052  1  0.562700  0.283800  0.533300  1
  C  C7053  1  0.608700  0.147580  0.364580  1
  C  C7054  1  0.608700  0.352420  0.135420  1
  C  C7055  1  0.891300  0.852420  0.864580  1
  C  C7056  1  0.891300  0.647580  0.635420  1
  C  C7057  1  0.391300  0.852420  0.635420  1
  C  C7058  1  0.391300  0.647580  0.864580  1
  C  C7059  1  0.108700  0.147580  0.135420  1
  C  C7060  1  0.108700  0.352420  0.364580  1
  C  C7061  1  0.629500  0.131200  0.347000  1
  C  C7062  1  0.629500  0.368800  0.153000  1
  C  C7063  1  0.870500  0.868800  0.847000  1
  C  C7064  1  0.870500  0.631200  0.653000  1
  C  C7065  1  0.370500  0.868800  0.653000  1
  C  C7066  1  0.370500  0.631200  0.847000  1
  C  C7067  1  0.129500  0.131200  0.153000  1
  C  C7068  1  0.129500  0.368800  0.347000  1
  N  N7069  1  0.973100  0.555670  0.622420  1
  N  N7070  1  0.973100  0.944330  0.877580  1
  N  N7071  1  0.526900  0.444330  0.122420  1
  N  N7072  1  0.526900  0.055670  0.377580  1
  N  N7073  1  0.026900  0.444330  0.377580  1
  N  N7074  1  0.026900  0.055670  0.122420  1
  N  N7075  1  0.473100  0.555670  0.877580  1
  N  N7076  1  0.473100  0.944330  0.622420  1
  N  N7077  1  0.835950  0.400920  0.535790  1
  N  N7078  1  0.835950  0.099080  0.964210  1
  N  N7079  1  0.664050  0.599080  0.035790  1
  N  N7080  1  0.664050  0.900920  0.464210  1
  N  N7081  1  0.164050  0.599080  0.464210  1
  N  N7082  1  0.164050  0.900920  0.035790  1
  N  N7083  1  0.335950  0.400920  0.964210  1
  N  N7084  1  0.335950  0.099080  0.535790  1
  N  N7085  1  0.948620  0.342340  0.390440  1
  N  N7086  1  0.948620  0.157660  0.109560  1
  N  N7087  1  0.551380  0.657660  0.890440  1
  N  N7088  1  0.551380  0.842340  0.609560  1
  N  N7089  1  0.051380  0.657660  0.609560  1
  N  N7090  1  0.051380  0.842340  0.890440  1
  N  N7091  1  0.448620  0.342340  0.109560  1
  N  N7092  1  0.448620  0.157660  0.390440  1
  N  N7093  1  0.922700  0.431200  0.754940  1
  N  N7094  1  0.922700  0.068800  0.745060  1
  N  N7095  1  0.577300  0.568800  0.254940  1
  N  N7096  1  0.577300  0.931200  0.245060  1
  N  N7097  1  0.077300  0.568800  0.245060  1
  N  N7098  1  0.077300  0.931200  0.254940  1
  N  N7099  1  0.422700  0.431200  0.745060  1
  N  N7100  1  0.422700  0.068800  0.754940  1
  N  N7101  1  0.670300  0.336300  0.341500  1
  N  N7102  1  0.670300  0.163700  0.158500  1
  N  N7103  1  0.829700  0.663700  0.841500  1
  N  N7104  1  0.829700  0.836300  0.658500  1
  N  N7105  1  0.329700  0.663700  0.658500  1
  N  N7106  1  0.329700  0.836300  0.841500  1
  N  N7107  1  0.170300  0.336300  0.158500  1
  N  N7108  1  0.170300  0.163700  0.341500  1
  N  N7109  1  0.088370  0.331930  0.594840  1
  N  N7110  1  0.088370  0.168070  0.905160  1
  N  N7111  1  0.411630  0.668070  0.094840  1
  N  N7112  1  0.411630  0.831930  0.405160  1
  N  N7113  1  0.911630  0.668070  0.405160  1
  N  N7114  1  0.911630  0.831930  0.094840  1
  N  N7115  1  0.588370  0.331930  0.905160  1
  N  N7116  1  0.588370  0.168070  0.594840  1
  N  N7117  1  0.816740  0.343310  0.543130  1
  N  N7118  1  0.816740  0.156690  0.956870  1
  N  N7119  1  0.683260  0.656690  0.043130  1
  N  N7120  1  0.683260  0.843310  0.456870  1
  N  N7121  1  0.183260  0.656690  0.456870  1
  N  N7122  1  0.183260  0.843310  0.043130  1
  N  N7123  1  0.316740  0.343310  0.956870  1
  N  N7124  1  0.316740  0.156690  0.543130  1
  N  N7125  1  0.677520  0.186160  0.464730  1
  N  N7126  1  0.677520  0.313840  0.035270  1
  N  N7127  1  0.822480  0.813840  0.964730  1
  N  N7128  1  0.822480  0.686160  0.535270  1
  N  N7129  1  0.322480  0.813840  0.535270  1
  N  N7130  1  0.322480  0.686160  0.964730  1
  N  N7131  1  0.177520  0.186160  0.035270  1
  N  N7132  1  0.177520  0.313840  0.464730  1
  N  N7133  1  0.982400  0.400500  0.742830  1
  N  N7134  1  0.982400  0.099500  0.757170  1
  N  N7135  1  0.517600  0.599500  0.242830  1
  N  N7136  1  0.517600  0.900500  0.257170  1
  N  N7137  1  0.017600  0.599500  0.257170  1
  N  N7138  1  0.017600  0.900500  0.242830  1
  N  N7139  1  0.482400  0.400500  0.757170  1
  N  N7140  1  0.482400  0.099500  0.742830  1
  N  N7141  1  0.595900  0.341920  0.359710  1
  N  N7142  1  0.595900  0.158080  0.140290  1
  N  N7143  1  0.904100  0.658080  0.859710  1
  N  N7144  1  0.904100  0.841920  0.640290  1
  N  N7145  1  0.404100  0.658080  0.640290  1
  N  N7146  1  0.404100  0.841920  0.859710  1
  N  N7147  1  0.095900  0.341920  0.140290  1
  N  N7148  1  0.095900  0.158080  0.359710  1
  N  N7149  1  0.764000  0.206130  0.677390  1
  N  N7150  1  0.764000  0.293870  0.822610  1
  N  N7151  1  0.736000  0.793870  0.177390  1
  N  N7152  1  0.736000  0.706130  0.322610  1
  N  N7153  1  0.236000  0.793870  0.322610  1
  N  N7154  1  0.236000  0.706130  0.177390  1
  N  N7155  1  0.264000  0.206130  0.822610  1
  N  N7156  1  0.264000  0.293870  0.677390  1
  N  N7157  1  0.742740  0.359610  0.559120  1
  N  N7158  1  0.742740  0.140390  0.940880  1
  N  N7159  1  0.757260  0.640390  0.059120  1
  N  N7160  1  0.757260  0.859610  0.440880  1
  N  N7161  1  0.257260  0.640390  0.440880  1
  N  N7162  1  0.257260  0.859610  0.059120  1
  N  N7163  1  0.242740  0.359610  0.940880  1
  N  N7164  1  0.242740  0.140390  0.559120  1
  N  N7165  1  0.472900  0.389400  0.502350  1
  N  N7166  1  0.472900  0.110600  0.997650  1
  N  N7167  1  0.027100  0.610600  0.002350  1
  N  N7168  1  0.027100  0.889400  0.497650  1
  N  N7169  1  0.527100  0.610600  0.497650  1
  N  N7170  1  0.527100  0.889400  0.002350  1
  N  N7171  1  0.972900  0.389400  0.997650  1
  N  N7172  1  0.972900  0.110600  0.502350  1
  N  N7173  1  0.941200  0.349600  0.753700  1
  N  N7174  1  0.941200  0.150400  0.746300  1
  N  N7175  1  0.558800  0.650400  0.253700  1
  N  N7176  1  0.558800  0.849600  0.246300  1
  N  N7177  1  0.058800  0.650400  0.246300  1
  N  N7178  1  0.058800  0.849600  0.253700  1
  N  N7179  1  0.441200  0.349600  0.746300  1
  N  N7180  1  0.441200  0.150400  0.753700  1
  N  N7181  1  0.601300  0.401820  0.356060  1
  N  N7182  1  0.601300  0.098180  0.143940  1
  N  N7183  1  0.898700  0.598180  0.856060  1
  N  N7184  1  0.898700  0.901820  0.643940  1
  N  N7185  1  0.398700  0.598180  0.643940  1
  N  N7186  1  0.398700  0.901820  0.856060  1
  N  N7187  1  0.101300  0.401820  0.143940  1
  N  N7188  1  0.101300  0.098180  0.356060  1
  N  N7189  1  0.618800  0.430000  0.689110  1
  N  N7190  1  0.618800  0.070000  0.810890  1
  N  N7191  1  0.881200  0.570000  0.189110  1
  N  N7192  1  0.881200  0.930000  0.310890  1
  N  N7193  1  0.381200  0.570000  0.310890  1
  N  N7194  1  0.381200  0.930000  0.189110  1
  N  N7195  1  0.118800  0.430000  0.810890  1
  N  N7196  1  0.118800  0.070000  0.689110  1
  N  N7197  1  0.762800  0.418230  0.550720  1
  N  N7198  1  0.762800  0.081770  0.949280  1
  N  N7199  1  0.737200  0.581770  0.050720  1
  N  N7200  1  0.737200  0.918230  0.449280  1
  N  N7201  1  0.237200  0.581770  0.449280  1
  N  N7202  1  0.237200  0.918230  0.050720  1
  N  N7203  1  0.262800  0.418230  0.949280  1
  N  N7204  1  0.262800  0.081770  0.550720  1
  N  N7205  1  0.785400  0.559300  0.428750  1
  N  N7206  1  0.785400  0.940700  0.071250  1
  N  N7207  1  0.714600  0.440700  0.928750  1
  N  N7208  1  0.714600  0.059300  0.571250  1
  N  N7209  1  0.214600  0.440700  0.571250  1
  N  N7210  1  0.214600  0.059300  0.928750  1
  N  N7211  1  0.285400  0.559300  0.071250  1
  N  N7212  1  0.285400  0.940700  0.428750  1
  N  N7213  1  0.877900  0.381900  0.764400  1
  N  N7214  1  0.877900  0.118100  0.735600  1
  N  N7215  1  0.622100  0.618100  0.264400  1
  N  N7216  1  0.622100  0.881900  0.235600  1
  N  N7217  1  0.122100  0.618100  0.235600  1
  N  N7218  1  0.122100  0.881900  0.264400  1
  N  N7219  1  0.377900  0.381900  0.735600  1
  N  N7220  1  0.377900  0.118100  0.764400  1
  N  N7221  1  0.675800  0.395650  0.337220  1
  N  N7222  1  0.675800  0.104350  0.162780  1
  N  N7223  1  0.824200  0.604350  0.837220  1
  N  N7224  1  0.824200  0.895650  0.662780  1
  N  N7225  1  0.324200  0.604350  0.662780  1
  N  N7226  1  0.324200  0.895650  0.837220  1
  N  N7227  1  0.175800  0.395650  0.162780  1
  N  N7228  1  0.175800  0.104350  0.337220  1
  N  N7229  1  0.878130  0.555930  0.527680  1
  N  N7230  1  0.878130  0.944070  0.972320  1
  N  N7231  1  0.621870  0.444070  0.027680  1
  N  N7232  1  0.621870  0.055930  0.472320  1
  N  N7233  1  0.121870  0.444070  0.472320  1
  N  N7234  1  0.121870  0.055930  0.027680  1
  N  N7235  1  0.378130  0.555930  0.972320  1
  N  N7236  1  0.378130  0.944070  0.527680  1
  N  N7237  1  0.752080  0.396850  0.439140  1
  N  N7238  1  0.752080  0.103150  0.060860  1
  N  N7239  1  0.747920  0.603150  0.939140  1
  N  N7240  1  0.747920  0.896850  0.560860  1
  N  N7241  1  0.247920  0.603150  0.560860  1
  N  N7242  1  0.247920  0.896850  0.939140  1
  N  N7243  1  0.252080  0.396850  0.060860  1
  N  N7244  1  0.252080  0.103150  0.439140  1
  N  N7245  1  0.873220  0.346500  0.295490  1
  N  N7246  1  0.873220  0.153500  0.204510  1
  N  N7247  1  0.626780  0.653500  0.795490  1
  N  N7248  1  0.626780  0.846500  0.704510  1
  N  N7249  1  0.126780  0.653500  0.704510  1
  N  N7250  1  0.126780  0.846500  0.795490  1
  N  N7251  1  0.373220  0.346500  0.204510  1
  N  N7252  1  0.373220  0.153500  0.295490  1
  N  N7253  1  0.843000  0.423690  0.655680  1
  N  N7254  1  0.843000  0.076310  0.844320  1
  N  N7255  1  0.657000  0.576310  0.155680  1
  N  N7256  1  0.657000  0.923690  0.344320  1
  N  N7257  1  0.157000  0.576310  0.344320  1
  N  N7258  1  0.157000  0.923690  0.155680  1
  N  N7259  1  0.343000  0.423690  0.844320  1
  N  N7260  1  0.343000  0.076310  0.655680  1
  N  N7261  1  0.600800  0.342820  0.238110  1
  N  N7262  1  0.600800  0.157180  0.261890  1
  N  N7263  1  0.899200  0.657180  0.738110  1
  N  N7264  1  0.899200  0.842820  0.761890  1
  N  N7265  1  0.399200  0.657180  0.761890  1
  N  N7266  1  0.399200  0.842820  0.738110  1
  N  N7267  1  0.100800  0.342820  0.261890  1
  N  N7268  1  0.100800  0.157180  0.238110  1
  N  N7269  1  0.739600  0.190090  0.569070  1
  N  N7270  1  0.739600  0.309910  0.930930  1
  N  N7271  1  0.760400  0.809910  0.069070  1
  N  N7272  1  0.760400  0.690090  0.430930  1
  N  N7273  1  0.260400  0.809910  0.430930  1
  N  N7274  1  0.260400  0.690090  0.069070  1
  N  N7275  1  0.239600  0.190090  0.930930  1
  N  N7276  1  0.239600  0.309910  0.569070  1
  N  N7277  1  0.668200  0.345950  0.462290  1
  N  N7278  1  0.668200  0.154050  0.037710  1
  N  N7279  1  0.831800  0.654050  0.962290  1
  N  N7280  1  0.831800  0.845950  0.537710  1
  N  N7281  1  0.331800  0.654050  0.537710  1
  N  N7282  1  0.331800  0.845950  0.962290  1
  N  N7283  1  0.168200  0.345950  0.037710  1
  N  N7284  1  0.168200  0.154050  0.462290  1
  N  N7285  1  0.394700  0.372100  0.410980  1
  N  N7286  1  0.394700  0.127900  0.089020  1
  N  N7287  1  0.105300  0.627900  0.910980  1
  N  N7288  1  0.105300  0.872100  0.589020  1
  N  N7289  1  0.605300  0.627900  0.589020  1
  N  N7290  1  0.605300  0.872100  0.910980  1
  N  N7291  1  0.894700  0.372100  0.089020  1
  N  N7292  1  0.894700  0.127900  0.410980  1
  N  N7293  1  0.887600  0.346260  0.647930  1
  N  N7294  1  0.887600  0.153740  0.852070  1
  N  N7295  1  0.612400  0.653740  0.147930  1
  N  N7296  1  0.612400  0.846260  0.352070  1
  N  N7297  1  0.112400  0.653740  0.352070  1
  N  N7298  1  0.112400  0.846260  0.147930  1
  N  N7299  1  0.387600  0.346260  0.852070  1
  N  N7300  1  0.387600  0.153740  0.647930  1
  N  N7301  1  0.520300  0.393500  0.260460  1
  N  N7302  1  0.520300  0.106500  0.239540  1
  N  N7303  1  0.979700  0.606500  0.760460  1
  N  N7304  1  0.979700  0.893500  0.739540  1
  N  N7305  1  0.479700  0.606500  0.739540  1
  N  N7306  1  0.479700  0.893500  0.760460  1
  N  N7307  1  0.020300  0.393500  0.239540  1
  N  N7308  1  0.020300  0.106500  0.260460  1
  N  N7309  1  0.547100  0.399300  0.604880  1
  N  N7310  1  0.547100  0.100700  0.895120  1
  N  N7311  1  0.952900  0.600700  0.104880  1
  N  N7312  1  0.952900  0.899300  0.395120  1
  N  N7313  1  0.452900  0.600700  0.395120  1
  N  N7314  1  0.452900  0.899300  0.104880  1
  N  N7315  1  0.047100  0.399300  0.895120  1
  N  N7316  1  0.047100  0.100700  0.604880  1
  N  N7317  1  0.678700  0.405500  0.459380  1
  N  N7318  1  0.678700  0.094500  0.040620  1
  N  N7319  1  0.821300  0.594500  0.959380  1
  N  N7320  1  0.821300  0.905500  0.540620  1
  N  N7321  1  0.321300  0.594500  0.540620  1
  N  N7322  1  0.321300  0.905500  0.959380  1
  N  N7323  1  0.178700  0.405500  0.040620  1
  N  N7324  1  0.178700  0.094500  0.459380  1
  N  N7325  1  0.679100  0.559960  0.349990  1
  N  N7326  1  0.679100  0.940040  0.150010  1
  N  N7327  1  0.820900  0.440040  0.849990  1
  N  N7328  1  0.820900  0.059960  0.650010  1
  N  N7329  1  0.320900  0.440040  0.650010  1
  N  N7330  1  0.320900  0.059960  0.849990  1
  N  N7331  1  0.179100  0.559960  0.150010  1
  N  N7332  1  0.179100  0.940040  0.349990  1
  N  N7333  1  0.817500  0.366950  0.664680  1
  N  N7334  1  0.817500  0.133050  0.835320  1
  N  N7335  1  0.682500  0.633050  0.164680  1
  N  N7336  1  0.682500  0.866950  0.335320  1
  N  N7337  1  0.182500  0.633050  0.335320  1
  N  N7338  1  0.182500  0.866950  0.164680  1
  N  N7339  1  0.317500  0.366950  0.835320  1
  N  N7340  1  0.317500  0.133050  0.664680  1
  N  N7341  1  0.593900  0.401450  0.242350  1
  N  N7342  1  0.593900  0.098550  0.257650  1
  N  N7343  1  0.906100  0.598550  0.742350  1
  N  N7344  1  0.906100  0.901450  0.757650  1
  N  N7345  1  0.406100  0.598550  0.757650  1
  N  N7346  1  0.406100  0.901450  0.742350  1
  N  N7347  1  0.093900  0.401450  0.257650  1
  N  N7348  1  0.093900  0.098550  0.242350  1
  N  N7349  1  0.017110  0.339630  0.491180  1
  N  N7350  1  0.017110  0.160370  0.008820  1
  N  N7351  1  0.482890  0.660370  0.991180  1
  N  N7352  1  0.482890  0.839630  0.508820  1
  N  N7353  1  0.982890  0.660370  0.508820  1
  N  N7354  1  0.982890  0.839630  0.991180  1
  N  N7355  1  0.517110  0.339630  0.008820  1
  N  N7356  1  0.517110  0.160370  0.491180  1
  N  N7357  1  0.741840  0.337440  0.442770  1
  N  N7358  1  0.741840  0.162560  0.057230  1
  N  N7359  1  0.758160  0.662560  0.942770  1
  N  N7360  1  0.758160  0.837440  0.557230  1
  N  N7361  1  0.258160  0.662560  0.557230  1
  N  N7362  1  0.258160  0.837440  0.942770  1
  N  N7363  1  0.241840  0.337440  0.057230  1
  N  N7364  1  0.241840  0.162560  0.442770  1
  N  N7365  1  0.613320  0.178380  0.362890  1
  N  N7366  1  0.613320  0.321620  0.137110  1
  N  N7367  1  0.886680  0.821620  0.862890  1
  N  N7368  1  0.886680  0.678380  0.637110  1
  N  N7369  1  0.386680  0.821620  0.637110  1
  N  N7370  1  0.386680  0.678380  0.862890  1
  N  N7371  1  0.113320  0.178380  0.137110  1
  N  N7372  1  0.113320  0.321620  0.362890  1
  N  N7373  1  0.912800  0.402250  0.639770  1
  N  N7374  1  0.912800  0.097750  0.860230  1
  N  N7375  1  0.587200  0.597750  0.139770  1
  N  N7376  1  0.587200  0.902250  0.360230  1
  N  N7377  1  0.087200  0.597750  0.360230  1
  N  N7378  1  0.087200  0.902250  0.139770  1
  N  N7379  1  0.412800  0.402250  0.860230  1
  N  N7380  1  0.412800  0.097750  0.639770  1
  N  N7381  1  0.528700  0.334370  0.257020  1
  N  N7382  1  0.528700  0.165630  0.242980  1
  N  N7383  1  0.971300  0.665630  0.757020  1
  N  N7384  1  0.971300  0.834370  0.742980  1
  N  N7385  1  0.471300  0.665630  0.742980  1
  N  N7386  1  0.471300  0.834370  0.757020  1
  N  N7387  1  0.028700  0.334370  0.242980  1
  N  N7388  1  0.028700  0.165630  0.257020  1
  Cl  Cl7389  1  0.598220  0.366090  0.300060  1
  Cl  Cl7390  1  0.598220  0.133910  0.199940  1
  Cl  Cl7391  1  0.901780  0.633910  0.800060  1
  Cl  Cl7392  1  0.901780  0.866090  0.699940  1
  Cl  Cl7393  1  0.401780  0.633910  0.699940  1
  Cl  Cl7394  1  0.401780  0.866090  0.800060  1
  Cl  Cl7395  1  0.098220  0.366090  0.199940  1
  Cl  Cl7396  1  0.098220  0.133910  0.300060  1
  Cl  Cl7397  1  0.671620  0.371720  0.401330  1
  Cl  Cl7398  1  0.671620  0.128280  0.098670  1
  Cl  Cl7399  1  0.828380  0.628280  0.901330  1
  Cl  Cl7400  1  0.828380  0.871720  0.598670  1
  Cl  Cl7401  1  0.328380  0.628280  0.598670  1
  Cl  Cl7402  1  0.328380  0.871720  0.901330  1
  Cl  Cl7403  1  0.171620  0.371720  0.098670  1
  Cl  Cl7404  1  0.171620  0.128280  0.401330  1
  Cl  Cl7405  1  0.751150  0.375250  0.498980  1
  Cl  Cl7406  1  0.751150  0.124750  0.001020  1
  Cl  Cl7407  1  0.748850  0.624750  0.998980  1
  Cl  Cl7408  1  0.748850  0.875250  0.501020  1
  Cl  Cl7409  1  0.248850  0.624750  0.501020  1
  Cl  Cl7410  1  0.248850  0.875250  0.998980  1
  Cl  Cl7411  1  0.251150  0.375250  0.001020  1
  Cl  Cl7412  1  0.251150  0.124750  0.498980  1
  Cl  Cl7413  1  0.824510  0.383020  0.599330  1
  Cl  Cl7414  1  0.824510  0.116980  0.900670  1
  Cl  Cl7415  1  0.675490  0.616980  0.099330  1
  Cl  Cl7416  1  0.675490  0.883020  0.400670  1
  Cl  Cl7417  1  0.175490  0.616980  0.400670  1
  Cl  Cl7418  1  0.175490  0.883020  0.099330  1
  Cl  Cl7419  1  0.324510  0.383020  0.900670  1
  Cl  Cl7420  1  0.324510  0.116980  0.599330  1
  Cl  Cl7421  1  0.902480  0.386520  0.701970  1
  Cl  Cl7422  1  0.902480  0.113480  0.798030  1
  Cl  Cl7423  1  0.597520  0.613480  0.201970  1
  Cl  Cl7424  1  0.597520  0.886520  0.298030  1
  Cl  Cl7425  1  0.097520  0.613480  0.298030  1
  Cl  Cl7426  1  0.097520  0.886520  0.201970  1
  Cl  Cl7427  1  0.402480  0.386520  0.798030  1
  Cl  Cl7428  1  0.402480  0.113480  0.701970  1
  F  F7429  1  0.847300  0.636670  0.453240  1
  F  F7430  1  0.847300  0.863330  0.046760  1
  F  F7431  1  0.652700  0.363330  0.953240  1
  F  F7432  1  0.652700  0.136670  0.546760  1
  F  F7433  1  0.152700  0.363330  0.546760  1
  F  F7434  1  0.152700  0.136670  0.953240  1
  F  F7435  1  0.347300  0.636670  0.046760  1
  F  F7436  1  0.347300  0.863330  0.453240  1
  F  F7437  1  0.817200  0.623160  0.483810  1
  F  F7438  1  0.817200  0.876840  0.016190  1
  F  F7439  1  0.682800  0.376840  0.983810  1
  F  F7440  1  0.682800  0.123160  0.516190  1
  F  F7441  1  0.182800  0.376840  0.516190  1
  F  F7442  1  0.182800  0.123160  0.983810  1
  F  F7443  1  0.317200  0.623160  0.016190  1
  F  F7444  1  0.317200  0.876840  0.483810  1
  F  F7445  1  0.876510  0.606280  0.474980  1
  F  F7446  1  0.876510  0.893720  0.025020  1
  F  F7447  1  0.623490  0.393720  0.974980  1
  F  F7448  1  0.623490  0.106280  0.525020  1
  F  F7449  1  0.123490  0.393720  0.525020  1
  F  F7450  1  0.123490  0.106280  0.974980  1
  F  F7451  1  0.376510  0.606280  0.025020  1
  F  F7452  1  0.376510  0.893720  0.474980  1
  F  F7453  1  0.867380  0.651900  0.486140  1
  F  F7454  1  0.867380  0.848100  0.013860  1
  F  F7455  1  0.632620  0.348100  0.986140  1
  F  F7456  1  0.632620  0.151900  0.513860  1
  F  F7457  1  0.132620  0.348100  0.513860  1
  F  F7458  1  0.132620  0.151900  0.986140  1
  F  F7459  1  0.367380  0.651900  0.013860  1
  F  F7460  1  0.367380  0.848100  0.486140  1
  F  F7461  1  0.748100  0.622000  0.383100  1
  F  F7462  1  0.748100  0.878000  0.116900  1
  F  F7463  1  0.751900  0.378000  0.883100  1
  F  F7464  1  0.751900  0.122000  0.616900  1
  F  F7465  1  0.251900  0.378000  0.616900  1
  F  F7466  1  0.251900  0.122000  0.883100  1
  F  F7467  1  0.248100  0.622000  0.116900  1
  F  F7468  1  0.248100  0.878000  0.383100  1
  F  F7469  1  0.805800  0.608000  0.371500  1
  F  F7470  1  0.805800  0.892000  0.128500  1
  F  F7471  1  0.694200  0.392000  0.871500  1
  F  F7472  1  0.694200  0.108000  0.628500  1
  F  F7473  1  0.194200  0.392000  0.628500  1
  F  F7474  1  0.194200  0.108000  0.871500  1
  F  F7475  1  0.305800  0.608000  0.128500  1
  F  F7476  1  0.305800  0.892000  0.371500  1
  F  F7477  1  0.766100  0.624600  0.346800  1
  F  F7478  1  0.766100  0.875400  0.153200  1
  F  F7479  1  0.733900  0.375400  0.846800  1
  F  F7480  1  0.733900  0.124600  0.653200  1
  F  F7481  1  0.233900  0.375400  0.653200  1
  F  F7482  1  0.233900  0.124600  0.846800  1
  F  F7483  1  0.266100  0.624600  0.153200  1
  F  F7484  1  0.266100  0.875400  0.346800  1
  F  F7485  1  0.794600  0.653900  0.373600  1
  F  F7486  1  0.794600  0.846100  0.126400  1
  F  F7487  1  0.705400  0.346100  0.873600  1
  F  F7488  1  0.705400  0.153900  0.626400  1
  F  F7489  1  0.205400  0.346100  0.626400  1
  F  F7490  1  0.205400  0.153900  0.873600  1
  F  F7491  1  0.294600  0.653900  0.126400  1
  F  F7492  1  0.294600  0.846100  0.373600  1
  F  F7493  1  0.927200  0.630800  0.558020  1
  F  F7494  1  0.927200  0.869200  0.941980  1
  F  F7495  1  0.572800  0.369200  0.058020  1
  F  F7496  1  0.572800  0.130800  0.441980  1
  F  F7497  1  0.072800  0.369200  0.441980  1
  F  F7498  1  0.072800  0.130800  0.058020  1
  F  F7499  1  0.427200  0.630800  0.941980  1
  F  F7500  1  0.427200  0.869200  0.558020  1
  F  F7501  1  0.880100  0.628820  0.582370  1
  F  F7502  1  0.880100  0.871180  0.917630  1
  F  F7503  1  0.619900  0.371180  0.082370  1
  F  F7504  1  0.619900  0.128820  0.417630  1
  F  F7505  1  0.119900  0.371180  0.417630  1
  F  F7506  1  0.119900  0.128820  0.082370  1
  F  F7507  1  0.380100  0.628820  0.917630  1
  F  F7508  1  0.380100  0.871180  0.582370  1
  F  F7509  1  0.934400  0.607300  0.591400  1
  F  F7510  1  0.934400  0.892700  0.908600  1
  F  F7511  1  0.565600  0.392700  0.091400  1
  F  F7512  1  0.565600  0.107300  0.408600  1
  F  F7513  1  0.065600  0.392700  0.408600  1
  F  F7514  1  0.065600  0.107300  0.091400  1
  F  F7515  1  0.434400  0.607300  0.908600  1
  F  F7516  1  0.434400  0.892700  0.591400  1
  F  F7517  1  0.932900  0.654000  0.589700  1
  F  F7518  1  0.932900  0.846000  0.910300  1
  F  F7519  1  0.567100  0.346000  0.089700  1
  F  F7520  1  0.567100  0.154000  0.410300  1
  F  F7521  1  0.067100  0.346000  0.410300  1
  F  F7522  1  0.067100  0.154000  0.089700  1
  F  F7523  1  0.432900  0.654000  0.910300  1
  F  F7524  1  0.432900  0.846000  0.589700  1
  F  F7525  1  0.951700  0.622600  0.683000  1
  F  F7526  1  0.951700  0.877400  0.817000  1
  F  F7527  1  0.548300  0.377400  0.183000  1
  F  F7528  1  0.548300  0.122600  0.317000  1
  F  F7529  1  0.048300  0.377400  0.317000  1
  F  F7530  1  0.048300  0.122600  0.183000  1
  F  F7531  1  0.451700  0.622600  0.817000  1
  F  F7532  1  0.451700  0.877400  0.683000  1
  F  F7533  1  0.010200  0.629400  0.670400  1
  F  F7534  1  0.010200  0.870600  0.829600  1
  F  F7535  1  0.489800  0.370600  0.170400  1
  F  F7536  1  0.489800  0.129400  0.329600  1
  F  F7537  1  0.989800  0.370600  0.329600  1
  F  F7538  1  0.989800  0.129400  0.170400  1
  F  F7539  1  0.510200  0.629400  0.829600  1
  F  F7540  1  0.510200  0.870600  0.670400  1
  F  F7541  1  0.002700  0.603700  0.701000  1
  F  F7542  1  0.002700  0.896300  0.799000  1
  F  F7543  1  0.497300  0.396300  0.201000  1
  F  F7544  1  0.497300  0.103700  0.299000  1
  F  F7545  1  0.997300  0.396300  0.299000  1
  F  F7546  1  0.997300  0.103700  0.201000  1
  F  F7547  1  0.502700  0.603700  0.799000  1
  F  F7548  1  0.502700  0.896300  0.701000  1
  F  F7549  1  0.991900  0.651000  0.702600  1
  F  F7550  1  0.991900  0.849000  0.797400  1
  F  F7551  1  0.508100  0.349000  0.202600  1
  F  F7552  1  0.508100  0.151000  0.297400  1
  F  F7553  1  0.008100  0.349000  0.297400  1
  F  F7554  1  0.008100  0.151000  0.202600  1
  F  F7555  1  0.491900  0.651000  0.797400  1
  F  F7556  1  0.491900  0.849000  0.702600  1
  F  F7557  1  0.572300  0.593100  0.318300  1
  F  F7558  1  0.572300  0.906900  0.181700  1
  F  F7559  1  0.927700  0.406900  0.818300  1
  F  F7560  1  0.927700  0.093100  0.681700  1
  F  F7561  1  0.427700  0.406900  0.681700  1
  F  F7562  1  0.427700  0.093100  0.818300  1
  F  F7563  1  0.072300  0.593100  0.181700  1
  F  F7564  1  0.072300  0.906900  0.318300  1
  F  F7565  1  0.518000  0.605200  0.336200  1
  F  F7566  1  0.518000  0.894800  0.163800  1
  F  F7567  1  0.982000  0.394800  0.836200  1
  F  F7568  1  0.982000  0.105200  0.663800  1
  F  F7569  1  0.482000  0.394800  0.663800  1
  F  F7570  1  0.482000  0.105200  0.836200  1
  F  F7571  1  0.018000  0.605200  0.163800  1
  F  F7572  1  0.018000  0.894800  0.336200  1
  F  F7573  1  0.521500  0.607700  0.299600  1
  F  F7574  1  0.521500  0.892300  0.200400  1
  F  F7575  1  0.978500  0.392300  0.799600  1
  F  F7576  1  0.978500  0.107700  0.700400  1
  F  F7577  1  0.478500  0.392300  0.700400  1
  F  F7578  1  0.478500  0.107700  0.799600  1
  F  F7579  1  0.021500  0.607700  0.200400  1
  F  F7580  1  0.021500  0.892300  0.299600  1
  F  F7581  1  0.554000  0.640000  0.318200  1
  F  F7582  1  0.554000  0.860000  0.181800  1
  F  F7583  1  0.946000  0.360000  0.818200  1
  F  F7584  1  0.946000  0.140000  0.681800  1
  F  F7585  1  0.446000  0.360000  0.681800  1
  F  F7586  1  0.446000  0.140000  0.818200  1
  F  F7587  1  0.054000  0.640000  0.181800  1
  F  F7588  1  0.054000  0.860000  0.318200  1
  F  F7589  1  0.810900  0.259900  0.308200  1
  F  F7590  1  0.810900  0.240100  0.191800  1
  F  F7591  1  0.689100  0.740100  0.808200  1
  F  F7592  1  0.689100  0.759900  0.691800  1
  F  F7593  1  0.189100  0.740100  0.691800  1
  F  F7594  1  0.189100  0.759900  0.808200  1
  F  F7595  1  0.310900  0.259900  0.191800  1
  F  F7596  1  0.310900  0.240100  0.308200  1
  F  F7597  1  0.764800  0.228700  0.318600  1
  F  F7598  1  0.764800  0.271300  0.181400  1
  F  F7599  1  0.735200  0.771300  0.818600  1
  F  F7600  1  0.735200  0.728700  0.681400  1
  F  F7601  1  0.235200  0.771300  0.681400  1
  F  F7602  1  0.235200  0.728700  0.818600  1
  F  F7603  1  0.264800  0.228700  0.181400  1
  F  F7604  1  0.264800  0.271300  0.318600  1
  F  F7605  1  0.814400  0.214900  0.295800  1
  F  F7606  1  0.814400  0.285100  0.204200  1
  F  F7607  1  0.685600  0.785100  0.795800  1
  F  F7608  1  0.685600  0.714900  0.704200  1
  F  F7609  1  0.185600  0.785100  0.704200  1
  F  F7610  1  0.185600  0.714900  0.795800  1
  F  F7611  1  0.314400  0.214900  0.204200  1
  F  F7612  1  0.314400  0.285100  0.295800  1
  F  F7613  1  0.768300  0.244100  0.282800  1
  F  F7614  1  0.768300  0.255900  0.217200  1
  F  F7615  1  0.731700  0.755900  0.782800  1
  F  F7616  1  0.731700  0.744100  0.717200  1
  F  F7617  1  0.231700  0.755900  0.717200  1
  F  F7618  1  0.231700  0.744100  0.782800  1
  F  F7619  1  0.268300  0.244100  0.217200  1
  F  F7620  1  0.268300  0.255900  0.282800  1
  F  F7621  1  0.037800  0.470200  0.685500  1
  F  F7622  1  0.037800  0.029800  0.814500  1
  F  F7623  1  0.462200  0.529800  0.185500  1
  F  F7624  1  0.462200  0.970200  0.314500  1
  F  F7625  1  0.962200  0.529800  0.314500  1
  F  F7626  1  0.962200  0.970200  0.185500  1
  F  F7627  1  0.537800  0.470200  0.814500  1
  F  F7628  1  0.537800  0.029800  0.685500  1
  F  F7629  1  0.088500  0.459500  0.663500  1
  F  F7630  1  0.088500  0.040500  0.836500  1
  F  F7631  1  0.411500  0.540500  0.163500  1
  F  F7632  1  0.411500  0.959500  0.336500  1
  F  F7633  1  0.911500  0.540500  0.336500  1
  F  F7634  1  0.911500  0.959500  0.163500  1
  F  F7635  1  0.588500  0.459500  0.836500  1
  F  F7636  1  0.588500  0.040500  0.663500  1
  F  F7637  1  0.081600  0.503900  0.677400  1
  F  F7638  1  0.081600  0.996100  0.822600  1
  F  F7639  1  0.418400  0.496100  0.177400  1
  F  F7640  1  0.418400  0.003900  0.322600  1
  F  F7641  1  0.918400  0.496100  0.322600  1
  F  F7642  1  0.918400  0.003900  0.177400  1
  F  F7643  1  0.581600  0.503900  0.822600  1
  F  F7644  1  0.581600  0.996100  0.677400  1
  F  F7645  1  0.041300  0.487800  0.650700  1
  F  F7646  1  0.041300  0.012200  0.849300  1
  F  F7647  1  0.458700  0.512200  0.150700  1
  F  F7648  1  0.458700  0.987800  0.349300  1
  F  F7649  1  0.958700  0.512200  0.349300  1
  F  F7650  1  0.958700  0.987800  0.150700  1
  F  F7651  1  0.541300  0.487800  0.849300  1
  F  F7652  1  0.541300  0.012200  0.650700  1
  F  F7653  1  0.337300  0.274300  0.414600  1
  F  F7654  1  0.337300  0.225700  0.085400  1
  F  F7655  1  0.162700  0.725700  0.914600  1
  F  F7656  1  0.162700  0.774300  0.585400  1
  F  F7657  1  0.662700  0.725700  0.585400  1
  F  F7658  1  0.662700  0.774300  0.914600  1
  F  F7659  1  0.837300  0.274300  0.085400  1
  F  F7660  1  0.837300  0.225700  0.414600  1
  F  F7661  1  0.382800  0.240200  0.408700  1
  F  F7662  1  0.382800  0.259800  0.091300  1
  F  F7663  1  0.117200  0.759800  0.908700  1
  F  F7664  1  0.117200  0.740200  0.591300  1
  F  F7665  1  0.617200  0.759800  0.591300  1
  F  F7666  1  0.617200  0.740200  0.908700  1
  F  F7667  1  0.882800  0.240200  0.091300  1
  F  F7668  1  0.882800  0.259800  0.408700  1
  F  F7669  1  0.392700  0.287500  0.400000  1
  F  F7670  1  0.392700  0.212500  0.100000  1
  F  F7671  1  0.107300  0.712500  0.900000  1
  F  F7672  1  0.107300  0.787500  0.600000  1
  F  F7673  1  0.607300  0.712500  0.600000  1
  F  F7674  1  0.607300  0.787500  0.900000  1
  F  F7675  1  0.892700  0.287500  0.100000  1
  F  F7676  1  0.892700  0.212500  0.400000  1
  F  F7677  1  0.389900  0.273800  0.435600  1
  F  F7678  1  0.389900  0.226200  0.064400  1
  F  F7679  1  0.110100  0.726200  0.935600  1
  F  F7680  1  0.110100  0.773800  0.564400  1
  F  F7681  1  0.610100  0.726200  0.564400  1
  F  F7682  1  0.610100  0.773800  0.935600  1
  F  F7683  1  0.889900  0.273800  0.064400  1
  F  F7684  1  0.889900  0.226200  0.435600  1
  F  F7685  1  0.859200  0.207100  0.540900  1
  F  F7686  1  0.859200  0.292900  0.959100  1
  F  F7687  1  0.640800  0.792900  0.040900  1
  F  F7688  1  0.640800  0.707100  0.459100  1
  F  F7689  1  0.140800  0.792900  0.459100  1
  F  F7690  1  0.140800  0.707100  0.040900  1
  F  F7691  1  0.359200  0.207100  0.959100  1
  F  F7692  1  0.359200  0.292900  0.540900  1
  F  F7693  1  0.886600  0.181900  0.513800  1
  F  F7694  1  0.886600  0.318100  0.986200  1
  F  F7695  1  0.613400  0.818100  0.013800  1
  F  F7696  1  0.613400  0.681900  0.486200  1
  F  F7697  1  0.113400  0.818100  0.486200  1
  F  F7698  1  0.113400  0.681900  0.013800  1
  F  F7699  1  0.386600  0.181900  0.986200  1
  F  F7700  1  0.386600  0.318100  0.513800  1
  F  F7701  1  0.918300  0.189000  0.545900  1
  F  F7702  1  0.918300  0.311000  0.954100  1
  F  F7703  1  0.581700  0.811000  0.045900  1
  F  F7704  1  0.581700  0.689000  0.454100  1
  F  F7705  1  0.081700  0.811000  0.454100  1
  F  F7706  1  0.081700  0.689000  0.045900  1
  F  F7707  1  0.418300  0.189000  0.954100  1
  F  F7708  1  0.418300  0.311000  0.545900  1
  F  F7709  1  0.910800  0.225800  0.522800  1
  F  F7710  1  0.910800  0.274200  0.977200  1
  F  F7711  1  0.589200  0.774200  0.022800  1
  F  F7712  1  0.589200  0.725800  0.477200  1
  F  F7713  1  0.089200  0.774200  0.477200  1
  F  F7714  1  0.089200  0.725800  0.022800  1
  F  F7715  1  0.410800  0.225800  0.977200  1
  F  F7716  1  0.410800  0.274200  0.522800  1
  F  F7717  1  0.949400  0.612500  0.568600  1
  F  F7718  1  0.949400  0.887500  0.931400  1
  F  F7719  1  0.550600  0.387500  0.068600  1
  F  F7720  1  0.550600  0.112500  0.431400  1
  F  F7721  1  0.050600  0.387500  0.431400  1
  F  F7722  1  0.050600  0.112500  0.068600  1
  F  F7723  1  0.449400  0.612500  0.931400  1
  F  F7724  1  0.449400  0.887500  0.568600  1
  F  F7725  1  0.893100  0.630300  0.563500  1
  F  F7726  1  0.893100  0.869700  0.936500  1
  F  F7727  1  0.606900  0.369700  0.063500  1
  F  F7728  1  0.606900  0.130300  0.436500  1
  F  F7729  1  0.106900  0.369700  0.436500  1
  F  F7730  1  0.106900  0.130300  0.063500  1
  F  F7731  1  0.393100  0.630300  0.936500  1
  F  F7732  1  0.393100  0.869700  0.563500  1
  F  F7733  1  0.909700  0.610400  0.596400  1
  F  F7734  1  0.909700  0.889600  0.903600  1
  F  F7735  1  0.590300  0.389600  0.096400  1
  F  F7736  1  0.590300  0.110400  0.403600  1
  F  F7737  1  0.090300  0.389600  0.403600  1
  F  F7738  1  0.090300  0.110400  0.096400  1
  F  F7739  1  0.409700  0.610400  0.903600  1
  F  F7740  1  0.409700  0.889600  0.596400  1
  F  F7741  1  0.935300  0.654100  0.586000  1
  F  F7742  1  0.935300  0.845900  0.914000  1
  F  F7743  1  0.564700  0.345900  0.086000  1
  F  F7744  1  0.564700  0.154100  0.414000  1
  F  F7745  1  0.064700  0.345900  0.414000  1
  F  F7746  1  0.064700  0.154100  0.086000  1
  F  F7747  1  0.435300  0.654100  0.914000  1
  F  F7748  1  0.435300  0.845900  0.586000  1
  F  F7749  1  0.961600  0.626100  0.698200  1
  F  F7750  1  0.961600  0.873900  0.801800  1
  F  F7751  1  0.538400  0.373900  0.198200  1
  F  F7752  1  0.538400  0.126100  0.301800  1
  F  F7753  1  0.038400  0.373900  0.301800  1
  F  F7754  1  0.038400  0.126100  0.198200  1
  F  F7755  1  0.461600  0.626100  0.801800  1
  F  F7756  1  0.461600  0.873900  0.698200  1
  F  F7757  1  0.981100  0.626900  0.663800  1
  F  F7758  1  0.981100  0.873100  0.836200  1
  F  F7759  1  0.518900  0.373100  0.163800  1
  F  F7760  1  0.518900  0.126900  0.336200  1
  F  F7761  1  0.018900  0.373100  0.336200  1
  F  F7762  1  0.018900  0.126900  0.163800  1
  F  F7763  1  0.481100  0.626900  0.836200  1
  F  F7764  1  0.481100  0.873100  0.663800  1
  F  F7765  1  0.020300  0.608400  0.690700  1
  F  F7766  1  0.020300  0.891600  0.809300  1
  F  F7767  1  0.479700  0.391600  0.190700  1
  F  F7768  1  0.479700  0.108400  0.309300  1
  F  F7769  1  0.979700  0.391600  0.309300  1
  F  F7770  1  0.979700  0.108400  0.190700  1
  F  F7771  1  0.520300  0.608400  0.809300  1
  F  F7772  1  0.520300  0.891600  0.690700  1
  F  F7773  1  0.010600  0.655800  0.688400  1
  F  F7774  1  0.010600  0.844200  0.811600  1
  F  F7775  1  0.489400  0.344200  0.188400  1
  F  F7776  1  0.489400  0.155800  0.311600  1
  F  F7777  1  0.989400  0.344200  0.311600  1
  F  F7778  1  0.989400  0.155800  0.188400  1
  F  F7779  1  0.510600  0.655800  0.811600  1
  F  F7780  1  0.510600  0.844200  0.688400  1
  F  F7781  1  0.680200  0.512300  0.237100  1
  F  F7782  1  0.680200  0.987700  0.262900  1
  F  F7783  1  0.819800  0.487700  0.737100  1
  F  F7784  1  0.819800  0.012300  0.762900  1
  F  F7785  1  0.319800  0.487700  0.762900  1
  F  F7786  1  0.319800  0.012300  0.737100  1
  F  F7787  1  0.180200  0.512300  0.262900  1
  F  F7788  1  0.180200  0.987700  0.237100  1
  F  F7789  1  0.728000  0.537700  0.223000  1
  F  F7790  1  0.728000  0.962300  0.277000  1
  F  F7791  1  0.772000  0.462300  0.723000  1
  F  F7792  1  0.772000  0.037700  0.777000  1
  F  F7793  1  0.272000  0.462300  0.777000  1
  F  F7794  1  0.272000  0.037700  0.723000  1
  F  F7795  1  0.228000  0.537700  0.277000  1
  F  F7796  1  0.228000  0.962300  0.223000  1
  F  F7797  1  0.701600  0.550600  0.255800  1
  F  F7798  1  0.701600  0.949400  0.244200  1
  F  F7799  1  0.798400  0.449400  0.755800  1
  F  F7800  1  0.798400  0.050600  0.744200  1
  F  F7801  1  0.298400  0.449400  0.744200  1
  F  F7802  1  0.298400  0.050600  0.755800  1
  F  F7803  1  0.201600  0.550600  0.244200  1
  F  F7804  1  0.201600  0.949400  0.255800  1
  F  F7805  1  0.668100  0.557600  0.225000  1
  F  F7806  1  0.668100  0.942400  0.275000  1
  F  F7807  1  0.831900  0.442400  0.725000  1
  F  F7808  1  0.831900  0.057600  0.775000  1
  F  F7809  1  0.331900  0.442400  0.775000  1
  F  F7810  1  0.331900  0.057600  0.725000  1
  F  F7811  1  0.168100  0.557600  0.275000  1
  F  F7812  1  0.168100  0.942400  0.225000  1
  F  F7813  1  0.345100  0.279000  0.458500  1
  F  F7814  1  0.345100  0.221000  0.041500  1
  F  F7815  1  0.154900  0.721000  0.958500  1
  F  F7816  1  0.154900  0.779000  0.541500  1
  F  F7817  1  0.654900  0.721000  0.541500  1
  F  F7818  1  0.654900  0.779000  0.958500  1
  F  F7819  1  0.845100  0.279000  0.041500  1
  F  F7820  1  0.845100  0.221000  0.458500  1
  F  F7821  1  0.295400  0.296900  0.437200  1
  F  F7822  1  0.295400  0.203100  0.062800  1
  F  F7823  1  0.204600  0.703100  0.937200  1
  F  F7824  1  0.204600  0.796900  0.562800  1
  F  F7825  1  0.704600  0.703100  0.562800  1
  F  F7826  1  0.704600  0.796900  0.937200  1
  F  F7827  1  0.795400  0.296900  0.062800  1
  F  F7828  1  0.795400  0.203100  0.437200  1
  F  F7829  1  0.341500  0.266600  0.422900  1
  F  F7830  1  0.341500  0.233400  0.077100  1
  F  F7831  1  0.158500  0.733400  0.922900  1
  F  F7832  1  0.158500  0.766600  0.577100  1
  F  F7833  1  0.658500  0.733400  0.577100  1
  F  F7834  1  0.658500  0.766600  0.922900  1
  F  F7835  1  0.841500  0.266600  0.077100  1
  F  F7836  1  0.841500  0.233400  0.422900  1
  F  F7837  1  0.357500  0.310300  0.431100  1
  F  F7838  1  0.357500  0.189700  0.068900  1
  F  F7839  1  0.142500  0.689700  0.931100  1
  F  F7840  1  0.142500  0.810300  0.568900  1
  F  F7841  1  0.642500  0.689700  0.568900  1
  F  F7842  1  0.642500  0.810300  0.931100  1
  F  F7843  1  0.857500  0.310300  0.068900  1
  F  F7844  1  0.857500  0.189700  0.431100  1
  F  F7845  1  0.946600  0.259800  0.509900  1
  F  F7846  1  0.946600  0.240200  0.990100  1
  F  F7847  1  0.553400  0.740200  0.009900  1
  F  F7848  1  0.553400  0.759800  0.490100  1
  F  F7849  1  0.053400  0.740200  0.490100  1
  F  F7850  1  0.053400  0.759800  0.009900  1
  F  F7851  1  0.446600  0.259800  0.990100  1
  F  F7852  1  0.446600  0.240200  0.509900  1
  F  F7853  1  0.901700  0.230800  0.524200  1
  F  F7854  1  0.901700  0.269200  0.975800  1
  F  F7855  1  0.598300  0.769200  0.024200  1
  F  F7856  1  0.598300  0.730800  0.475800  1
  F  F7857  1  0.098300  0.769200  0.475800  1
  F  F7858  1  0.098300  0.730800  0.024200  1
  F  F7859  1  0.401700  0.230800  0.975800  1
  F  F7860  1  0.401700  0.269200  0.524200  1
  F  F7861  1  0.951000  0.211800  0.503000  1
  F  F7862  1  0.951000  0.288200  0.997000  1
  F  F7863  1  0.549000  0.788200  0.003000  1
  F  F7864  1  0.549000  0.711800  0.497000  1
  F  F7865  1  0.049000  0.788200  0.497000  1
  F  F7866  1  0.049000  0.711800  0.003000  1
  F  F7867  1  0.451000  0.211800  0.997000  1
  F  F7868  1  0.451000  0.288200  0.503000  1
  F  F7869  1  0.903800  0.238400  0.487700  1
  F  F7870  1  0.903800  0.261600  0.012300  1
  F  F7871  1  0.596200  0.761600  0.987700  1
  F  F7872  1  0.596200  0.738400  0.512300  1
  F  F7873  1  0.096200  0.761600  0.512300  1
  F  F7874  1  0.096200  0.738400  0.987700  1
  F  F7875  1  0.403800  0.238400  0.012300  1
  F  F7876  1  0.403800  0.261600  0.487700  1
  F  F7877  1  0.854100  0.240800  0.257900  1
  F  F7878  1  0.854100  0.259200  0.242100  1
  F  F7879  1  0.645900  0.759200  0.757900  1
  F  F7880  1  0.645900  0.740800  0.742100  1
  F  F7881  1  0.145900  0.759200  0.742100  1
  F  F7882  1  0.145900  0.740800  0.757900  1
  F  F7883  1  0.354100  0.240800  0.242100  1
  F  F7884  1  0.354100  0.259200  0.257900  1
  F  F7885  1  0.898900  0.227600  0.234600  1
  F  F7886  1  0.898900  0.272400  0.265400  1
  F  F7887  1  0.601100  0.772400  0.734600  1
  F  F7888  1  0.601100  0.727600  0.765400  1
  F  F7889  1  0.101100  0.772400  0.765400  1
  F  F7890  1  0.101100  0.727600  0.734600  1
  F  F7891  1  0.398900  0.227600  0.265400  1
  F  F7892  1  0.398900  0.272400  0.234600  1
  F  F7893  1  0.918700  0.255200  0.262800  1
  F  F7894  1  0.918700  0.244800  0.237200  1
  F  F7895  1  0.581300  0.744800  0.762800  1
  F  F7896  1  0.581300  0.755200  0.737200  1
  F  F7897  1  0.081300  0.744800  0.737200  1
  F  F7898  1  0.081300  0.755200  0.762800  1
  F  F7899  1  0.418700  0.255200  0.237200  1
  F  F7900  1  0.418700  0.244800  0.262800  1
  F  F7901  1  0.882200  0.274000  0.236100  1
  F  F7902  1  0.882200  0.226000  0.263900  1
  F  F7903  1  0.617800  0.726000  0.736100  1
  F  F7904  1  0.617800  0.774000  0.763900  1
  F  F7905  1  0.117800  0.726000  0.763900  1
  F  F7906  1  0.117800  0.774000  0.736100  1
  F  F7907  1  0.382200  0.274000  0.263900  1
  F  F7908  1  0.382200  0.226000  0.236100  1
