# generated using pymatgen
data_Fe4B7H96C112N42F25
_symmetry_space_group_name_H-M   'P 1'
_cell_length_a   17.62150000
_cell_length_b   26.45770000
_cell_length_c   27.32410000
_cell_angle_alpha   116.13200000
_cell_angle_beta   90.00000000
_cell_angle_gamma   90.00000000
_symmetry_Int_Tables_number   1
_chemical_formula_structural   Fe4B7H96C112N42F25
_chemical_formula_sum   'Fe16 B28 H384 C448 N168 F100'
_cell_volume   11436.98601228
_cell_formula_units_Z   4
loop_
 _symmetry_equiv_pos_site_id
 _symmetry_equiv_pos_as_xyz
  1  'x, y, z'
loop_
 _atom_site_type_symbol
 _atom_site_label
 _atom_site_symmetry_multiplicity
 _atom_site_fract_x
 _atom_site_fract_y
 _atom_site_fract_z
 _atom_site_occupancy
  Fe  Fe1  1  0.407420  0.102580  0.811180  1
  Fe  Fe2  1  0.907420  0.897420  0.688820  1
  Fe  Fe3  1  0.592580  0.897420  0.188820  1
  Fe  Fe4  1  0.092580  0.102580  0.311180  1
  Fe  Fe5  1  0.309760  0.419490  0.769310  1
  Fe  Fe6  1  0.809760  0.580510  0.730690  1
  Fe  Fe7  1  0.690240  0.580510  0.230690  1
  Fe  Fe8  1  0.190240  0.419490  0.269310  1
  Fe  Fe9  1  0.600000  0.300720  0.803320  1
  Fe  Fe10  1  0.100000  0.699280  0.696680  1
  Fe  Fe11  1  0.400000  0.699280  0.196680  1
  Fe  Fe12  1  0.900000  0.300720  0.303320  1
  Fe  Fe13  1  0.116370  0.237260  0.805870  1
  Fe  Fe14  1  0.616370  0.762740  0.694130  1
  Fe  Fe15  1  0.883630  0.762740  0.194130  1
  Fe  Fe16  1  0.383630  0.237260  0.305870  1
  B  B17  1  0.492100  0.382100  0.058700  1
  B  B18  1  0.992100  0.617900  0.441300  1
  B  B19  1  0.507900  0.617900  0.941300  1
  B  B20  1  0.007900  0.382100  0.558700  1
  B  B21  1  0.183500  0.068200  0.549600  1
  B  B22  1  0.683500  0.931800  0.950400  1
  B  B23  1  0.816500  0.931800  0.450400  1
  B  B24  1  0.316500  0.068200  0.049600  1
  B  B25  1  0.519700  0.174200  0.029600  1
  B  B26  1  0.019700  0.825800  0.470400  1
  B  B27  1  0.480300  0.825800  0.970400  1
  B  B28  1  0.980300  0.174200  0.529600  1
  B  B29  1  0.233300  0.588400  0.992700  1
  B  B30  1  0.733300  0.411600  0.507300  1
  B  B31  1  0.766700  0.411600  0.007300  1
  B  B32  1  0.266700  0.588400  0.492700  1
  B  B33  1  0.150500  0.412700  0.048900  1
  B  B34  1  0.650500  0.587300  0.451100  1
  B  B35  1  0.849500  0.587300  0.951100  1
  B  B36  1  0.349500  0.412700  0.548900  1
  B  B37  1  0.583800  0.181500  0.530900  1
  B  B38  1  0.083800  0.818500  0.969100  1
  B  B39  1  0.416200  0.818500  0.469100  1
  B  B40  1  0.916200  0.181500  0.030900  1
  B  B41  1  0.121800  0.413400  0.039800  1
  B  B42  1  0.621800  0.586600  0.460200  1
  B  B43  1  0.878200  0.586600  0.960200  1
  B  B44  1  0.378200  0.413400  0.539800  1
  H  H45  1  0.434200  0.188600  0.954900  1
  H  H46  1  0.934200  0.811400  0.545100  1
  H  H47  1  0.565800  0.811400  0.045100  1
  H  H48  1  0.065800  0.188600  0.454900  1
  H  H49  1  0.293100  0.485800  0.916100  1
  H  H50  1  0.793100  0.514200  0.583900  1
  H  H51  1  0.706900  0.514200  0.083900  1
  H  H52  1  0.206900  0.485800  0.416100  1
  H  H53  1  0.576800  0.346100  0.953400  1
  H  H54  1  0.076800  0.653900  0.546600  1
  H  H55  1  0.423200  0.653900  0.046600  1
  H  H56  1  0.923200  0.346100  0.453400  1
  H  H57  1  0.139700  0.140100  0.662600  1
  H  H58  1  0.639700  0.859900  0.837400  1
  H  H59  1  0.860300  0.859900  0.337400  1
  H  H60  1  0.360300  0.140100  0.162600  1
  H  H61  1  0.498300  0.012300  0.681800  1
  H  H62  1  0.998300  0.987700  0.818200  1
  H  H63  1  0.501700  0.987700  0.318200  1
  H  H64  1  0.001700  0.012300  0.181800  1
  H  H65  1  0.154300  0.340600  0.945000  1
  H  H66  1  0.654300  0.659400  0.555000  1
  H  H67  1  0.845700  0.659400  0.055000  1
  H  H68  1  0.345700  0.340600  0.445000  1
  H  H69  1  0.588700  0.095300  0.641300  1
  H  H70  1  0.088700  0.904700  0.858700  1
  H  H71  1  0.411300  0.904700  0.358700  1
  H  H72  1  0.911300  0.095300  0.141300  1
  H  H73  1  0.274400  0.011100  0.905400  1
  H  H74  1  0.774400  0.988900  0.594600  1
  H  H75  1  0.725600  0.988900  0.094600  1
  H  H76  1  0.225600  0.011100  0.405400  1
  H  H77  1  0.324500  0.994000  0.732300  1
  H  H78  1  0.824500  0.006000  0.767700  1
  H  H79  1  0.675500  0.006000  0.267700  1
  H  H80  1  0.175500  0.994000  0.232300  1
  H  H81  1  0.357100  0.551300  0.888700  1
  H  H82  1  0.857100  0.448700  0.611300  1
  H  H83  1  0.642900  0.448700  0.111300  1
  H  H84  1  0.142900  0.551300  0.388700  1
  H  H85  1  0.495900  0.458100  0.855900  1
  H  H86  1  0.995900  0.541900  0.644100  1
  H  H87  1  0.504100  0.541900  0.144100  1
  H  H88  1  0.004100  0.458100  0.355900  1
  H  H89  1  0.422000  0.605600  0.837800  1
  H  H90  1  0.922000  0.394400  0.662200  1
  H  H91  1  0.578000  0.394400  0.162200  1
  H  H92  1  0.078000  0.605600  0.337800  1
  H  H93  1  0.358100  0.105000  0.942500  1
  H  H94  1  0.858100  0.895000  0.557500  1
  H  H95  1  0.641900  0.895000  0.057500  1
  H  H96  1  0.141900  0.105000  0.442500  1
  H  H97  1  0.508400  0.269500  0.961300  1
  H  H98  1  0.008400  0.730500  0.538700  1
  H  H99  1  0.491600  0.730500  0.038700  1
  H  H100  1  0.991600  0.269500  0.461300  1
  H  H101  1  0.589600  0.241800  0.651400  1
  H  H102  1  0.089600  0.758200  0.848600  1
  H  H103  1  0.410400  0.758200  0.348600  1
  H  H104  1  0.910400  0.241800  0.151400  1
  H  H105  1  0.593600  0.130800  0.736100  1
  H  H106  1  0.093600  0.869200  0.763900  1
  H  H107  1  0.406400  0.869200  0.263900  1
  H  H108  1  0.906400  0.130800  0.236100  1
  H  H109  1  0.516600  0.080700  0.891100  1
  H  H110  1  0.016600  0.919300  0.608900  1
  H  H111  1  0.483400  0.919300  0.108900  1
  H  H112  1  0.983400  0.080700  0.391100  1
  H  H113  1  0.225600  0.934300  0.829100  1
  H  H114  1  0.725600  0.065700  0.670900  1
  H  H115  1  0.774400  0.065700  0.170900  1
  H  H116  1  0.274400  0.934300  0.329100  1
  H  H117  1  0.262700  0.096100  0.657600  1
  H  H118  1  0.762700  0.903900  0.842400  1
  H  H119  1  0.737300  0.903900  0.342400  1
  H  H120  1  0.237300  0.096100  0.157600  1
  H  H121  1  0.449200  0.517900  0.675200  1
  H  H122  1  0.949200  0.482100  0.824800  1
  H  H123  1  0.550800  0.482100  0.324800  1
  H  H124  1  0.050800  0.517900  0.175200  1
  H  H125  1  0.615400  0.977300  0.718600  1
  H  H126  1  0.115400  0.022700  0.781400  1
  H  H127  1  0.384600  0.022700  0.281400  1
  H  H128  1  0.884600  0.977300  0.218600  1
  H  H129  1  0.401100  0.219800  0.748500  1
  H  H130  1  0.901100  0.780200  0.751500  1
  H  H131  1  0.598900  0.780200  0.251500  1
  H  H132  1  0.098900  0.219800  0.248500  1
  H  H133  1  0.247800  0.927500  0.742100  1
  H  H134  1  0.747800  0.072500  0.757900  1
  H  H135  1  0.752200  0.072500  0.257900  1
  H  H136  1  0.252200  0.927500  0.242100  1
  H  H137  1  0.676400  0.975100  0.793700  1
  H  H138  1  0.176400  0.024900  0.706300  1
  H  H139  1  0.323600  0.024900  0.206300  1
  H  H140  1  0.823600  0.975100  0.293700  1
  H  H141  1  0.463100  0.601600  0.754800  1
  H  H142  1  0.963100  0.398400  0.745200  1
  H  H143  1  0.536900  0.398400  0.245200  1
  H  H144  1  0.036900  0.601600  0.254800  1
  H  H145  1  0.391600  0.317100  0.845400  1
  H  H146  1  0.891600  0.682900  0.654600  1
  H  H147  1  0.608400  0.682900  0.154600  1
  H  H148  1  0.108400  0.317100  0.345400  1
  H  H149  1  0.625200  0.027100  0.880800  1
  H  H150  1  0.125200  0.972900  0.619200  1
  H  H151  1  0.374800  0.972900  0.119200  1
  H  H152  1  0.874800  0.027100  0.380800  1
  H  H153  1  0.191600  0.513500  0.834200  1
  H  H154  1  0.691600  0.486500  0.665800  1
  H  H155  1  0.808400  0.486500  0.165800  1
  H  H156  1  0.308400  0.513500  0.334200  1
  H  H157  1  0.477800  0.500600  0.950700  1
  H  H158  1  0.977800  0.499400  0.549300  1
  H  H159  1  0.522200  0.499400  0.049300  1
  H  H160  1  0.022200  0.500600  0.450700  1
  H  H161  1  0.395200  0.182700  0.653800  1
  H  H162  1  0.895200  0.817300  0.846200  1
  H  H163  1  0.604800  0.817300  0.346200  1
  H  H164  1  0.104800  0.182700  0.153800  1
  H  H165  1  0.224200  0.417200  0.937900  1
  H  H166  1  0.724200  0.582800  0.562100  1
  H  H167  1  0.775800  0.582800  0.062100  1
  H  H168  1  0.275800  0.417200  0.437900  1
  H  H169  1  0.640200  0.420300  0.942600  1
  H  H170  1  0.140200  0.579700  0.557400  1
  H  H171  1  0.359800  0.579700  0.057400  1
  H  H172  1  0.859800  0.420300  0.442600  1
  H  H173  1  0.103800  0.343700  0.730800  1
  H  H174  1  0.603800  0.656300  0.769200  1
  H  H175  1  0.896200  0.656300  0.269200  1
  H  H176  1  0.396200  0.343700  0.230800  1
  H  H177  1  0.490000  0.122000  0.600300  1
  H  H178  1  0.990000  0.878000  0.899700  1
  H  H179  1  0.510000  0.878000  0.399700  1
  H  H180  1  0.010000  0.122000  0.100300  1
  H  H181  1  0.320700  0.262700  0.884600  1
  H  H182  1  0.820700  0.737300  0.615400  1
  H  H183  1  0.679300  0.737300  0.115400  1
  H  H184  1  0.179300  0.262700  0.384600  1
  H  H185  1  0.389600  0.441400  0.678700  1
  H  H186  1  0.889600  0.558600  0.821300  1
  H  H187  1  0.610400  0.558600  0.321300  1
  H  H188  1  0.110400  0.441400  0.178700  1
  H  H189  1  0.292900  0.249300  0.712400  1
  H  H190  1  0.792900  0.750700  0.787600  1
  H  H191  1  0.707100  0.750700  0.287600  1
  H  H192  1  0.207100  0.249300  0.212400  1
  H  H193  1  0.192500  0.128600  0.867800  1
  H  H194  1  0.692500  0.871400  0.632200  1
  H  H195  1  0.807500  0.871400  0.132200  1
  H  H196  1  0.307500  0.128600  0.367800  1
  H  H197  1  0.232800  0.372000  0.631900  1
  H  H198  1  0.732800  0.628000  0.868100  1
  H  H199  1  0.767200  0.628000  0.368100  1
  H  H200  1  0.267200  0.372000  0.131900  1
  H  H201  1  0.309600  0.299400  0.979400  1
  H  H202  1  0.809600  0.700600  0.520600  1
  H  H203  1  0.690400  0.700600  0.020600  1
  H  H204  1  0.190400  0.299400  0.479400  1
  H  H205  1  0.269700  0.201300  0.619500  1
  H  H206  1  0.769700  0.798700  0.880500  1
  H  H207  1  0.730300  0.798700  0.380500  1
  H  H208  1  0.230300  0.201300  0.119500  1
  H  H209  1  0.376900  0.358400  0.939800  1
  H  H210  1  0.876900  0.641600  0.560200  1
  H  H211  1  0.623100  0.641600  0.060200  1
  H  H212  1  0.123100  0.358400  0.439800  1
  H  H213  1  0.163300  0.223300  0.581800  1
  H  H214  1  0.663300  0.776700  0.918200  1
  H  H215  1  0.836700  0.776700  0.418200  1
  H  H216  1  0.336700  0.223300  0.081800  1
  H  H217  1  0.473500  0.281300  0.633100  1
  H  H218  1  0.973500  0.718700  0.866900  1
  H  H219  1  0.526500  0.718700  0.366900  1
  H  H220  1  0.026500  0.281300  0.133100  1
  H  H221  1  0.080500  0.294700  0.637300  1
  H  H222  1  0.580500  0.705300  0.862700  1
  H  H223  1  0.919500  0.705300  0.362700  1
  H  H224  1  0.419500  0.294700  0.137300  1
  H  H225  1  0.764000  0.435700  0.757800  1
  H  H226  1  0.264000  0.564300  0.742200  1
  H  H227  1  0.236000  0.564300  0.242200  1
  H  H228  1  0.736000  0.435700  0.257800  1
  H  H229  1  0.687000  0.355500  0.736000  1
  H  H230  1  0.187000  0.644500  0.764000  1
  H  H231  1  0.313000  0.644500  0.264000  1
  H  H232  1  0.813000  0.355500  0.236000  1
  H  H233  1  0.419100  0.450200  0.992100  1
  H  H234  1  0.919100  0.549800  0.507900  1
  H  H235  1  0.580900  0.549800  0.007900  1
  H  H236  1  0.080900  0.450200  0.492100  1
  H  H237  1  0.181300  0.166400  0.962600  1
  H  H238  1  0.681300  0.833600  0.537400  1
  H  H239  1  0.818700  0.833600  0.037400  1
  H  H240  1  0.318700  0.166400  0.462600  1
  H  H241  1  0.028800  0.196300  0.669400  1
  H  H242  1  0.528800  0.803700  0.830600  1
  H  H243  1  0.971200  0.803700  0.330600  1
  H  H244  1  0.471200  0.196300  0.169400  1
  H  H245  1  0.086500  0.551500  0.810900  1
  H  H246  1  0.586500  0.448500  0.689100  1
  H  H247  1  0.913500  0.448500  0.189100  1
  H  H248  1  0.413500  0.551500  0.310900  1
  H  H249  1  0.722800  0.484600  0.916100  1
  H  H250  1  0.222800  0.515400  0.583900  1
  H  H251  1  0.277200  0.515400  0.083900  1
  H  H252  1  0.777200  0.484600  0.416100  1
  H  H253  1  0.782000  0.499600  0.848000  1
  H  H254  1  0.282000  0.500400  0.652000  1
  H  H255  1  0.218000  0.500400  0.152000  1
  H  H256  1  0.718000  0.499600  0.348000  1
  H  H257  1  0.239100  0.251600  0.017800  1
  H  H258  1  0.739100  0.748400  0.482200  1
  H  H259  1  0.760900  0.748400  0.982200  1
  H  H260  1  0.260900  0.251600  0.517800  1
  H  H261  1  0.112100  0.438300  0.654900  1
  H  H262  1  0.612100  0.561700  0.845100  1
  H  H263  1  0.887900  0.561700  0.345100  1
  H  H264  1  0.387900  0.438300  0.154900  1
  H  H265  1  0.046200  0.513100  0.720700  1
  H  H266  1  0.546200  0.486900  0.779300  1
  H  H267  1  0.953800  0.486900  0.279300  1
  H  H268  1  0.453800  0.513100  0.220700  1
  H  H269  1  0.887300  0.366900  0.861400  1
  H  H270  1  0.387300  0.633100  0.638600  1
  H  H271  1  0.112700  0.633100  0.138600  1
  H  H272  1  0.612700  0.366900  0.361400  1
  H  H273  1  0.911300  0.268100  0.700700  1
  H  H274  1  0.411300  0.731900  0.799300  1
  H  H275  1  0.088700  0.731900  0.299300  1
  H  H276  1  0.588700  0.268100  0.200700  1
  H  H277  1  0.076500  0.265600  0.948300  1
  H  H278  1  0.576500  0.734400  0.551700  1
  H  H279  1  0.923500  0.734400  0.051700  1
  H  H280  1  0.423500  0.265600  0.448300  1
  H  H281  1  0.028700  0.124400  0.745900  1
  H  H282  1  0.528700  0.875600  0.754100  1
  H  H283  1  0.971300  0.875600  0.254100  1
  H  H284  1  0.471300  0.124400  0.245900  1
  H  H285  1  0.923200  0.099800  0.864100  1
  H  H286  1  0.423200  0.900200  0.635900  1
  H  H287  1  0.076800  0.900200  0.135900  1
  H  H288  1  0.576800  0.099800  0.364100  1
  H  H289  1  0.999700  0.327900  0.878300  1
  H  H290  1  0.499700  0.672100  0.621700  1
  H  H291  1  0.000300  0.672100  0.121700  1
  H  H292  1  0.500300  0.327900  0.378300  1
  H  H293  1  0.844900  0.337500  0.774000  1
  H  H294  1  0.344900  0.662500  0.726000  1
  H  H295  1  0.155100  0.662500  0.226000  1
  H  H296  1  0.655100  0.337500  0.274000  1
  H  H297  1  0.987100  0.180000  0.930900  1
  H  H298  1  0.487100  0.820000  0.569100  1
  H  H299  1  0.012900  0.820000  0.069100  1
  H  H300  1  0.512900  0.180000  0.430900  1
  H  H301  1  0.946600  0.072400  0.772800  1
  H  H302  1  0.446600  0.927600  0.727200  1
  H  H303  1  0.053400  0.927600  0.227200  1
  H  H304  1  0.553400  0.072400  0.272800  1
  H  H305  1  0.877900  0.194200  0.821300  1
  H  H306  1  0.377900  0.805800  0.678700  1
  H  H307  1  0.122100  0.805800  0.178700  1
  H  H308  1  0.622100  0.194200  0.321300  1
  H  H309  1  0.714900  0.305300  0.896700  1
  H  H310  1  0.214900  0.694700  0.603300  1
  H  H311  1  0.285100  0.694700  0.103300  1
  H  H312  1  0.785100  0.305300  0.396700  1
  H  H313  1  0.832400  0.263400  0.897800  1
  H  H314  1  0.332400  0.736600  0.602200  1
  H  H315  1  0.167600  0.736600  0.102200  1
  H  H316  1  0.667600  0.263400  0.397800  1
  H  H317  1  0.820300  0.172100  0.734500  1
  H  H318  1  0.320300  0.827900  0.765500  1
  H  H319  1  0.179700  0.827900  0.265500  1
  H  H320  1  0.679700  0.172100  0.234500  1
  H  H321  1  0.702700  0.196600  0.687800  1
  H  H322  1  0.202700  0.803400  0.812200  1
  H  H323  1  0.297300  0.803400  0.312200  1
  H  H324  1  0.797300  0.196600  0.187800  1
  H  H325  1  0.752800  0.166600  0.925500  1
  H  H326  1  0.252800  0.833400  0.574500  1
  H  H327  1  0.247200  0.833400  0.074500  1
  H  H328  1  0.747200  0.166600  0.425500  1
  H  H329  1  0.667700  0.172500  0.947900  1
  H  H330  1  0.167700  0.827500  0.552100  1
  H  H331  1  0.332300  0.827500  0.052100  1
  H  H332  1  0.832300  0.172500  0.447900  1
  H  H333  1  0.707400  0.224300  0.942500  1
  H  H334  1  0.207400  0.775700  0.557500  1
  H  H335  1  0.292600  0.775700  0.057500  1
  H  H336  1  0.792600  0.224300  0.442500  1
  H  H337  1  0.999100  0.504500  0.941300  1
  H  H338  1  0.499100  0.495500  0.558700  1
  H  H339  1  0.000900  0.495500  0.058700  1
  H  H340  1  0.500900  0.504500  0.441300  1
  H  H341  1  0.088600  0.510800  0.952600  1
  H  H342  1  0.588600  0.489200  0.547400  1
  H  H343  1  0.911400  0.489200  0.047400  1
  H  H344  1  0.411400  0.510800  0.452600  1
  H  H345  1  0.043100  0.460200  0.956200  1
  H  H346  1  0.543100  0.539800  0.543800  1
  H  H347  1  0.956900  0.539800  0.043800  1
  H  H348  1  0.456900  0.460200  0.456200  1
  H  H349  1  0.412100  0.012600  0.476600  1
  H  H350  1  0.912100  0.987400  0.023400  1
  H  H351  1  0.587900  0.987400  0.523400  1
  H  H352  1  0.087900  0.012600  0.976600  1
  H  H353  1  0.353400  0.064100  0.499600  1
  H  H354  1  0.853400  0.935900  0.000400  1
  H  H355  1  0.646600  0.935900  0.500400  1
  H  H356  1  0.146600  0.064100  0.999600  1
  H  H357  1  0.442800  0.076000  0.505000  1
  H  H358  1  0.942800  0.924000  0.995000  1
  H  H359  1  0.557200  0.924000  0.495000  1
  H  H360  1  0.057200  0.076000  0.005000  1
  H  H361  1  0.400400  0.009500  0.593000  1
  H  H362  1  0.900400  0.990500  0.907000  1
  H  H363  1  0.599600  0.990500  0.407000  1
  H  H364  1  0.099600  0.009500  0.093000  1
  H  H365  1  0.324600  0.003100  0.558500  1
  H  H366  1  0.824600  0.996900  0.941500  1
  H  H367  1  0.675400  0.996900  0.441500  1
  H  H368  1  0.175400  0.003100  0.058500  1
  H  H369  1  0.384700  0.952700  0.538900  1
  H  H370  1  0.884700  0.047300  0.961100  1
  H  H371  1  0.615300  0.047300  0.461100  1
  H  H372  1  0.115300  0.952700  0.038900  1
  H  H373  1  0.246400  0.866900  0.489400  1
  H  H374  1  0.746400  0.133100  0.010600  1
  H  H375  1  0.753600  0.133100  0.510600  1
  H  H376  1  0.253600  0.866900  0.989400  1
  H  H377  1  0.179700  0.850500  0.445300  1
  H  H378  1  0.679700  0.149500  0.054700  1
  H  H379  1  0.820300  0.149500  0.554700  1
  H  H380  1  0.320300  0.850500  0.945300  1
  H  H381  1  0.179200  0.910500  0.497500  1
  H  H382  1  0.679200  0.089500  0.002500  1
  H  H383  1  0.820800  0.089500  0.502500  1
  H  H384  1  0.320800  0.910500  0.997500  1
  H  H385  1  0.982000  0.063600  0.552000  1
  H  H386  1  0.482000  0.936400  0.948000  1
  H  H387  1  0.018000  0.936400  0.448000  1
  H  H388  1  0.518000  0.063600  0.052000  1
  H  H389  1  0.922200  0.016800  0.549000  1
  H  H390  1  0.422200  0.983200  0.951000  1
  H  H391  1  0.077800  0.983200  0.451000  1
  H  H392  1  0.577800  0.016800  0.049000  1
  H  H393  1  0.008700  0.012800  0.564700  1
  H  H394  1  0.508700  0.987200  0.935300  1
  H  H395  1  0.991300  0.987200  0.435300  1
  H  H396  1  0.491300  0.012800  0.064700  1
  H  H397  1  0.748800  0.266200  0.042200  1
  H  H398  1  0.248800  0.733800  0.457800  1
  H  H399  1  0.251200  0.733800  0.957800  1
  H  H400  1  0.751200  0.266200  0.542200  1
  H  H401  1  0.733700  0.332700  0.069900  1
  H  H402  1  0.233700  0.667300  0.430100  1
  H  H403  1  0.266300  0.667300  0.930100  1
  H  H404  1  0.766300  0.332700  0.569900  1
  H  H405  1  0.663700  0.289700  0.051000  1
  H  H406  1  0.163700  0.710300  0.449000  1
  H  H407  1  0.336300  0.710300  0.949000  1
  H  H408  1  0.836300  0.289700  0.551000  1
  H  H409  1  0.878300  0.165300  0.770400  1
  H  H410  1  0.378300  0.834700  0.729600  1
  H  H411  1  0.121700  0.834700  0.229600  1
  H  H412  1  0.621700  0.165300  0.270400  1
  H  H413  1  0.737700  0.279800  0.873100  1
  H  H414  1  0.237700  0.720200  0.626900  1
  H  H415  1  0.262300  0.720200  0.126900  1
  H  H416  1  0.762300  0.279800  0.373100  1
  H  H417  1  0.839700  0.224300  0.855000  1
  H  H418  1  0.339700  0.775700  0.645000  1
  H  H419  1  0.160300  0.775700  0.145000  1
  H  H420  1  0.660300  0.224300  0.355000  1
  H  H421  1  0.807600  0.165400  0.695000  1
  H  H422  1  0.307600  0.834600  0.805000  1
  H  H423  1  0.192400  0.834600  0.305000  1
  H  H424  1  0.692400  0.165400  0.195000  1
  H  H425  1  0.693000  0.205400  0.660400  1
  H  H426  1  0.193000  0.794600  0.839600  1
  H  H427  1  0.307000  0.794600  0.339600  1
  H  H428  1  0.807000  0.205400  0.160400  1
  C  C429  1  0.468800  0.201950  0.893560  1
  C  C430  1  0.968800  0.798050  0.606440  1
  C  C431  1  0.531200  0.798050  0.106440  1
  C  C432  1  0.031200  0.201950  0.393560  1
  C  C433  1  0.500700  0.203320  0.811880  1
  C  C434  1  0.000700  0.796680  0.688120  1
  C  C435  1  0.499300  0.796680  0.188120  1
  C  C436  1  0.999300  0.203320  0.311880  1
  C  C437  1  0.497400  0.178230  0.751370  1
  C  C438  1  0.997400  0.821770  0.748630  1
  C  C439  1  0.502600  0.821770  0.248630  1
  C  C440  1  0.002600  0.178230  0.251370  1
  C  C441  1  0.262400  0.167750  0.806880  1
  C  C442  1  0.762400  0.832250  0.693120  1
  C  C443  1  0.737600  0.832250  0.193120  1
  C  C444  1  0.237600  0.167750  0.306880  1
  C  C445  1  0.328000  0.047080  0.862030  1
  C  C446  1  0.828000  0.952920  0.637970  1
  C  C447  1  0.672000  0.952920  0.137970  1
  C  C448  1  0.172000  0.047080  0.362030  1
  C  C449  1  0.321600  0.104530  0.725630  1
  C  C450  1  0.821600  0.895470  0.774370  1
  C  C451  1  0.678400  0.895470  0.274370  1
  C  C452  1  0.178400  0.104530  0.225630  1
  C  C453  1  0.485600  0.032880  0.719240  1
  C  C454  1  0.985600  0.967120  0.780760  1
  C  C455  1  0.514400  0.967120  0.280760  1
  C  C456  1  0.014400  0.032880  0.219240  1
  C  C457  1  0.538200  0.277090  0.892660  1
  C  C458  1  0.038200  0.722910  0.607340  1
  C  C459  1  0.461800  0.722910  0.107340  1
  C  C460  1  0.961800  0.277090  0.392660  1
  C  C461  1  0.529900  0.030550  0.762470  1
  C  C462  1  0.029900  0.969450  0.737530  1
  C  C463  1  0.470100  0.969450  0.237530  1
  C  C464  1  0.970100  0.030550  0.262470  1
  C  C465  1  0.550500  0.120500  0.663210  1
  C  C466  1  0.050500  0.879500  0.836790  1
  C  C467  1  0.449500  0.879500  0.336790  1
  C  C468  1  0.949500  0.120500  0.163210  1
  C  C469  1  0.284100  0.007200  0.869700  1
  C  C470  1  0.784100  0.992800  0.630300  1
  C  C471  1  0.715900  0.992800  0.130300  1
  C  C472  1  0.215900  0.007200  0.369700  1
  C  C473  1  0.443900  0.384070  0.841500  1
  C  C474  1  0.943900  0.615930  0.658500  1
  C  C475  1  0.556100  0.615930  0.158500  1
  C  C476  1  0.056100  0.384070  0.341500  1
  C  C477  1  0.314000  0.997840  0.767850  1
  C  C478  1  0.814000  0.002160  0.732150  1
  C  C479  1  0.686000  0.002160  0.232150  1
  C  C480  1  0.186000  0.997840  0.267850  1
  C  C481  1  0.380800  0.524660  0.805030  1
  C  C482  1  0.880800  0.475340  0.694970  1
  C  C483  1  0.619200  0.475340  0.194970  1
  C  C484  1  0.119200  0.524660  0.305030  1
  C  C485  1  0.353100  0.521540  0.852950  1
  C  C486  1  0.853100  0.478460  0.647050  1
  C  C487  1  0.646900  0.478460  0.147050  1
  C  C488  1  0.146900  0.521540  0.352950  1
  C  C489  1  0.470700  0.438160  0.872900  1
  C  C490  1  0.970700  0.561840  0.627100  1
  C  C491  1  0.529300  0.561840  0.127100  1
  C  C492  1  0.029300  0.438160  0.372900  1
  C  C493  1  0.254400  0.411850  0.863480  1
  C  C494  1  0.754400  0.588150  0.636520  1
  C  C495  1  0.745600  0.588150  0.136520  1
  C  C496  1  0.245600  0.411850  0.363480  1
  C  C497  1  0.415600  0.572200  0.804900  1
  C  C498  1  0.915600  0.427800  0.695100  1
  C  C499  1  0.584400  0.427800  0.195100  1
  C  C500  1  0.084400  0.572200  0.304900  1
  C  C501  1  0.360700  0.096520  0.904950  1
  C  C502  1  0.860700  0.903480  0.595050  1
  C  C503  1  0.639300  0.903480  0.095050  1
  C  C504  1  0.139300  0.096520  0.404950  1
  C  C505  1  0.505700  0.252560  0.922640  1
  C  C506  1  0.005700  0.747440  0.577360  1
  C  C507  1  0.494300  0.747440  0.077360  1
  C  C508  1  0.994300  0.252560  0.422640  1
  C  C509  1  0.212600  0.331360  0.790420  1
  C  C510  1  0.712600  0.668640  0.709580  1
  C  C511  1  0.787400  0.668640  0.209580  1
  C  C512  1  0.287400  0.331360  0.290420  1
  C  C513  1  0.452300  0.356140  0.781300  1
  C  C514  1  0.952300  0.643860  0.718700  1
  C  C515  1  0.547700  0.643860  0.218700  1
  C  C516  1  0.047700  0.356140  0.281300  1
  C  C517  1  0.553400  0.141490  0.719380  1
  C  C518  1  0.053400  0.858510  0.780620  1
  C  C519  1  0.446600  0.858510  0.280620  1
  C  C520  1  0.946600  0.141490  0.219380  1
  C  C521  1  0.536700  0.059510  0.855530  1
  C  C522  1  0.036700  0.940490  0.644470  1
  C  C523  1  0.463300  0.940490  0.144470  1
  C  C524  1  0.963300  0.059510  0.355530  1
  C  C525  1  0.255000  0.962100  0.824700  1
  C  C526  1  0.755000  0.037900  0.675300  1
  C  C527  1  0.745000  0.037900  0.175300  1
  C  C528  1  0.245000  0.962100  0.324700  1
  C  C529  1  0.200000  0.300320  0.730670  1
  C  C530  1  0.700000  0.699680  0.769330  1
  C  C531  1  0.800000  0.699680  0.269330  1
  C  C532  1  0.300000  0.300320  0.230670  1
  C  C533  1  0.257500  0.192070  0.866980  1
  C  C534  1  0.757500  0.807930  0.633020  1
  C  C535  1  0.742500  0.807930  0.133020  1
  C  C536  1  0.242500  0.192070  0.366980  1
  C  C537  1  0.263400  0.114600  0.696350  1
  C  C538  1  0.763400  0.885400  0.803650  1
  C  C539  1  0.736600  0.885400  0.303650  1
  C  C540  1  0.236600  0.114600  0.196350  1
  C  C541  1  0.431200  0.520600  0.709100  1
  C  C542  1  0.931200  0.479400  0.790900  1
  C  C543  1  0.568800  0.479400  0.290900  1
  C  C544  1  0.068800  0.520600  0.209100  1
  C  C545  1  0.595700  0.998200  0.754300  1
  C  C546  1  0.095700  0.001800  0.745700  1
  C  C547  1  0.404300  0.001800  0.245700  1
  C  C548  1  0.904300  0.998200  0.254300  1
  C  C549  1  0.438900  0.194090  0.726670  1
  C  C550  1  0.938900  0.805910  0.773330  1
  C  C551  1  0.561100  0.805910  0.273330  1
  C  C552  1  0.061100  0.194090  0.226670  1
  C  C553  1  0.268900  0.957670  0.773300  1
  C  C554  1  0.768900  0.042330  0.726700  1
  C  C555  1  0.731100  0.042330  0.226700  1
  C  C556  1  0.231100  0.957670  0.273300  1
  C  C557  1  0.631700  0.996900  0.798500  1
  C  C558  1  0.131700  0.003100  0.701500  1
  C  C559  1  0.368300  0.003100  0.201500  1
  C  C560  1  0.868300  0.996900  0.298500  1
  C  C561  1  0.673300  0.410080  0.864500  1
  C  C562  1  0.173300  0.589920  0.635500  1
  C  C563  1  0.326700  0.589920  0.135500  1
  C  C564  1  0.826700  0.410080  0.364500  1
  C  C565  1  0.440200  0.569700  0.756100  1
  C  C566  1  0.940200  0.430300  0.743900  1
  C  C567  1  0.559800  0.430300  0.243900  1
  C  C568  1  0.059800  0.569700  0.256100  1
  C  C569  1  0.409200  0.354380  0.866800  1
  C  C570  1  0.909200  0.645620  0.633200  1
  C  C571  1  0.590800  0.645620  0.133200  1
  C  C572  1  0.090800  0.354380  0.366800  1
  C  C573  1  0.601700  0.027700  0.849700  1
  C  C574  1  0.101700  0.972300  0.650300  1
  C  C575  1  0.398300  0.972300  0.150300  1
  C  C576  1  0.898300  0.027700  0.349700  1
  C  C577  1  0.176100  0.498100  0.797100  1
  C  C578  1  0.676100  0.501900  0.702900  1
  C  C579  1  0.823900  0.501900  0.202900  1
  C  C580  1  0.323900  0.498100  0.297100  1
  C  C581  1  0.460800  0.463200  0.929200  1
  C  C582  1  0.960800  0.536800  0.570800  1
  C  C583  1  0.539200  0.536800  0.070800  1
  C  C584  1  0.039200  0.463200  0.429200  1
  C  C585  1  0.207700  0.151500  0.724600  1
  C  C586  1  0.707700  0.848500  0.775400  1
  C  C587  1  0.792300  0.848500  0.275400  1
  C  C588  1  0.292300  0.151500  0.224600  1
  C  C589  1  0.435800  0.172500  0.670620  1
  C  C590  1  0.935800  0.827500  0.829380  1
  C  C591  1  0.564200  0.827500  0.329380  1
  C  C592  1  0.064200  0.172500  0.170620  1
  C  C593  1  0.222200  0.394600  0.899600  1
  C  C594  1  0.722200  0.605400  0.600400  1
  C  C595  1  0.777800  0.605400  0.100400  1
  C  C596  1  0.277800  0.394600  0.399600  1
  C  C597  1  0.637900  0.396300  0.904600  1
  C  C598  1  0.137900  0.603700  0.595400  1
  C  C599  1  0.362100  0.603700  0.095400  1
  C  C600  1  0.862100  0.396300  0.404600  1
  C  C601  1  0.137100  0.314500  0.708200  1
  C  C602  1  0.637100  0.685500  0.791800  1
  C  C603  1  0.862900  0.685500  0.291800  1
  C  C604  1  0.362900  0.314500  0.208200  1
  C  C605  1  0.193000  0.433100  0.706700  1
  C  C606  1  0.693000  0.566900  0.793300  1
  C  C607  1  0.807000  0.566900  0.293300  1
  C  C608  1  0.307000  0.433100  0.206700  1
  C  C609  1  0.491800  0.136200  0.638900  1
  C  C610  1  0.991800  0.863800  0.861100  1
  C  C611  1  0.508200  0.863800  0.361100  1
  C  C612  1  0.008200  0.136200  0.138900  1
  C  C613  1  0.186800  0.343000  0.877000  1
  C  C614  1  0.686800  0.657000  0.623000  1
  C  C615  1  0.813200  0.657000  0.123000  1
  C  C616  1  0.313200  0.343000  0.377000  1
  C  C617  1  0.292400  0.243000  0.900300  1
  C  C618  1  0.792400  0.757000  0.599700  1
  C  C619  1  0.707600  0.757000  0.099700  1
  C  C620  1  0.207600  0.243000  0.400300  1
  C  C621  1  0.395800  0.475000  0.711430  1
  C  C622  1  0.895800  0.525000  0.788570  1
  C  C623  1  0.604200  0.525000  0.288570  1
  C  C624  1  0.104200  0.475000  0.211430  1
  C  C625  1  0.249500  0.258400  0.697200  1
  C  C626  1  0.749500  0.741600  0.802800  1
  C  C627  1  0.750500  0.741600  0.302800  1
  C  C628  1  0.250500  0.258400  0.197200  1
  C  C629  1  0.216100  0.163400  0.890400  1
  C  C630  1  0.716100  0.836600  0.609600  1
  C  C631  1  0.783900  0.836600  0.109600  1
  C  C632  1  0.283900  0.163400  0.390400  1
  C  C633  1  0.240800  0.389900  0.670200  1
  C  C634  1  0.740800  0.610100  0.829800  1
  C  C635  1  0.759200  0.610100  0.329800  1
  C  C636  1  0.259200  0.389900  0.170200  1
  C  C637  1  0.404800  0.335870  0.694400  1
  C  C638  1  0.904800  0.664130  0.805600  1
  C  C639  1  0.595200  0.664130  0.305600  1
  C  C640  1  0.095200  0.335870  0.194400  1
  C  C641  1  0.518100  0.294700  0.706000  1
  C  C642  1  0.018100  0.705300  0.794000  1
  C  C643  1  0.481900  0.705300  0.294000  1
  C  C644  1  0.981900  0.294700  0.206000  1
  C  C645  1  0.285600  0.264800  0.956500  1
  C  C646  1  0.785600  0.735200  0.543500  1
  C  C647  1  0.714400  0.735200  0.043500  1
  C  C648  1  0.214400  0.264800  0.456500  1
  C  C649  1  0.235900  0.230000  0.642200  1
  C  C650  1  0.735900  0.770000  0.857800  1
  C  C651  1  0.764100  0.770000  0.357800  1
  C  C652  1  0.264100  0.230000  0.142200  1
  C  C653  1  0.400300  0.378800  0.922700  1
  C  C654  1  0.900300  0.621200  0.577300  1
  C  C655  1  0.599700  0.621200  0.077300  1
  C  C656  1  0.099700  0.378800  0.422700  1
  C  C657  1  0.172900  0.243300  0.619800  1
  C  C658  1  0.672900  0.756700  0.880200  1
  C  C659  1  0.827100  0.756700  0.380200  1
  C  C660  1  0.327100  0.243300  0.119800  1
  C  C661  1  0.467100  0.300600  0.671500  1
  C  C662  1  0.967100  0.699400  0.828500  1
  C  C663  1  0.532900  0.699400  0.328500  1
  C  C664  1  0.032900  0.300600  0.171500  1
  C  C665  1  0.123600  0.285600  0.652800  1
  C  C666  1  0.623600  0.714400  0.847200  1
  C  C667  1  0.876400  0.714400  0.347200  1
  C  C668  1  0.376400  0.285600  0.152800  1
  C  C669  1  0.740600  0.429700  0.786100  1
  C  C670  1  0.240600  0.570300  0.713900  1
  C  C671  1  0.259400  0.570300  0.213900  1
  C  C672  1  0.759400  0.429700  0.286100  1
  C  C673  1  0.694700  0.381300  0.773100  1
  C  C674  1  0.194700  0.618700  0.726900  1
  C  C675  1  0.305300  0.618700  0.226900  1
  C  C676  1  0.805300  0.381300  0.273100  1
  C  C677  1  0.425700  0.433200  0.953700  1
  C  C678  1  0.925700  0.566800  0.546300  1
  C  C679  1  0.574300  0.566800  0.046300  1
  C  C680  1  0.074300  0.433200  0.453700  1
  C  C681  1  0.209600  0.185800  0.946600  1
  C  C682  1  0.709600  0.814200  0.553400  1
  C  C683  1  0.790400  0.814200  0.053400  1
  C  C684  1  0.290400  0.185800  0.446600  1
  C  C685  1  0.040200  0.214100  0.707200  1
  C  C686  1  0.540200  0.785900  0.792800  1
  C  C687  1  0.959800  0.785900  0.292800  1
  C  C688  1  0.459800  0.214100  0.207200  1
  C  C689  1  0.113000  0.520700  0.783600  1
  C  C690  1  0.613000  0.479300  0.716400  1
  C  C691  1  0.887000  0.479300  0.216400  1
  C  C692  1  0.387000  0.520700  0.283600  1
  C  C693  1  0.717000  0.458400  0.878900  1
  C  C694  1  0.217000  0.541600  0.621100  1
  C  C695  1  0.283000  0.541600  0.121100  1
  C  C696  1  0.783000  0.458400  0.378900  1
  C  C697  1  0.751100  0.467300  0.839100  1
  C  C698  1  0.251100  0.532700  0.660900  1
  C  C699  1  0.248900  0.532700  0.160900  1
  C  C700  1  0.748900  0.467300  0.339100  1
  C  C701  1  0.244000  0.236300  0.979300  1
  C  C702  1  0.744000  0.763700  0.520700  1
  C  C703  1  0.756000  0.763700  0.020700  1
  C  C704  1  0.256000  0.236300  0.479300  1
  C  C705  1  0.128500  0.454400  0.691800  1
  C  C706  1  0.628500  0.545600  0.808200  1
  C  C707  1  0.871500  0.545600  0.308200  1
  C  C708  1  0.371500  0.454400  0.191800  1
  C  C709  1  0.995200  0.257400  0.747200  1
  C  C710  1  0.495200  0.742600  0.752800  1
  C  C711  1  0.004800  0.742600  0.252800  1
  C  C712  1  0.504800  0.257400  0.247200  1
  C  C713  1  0.089500  0.498200  0.730500  1
  C  C714  1  0.589500  0.501800  0.769500  1
  C  C715  1  0.910500  0.501800  0.269500  1
  C  C716  1  0.410500  0.498200  0.230500  1
  C  C717  1  0.914700  0.339000  0.831900  1
  C  C718  1  0.414700  0.661000  0.668100  1
  C  C719  1  0.085300  0.661000  0.168100  1
  C  C720  1  0.585300  0.339000  0.331900  1
  C  C721  1  0.929200  0.280400  0.736900  1
  C  C722  1  0.429200  0.719600  0.763100  1
  C  C723  1  0.070800  0.719600  0.263100  1
  C  C724  1  0.570800  0.280400  0.236900  1
  C  C725  1  0.041400  0.198900  0.874200  1
  C  C726  1  0.541400  0.801100  0.625800  1
  C  C727  1  0.958600  0.801100  0.125800  1
  C  C728  1  0.458600  0.198900  0.374200  1
  C  C729  1  0.079300  0.249700  0.909600  1
  C  C730  1  0.579300  0.750300  0.590400  1
  C  C731  1  0.920700  0.750300  0.090400  1
  C  C732  1  0.420700  0.249700  0.409600  1
  C  C733  1  0.019300  0.136300  0.783600  1
  C  C734  1  0.519300  0.863700  0.716400  1
  C  C735  1  0.980700  0.863700  0.216400  1
  C  C736  1  0.480700  0.136300  0.283600  1
  C  C737  1  0.957300  0.120900  0.853300  1
  C  C738  1  0.457300  0.879100  0.646700  1
  C  C739  1  0.042700  0.879100  0.146700  1
  C  C740  1  0.542700  0.120900  0.353300  1
  C  C741  1  0.981700  0.315800  0.842100  1
  C  C742  1  0.481700  0.684200  0.657900  1
  C  C743  1  0.018300  0.684200  0.157900  1
  C  C744  1  0.518300  0.315800  0.342100  1
  C  C745  1  0.889800  0.321600  0.780700  1
  C  C746  1  0.389800  0.678400  0.719300  1
  C  C747  1  0.110200  0.678400  0.219300  1
  C  C748  1  0.610200  0.321600  0.280700  1
  C  C749  1  0.994100  0.168800  0.893000  1
  C  C750  1  0.494100  0.831200  0.607000  1
  C  C751  1  0.005900  0.831200  0.107000  1
  C  C752  1  0.505900  0.168800  0.393000  1
  C  C753  1  0.970600  0.105000  0.799600  1
  C  C754  1  0.470600  0.895000  0.700400  1
  C  C755  1  0.029400  0.895000  0.200400  1
  C  C756  1  0.529400  0.105000  0.299600  1
  C  C757  1  0.833500  0.213700  0.819500  1
  C  C758  1  0.333500  0.786300  0.680500  1
  C  C759  1  0.166500  0.786300  0.180500  1
  C  C760  1  0.666500  0.213700  0.319500  1
  C  C761  1  0.738500  0.278800  0.864300  1
  C  C762  1  0.238500  0.721200  0.635700  1
  C  C763  1  0.261500  0.721200  0.135700  1
  C  C764  1  0.761500  0.278800  0.364300  1
  C  C765  1  0.805700  0.252800  0.864500  1
  C  C766  1  0.305700  0.747200  0.635500  1
  C  C767  1  0.194300  0.747200  0.135500  1
  C  C768  1  0.694300  0.252800  0.364500  1
  C  C769  1  0.732200  0.228800  0.770000  1
  C  C770  1  0.232200  0.771200  0.730000  1
  C  C771  1  0.267800  0.771200  0.230000  1
  C  C772  1  0.767800  0.228800  0.270000  1
  C  C773  1  0.799300  0.199300  0.767700  1
  C  C774  1  0.299300  0.800700  0.732300  1
  C  C775  1  0.200700  0.800700  0.232300  1
  C  C776  1  0.700700  0.199300  0.267700  1
  C  C777  1  0.687000  0.224300  0.722500  1
  C  C778  1  0.187000  0.775700  0.777500  1
  C  C779  1  0.313000  0.775700  0.277500  1
  C  C780  1  0.813000  0.224300  0.222500  1
  C  C781  1  0.674100  0.162600  0.870900  1
  C  C782  1  0.174100  0.837400  0.629100  1
  C  C783  1  0.325900  0.837400  0.129100  1
  C  C784  1  0.825900  0.162600  0.370900  1
  C  C785  1  0.702800  0.183200  0.926200  1
  C  C786  1  0.202800  0.816800  0.573800  1
  C  C787  1  0.297200  0.816800  0.073800  1
  C  C788  1  0.797200  0.183200  0.426200  1
  C  C789  1  0.061200  0.448900  0.879700  1
  C  C790  1  0.561200  0.551100  0.620300  1
  C  C791  1  0.938800  0.551100  0.120300  1
  C  C792  1  0.438800  0.448900  0.379700  1
  C  C793  1  0.046800  0.484000  0.937100  1
  C  C794  1  0.546800  0.516000  0.562900  1
  C  C795  1  0.953200  0.516000  0.062900  1
  C  C796  1  0.453200  0.484000  0.437100  1
  C  C797  1  0.402900  0.052700  0.429800  1
  C  C798  1  0.902900  0.947300  0.070200  1
  C  C799  1  0.597100  0.947300  0.570200  1
  C  C800  1  0.097100  0.052700  0.929800  1
  C  C801  1  0.402800  0.051200  0.481900  1
  C  C802  1  0.902800  0.948800  0.018100  1
  C  C803  1  0.597200  0.948800  0.518100  1
  C  C804  1  0.097200  0.051200  0.981900  1
  C  C805  1  0.322300  0.959900  0.602800  1
  C  C806  1  0.822300  0.040100  0.897200  1
  C  C807  1  0.677700  0.040100  0.397200  1
  C  C808  1  0.177700  0.959900  0.102800  1
  C  C809  1  0.361100  0.983200  0.570700  1
  C  C810  1  0.861100  0.016800  0.929300  1
  C  C811  1  0.638900  0.016800  0.429300  1
  C  C812  1  0.138900  0.983200  0.070700  1
  C  C813  1  0.254000  0.904600  0.441000  1
  C  C814  1  0.754000  0.095400  0.059000  1
  C  C815  1  0.746000  0.095400  0.559000  1
  C  C816  1  0.246000  0.904600  0.941000  1
  C  C817  1  0.211500  0.881300  0.470600  1
  C  C818  1  0.711500  0.118700  0.029400  1
  C  C819  1  0.788500  0.118700  0.529400  1
  C  C820  1  0.288500  0.881300  0.970600  1
  C  C821  1  0.966900  0.038500  0.568100  1
  C  C822  1  0.466900  0.961500  0.931900  1
  C  C823  1  0.033100  0.961500  0.431900  1
  C  C824  1  0.533100  0.038500  0.068100  1
  C  C825  1  0.949100  0.071600  0.624800  1
  C  C826  1  0.449100  0.928400  0.875200  1
  C  C827  1  0.050900  0.928400  0.375200  1
  C  C828  1  0.550900  0.071600  0.124800  1
  C  C829  1  0.713500  0.296800  0.120200  1
  C  C830  1  0.213500  0.703200  0.379800  1
  C  C831  1  0.286500  0.703200  0.879800  1
  C  C832  1  0.786500  0.296800  0.620200  1
  C  C833  1  0.715100  0.296300  0.066300  1
  C  C834  1  0.215100  0.703700  0.433700  1
  C  C835  1  0.284900  0.703700  0.933700  1
  C  C836  1  0.784900  0.296300  0.566300  1
  C  C837  1  0.940200  0.342800  0.052600  1
  C  C838  1  0.440200  0.657200  0.447400  1
  C  C839  1  0.059800  0.657200  0.947400  1
  C  C840  1  0.559800  0.342800  0.552600  1
  C  C841  1  0.902500  0.341900  0.093900  1
  C  C842  1  0.402500  0.658100  0.406100  1
  C  C843  1  0.097500  0.658100  0.906100  1
  C  C844  1  0.597500  0.341900  0.593900  1
  C  C845  1  0.835000  0.188500  0.775900  1
  C  C846  1  0.335000  0.811500  0.724100  1
  C  C847  1  0.165000  0.811500  0.224100  1
  C  C848  1  0.665000  0.188500  0.275900  1
  C  C849  1  0.747400  0.256500  0.835600  1
  C  C850  1  0.247400  0.743500  0.664400  1
  C  C851  1  0.252600  0.743500  0.164400  1
  C  C852  1  0.752600  0.256500  0.335600  1
  C  C853  1  0.811300  0.222600  0.824800  1
  C  C854  1  0.311300  0.777400  0.675200  1
  C  C855  1  0.188700  0.777400  0.175200  1
  C  C856  1  0.688700  0.222600  0.324800  1
  C  C857  1  0.727400  0.222400  0.742600  1
  C  C858  1  0.227400  0.777600  0.757400  1
  C  C859  1  0.272600  0.777600  0.257400  1
  C  C860  1  0.772600  0.222400  0.242600  1
  C  C861  1  0.792400  0.188200  0.731500  1
  C  C862  1  0.292400  0.811800  0.768500  1
  C  C863  1  0.207600  0.811800  0.268500  1
  C  C864  1  0.707600  0.188200  0.231500  1
  C  C865  1  0.682800  0.223600  0.698500  1
  C  C866  1  0.182800  0.776400  0.801500  1
  C  C867  1  0.317200  0.776400  0.301500  1
  C  C868  1  0.817200  0.223600  0.198500  1
  C  C869  1  0.954800  0.348400  0.005600  1
  C  C870  1  0.454800  0.651600  0.494400  1
  C  C871  1  0.045200  0.651600  0.994400  1
  C  C872  1  0.545200  0.348400  0.505600  1
  C  C873  1  0.918000  0.314000  0.001000  1
  C  C874  1  0.418000  0.686000  0.499000  1
  C  C875  1  0.082000  0.686000  0.999000  1
  C  C876  1  0.582000  0.314000  0.501000  1
  N  N877  1  0.343510  0.041970  0.810980  1
  N  N878  1  0.843510  0.958030  0.689020  1
  N  N879  1  0.656490  0.958030  0.189020  1
  N  N880  1  0.156490  0.041970  0.310980  1
  N  N881  1  0.319410  0.131530  0.782680  1
  N  N882  1  0.819410  0.868470  0.717320  1
  N  N883  1  0.680590  0.868470  0.217320  1
  N  N884  1  0.180590  0.131530  0.282680  1
  N  N885  1  0.426670  0.065720  0.736050  1
  N  N886  1  0.926670  0.934280  0.763950  1
  N  N887  1  0.573330  0.934280  0.263950  1
  N  N888  1  0.073330  0.065720  0.236050  1
  N  N889  1  0.465350  0.176450  0.837320  1
  N  N890  1  0.965350  0.823550  0.662680  1
  N  N891  1  0.534650  0.823550  0.162680  1
  N  N892  1  0.034650  0.176450  0.337320  1
  N  N893  1  0.377800  0.069490  0.699450  1
  N  N894  1  0.877800  0.930510  0.800550  1
  N  N895  1  0.622200  0.930510  0.300550  1
  N  N896  1  0.122200  0.069490  0.199450  1
  N  N897  1  0.432800  0.175840  0.919250  1
  N  N898  1  0.932800  0.824160  0.580750  1
  N  N899  1  0.567200  0.824160  0.080750  1
  N  N900  1  0.067200  0.175840  0.419250  1
  N  N901  1  0.251500  0.380140  0.808380  1
  N  N902  1  0.751500  0.619860  0.691620  1
  N  N903  1  0.748500  0.619860  0.191620  1
  N  N904  1  0.248500  0.380140  0.308380  1
  N  N905  1  0.501000  0.061590  0.812940  1
  N  N906  1  0.001000  0.938410  0.687060  1
  N  N907  1  0.499000  0.938410  0.187060  1
  N  N908  1  0.999000  0.061590  0.312940  1
  N  N909  1  0.537510  0.252790  0.836890  1
  N  N910  1  0.037510  0.747210  0.663110  1
  N  N911  1  0.462490  0.747210  0.163110  1
  N  N912  1  0.962490  0.252790  0.336890  1
  N  N913  1  0.394030  0.128160  0.886530  1
  N  N914  1  0.894030  0.871840  0.613470  1
  N  N915  1  0.605970  0.871840  0.113470  1
  N  N916  1  0.105970  0.128160  0.386530  1
  N  N917  1  0.321700  0.473110  0.841820  1
  N  N918  1  0.821700  0.526890  0.658180  1
  N  N919  1  0.678300  0.526890  0.158180  1
  N  N920  1  0.178300  0.473110  0.341820  1
  N  N921  1  0.290300  0.462080  0.881330  1
  N  N922  1  0.790300  0.537920  0.618670  1
  N  N923  1  0.709700  0.537920  0.118670  1
  N  N924  1  0.209700  0.462080  0.381330  1
  N  N925  1  0.206900  0.181200  0.780500  1
  N  N926  1  0.706900  0.818800  0.719500  1
  N  N927  1  0.793100  0.818800  0.219500  1
  N  N928  1  0.293100  0.181200  0.280500  1
  N  N929  1  0.573300  0.327800  0.917690  1
  N  N930  1  0.073300  0.672200  0.582310  1
  N  N931  1  0.426700  0.672200  0.082310  1
  N  N932  1  0.926700  0.327800  0.417690  1
  N  N933  1  0.370100  0.476480  0.758000  1
  N  N934  1  0.870100  0.523520  0.742000  1
  N  N935  1  0.629900  0.523520  0.242000  1
  N  N936  1  0.129900  0.476480  0.258000  1
  N  N937  1  0.602900  0.348680  0.884360  1
  N  N938  1  0.102900  0.651320  0.615640  1
  N  N939  1  0.397100  0.651320  0.115640  1
  N  N940  1  0.897100  0.348680  0.384360  1
  N  N941  1  0.512000  0.320990  0.762120  1
  N  N942  1  0.012000  0.679010  0.737880  1
  N  N943  1  0.488000  0.679010  0.237880  1
  N  N944  1  0.988000  0.320990  0.262120  1
  N  N945  1  0.181400  0.310140  0.822420  1
  N  N946  1  0.681400  0.689860  0.677580  1
  N  N947  1  0.818600  0.689860  0.177580  1
  N  N948  1  0.318600  0.310140  0.322420  1
  N  N949  1  0.215900  0.455520  0.760160  1
  N  N950  1  0.715900  0.544480  0.739840  1
  N  N951  1  0.784100  0.544480  0.239840  1
  N  N952  1  0.284100  0.455520  0.260160  1
  N  N953  1  0.400000  0.366290  0.751640  1
  N  N954  1  0.900000  0.633710  0.748360  1
  N  N955  1  0.600000  0.633710  0.248360  1
  N  N956  1  0.100000  0.366290  0.251640  1
  N  N957  1  0.296800  0.376690  0.693530  1
  N  N958  1  0.796800  0.623310  0.806470  1
  N  N959  1  0.703200  0.623310  0.306470  1
  N  N960  1  0.203200  0.376690  0.193530  1
  N  N961  1  0.662200  0.371680  0.812330  1
  N  N962  1  0.162200  0.628320  0.687670  1
  N  N963  1  0.337800  0.628320  0.187670  1
  N  N964  1  0.837800  0.371680  0.312330  1
  N  N965  1  0.350900  0.340300  0.662500  1
  N  N966  1  0.850900  0.659700  0.837500  1
  N  N967  1  0.649100  0.659700  0.337500  1
  N  N968  1  0.149100  0.340300  0.162500  1
  N  N969  1  0.099300  0.202000  0.729200  1
  N  N970  1  0.599300  0.798000  0.770800  1
  N  N971  1  0.900700  0.798000  0.270800  1
  N  N972  1  0.400700  0.202000  0.229200  1
  N  N973  1  0.147100  0.160260  0.697800  1
  N  N974  1  0.647100  0.839740  0.802200  1
  N  N975  1  0.852900  0.839740  0.302200  1
  N  N976  1  0.352900  0.160260  0.197800  1
  N  N977  1  0.625500  0.255610  0.723600  1
  N  N978  1  0.125500  0.744390  0.776400  1
  N  N979  1  0.374500  0.744390  0.276400  1
  N  N980  1  0.874500  0.255610  0.223600  1
  N  N981  1  0.153200  0.322100  0.909200  1
  N  N982  1  0.653200  0.677900  0.590800  1
  N  N983  1  0.846800  0.677900  0.090800  1
  N  N984  1  0.346800  0.322100  0.409200  1
  N  N985  1  0.118100  0.271900  0.883600  1
  N  N986  1  0.618100  0.728100  0.616400  1
  N  N987  1  0.881900  0.728100  0.116400  1
  N  N988  1  0.381900  0.271900  0.383600  1
  N  N989  1  0.580200  0.260100  0.686500  1
  N  N990  1  0.080200  0.739900  0.813500  1
  N  N991  1  0.419800  0.739900  0.313500  1
  N  N992  1  0.919800  0.260100  0.186500  1
  N  N993  1  0.020100  0.275900  0.799400  1
  N  N994  1  0.520100  0.724100  0.700600  1
  N  N995  1  0.979900  0.724100  0.200600  1
  N  N996  1  0.479900  0.275900  0.299400  1
  N  N997  1  0.053400  0.183000  0.820300  1
  N  N998  1  0.553400  0.817000  0.679700  1
  N  N999  1  0.946600  0.817000  0.179700  1
  N  N1000  1  0.446600  0.183000  0.320300  1
  N  N1001  1  0.703000  0.260800  0.804800  1
  N  N1002  1  0.203000  0.739200  0.695200  1
  N  N1003  1  0.297000  0.739200  0.195200  1
  N  N1004  1  0.797000  0.260800  0.304800  1
  N  N1005  1  0.652000  0.147250  0.828150  1
  N  N1006  1  0.152000  0.852750  0.671850  1
  N  N1007  1  0.348000  0.852750  0.171850  1
  N  N1008  1  0.848000  0.147250  0.328150  1
  N  N1009  1  0.070800  0.420800  0.835400  1
  N  N1010  1  0.570800  0.579200  0.664600  1
  N  N1011  1  0.929200  0.579200  0.164600  1
  N  N1012  1  0.429200  0.420800  0.335400  1
  N  N1013  1  0.402800  0.053300  0.389100  1
  N  N1014  1  0.902800  0.946700  0.110900  1
  N  N1015  1  0.597200  0.946700  0.610900  1
  N  N1016  1  0.097200  0.053300  0.889100  1
  N  N1017  1  0.292500  0.941700  0.627800  1
  N  N1018  1  0.792500  0.058300  0.872200  1
  N  N1019  1  0.707500  0.058300  0.372200  1
  N  N1020  1  0.207500  0.941700  0.127800  1
  N  N1021  1  0.288700  0.924400  0.419300  1
  N  N1022  1  0.788700  0.075600  0.080700  1
  N  N1023  1  0.711300  0.075600  0.580700  1
  N  N1024  1  0.211300  0.924400  0.919300  1
  N  N1025  1  0.936000  0.097000  0.668400  1
  N  N1026  1  0.436000  0.903000  0.831600  1
  N  N1027  1  0.064000  0.903000  0.331600  1
  N  N1028  1  0.564000  0.097000  0.168400  1
  N  N1029  1  0.712500  0.289700  0.160100  1
  N  N1030  1  0.212500  0.710300  0.339900  1
  N  N1031  1  0.287500  0.710300  0.839900  1
  N  N1032  1  0.787500  0.289700  0.660100  1
  N  N1033  1  0.874400  0.349800  0.136300  1
  N  N1034  1  0.374400  0.650200  0.363700  1
  N  N1035  1  0.125600  0.650200  0.863700  1
  N  N1036  1  0.625600  0.349800  0.636300  1
  N  N1037  1  0.964800  0.347700  0.961700  1
  N  N1038  1  0.464800  0.652300  0.538300  1
  N  N1039  1  0.035200  0.652300  0.038300  1
  N  N1040  1  0.535200  0.347700  0.461700  1
  N  N1041  1  0.909000  0.293700  0.952600  1
  N  N1042  1  0.409000  0.706300  0.547400  1
  N  N1043  1  0.091000  0.706300  0.047400  1
  N  N1044  1  0.591000  0.293700  0.452600  1
  F  F1045  1  0.480800  0.435920  0.097070  1
  F  F1046  1  0.980800  0.564080  0.402930  1
  F  F1047  1  0.519200  0.564080  0.902930  1
  F  F1048  1  0.019200  0.435920  0.597070  1
  F  F1049  1  0.431500  0.358730  0.025060  1
  F  F1050  1  0.931500  0.641270  0.474940  1
  F  F1051  1  0.568500  0.641270  0.974940  1
  F  F1052  1  0.068500  0.358730  0.525060  1
  F  F1053  1  0.552900  0.383200  0.028090  1
  F  F1054  1  0.052900  0.616800  0.471910  1
  F  F1055  1  0.447100  0.616800  0.971910  1
  F  F1056  1  0.947100  0.383200  0.528090  1
  F  F1057  1  0.508800  0.349360  0.084300  1
  F  F1058  1  0.008800  0.650640  0.415700  1
  F  F1059  1  0.491200  0.650640  0.915700  1
  F  F1060  1  0.991200  0.349360  0.584300  1
  F  F1061  1  0.132700  0.104390  0.586890  1
  F  F1062  1  0.632700  0.895610  0.913110  1
  F  F1063  1  0.867300  0.895610  0.413110  1
  F  F1064  1  0.367300  0.104390  0.086890  1
  F  F1065  1  0.255800  0.087040  0.565650  1
  F  F1066  1  0.755800  0.912960  0.934350  1
  F  F1067  1  0.744200  0.912960  0.434350  1
  F  F1068  1  0.244200  0.087040  0.065650  1
  F  F1069  1  0.174100  0.016050  0.550800  1
  F  F1070  1  0.674100  0.983950  0.949200  1
  F  F1071  1  0.825900  0.983950  0.449200  1
  F  F1072  1  0.325900  0.016050  0.050800  1
  F  F1073  1  0.167400  0.060500  0.498890  1
  F  F1074  1  0.667400  0.939500  0.001110  1
  F  F1075  1  0.832600  0.939500  0.501110  1
  F  F1076  1  0.332600  0.060500  0.998890  1
  F  F1077  1  0.518700  0.117470  0.991910  1
  F  F1078  1  0.018700  0.882530  0.508090  1
  F  F1079  1  0.481300  0.882530  0.008090  1
  F  F1080  1  0.981300  0.117470  0.491910  1
  F  F1081  1  0.529100  0.180000  0.081660  1
  F  F1082  1  0.029100  0.820000  0.418340  1
  F  F1083  1  0.470900  0.820000  0.918340  1
  F  F1084  1  0.970900  0.180000  0.581660  1
  F  F1085  1  0.451100  0.199800  0.025010  1
  F  F1086  1  0.951100  0.800200  0.474990  1
  F  F1087  1  0.548900  0.800200  0.974990  1
  F  F1088  1  0.048900  0.199800  0.525010  1
  F  F1089  1  0.577600  0.202400  0.018300  1
  F  F1090  1  0.077600  0.797600  0.481700  1
  F  F1091  1  0.422400  0.797600  0.981700  1
  F  F1092  1  0.922400  0.202400  0.518300  1
  F  F1093  1  0.277400  0.541210  0.986490  1
  F  F1094  1  0.777400  0.458790  0.513510  1
  F  F1095  1  0.722600  0.458790  0.013510  1
  F  F1096  1  0.222600  0.541210  0.486490  1
  F  F1097  1  0.276300  0.636300  0.014000  1
  F  F1098  1  0.776300  0.363700  0.486000  1
  F  F1099  1  0.723700  0.363700  0.986000  1
  F  F1100  1  0.223700  0.636300  0.514000  1
  F  F1101  1  0.209600  0.578900  0.940670  1
  F  F1102  1  0.709600  0.421100  0.559330  1
  F  F1103  1  0.790400  0.421100  0.059330  1
  F  F1104  1  0.290400  0.578900  0.440670  1
  F  F1105  1  0.175800  0.593800  0.026600  1
  F  F1106  1  0.675800  0.406200  0.473400  1
  F  F1107  1  0.824200  0.406200  0.973400  1
  F  F1108  1  0.324200  0.593800  0.526600  1
  F  F1109  1  0.093300  0.435300  0.087570  1
  F  F1110  1  0.593300  0.564700  0.412430  1
  F  F1111  1  0.906700  0.564700  0.912430  1
  F  F1112  1  0.406700  0.435300  0.587570  1
  F  F1113  1  0.132100  0.356800  0.017600  1
  F  F1114  1  0.632100  0.643200  0.482400  1
  F  F1115  1  0.867900  0.643200  0.982400  1
  F  F1116  1  0.367900  0.356800  0.517600  1
  F  F1117  1  0.156000  0.438700  0.017300  1
  F  F1118  1  0.656000  0.561300  0.482700  1
  F  F1119  1  0.844000  0.561300  0.982700  1
  F  F1120  1  0.344000  0.438700  0.517300  1
  F  F1121  1  0.213700  0.414300  0.071300  1
  F  F1122  1  0.713700  0.585700  0.428700  1
  F  F1123  1  0.786300  0.585700  0.928700  1
  F  F1124  1  0.286300  0.414300  0.571300  1
  F  F1125  1  0.624000  0.198400  0.579920  1
  F  F1126  1  0.124000  0.801600  0.920080  1
  F  F1127  1  0.376000  0.801600  0.420080  1
  F  F1128  1  0.876000  0.198400  0.079920  1
  F  F1129  1  0.630500  0.181700  0.492700  1
  F  F1130  1  0.130500  0.818300  0.007300  1
  F  F1131  1  0.369500  0.818300  0.507300  1
  F  F1132  1  0.869500  0.181700  0.992700  1
  F  F1133  1  0.560300  0.128500  0.516500  1
  F  F1134  1  0.060300  0.871500  0.983500  1
  F  F1135  1  0.439700  0.871500  0.483500  1
  F  F1136  1  0.939700  0.128500  0.016500  1
  F  F1137  1  0.522500  0.214800  0.539600  1
  F  F1138  1  0.022500  0.785200  0.960400  1
  F  F1139  1  0.477500  0.785200  0.460400  1
  F  F1140  1  0.977500  0.214800  0.039600  1
  F  F1141  1  0.064100  0.401400  0.003100  1
  F  F1142  1  0.564100  0.598600  0.496900  1
  F  F1143  1  0.935900  0.598600  0.996900  1
  F  F1144  1  0.435900  0.401400  0.503100  1
