# generated using pymatgen
data_Fe4B7H94C104(N8F5)5
_symmetry_space_group_name_H-M   'P 1'
_cell_length_a   17.73590000
_cell_length_b   26.94800000
_cell_length_c   27.53200000
_cell_angle_alpha   115.37600000
_cell_angle_beta   90.00000000
_cell_angle_gamma   90.00000000
_symmetry_Int_Tables_number   1
_chemical_formula_structural   Fe4B7H94C104(N8F5)5
_chemical_formula_sum   'Fe16 B28 H376 C416 N160 F100'
_cell_volume   11889.20575464
_cell_formula_units_Z   4
loop_
 _symmetry_equiv_pos_site_id
 _symmetry_equiv_pos_as_xyz
  1  'x, y, z'
loop_
 _atom_site_type_symbol
 _atom_site_label
 _atom_site_symmetry_multiplicity
 _atom_site_fract_x
 _atom_site_fract_y
 _atom_site_fract_z
 _atom_site_occupancy
  Fe  Fe1  1  0.410430  0.101130  0.809940  1
  Fe  Fe2  1  0.910430  0.898870  0.690060  1
  Fe  Fe3  1  0.589570  0.898870  0.190060  1
  Fe  Fe4  1  0.089570  0.101130  0.309940  1
  Fe  Fe5  1  0.312790  0.421710  0.767770  1
  Fe  Fe6  1  0.812790  0.578290  0.732230  1
  Fe  Fe7  1  0.687210  0.578290  0.232230  1
  Fe  Fe8  1  0.187210  0.421710  0.267770  1
  Fe  Fe9  1  0.596190  0.299220  0.800580  1
  Fe  Fe10  1  0.096190  0.700780  0.699420  1
  Fe  Fe11  1  0.403810  0.700780  0.199420  1
  Fe  Fe12  1  0.903810  0.299220  0.300580  1
  Fe  Fe13  1  0.123330  0.235910  0.799360  1
  Fe  Fe14  1  0.623330  0.764090  0.700640  1
  Fe  Fe15  1  0.876670  0.764090  0.200640  1
  Fe  Fe16  1  0.376670  0.235910  0.299360  1
  B  B17  1  0.481800  0.378800  0.057000  1
  B  B18  1  0.981800  0.621200  0.443000  1
  B  B19  1  0.518200  0.621200  0.943000  1
  B  B20  1  0.018200  0.378800  0.557000  1
  B  B21  1  0.194800  0.066500  0.545000  1
  B  B22  1  0.694800  0.933500  0.955000  1
  B  B23  1  0.805200  0.933500  0.455000  1
  B  B24  1  0.305200  0.066500  0.045000  1
  B  B25  1  0.517100  0.170600  0.025800  1
  B  B26  1  0.017100  0.829400  0.474200  1
  B  B27  1  0.482900  0.829400  0.974200  1
  B  B28  1  0.982900  0.170600  0.525800  1
  B  B29  1  0.244600  0.581900  0.983000  1
  B  B30  1  0.744600  0.418100  0.517000  1
  B  B31  1  0.755400  0.418100  0.017000  1
  B  B32  1  0.255400  0.581900  0.483000  1
  B  B33  1  0.139300  0.412200  0.044400  1
  B  B34  1  0.639300  0.587800  0.455600  1
  B  B35  1  0.860700  0.587800  0.955600  1
  B  B36  1  0.360700  0.412200  0.544400  1
  B  B37  1  0.592800  0.188500  0.533600  1
  B  B38  1  0.092800  0.811500  0.966400  1
  B  B39  1  0.407200  0.811500  0.466400  1
  B  B40  1  0.907200  0.188500  0.033600  1
  B  B41  1  0.198600  0.081100  0.541600  1
  B  B42  1  0.698600  0.918900  0.958400  1
  B  B43  1  0.801400  0.918900  0.458400  1
  B  B44  1  0.301400  0.081100  0.041600  1
  H  H45  1  0.426800  0.186400  0.952200  1
  H  H46  1  0.926800  0.813600  0.547800  1
  H  H47  1  0.573200  0.813600  0.047800  1
  H  H48  1  0.073200  0.186400  0.452200  1
  H  H49  1  0.301000  0.483800  0.912600  1
  H  H50  1  0.801000  0.516200  0.587400  1
  H  H51  1  0.699000  0.516200  0.087400  1
  H  H52  1  0.199000  0.483800  0.412600  1
  H  H53  1  0.575200  0.339900  0.952400  1
  H  H54  1  0.075200  0.660100  0.547600  1
  H  H55  1  0.424800  0.660100  0.047600  1
  H  H56  1  0.924800  0.339900  0.452400  1
  H  H57  1  0.152300  0.132600  0.653800  1
  H  H58  1  0.652300  0.867400  0.846200  1
  H  H59  1  0.847700  0.867400  0.346200  1
  H  H60  1  0.347700  0.132600  0.153800  1
  H  H61  1  0.504200  0.011400  0.684800  1
  H  H62  1  0.004200  0.988600  0.815200  1
  H  H63  1  0.495800  0.988600  0.315200  1
  H  H64  1  0.995800  0.011400  0.184800  1
  H  H65  1  0.150200  0.347100  0.942300  1
  H  H66  1  0.650200  0.652900  0.557700  1
  H  H67  1  0.849800  0.652900  0.057700  1
  H  H68  1  0.349800  0.347100  0.442300  1
  H  H69  1  0.592200  0.098100  0.646200  1
  H  H70  1  0.092200  0.901900  0.853800  1
  H  H71  1  0.407800  0.901900  0.353800  1
  H  H72  1  0.907800  0.098100  0.146200  1
  H  H73  1  0.274700  0.010900  0.902200  1
  H  H74  1  0.774700  0.989100  0.597800  1
  H  H75  1  0.725300  0.989100  0.097800  1
  H  H76  1  0.225300  0.010900  0.402200  1
  H  H77  1  0.331600  0.993900  0.731300  1
  H  H78  1  0.831600  0.006100  0.768700  1
  H  H79  1  0.668400  0.006100  0.268700  1
  H  H80  1  0.168400  0.993900  0.231300  1
  H  H81  1  0.367400  0.547200  0.884700  1
  H  H82  1  0.867400  0.452800  0.615300  1
  H  H83  1  0.632600  0.452800  0.115300  1
  H  H84  1  0.132600  0.547200  0.384700  1
  H  H85  1  0.502900  0.454900  0.848500  1
  H  H86  1  0.002900  0.545100  0.651500  1
  H  H87  1  0.497100  0.545100  0.151500  1
  H  H88  1  0.997100  0.454900  0.348500  1
  H  H89  1  0.434800  0.599200  0.834500  1
  H  H90  1  0.934800  0.400800  0.665500  1
  H  H91  1  0.565200  0.400800  0.165500  1
  H  H92  1  0.065200  0.599200  0.334500  1
  H  H93  1  0.354500  0.103400  0.939300  1
  H  H94  1  0.854500  0.896600  0.560700  1
  H  H95  1  0.645500  0.896600  0.060700  1
  H  H96  1  0.145500  0.103400  0.439300  1
  H  H97  1  0.503200  0.265600  0.959700  1
  H  H98  1  0.003200  0.734400  0.540300  1
  H  H99  1  0.496800  0.734400  0.040300  1
  H  H100  1  0.996800  0.265600  0.459700  1
  H  H101  1  0.586700  0.246800  0.647300  1
  H  H102  1  0.086700  0.753200  0.852700  1
  H  H103  1  0.413300  0.753200  0.352700  1
  H  H104  1  0.913300  0.246800  0.147300  1
  H  H105  1  0.593700  0.131300  0.739400  1
  H  H106  1  0.093700  0.868700  0.760600  1
  H  H107  1  0.406300  0.868700  0.260600  1
  H  H108  1  0.906300  0.131300  0.239400  1
  H  H109  1  0.518500  0.084000  0.892700  1
  H  H110  1  0.018500  0.916000  0.607300  1
  H  H111  1  0.481500  0.916000  0.107300  1
  H  H112  1  0.981500  0.084000  0.392700  1
  H  H113  1  0.228700  0.936000  0.826700  1
  H  H114  1  0.728700  0.064000  0.673300  1
  H  H115  1  0.771300  0.064000  0.173300  1
  H  H116  1  0.271300  0.936000  0.326700  1
  H  H117  1  0.272400  0.089100  0.653100  1
  H  H118  1  0.772400  0.910900  0.846900  1
  H  H119  1  0.727600  0.910900  0.346900  1
  H  H120  1  0.227600  0.089100  0.153100  1
  H  H121  1  0.451700  0.517600  0.672900  1
  H  H122  1  0.951700  0.482400  0.827100  1
  H  H123  1  0.548300  0.482400  0.327100  1
  H  H124  1  0.048300  0.517600  0.172900  1
  H  H125  1  0.618200  0.977900  0.724500  1
  H  H126  1  0.118200  0.022100  0.775500  1
  H  H127  1  0.381800  0.022100  0.275500  1
  H  H128  1  0.881800  0.977900  0.224500  1
  H  H129  1  0.404400  0.218500  0.747100  1
  H  H130  1  0.904400  0.781500  0.752900  1
  H  H131  1  0.595600  0.781500  0.252900  1
  H  H132  1  0.095600  0.218500  0.247100  1
  H  H133  1  0.255300  0.928600  0.741300  1
  H  H134  1  0.755300  0.071400  0.758700  1
  H  H135  1  0.744700  0.071400  0.258700  1
  H  H136  1  0.244700  0.928600  0.241300  1
  H  H137  1  0.676000  0.978500  0.800600  1
  H  H138  1  0.176000  0.021500  0.699400  1
  H  H139  1  0.324000  0.021500  0.199400  1
  H  H140  1  0.824000  0.978500  0.300600  1
  H  H141  1  0.475300  0.595600  0.751600  1
  H  H142  1  0.975300  0.404400  0.748400  1
  H  H143  1  0.524700  0.404400  0.248400  1
  H  H144  1  0.024700  0.595600  0.251600  1
  H  H145  1  0.393200  0.321000  0.843000  1
  H  H146  1  0.893200  0.679000  0.657000  1
  H  H147  1  0.606800  0.679000  0.157000  1
  H  H148  1  0.106800  0.321000  0.343000  1
  H  H149  1  0.626700  0.032200  0.885000  1
  H  H150  1  0.126700  0.967800  0.615000  1
  H  H151  1  0.373300  0.967800  0.115000  1
  H  H152  1  0.873300  0.032200  0.385000  1
  H  H153  1  0.200500  0.514800  0.834200  1
  H  H154  1  0.700500  0.485200  0.665800  1
  H  H155  1  0.799500  0.485200  0.165800  1
  H  H156  1  0.299500  0.514800  0.334200  1
  H  H157  1  0.492500  0.495000  0.942500  1
  H  H158  1  0.992500  0.505000  0.557500  1
  H  H159  1  0.507500  0.505000  0.057500  1
  H  H160  1  0.007500  0.495000  0.442500  1
  H  H161  1  0.403600  0.182900  0.654400  1
  H  H162  1  0.903600  0.817100  0.845600  1
  H  H163  1  0.596400  0.817100  0.345600  1
  H  H164  1  0.096400  0.182900  0.154400  1
  H  H165  1  0.227000  0.419300  0.934700  1
  H  H166  1  0.727000  0.580700  0.565300  1
  H  H167  1  0.773000  0.580700  0.065300  1
  H  H168  1  0.273000  0.419300  0.434700  1
  H  H169  1  0.639700  0.412100  0.943700  1
  H  H170  1  0.139700  0.587900  0.556300  1
  H  H171  1  0.360300  0.587900  0.056300  1
  H  H172  1  0.860300  0.412100  0.443700  1
  H  H173  1  0.109500  0.347100  0.729100  1
  H  H174  1  0.609500  0.652900  0.770900  1
  H  H175  1  0.890500  0.652900  0.270900  1
  H  H176  1  0.390500  0.347100  0.229100  1
  H  H177  1  0.496700  0.123000  0.603800  1
  H  H178  1  0.996700  0.877000  0.896200  1
  H  H179  1  0.503300  0.877000  0.396200  1
  H  H180  1  0.003300  0.123000  0.103800  1
  H  H181  1  0.320000  0.259900  0.871700  1
  H  H182  1  0.820000  0.740100  0.628300  1
  H  H183  1  0.680000  0.740100  0.128300  1
  H  H184  1  0.180000  0.259900  0.371700  1
  H  H185  1  0.389100  0.443600  0.677100  1
  H  H186  1  0.889100  0.556400  0.822900  1
  H  H187  1  0.610900  0.556400  0.322900  1
  H  H188  1  0.110900  0.443600  0.177100  1
  H  H189  1  0.294700  0.253600  0.714500  1
  H  H190  1  0.794700  0.746400  0.785500  1
  H  H191  1  0.705300  0.746400  0.285500  1
  H  H192  1  0.205300  0.253600  0.214500  1
  H  H193  1  0.197300  0.130300  0.865400  1
  H  H194  1  0.697300  0.869700  0.634600  1
  H  H195  1  0.802700  0.869700  0.134600  1
  H  H196  1  0.302700  0.130300  0.365400  1
  H  H197  1  0.231200  0.378500  0.633700  1
  H  H198  1  0.731200  0.621500  0.866300  1
  H  H199  1  0.768800  0.621500  0.366300  1
  H  H200  1  0.268800  0.378500  0.133700  1
  H  H201  1  0.307700  0.301400  0.965500  1
  H  H202  1  0.807700  0.698600  0.534500  1
  H  H203  1  0.692300  0.698600  0.034500  1
  H  H204  1  0.192300  0.301400  0.465500  1
  H  H205  1  0.270100  0.204500  0.622900  1
  H  H206  1  0.770100  0.795500  0.877100  1
  H  H207  1  0.729900  0.795500  0.377100  1
  H  H208  1  0.229900  0.204500  0.122900  1
  H  H209  1  0.385400  0.361200  0.936200  1
  H  H210  1  0.885400  0.638800  0.563800  1
  H  H211  1  0.614600  0.638800  0.063800  1
  H  H212  1  0.114600  0.361200  0.436200  1
  H  H213  1  0.167300  0.228100  0.585000  1
  H  H214  1  0.667300  0.771900  0.915000  1
  H  H215  1  0.832700  0.771900  0.415000  1
  H  H216  1  0.332700  0.228100  0.085000  1
  H  H217  1  0.469100  0.285800  0.630900  1
  H  H218  1  0.969100  0.714200  0.869100  1
  H  H219  1  0.530900  0.714200  0.369100  1
  H  H220  1  0.030900  0.285800  0.130900  1
  H  H221  1  0.086500  0.296900  0.636600  1
  H  H222  1  0.586500  0.703100  0.863400  1
  H  H223  1  0.913500  0.703100  0.363400  1
  H  H224  1  0.413500  0.296900  0.136600  1
  H  H225  1  0.770400  0.436400  0.765900  1
  H  H226  1  0.270400  0.563600  0.734100  1
  H  H227  1  0.229600  0.563600  0.234100  1
  H  H228  1  0.729600  0.436400  0.265900  1
  H  H229  1  0.691000  0.360900  0.742300  1
  H  H230  1  0.191000  0.639100  0.757700  1
  H  H231  1  0.309000  0.639100  0.257700  1
  H  H232  1  0.809000  0.360900  0.242300  1
  H  H233  1  0.433700  0.447100  0.985900  1
  H  H234  1  0.933700  0.552900  0.514100  1
  H  H235  1  0.566300  0.552900  0.014100  1
  H  H236  1  0.066300  0.447100  0.485900  1
  H  H237  1  0.185500  0.173300  0.958500  1
  H  H238  1  0.685500  0.826700  0.541500  1
  H  H239  1  0.814500  0.826700  0.041500  1
  H  H240  1  0.314500  0.173300  0.458500  1
  H  H241  1  0.042500  0.183500  0.655100  1
  H  H242  1  0.542500  0.816500  0.844900  1
  H  H243  1  0.957500  0.816500  0.344900  1
  H  H244  1  0.457500  0.183500  0.155100  1
  H  H245  1  0.096500  0.556300  0.814900  1
  H  H246  1  0.596500  0.443700  0.685100  1
  H  H247  1  0.903500  0.443700  0.185100  1
  H  H248  1  0.403500  0.556300  0.314900  1
  H  H249  1  0.725600  0.476800  0.921100  1
  H  H250  1  0.225600  0.523200  0.578900  1
  H  H251  1  0.274400  0.523200  0.078900  1
  H  H252  1  0.774400  0.476800  0.421100  1
  H  H253  1  0.789300  0.494400  0.855900  1
  H  H254  1  0.289300  0.505600  0.644100  1
  H  H255  1  0.210700  0.505600  0.144100  1
  H  H256  1  0.710700  0.494400  0.355900  1
  H  H257  1  0.241000  0.257200  0.007800  1
  H  H258  1  0.741000  0.742800  0.492200  1
  H  H259  1  0.759000  0.742800  0.992200  1
  H  H260  1  0.259000  0.257200  0.507800  1
  H  H261  1  0.114900  0.446900  0.659400  1
  H  H262  1  0.614900  0.553100  0.840600  1
  H  H263  1  0.885100  0.553100  0.340600  1
  H  H264  1  0.385100  0.446900  0.159400  1
  H  H265  1  0.052700  0.520800  0.725800  1
  H  H266  1  0.552700  0.479200  0.774200  1
  H  H267  1  0.947300  0.479200  0.274200  1
  H  H268  1  0.447300  0.520800  0.225800  1
  H  H269  1  0.846300  0.230200  0.856300  1
  H  H270  1  0.346300  0.769800  0.643700  1
  H  H271  1  0.153700  0.769800  0.143700  1
  H  H272  1  0.653700  0.230200  0.356300  1
  H  H273  1  0.691700  0.204100  0.665100  1
  H  H274  1  0.191700  0.795900  0.834900  1
  H  H275  1  0.308300  0.795900  0.334900  1
  H  H276  1  0.808300  0.204100  0.165100  1
  H  H277  1  0.878700  0.354200  0.822800  1
  H  H278  1  0.378700  0.645800  0.677200  1
  H  H279  1  0.121300  0.645800  0.177200  1
  H  H280  1  0.621300  0.354200  0.322800  1
  H  H281  1  0.928800  0.246700  0.670200  1
  H  H282  1  0.428800  0.753300  0.829800  1
  H  H283  1  0.071200  0.753300  0.329800  1
  H  H284  1  0.571200  0.246700  0.170200  1
  H  H285  1  0.076400  0.278100  0.948900  1
  H  H286  1  0.576400  0.721900  0.551100  1
  H  H287  1  0.923600  0.721900  0.051100  1
  H  H288  1  0.423600  0.278100  0.448900  1
  H  H289  1  0.026700  0.122500  0.758500  1
  H  H290  1  0.526700  0.877500  0.741500  1
  H  H291  1  0.973300  0.877500  0.241500  1
  H  H292  1  0.473300  0.122500  0.258500  1
  H  H293  1  0.926300  0.119100  0.888600  1
  H  H294  1  0.426300  0.880900  0.611400  1
  H  H295  1  0.073700  0.880900  0.111400  1
  H  H296  1  0.573700  0.119100  0.388600  1
  H  H297  1  0.984400  0.322400  0.851600  1
  H  H298  1  0.484400  0.677600  0.648400  1
  H  H299  1  0.015600  0.677600  0.148400  1
  H  H300  1  0.515600  0.322400  0.351600  1
  H  H301  1  0.853100  0.316900  0.730600  1
  H  H302  1  0.353100  0.683100  0.769400  1
  H  H303  1  0.146900  0.683100  0.269400  1
  H  H304  1  0.646900  0.316900  0.230600  1
  H  H305  1  0.736500  0.282700  0.872100  1
  H  H306  1  0.236500  0.717300  0.627900  1
  H  H307  1  0.263500  0.717300  0.127900  1
  H  H308  1  0.763500  0.282700  0.372100  1
  H  H309  1  0.989500  0.200400  0.942400  1
  H  H310  1  0.489500  0.799600  0.557600  1
  H  H311  1  0.010500  0.799600  0.057600  1
  H  H312  1  0.510500  0.200400  0.442400  1
  H  H313  1  0.875900  0.168400  0.769400  1
  H  H314  1  0.375900  0.831600  0.730600  1
  H  H315  1  0.124100  0.831600  0.230600  1
  H  H316  1  0.624100  0.168400  0.269400  1
  H  H317  1  0.946900  0.079500  0.797200  1
  H  H318  1  0.446900  0.920500  0.702800  1
  H  H319  1  0.053100  0.920500  0.202800  1
  H  H320  1  0.553100  0.079500  0.297200  1
  H  H321  1  0.804300  0.166500  0.697800  1
  H  H322  1  0.304300  0.833500  0.802200  1
  H  H323  1  0.195700  0.833500  0.302200  1
  H  H324  1  0.695700  0.166500  0.197800  1
  H  H325  1  0.762400  0.171000  0.923400  1
  H  H326  1  0.262400  0.829000  0.576600  1
  H  H327  1  0.237600  0.829000  0.076600  1
  H  H328  1  0.737600  0.171000  0.423400  1
  H  H329  1  0.680500  0.166500  0.945400  1
  H  H330  1  0.180500  0.833500  0.554600  1
  H  H331  1  0.319500  0.833500  0.054600  1
  H  H332  1  0.819500  0.166500  0.445400  1
  H  H333  1  0.706000  0.222300  0.943000  1
  H  H334  1  0.206000  0.777700  0.557000  1
  H  H335  1  0.294000  0.777700  0.057000  1
  H  H336  1  0.794000  0.222300  0.443000  1
  H  H337  1  0.981600  0.483800  0.939400  1
  H  H338  1  0.481600  0.516200  0.560600  1
  H  H339  1  0.018400  0.516200  0.060600  1
  H  H340  1  0.518400  0.483800  0.439400  1
  H  H341  1  0.064900  0.509000  0.950500  1
  H  H342  1  0.564900  0.491000  0.549500  1
  H  H343  1  0.935100  0.491000  0.049500  1
  H  H344  1  0.435100  0.509000  0.450500  1
  H  H345  1  0.047400  0.453300  0.955800  1
  H  H346  1  0.547400  0.546700  0.544200  1
  H  H347  1  0.952600  0.546700  0.044200  1
  H  H348  1  0.452600  0.453300  0.455800  1
  H  H349  1  0.434900  0.047300  0.492600  1
  H  H350  1  0.934900  0.952700  0.007400  1
  H  H351  1  0.565100  0.952700  0.507400  1
  H  H352  1  0.065100  0.047300  0.992600  1
  H  H353  1  0.353400  0.075100  0.499800  1
  H  H354  1  0.853400  0.924900  0.000200  1
  H  H355  1  0.646600  0.924900  0.500200  1
  H  H356  1  0.146600  0.075100  0.999800  1
  H  H357  1  0.427700  0.110900  0.505600  1
  H  H358  1  0.927700  0.889100  0.994400  1
  H  H359  1  0.572300  0.889100  0.494400  1
  H  H360  1  0.072300  0.110900  0.005600  1
  H  H361  1  0.416000  0.009300  0.592600  1
  H  H362  1  0.916000  0.990700  0.907400  1
  H  H363  1  0.584000  0.990700  0.407400  1
  H  H364  1  0.084000  0.009300  0.092600  1
  H  H365  1  0.346100  0.001600  0.553100  1
  H  H366  1  0.846100  0.998400  0.946900  1
  H  H367  1  0.653900  0.998400  0.446900  1
  H  H368  1  0.153900  0.001600  0.053100  1
  H  H369  1  0.405300  0.952700  0.540100  1
  H  H370  1  0.905300  0.047300  0.959900  1
  H  H371  1  0.594700  0.047300  0.459900  1
  H  H372  1  0.094700  0.952700  0.040100  1
  H  H373  1  0.248900  0.882500  0.499200  1
  H  H374  1  0.748900  0.117500  0.000800  1
  H  H375  1  0.751100  0.117500  0.500800  1
  H  H376  1  0.251100  0.882500  0.999200  1
  H  H377  1  0.174500  0.861400  0.463200  1
  H  H378  1  0.674500  0.138600  0.036800  1
  H  H379  1  0.825500  0.138600  0.536800  1
  H  H380  1  0.325500  0.861400  0.963200  1
  H  H381  1  0.183300  0.925000  0.503700  1
  H  H382  1  0.683300  0.075000  0.996300  1
  H  H383  1  0.816700  0.075000  0.496300  1
  H  H384  1  0.316700  0.925000  0.003700  1
  H  H385  1  0.983000  0.061500  0.555700  1
  H  H386  1  0.483000  0.938500  0.944300  1
  H  H387  1  0.017000  0.938500  0.444300  1
  H  H388  1  0.517000  0.061500  0.055700  1
  H  H389  1  0.923800  0.016100  0.554200  1
  H  H390  1  0.423800  0.983900  0.945800  1
  H  H391  1  0.076200  0.983900  0.445800  1
  H  H392  1  0.576200  0.016100  0.054200  1
  H  H393  1  0.011400  0.009500  0.564300  1
  H  H394  1  0.511400  0.990500  0.935700  1
  H  H395  1  0.988600  0.990500  0.435700  1
  H  H396  1  0.488600  0.009500  0.064300  1
  H  H397  1  0.741100  0.274700  0.038900  1
  H  H398  1  0.241100  0.725300  0.461100  1
  H  H399  1  0.258900  0.725300  0.961100  1
  H  H400  1  0.758900  0.274700  0.538900  1
  H  H401  1  0.686300  0.326400  0.054200  1
  H  H402  1  0.186300  0.673600  0.445800  1
  H  H403  1  0.313700  0.673600  0.945800  1
  H  H404  1  0.813700  0.326400  0.554200  1
  H  H405  1  0.655400  0.271100  0.055300  1
  H  H406  1  0.155400  0.728900  0.444700  1
  H  H407  1  0.344600  0.728900  0.944700  1
  H  H408  1  0.844600  0.271100  0.555300  1
  H  H409  1  0.973600  0.332100  0.054600  1
  H  H410  1  0.473600  0.667900  0.445400  1
  H  H411  1  0.026400  0.667900  0.945400  1
  H  H412  1  0.526400  0.332100  0.554600  1
  H  H413  1  0.883500  0.336400  0.055600  1
  H  H414  1  0.383500  0.663600  0.444400  1
  H  H415  1  0.116500  0.663600  0.944400  1
  H  H416  1  0.616500  0.336400  0.555600  1
  H  H417  1  0.933800  0.389100  0.065100  1
  H  H418  1  0.433800  0.610900  0.434900  1
  H  H419  1  0.066200  0.610900  0.934900  1
  H  H420  1  0.566200  0.389100  0.565100  1
  C  C421  1  0.466300  0.199520  0.891920  1
  C  C422  1  0.966300  0.800480  0.608080  1
  C  C423  1  0.533700  0.800480  0.108080  1
  C  C424  1  0.033700  0.199520  0.391920  1
  C  C425  1  0.500100  0.201830  0.812530  1
  C  C426  1  0.000100  0.798170  0.687470  1
  C  C427  1  0.499900  0.798170  0.187470  1
  C  C428  1  0.999900  0.201830  0.312530  1
  C  C429  1  0.498800  0.177910  0.752550  1
  C  C430  1  0.998800  0.822090  0.747450  1
  C  C431  1  0.501200  0.822090  0.247450  1
  C  C432  1  0.001200  0.177910  0.252550  1
  C  C433  1  0.268200  0.162990  0.799700  1
  C  C434  1  0.768200  0.837010  0.700300  1
  C  C435  1  0.731800  0.837010  0.200300  1
  C  C436  1  0.231800  0.162990  0.299700  1
  C  C437  1  0.329400  0.046000  0.859600  1
  C  C438  1  0.829400  0.954000  0.640400  1
  C  C439  1  0.670600  0.954000  0.140400  1
  C  C440  1  0.170600  0.046000  0.359600  1
  C  C441  1  0.329100  0.100280  0.721970  1
  C  C442  1  0.829100  0.899720  0.778030  1
  C  C443  1  0.670900  0.899720  0.278030  1
  C  C444  1  0.170900  0.100280  0.221970  1
  C  C445  1  0.491000  0.032150  0.721400  1
  C  C446  1  0.991000  0.967850  0.778600  1
  C  C447  1  0.509000  0.967850  0.278600  1
  C  C448  1  0.009000  0.032150  0.221400  1
  C  C449  1  0.536300  0.273360  0.892120  1
  C  C450  1  0.036300  0.726640  0.607880  1
  C  C451  1  0.463700  0.726640  0.107880  1
  C  C452  1  0.963700  0.273360  0.392120  1
  C  C453  1  0.533300  0.030400  0.765000  1
  C  C454  1  0.033300  0.969600  0.735000  1
  C  C455  1  0.466700  0.969600  0.235000  1
  C  C456  1  0.966700  0.030400  0.265000  1
  C  C457  1  0.553600  0.122400  0.667000  1
  C  C458  1  0.053600  0.877600  0.833000  1
  C  C459  1  0.446400  0.877600  0.333000  1
  C  C460  1  0.946400  0.122400  0.167000  1
  C  C461  1  0.285700  0.007200  0.867100  1
  C  C462  1  0.785700  0.992800  0.632900  1
  C  C463  1  0.714300  0.992800  0.132900  1
  C  C464  1  0.214300  0.007200  0.367100  1
  C  C465  1  0.447800  0.384170  0.836750  1
  C  C466  1  0.947800  0.615830  0.663250  1
  C  C467  1  0.552200  0.615830  0.163250  1
  C  C468  1  0.052200  0.384170  0.336750  1
  C  C469  1  0.319700  0.997800  0.766400  1
  C  C470  1  0.819700  0.002200  0.733600  1
  C  C471  1  0.680300  0.002200  0.233600  1
  C  C472  1  0.180300  0.997800  0.266400  1
  C  C473  1  0.388400  0.522500  0.802100  1
  C  C474  1  0.888400  0.477500  0.697900  1
  C  C475  1  0.611600  0.477500  0.197900  1
  C  C476  1  0.111600  0.522500  0.302100  1
  C  C477  1  0.361500  0.518800  0.849500  1
  C  C478  1  0.861500  0.481200  0.650500  1
  C  C479  1  0.638500  0.481200  0.150500  1
  C  C480  1  0.138500  0.518800  0.349500  1
  C  C481  1  0.478300  0.435800  0.866200  1
  C  C482  1  0.978300  0.564200  0.633800  1
  C  C483  1  0.521700  0.564200  0.133800  1
  C  C484  1  0.021700  0.435800  0.366200  1
  C  C485  1  0.258200  0.413380  0.861200  1
  C  C486  1  0.758200  0.586620  0.638800  1
  C  C487  1  0.741800  0.586620  0.138800  1
  C  C488  1  0.241800  0.413380  0.361200  1
  C  C489  1  0.425700  0.567500  0.802000  1
  C  C490  1  0.925700  0.432500  0.698000  1
  C  C491  1  0.574300  0.432500  0.198000  1
  C  C492  1  0.074300  0.567500  0.302000  1
  C  C493  1  0.359200  0.094900  0.902180  1
  C  C494  1  0.859200  0.905100  0.597820  1
  C  C495  1  0.640800  0.905100  0.097820  1
  C  C496  1  0.140800  0.094900  0.402180  1
  C  C497  1  0.502200  0.249220  0.921480  1
  C  C498  1  0.002200  0.750780  0.578520  1
  C  C499  1  0.497800  0.750780  0.078520  1
  C  C500  1  0.997800  0.249220  0.421480  1
  C  C501  1  0.216200  0.336240  0.789570  1
  C  C502  1  0.716200  0.663760  0.710430  1
  C  C503  1  0.783800  0.663760  0.210430  1
  C  C504  1  0.283800  0.336240  0.289570  1
  C  C505  1  0.452400  0.356900  0.776950  1
  C  C506  1  0.952400  0.643100  0.723050  1
  C  C507  1  0.547600  0.643100  0.223050  1
  C  C508  1  0.047600  0.356900  0.276950  1
  C  C509  1  0.554800  0.142100  0.722200  1
  C  C510  1  0.054800  0.857900  0.777800  1
  C  C511  1  0.445200  0.857900  0.277800  1
  C  C512  1  0.945200  0.142100  0.222200  1
  C  C513  1  0.538600  0.062200  0.858000  1
  C  C514  1  0.038600  0.937800  0.642000  1
  C  C515  1  0.461400  0.937800  0.142000  1
  C  C516  1  0.961400  0.062200  0.358000  1
  C  C517  1  0.258600  0.963200  0.822400  1
  C  C518  1  0.758600  0.036800  0.677600  1
  C  C519  1  0.741400  0.036800  0.177600  1
  C  C520  1  0.241400  0.963200  0.322400  1
  C  C521  1  0.203900  0.304820  0.730830  1
  C  C522  1  0.703900  0.695180  0.769170  1
  C  C523  1  0.796100  0.695180  0.269170  1
  C  C524  1  0.296100  0.304820  0.230830  1
  C  C525  1  0.260700  0.190440  0.858960  1
  C  C526  1  0.760700  0.809560  0.641040  1
  C  C527  1  0.739300  0.809560  0.141040  1
  C  C528  1  0.239300  0.190440  0.358960  1
  C  C529  1  0.272000  0.108430  0.691150  1
  C  C530  1  0.772000  0.891570  0.808850  1
  C  C531  1  0.728000  0.891570  0.308850  1
  C  C532  1  0.228000  0.108430  0.191150  1
  C  C533  1  0.435800  0.519500  0.706600  1
  C  C534  1  0.935800  0.480500  0.793400  1
  C  C535  1  0.564200  0.480500  0.293400  1
  C  C536  1  0.064200  0.519500  0.206600  1
  C  C537  1  0.597900  0.999300  0.759200  1
  C  C538  1  0.097900  0.000700  0.740800  1
  C  C539  1  0.402100  0.000700  0.240800  1
  C  C540  1  0.902100  0.999300  0.259200  1
  C  C541  1  0.442600  0.193500  0.726800  1
  C  C542  1  0.942600  0.806500  0.773200  1
  C  C543  1  0.557400  0.806500  0.273200  1
  C  C544  1  0.057400  0.193500  0.226800  1
  C  C545  1  0.274800  0.958500  0.772200  1
  C  C546  1  0.774800  0.041500  0.727800  1
  C  C547  1  0.725200  0.041500  0.227800  1
  C  C548  1  0.225200  0.958500  0.272200  1
  C  C549  1  0.632100  1.000000  0.804100  1
  C  C550  1  0.132100  0.000000  0.695900  1
  C  C551  1  0.367900  0.000000  0.195900  1
  C  C552  1  0.867900  0.000000  0.304100  1
  C  C553  1  0.674300  0.406800  0.868100  1
  C  C554  1  0.174300  0.593200  0.631900  1
  C  C555  1  0.325700  0.593200  0.131900  1
  C  C556  1  0.825700  0.406800  0.368100  1
  C  C557  1  0.449500  0.565300  0.752800  1
  C  C558  1  0.949500  0.434700  0.747200  1
  C  C559  1  0.550500  0.434700  0.247200  1
  C  C560  1  0.050500  0.565300  0.252800  1
  C  C561  1  0.413600  0.356600  0.863040  1
  C  C562  1  0.913600  0.643400  0.636960  1
  C  C563  1  0.586400  0.643400  0.136960  1
  C  C564  1  0.086400  0.356600  0.363040  1
  C  C565  1  0.603100  0.031400  0.853700  1
  C  C566  1  0.103100  0.968600  0.646300  1
  C  C567  1  0.396900  0.968600  0.146300  1
  C  C568  1  0.896900  0.031400  0.353700  1
  C  C569  1  0.183200  0.501100  0.798100  1
  C  C570  1  0.683200  0.498900  0.701900  1
  C  C571  1  0.816800  0.498900  0.201900  1
  C  C572  1  0.316800  0.501100  0.298100  1
  C  C573  1  0.472500  0.459400  0.921900  1
  C  C574  1  0.972500  0.540600  0.578100  1
  C  C575  1  0.527500  0.540600  0.078100  1
  C  C576  1  0.027500  0.459400  0.421900  1
  C  C577  1  0.216000  0.144420  0.716540  1
  C  C578  1  0.716000  0.855580  0.783460  1
  C  C579  1  0.784000  0.855580  0.283460  1
  C  C580  1  0.284000  0.144420  0.216540  1
  C  C581  1  0.442500  0.172600  0.672000  1
  C  C582  1  0.942500  0.827400  0.828000  1
  C  C583  1  0.557500  0.827400  0.328000  1
  C  C584  1  0.057500  0.172600  0.172000  1
  C  C585  1  0.224900  0.397400  0.897040  1
  C  C586  1  0.724900  0.602600  0.602960  1
  C  C587  1  0.775100  0.602600  0.102960  1
  C  C588  1  0.275100  0.397400  0.397040  1
  C  C589  1  0.638300  0.390100  0.906000  1
  C  C590  1  0.138300  0.609900  0.594000  1
  C  C591  1  0.361700  0.609900  0.094000  1
  C  C592  1  0.861700  0.390100  0.406000  1
  C  C593  1  0.142300  0.318000  0.707700  1
  C  C594  1  0.642300  0.682000  0.792300  1
  C  C595  1  0.857700  0.682000  0.292300  1
  C  C596  1  0.357700  0.318000  0.207700  1
  C  C597  1  0.195400  0.438700  0.708700  1
  C  C598  1  0.695400  0.561300  0.791300  1
  C  C599  1  0.804600  0.561300  0.291300  1
  C  C600  1  0.304600  0.438700  0.208700  1
  C  C601  1  0.497500  0.137200  0.641800  1
  C  C602  1  0.997500  0.862800  0.858200  1
  C  C603  1  0.502500  0.862800  0.358200  1
  C  C604  1  0.002500  0.137200  0.141800  1
  C  C605  1  0.188000  0.347470  0.875140  1
  C  C606  1  0.688000  0.652530  0.624860  1
  C  C607  1  0.812000  0.652530  0.124860  1
  C  C608  1  0.312000  0.347470  0.375140  1
  C  C609  1  0.292900  0.241800  0.889100  1
  C  C610  1  0.792900  0.758200  0.610900  1
  C  C611  1  0.707100  0.758200  0.110900  1
  C  C612  1  0.207100  0.241800  0.389100  1
  C  C613  1  0.398100  0.475600  0.709400  1
  C  C614  1  0.898100  0.524400  0.790600  1
  C  C615  1  0.601900  0.524400  0.290600  1
  C  C616  1  0.101900  0.475600  0.209400  1
  C  C617  1  0.252100  0.262500  0.698900  1
  C  C618  1  0.752100  0.737500  0.801100  1
  C  C619  1  0.747900  0.737500  0.301100  1
  C  C620  1  0.247900  0.262500  0.198900  1
  C  C621  1  0.220100  0.165100  0.885400  1
  C  C622  1  0.720100  0.834900  0.614600  1
  C  C623  1  0.779900  0.834900  0.114600  1
  C  C624  1  0.279900  0.165100  0.385400  1
  C  C625  1  0.240800  0.395400  0.671300  1
  C  C626  1  0.740800  0.604600  0.828700  1
  C  C627  1  0.759200  0.604600  0.328700  1
  C  C628  1  0.259200  0.395400  0.171300  1
  C  C629  1  0.402300  0.338400  0.692130  1
  C  C630  1  0.902300  0.661600  0.807870  1
  C  C631  1  0.597700  0.661600  0.307870  1
  C  C632  1  0.097700  0.338400  0.192130  1
  C  C633  1  0.515300  0.296400  0.701730  1
  C  C634  1  0.015300  0.703600  0.798270  1
  C  C635  1  0.484700  0.703600  0.298270  1
  C  C636  1  0.984700  0.296400  0.201730  1
  C  C637  1  0.285400  0.266500  0.944900  1
  C  C638  1  0.785400  0.733500  0.555100  1
  C  C639  1  0.714600  0.733500  0.055100  1
  C  C640  1  0.214600  0.266500  0.444900  1
  C  C641  1  0.237900  0.233700  0.644700  1
  C  C642  1  0.737900  0.766300  0.855300  1
  C  C643  1  0.762100  0.766300  0.355300  1
  C  C644  1  0.262100  0.233700  0.144700  1
  C  C645  1  0.409000  0.380600  0.918500  1
  C  C646  1  0.909000  0.619400  0.581500  1
  C  C647  1  0.591000  0.619400  0.081500  1
  C  C648  1  0.091000  0.380600  0.418500  1
  C  C649  1  0.176500  0.247600  0.622500  1
  C  C650  1  0.676500  0.752400  0.877500  1
  C  C651  1  0.823500  0.752400  0.377500  1
  C  C652  1  0.323500  0.247600  0.122500  1
  C  C653  1  0.463600  0.303800  0.668900  1
  C  C654  1  0.963600  0.696200  0.831100  1
  C  C655  1  0.536400  0.696200  0.331100  1
  C  C656  1  0.036400  0.303800  0.168900  1
  C  C657  1  0.128900  0.288400  0.652700  1
  C  C658  1  0.628900  0.711600  0.847300  1
  C  C659  1  0.871100  0.711600  0.347300  1
  C  C660  1  0.371100  0.288400  0.152700  1
  C  C661  1  0.745900  0.429400  0.793000  1
  C  C662  1  0.245900  0.570600  0.707000  1
  C  C663  1  0.254100  0.570600  0.207000  1
  C  C664  1  0.754100  0.429400  0.293000  1
  C  C665  1  0.698700  0.384300  0.779200  1
  C  C666  1  0.198700  0.615700  0.720800  1
  C  C667  1  0.301300  0.615700  0.220800  1
  C  C668  1  0.801300  0.384300  0.279200  1
  C  C669  1  0.437500  0.431000  0.947800  1
  C  C670  1  0.937500  0.569000  0.552200  1
  C  C671  1  0.562500  0.569000  0.052200  1
  C  C672  1  0.062500  0.431000  0.447800  1
  C  C673  1  0.213300  0.190600  0.940500  1
  C  C674  1  0.713300  0.809400  0.559500  1
  C  C675  1  0.786700  0.809400  0.059500  1
  C  C676  1  0.286700  0.190600  0.440500  1
  C  C677  1  0.050700  0.202700  0.692800  1
  C  C678  1  0.550700  0.797300  0.807200  1
  C  C679  1  0.949300  0.797300  0.307200  1
  C  C680  1  0.449300  0.202700  0.192800  1
  C  C681  1  0.120800  0.526000  0.787200  1
  C  C682  1  0.620800  0.474000  0.712800  1
  C  C683  1  0.879200  0.474000  0.212800  1
  C  C684  1  0.379200  0.526000  0.287200  1
  C  C685  1  0.719900  0.452900  0.884000  1
  C  C686  1  0.219900  0.547100  0.616000  1
  C  C687  1  0.280100  0.547100  0.116000  1
  C  C688  1  0.780100  0.452900  0.384000  1
  C  C689  1  0.756700  0.463600  0.845800  1
  C  C690  1  0.256700  0.536400  0.654200  1
  C  C691  1  0.243300  0.536400  0.154200  1
  C  C692  1  0.743300  0.463600  0.345800  1
  C  C693  1  0.245800  0.240400  0.969800  1
  C  C694  1  0.745800  0.759600  0.530200  1
  C  C695  1  0.754200  0.759600  0.030200  1
  C  C696  1  0.254200  0.240400  0.469800  1
  C  C697  1  0.132300  0.461600  0.695500  1
  C  C698  1  0.632300  0.538400  0.804500  1
  C  C699  1  0.867700  0.538400  0.304500  1
  C  C700  1  0.367700  0.461600  0.195500  1
  C  C701  1  0.001400  0.245500  0.727300  1
  C  C702  1  0.501400  0.754500  0.772700  1
  C  C703  1  0.998600  0.754500  0.272700  1
  C  C704  1  0.498600  0.245500  0.227300  1
  C  C705  1  0.095400  0.505100  0.734700  1
  C  C706  1  0.595400  0.494900  0.765300  1
  C  C707  1  0.904600  0.494900  0.265300  1
  C  C708  1  0.404600  0.505100  0.234700  1
  C  C709  1  0.815100  0.227100  0.827200  1
  C  C710  1  0.315100  0.772900  0.672800  1
  C  C711  1  0.184900  0.772900  0.172800  1
  C  C712  1  0.684900  0.227100  0.327200  1
  C  C713  1  0.680300  0.224900  0.702100  1
  C  C714  1  0.180300  0.775100  0.797900  1
  C  C715  1  0.319700  0.775100  0.297900  1
  C  C716  1  0.819700  0.224900  0.202100  1
  C  C717  1  0.910100  0.326500  0.797600  1
  C  C718  1  0.410100  0.673500  0.702400  1
  C  C719  1  0.089900  0.673500  0.202400  1
  C  C720  1  0.589900  0.326500  0.297600  1
  C  C721  1  0.939800  0.262800  0.707600  1
  C  C722  1  0.439800  0.737200  0.792400  1
  C  C723  1  0.060200  0.737200  0.292400  1
  C  C724  1  0.560200  0.262800  0.207600  1
  C  C725  1  0.041000  0.207700  0.880000  1
  C  C726  1  0.541000  0.792300  0.620000  1
  C  C727  1  0.959000  0.792300  0.120000  1
  C  C728  1  0.459000  0.207700  0.380000  1
  C  C729  1  0.726700  0.222700  0.744800  1
  C  C730  1  0.226700  0.777300  0.755200  1
  C  C731  1  0.273300  0.777300  0.255200  1
  C  C732  1  0.773300  0.222700  0.244800  1
  C  C733  1  0.079000  0.259900  0.910800  1
  C  C734  1  0.579000  0.740100  0.589200  1
  C  C735  1  0.921000  0.740100  0.089200  1
  C  C736  1  0.421000  0.259900  0.410800  1
  C  C737  1  0.018700  0.138900  0.796300  1
  C  C738  1  0.518700  0.861100  0.703700  1
  C  C739  1  0.981300  0.861100  0.203700  1
  C  C740  1  0.481300  0.138900  0.296300  1
  C  C741  1  0.959300  0.136000  0.873000  1
  C  C742  1  0.459300  0.864000  0.627000  1
  C  C743  1  0.040700  0.864000  0.127000  1
  C  C744  1  0.540700  0.136000  0.373000  1
  C  C745  1  0.973300  0.307100  0.814300  1
  C  C746  1  0.473300  0.692900  0.685700  1
  C  C747  1  0.026700  0.692900  0.185700  1
  C  C748  1  0.526700  0.307100  0.314300  1
  C  C749  1  0.895000  0.304000  0.743500  1
  C  C750  1  0.395000  0.696000  0.756500  1
  C  C751  1  0.105000  0.696000  0.256500  1
  C  C752  1  0.605000  0.304000  0.243500  1
  C  C753  1  0.750000  0.258700  0.836300  1
  C  C754  1  0.250000  0.741300  0.663700  1
  C  C755  1  0.250000  0.741300  0.163700  1
  C  C756  1  0.750000  0.258700  0.336300  1
  C  C757  1  0.995600  0.184000  0.904500  1
  C  C758  1  0.495600  0.816000  0.595500  1
  C  C759  1  0.004400  0.816000  0.095500  1
  C  C760  1  0.504400  0.184000  0.404500  1
  C  C761  1  0.833300  0.191800  0.775900  1
  C  C762  1  0.333300  0.808200  0.724100  1
  C  C763  1  0.166700  0.808200  0.224100  1
  C  C764  1  0.666700  0.191800  0.275900  1
  C  C765  1  0.971000  0.113100  0.819400  1
  C  C766  1  0.471000  0.886900  0.680600  1
  C  C767  1  0.029000  0.886900  0.180600  1
  C  C768  1  0.529000  0.113100  0.319400  1
  C  C769  1  0.790600  0.189800  0.733800  1
  C  C770  1  0.290600  0.810200  0.766200  1
  C  C771  1  0.209400  0.810200  0.266200  1
  C  C772  1  0.709400  0.189800  0.233800  1
  C  C773  1  0.679500  0.162400  0.871300  1
  C  C774  1  0.179500  0.837600  0.628700  1
  C  C775  1  0.320500  0.837600  0.128700  1
  C  C776  1  0.820500  0.162400  0.371300  1
  C  C777  1  0.709500  0.182100  0.925100  1
  C  C778  1  0.209500  0.817900  0.574900  1
  C  C779  1  0.290500  0.817900  0.074900  1
  C  C780  1  0.790500  0.182100  0.425100  1
  C  C781  1  0.054200  0.443300  0.879400  1
  C  C782  1  0.554200  0.556700  0.620600  1
  C  C783  1  0.945800  0.556700  0.120600  1
  C  C784  1  0.445800  0.443300  0.379400  1
  C  C785  1  0.035500  0.475000  0.935900  1
  C  C786  1  0.535500  0.525000  0.564100  1
  C  C787  1  0.964500  0.525000  0.064100  1
  C  C788  1  0.464500  0.475000  0.435900  1
  C  C789  1  0.402400  0.060700  0.430700  1
  C  C790  1  0.902400  0.939300  0.069300  1
  C  C791  1  0.597600  0.939300  0.569300  1
  C  C792  1  0.097600  0.060700  0.930700  1
  C  C793  1  0.404800  0.074600  0.486500  1
  C  C794  1  0.904800  0.925400  0.013500  1
  C  C795  1  0.595200  0.925400  0.513500  1
  C  C796  1  0.095200  0.074600  0.986500  1
  C  C797  1  0.333333  0.961600  0.600000  1
  C  C798  1  0.833333  0.038400  0.900000  1
  C  C799  1  0.666667  0.038400  0.400000  1
  C  C800  1  0.166667  0.961600  0.100000  1
  C  C801  1  0.379000  0.983100  0.568900  1
  C  C802  1  0.879000  0.016900  0.931100  1
  C  C803  1  0.621000  0.016900  0.431100  1
  C  C804  1  0.121000  0.983100  0.068900  1
  C  C805  1  0.244100  0.901800  0.438700  1
  C  C806  1  0.744100  0.098200  0.061300  1
  C  C807  1  0.755900  0.098200  0.561300  1
  C  C808  1  0.255900  0.901800  0.938700  1
  C  C809  1  0.210200  0.892000  0.479200  1
  C  C810  1  0.710200  0.108000  0.020800  1
  C  C811  1  0.789800  0.108000  0.520800  1
  C  C812  1  0.289800  0.892000  0.979200  1
  C  C813  1  0.970100  0.035800  0.571000  1
  C  C814  1  0.470100  0.964200  0.929000  1
  C  C815  1  0.029900  0.964200  0.429000  1
  C  C816  1  0.529900  0.035800  0.071000  1
  C  C817  1  0.958700  0.065700  0.627700  1
  C  C818  1  0.458700  0.934300  0.872300  1
  C  C819  1  0.041300  0.934300  0.372300  1
  C  C820  1  0.541300  0.065700  0.127700  1
  C  C821  1  0.720900  0.314600  0.116200  1
  C  C822  1  0.220900  0.685400  0.383800  1
  C  C823  1  0.279100  0.685400  0.883800  1
  C  C824  1  0.779100  0.314600  0.616200  1
  C  C825  1  0.699300  0.295300  0.062100  1
  C  C826  1  0.199300  0.704700  0.437900  1
  C  C827  1  0.300700  0.704700  0.937900  1
  C  C828  1  0.800700  0.295300  0.562100  1
  C  C829  1  0.929900  0.333700  0.988700  1
  C  C830  1  0.429900  0.666300  0.511300  1
  C  C831  1  0.070100  0.666300  0.011300  1
  C  C832  1  0.570100  0.333700  0.488700  1
  C  C833  1  0.930200  0.349000  0.045500  1
  C  C834  1  0.430200  0.651000  0.454500  1
  C  C835  1  0.069800  0.651000  0.954500  1
  C  C836  1  0.569800  0.349000  0.545500  1
  N  N837  1  0.347000  0.041180  0.809300  1
  N  N838  1  0.847000  0.958820  0.690700  1
  N  N839  1  0.653000  0.958820  0.190700  1
  N  N840  1  0.153000  0.041180  0.309300  1
  N  N841  1  0.324800  0.127680  0.778420  1
  N  N842  1  0.824800  0.872320  0.721580  1
  N  N843  1  0.675200  0.872320  0.221580  1
  N  N844  1  0.175200  0.127680  0.278420  1
  N  N845  1  0.433000  0.064640  0.736590  1
  N  N846  1  0.933000  0.935360  0.763410  1
  N  N847  1  0.567000  0.935360  0.263410  1
  N  N848  1  0.067000  0.064640  0.236590  1
  N  N849  1  0.465400  0.174720  0.836870  1
  N  N850  1  0.965400  0.825280  0.663130  1
  N  N851  1  0.534600  0.825280  0.163130  1
  N  N852  1  0.034600  0.174720  0.336870  1
  N  N853  1  0.385900  0.067050  0.698190  1
  N  N854  1  0.885900  0.932950  0.801810  1
  N  N855  1  0.614100  0.932950  0.301810  1
  N  N856  1  0.114100  0.067050  0.198190  1
  N  N857  1  0.428600  0.173600  0.916970  1
  N  N858  1  0.928600  0.826400  0.583030  1
  N  N859  1  0.571400  0.826400  0.083030  1
  N  N860  1  0.071400  0.173600  0.416970  1
  N  N861  1  0.255200  0.383120  0.806520  1
  N  N862  1  0.755200  0.616880  0.693480  1
  N  N863  1  0.744800  0.616880  0.193480  1
  N  N864  1  0.244800  0.383120  0.306520  1
  N  N865  1  0.503800  0.062130  0.814530  1
  N  N866  1  0.003800  0.937870  0.685470  1
  N  N867  1  0.496200  0.937870  0.185470  1
  N  N868  1  0.996200  0.062130  0.314530  1
  N  N869  1  0.535000  0.250620  0.837300  1
  N  N870  1  0.035000  0.749380  0.662700  1
  N  N871  1  0.465000  0.749380  0.162700  1
  N  N872  1  0.965000  0.250620  0.337300  1
  N  N873  1  0.393400  0.126260  0.883770  1
  N  N874  1  0.893400  0.873740  0.616230  1
  N  N875  1  0.606600  0.873740  0.116230  1
  N  N876  1  0.106600  0.126260  0.383770  1
  N  N877  1  0.328200  0.472470  0.839110  1
  N  N878  1  0.828200  0.527530  0.660890  1
  N  N879  1  0.671800  0.527530  0.160890  1
  N  N880  1  0.171800  0.472470  0.339110  1
  N  N881  1  0.296700  0.461340  0.878300  1
  N  N882  1  0.796700  0.538660  0.621700  1
  N  N883  1  0.703300  0.538660  0.121700  1
  N  N884  1  0.203300  0.461340  0.378300  1
  N  N885  1  0.214100  0.174900  0.771430  1
  N  N886  1  0.714100  0.825100  0.728570  1
  N  N887  1  0.785900  0.825100  0.228570  1
  N  N888  1  0.285900  0.174900  0.271430  1
  N  N889  1  0.572600  0.322570  0.917170  1
  N  N890  1  0.072600  0.677430  0.582830  1
  N  N891  1  0.427400  0.677430  0.082830  1
  N  N892  1  0.927400  0.322570  0.417170  1
  N  N893  1  0.373900  0.476710  0.756050  1
  N  N894  1  0.873900  0.523290  0.743950  1
  N  N895  1  0.626100  0.523290  0.243950  1
  N  N896  1  0.126100  0.476710  0.256050  1
  N  N897  1  0.604600  0.343460  0.885170  1
  N  N898  1  0.104600  0.656540  0.614830  1
  N  N899  1  0.395400  0.656540  0.114830  1
  N  N900  1  0.895400  0.343460  0.385170  1
  N  N901  1  0.509800  0.321620  0.756860  1
  N  N902  1  0.009800  0.678380  0.743140  1
  N  N903  1  0.490200  0.678380  0.243140  1
  N  N904  1  0.990200  0.321620  0.256860  1
  N  N905  1  0.185000  0.315350  0.821270  1
  N  N906  1  0.685000  0.684650  0.678730  1
  N  N907  1  0.815000  0.684650  0.178730  1
  N  N908  1  0.315000  0.315350  0.321270  1
  N  N909  1  0.219800  0.459110  0.760750  1
  N  N910  1  0.719800  0.540890  0.739250  1
  N  N911  1  0.780200  0.540890  0.239250  1
  N  N912  1  0.280200  0.459110  0.260750  1
  N  N913  1  0.399900  0.368040  0.748380  1
  N  N914  1  0.899900  0.631960  0.751620  1
  N  N915  1  0.600100  0.631960  0.251620  1
  N  N916  1  0.100100  0.368040  0.248380  1
  N  N917  1  0.296700  0.381150  0.693370  1
  N  N918  1  0.796700  0.618850  0.806630  1
  N  N919  1  0.703300  0.618850  0.306630  1
  N  N920  1  0.203300  0.381150  0.193370  1
  N  N921  1  0.664200  0.372680  0.815620  1
  N  N922  1  0.164200  0.627320  0.684380  1
  N  N923  1  0.335800  0.627320  0.184380  1
  N  N924  1  0.835800  0.372680  0.315620  1
  N  N925  1  0.348500  0.344090  0.661570  1
  N  N926  1  0.848500  0.655910  0.838430  1
  N  N927  1  0.651500  0.655910  0.338430  1
  N  N928  1  0.151500  0.344090  0.161570  1
  N  N929  1  0.106900  0.192160  0.716640  1
  N  N930  1  0.606900  0.807840  0.783360  1
  N  N931  1  0.893100  0.807840  0.283360  1
  N  N932  1  0.393100  0.192160  0.216640  1
  N  N933  1  0.157200  0.152460  0.688630  1
  N  N934  1  0.657200  0.847540  0.811370  1
  N  N935  1  0.842800  0.847540  0.311370  1
  N  N936  1  0.342800  0.152460  0.188630  1
  N  N937  1  0.623400  0.256830  0.717800  1
  N  N938  1  0.123400  0.743170  0.782200  1
  N  N939  1  0.376600  0.743170  0.282200  1
  N  N940  1  0.876600  0.256830  0.217800  1
  N  N941  1  0.151200  0.328280  0.907130  1
  N  N942  1  0.651200  0.671720  0.592870  1
  N  N943  1  0.848800  0.671720  0.092870  1
  N  N944  1  0.348800  0.328280  0.407130  1
  N  N945  1  0.116500  0.279440  0.882800  1
  N  N946  1  0.616500  0.720560  0.617200  1
  N  N947  1  0.883500  0.720560  0.117200  1
  N  N948  1  0.383500  0.279440  0.382800  1
  N  N949  1  0.577400  0.263250  0.682020  1
  N  N950  1  0.077400  0.736750  0.817980  1
  N  N951  1  0.422600  0.736750  0.317980  1
  N  N952  1  0.922600  0.263250  0.182020  1
  N  N953  1  0.018700  0.268420  0.780780  1
  N  N954  1  0.518700  0.731580  0.719220  1
  N  N955  1  0.981300  0.731580  0.219220  1
  N  N956  1  0.481300  0.268420  0.280780  1
  N  N957  1  0.052900  0.185930  0.826910  1
  N  N958  1  0.552900  0.814070  0.673090  1
  N  N959  1  0.947100  0.814070  0.173090  1
  N  N960  1  0.447100  0.185930  0.326910  1
  N  N961  1  0.705900  0.256120  0.795700  1
  N  N962  1  0.205900  0.743880  0.704300  1
  N  N963  1  0.294100  0.743880  0.204300  1
  N  N964  1  0.794100  0.256120  0.295700  1
  N  N965  1  0.656200  0.147500  0.830200  1
  N  N966  1  0.156200  0.852500  0.669800  1
  N  N967  1  0.343800  0.852500  0.169800  1
  N  N968  1  0.843800  0.147500  0.330200  1
  N  N969  1  0.070900  0.421700  0.838000  1
  N  N970  1  0.570900  0.578300  0.662000  1
  N  N971  1  0.929100  0.578300  0.162000  1
  N  N972  1  0.429100  0.421700  0.338000  1
  N  N973  1  0.402100  0.054400  0.388200  1
  N  N974  1  0.902100  0.945600  0.111800  1
  N  N975  1  0.597900  0.945600  0.611800  1
  N  N976  1  0.097900  0.054400  0.888200  1
  N  N977  1  0.299200  0.944700  0.625200  1
  N  N978  1  0.799200  0.055300  0.874800  1
  N  N979  1  0.700800  0.055300  0.374800  1
  N  N980  1  0.200800  0.944700  0.125200  1
  N  N981  1  0.270600  0.909000  0.406700  1
  N  N982  1  0.770600  0.091000  0.093300  1
  N  N983  1  0.729400  0.091000  0.593300  1
  N  N984  1  0.229400  0.909000  0.906700  1
  N  N985  1  0.950700  0.089400  0.671500  1
  N  N986  1  0.450700  0.910600  0.828500  1
  N  N987  1  0.049300  0.910600  0.328500  1
  N  N988  1  0.549300  0.089400  0.171500  1
  N  N989  1  0.738800  0.330900  0.156800  1
  N  N990  1  0.238800  0.669100  0.343200  1
  N  N991  1  0.261200  0.669100  0.843200  1
  N  N992  1  0.761200  0.330900  0.656800  1
  N  N993  1  0.931500  0.322200  0.946000  1
  N  N994  1  0.431500  0.677800  0.554000  1
  N  N995  1  0.068500  0.677800  0.054000  1
  N  N996  1  0.568500  0.322200  0.446000  1
  F  F997  1  0.471800  0.431360  0.090400  1
  F  F998  1  0.971800  0.568640  0.409600  1
  F  F999  1  0.528200  0.568640  0.909600  1
  F  F1000  1  0.028200  0.431360  0.590400  1
  F  F1001  1  0.427000  0.354900  0.022300  1
  F  F1002  1  0.927000  0.645100  0.477700  1
  F  F1003  1  0.573000  0.645100  0.977700  1
  F  F1004  1  0.073000  0.354900  0.522300  1
  F  F1005  1  0.544200  0.376200  0.026660  1
  F  F1006  1  0.044200  0.623800  0.473340  1
  F  F1007  1  0.455800  0.623800  0.973340  1
  F  F1008  1  0.955800  0.376200  0.526660  1
  F  F1009  1  0.494200  0.352200  0.088000  1
  F  F1010  1  0.994200  0.647800  0.412000  1
  F  F1011  1  0.505800  0.647800  0.912000  1
  F  F1012  1  0.005800  0.352200  0.588000  1
  F  F1013  1  0.144900  0.100300  0.578630  1
  F  F1014  1  0.644900  0.899700  0.921370  1
  F  F1015  1  0.855100  0.899700  0.421370  1
  F  F1016  1  0.355100  0.100300  0.078630  1
  F  F1017  1  0.263500  0.079000  0.563300  1
  F  F1018  1  0.763500  0.921000  0.936700  1
  F  F1019  1  0.736500  0.921000  0.436700  1
  F  F1020  1  0.236500  0.079000  0.063300  1
  F  F1021  1  0.186900  0.020500  0.548900  1
  F  F1022  1  0.686900  0.979500  0.951100  1
  F  F1023  1  0.813100  0.979500  0.451100  1
  F  F1024  1  0.313100  0.020500  0.048900  1
  F  F1025  1  0.175500  0.046400  0.495800  1
  F  F1026  1  0.675500  0.953600  0.004200  1
  F  F1027  1  0.824500  0.953600  0.504200  1
  F  F1028  1  0.324500  0.046400  0.995800  1
  F  F1029  1  0.516800  0.115700  0.990600  1
  F  F1030  1  0.016800  0.884300  0.509400  1
  F  F1031  1  0.483200  0.884300  0.009400  1
  F  F1032  1  0.983200  0.115700  0.490600  1
  F  F1033  1  0.529300  0.176300  0.075260  1
  F  F1034  1  0.029300  0.823700  0.424740  1
  F  F1035  1  0.470700  0.823700  0.924740  1
  F  F1036  1  0.970700  0.176300  0.575260  1
  F  F1037  1  0.448800  0.192200  0.020990  1
  F  F1038  1  0.948800  0.807800  0.479010  1
  F  F1039  1  0.551200  0.807800  0.979010  1
  F  F1040  1  0.051200  0.192200  0.520990  1
  F  F1041  1  0.569700  0.190900  0.005100  1
  F  F1042  1  0.069700  0.809100  0.494900  1
  F  F1043  1  0.430300  0.809100  0.994900  1
  F  F1044  1  0.930300  0.190900  0.505100  1
  F  F1045  1  0.294200  0.542050  0.980030  1
  F  F1046  1  0.794200  0.457950  0.519970  1
  F  F1047  1  0.705800  0.457950  0.019970  1
  F  F1048  1  0.205800  0.542050  0.480030  1
  F  F1049  1  0.260400  0.630500  0.016900  1
  F  F1050  1  0.760400  0.369500  0.483100  1
  F  F1051  1  0.739600  0.369500  0.983100  1
  F  F1052  1  0.239600  0.630500  0.516900  1
  F  F1053  1  0.222500  0.577800  0.936300  1
  F  F1054  1  0.722500  0.422200  0.563700  1
  F  F1055  1  0.777500  0.422200  0.063700  1
  F  F1056  1  0.277500  0.577800  0.436300  1
  F  F1057  1  0.182700  0.570200  0.006600  1
  F  F1058  1  0.682700  0.429800  0.493400  1
  F  F1059  1  0.817300  0.429800  0.993400  1
  F  F1060  1  0.317300  0.570200  0.506600  1
  F  F1061  1  0.099400  0.439500  0.085700  1
  F  F1062  1  0.599400  0.560500  0.414300  1
  F  F1063  1  0.900600  0.560500  0.914300  1
  F  F1064  1  0.400600  0.439500  0.585700  1
  F  F1065  1  0.122700  0.360400  0.018600  1
  F  F1066  1  0.622700  0.639600  0.481400  1
  F  F1067  1  0.877300  0.639600  0.981400  1
  F  F1068  1  0.377300  0.360400  0.518600  1
  F  F1069  1  0.154100  0.432100  0.013400  1
  F  F1070  1  0.654100  0.567900  0.486600  1
  F  F1071  1  0.845900  0.567900  0.986600  1
  F  F1072  1  0.345900  0.432100  0.513400  1
  F  F1073  1  0.201500  0.411700  0.071000  1
  F  F1074  1  0.701500  0.588300  0.429000  1
  F  F1075  1  0.798500  0.588300  0.929000  1
  F  F1076  1  0.298500  0.411700  0.571000  1
  F  F1077  1  0.630600  0.198600  0.578250  1
  F  F1078  1  0.130600  0.801400  0.921750  1
  F  F1079  1  0.369400  0.801400  0.421750  1
  F  F1080  1  0.869400  0.198600  0.078250  1
  F  F1081  1  0.633200  0.190600  0.495900  1
  F  F1082  1  0.133200  0.809400  0.004100  1
  F  F1083  1  0.366800  0.809400  0.504100  1
  F  F1084  1  0.866800  0.190600  0.995900  1
  F  F1085  1  0.572300  0.137900  0.512100  1
  F  F1086  1  0.072300  0.862100  0.987900  1
  F  F1087  1  0.427700  0.862100  0.487900  1
  F  F1088  1  0.927700  0.137900  0.012100  1
  F  F1089  1  0.532500  0.218300  0.545400  1
  F  F1090  1  0.032500  0.781700  0.954600  1
  F  F1091  1  0.467500  0.781700  0.454600  1
  F  F1092  1  0.967500  0.218300  0.045400  1
  F  F1093  1  0.215000  0.111600  0.516700  1
  F  F1094  1  0.715000  0.888400  0.983300  1
  F  F1095  1  0.785000  0.888400  0.483300  1
  F  F1096  1  0.285000  0.111600  0.016700  1
