
#######################################################################
#
#                 Cambridge Crystallographic Data Centre
#                                CCDC 
#
#######################################################################
#
# If this CIF has been generated from an entry in the Cambridge 
# Structural Database, then it will include bibliographic, chemical, 
# crystal, experimental, refinement or atomic coordinate data resulting 
# from the CCDC's data processing and validation procedures.
#
#######################################################################

data_HICBIH
_chemical_formula_moiety         'C88 H70 Fe4 N32 6+,6(B1 F4 1-),8(C2 H3 N1)'
_chemical_name_systematic        
'bis(\m-2-phenyl-4,6-bis(2-((pyridin-2-yl)methylidene)hydrazinyl)pyrimidine)-bis(\m-2-phenyl-4-(2-((pyridin-2-yl)methylidene)hydrazinyl)-6-(((pyridin-2-yl)methylidene)diazan-1-id-1-yl)pyrimidine)-tetra-iron(ii) hexakis(tetrafluoroborate) acetonitrile solvate'
_symmetry_cell_setting           monoclinic
_symmetry_space_group_name_H-M   'P 21/c'
_symmetry_Int_Tables_number      14
_space_group_name_Hall           '-P 2ybc'
loop_
_symmetry_equiv_pos_site_id
_symmetry_equiv_pos_as_xyz
1 x,y,z
2 -x,1/2+y,1/2-z
3 -x,-y,-z
4 x,1/2-y,1/2+z
_cell_length_a                   26.4577(10)
_cell_length_b                   17.6215(7)
_cell_length_c                   27.3241(11)
_cell_angle_alpha                90
_cell_angle_beta                 116.132(2)
_cell_angle_gamma                90
_cell_volume                     11437
_exptl_crystal_description       block
_cell_formula_units_Z            4
_exptl_crystal_preparation       'low-spin state'
loop_
_atom_site_label
_atom_site_type_symbol
_atom_site_fract_x
_atom_site_fract_y
_atom_site_fract_z
Fe1 Fe 0.89742(2) 0.59258(3) 0.18882(2)
Fe2 Fe 0.58051(3) 0.69024(4) 0.23069(3)
Fe3 Fe 0.69928(3) 0.40000(4) 0.19668(3)
Fe4 Fe 0.76274(3) 0.88363(4) 0.19413(4)
N1 N 0.95803(15) 0.65649(19) 0.18902(14)
N2 N 0.86847(14) 0.68059(19) 0.21732(14)
N3 N 0.93428(14) 0.57333(19) 0.26395(14)
N4 N 0.82355(14) 0.53465(19) 0.16268(14)
N5 N 0.93051(15) 0.6222(2) 0.30055(14)
N6 N 0.82416(15) 0.5672(2) 0.08075(14)
H1 H 0.8114 0.5658 0.0451
N7 N 0.61986(15) 0.7485(2) 0.19162(14)
N8 N 0.93841(15) 0.4990(2) 0.18706(15)
N9 N 0.74721(14) 0.46249(19) 0.16311(14)
N10 N 0.87184(15) 0.60597(19) 0.11347(14)
N11 N 0.52689(16) 0.6783(2) 0.15818(15)
N12 N 0.53792(16) 0.7097(2) 0.11867(15)
H2 H 0.5142 0.7069 0.0839
N13 N 0.81880(16) 0.7931(2) 0.21950(17)
N14 N 0.67220(17) 0.4267(2) 0.08231(16)
H3 H 0.6539 0.4232 0.0466
N15 N 0.52352(15) 0.6299(2) 0.24200(15)
N16 N 0.65132(16) 0.3971(2) 0.11564(17)
N17 N 0.67901(16) 0.4880(2) 0.23788(18)
N18 N 0.68986(16) 0.8186(2) 0.17758(16)
N19 N 0.54448(18) 0.7841(2) 0.23984(16)
N20 N 0.63371(15) 0.6000(2) 0.24836(16)
N21 N 0.62331(17) 0.7032(2) 0.30647(16)
N22 N 0.62832(17) 0.3378(2) 0.18767(18)
N23 N 0.65970(18) 0.6491(3) 0.33750(16)
N24 N 0.7980(2) 0.9007(2) 0.2708(2)
C1 C 0.79805(18) 0.5312(2) 0.10644(17)
C2 C 0.79668(17) 0.4993(2) 0.18812(16)
N25 N 0.83974(19) 0.8529(2) 0.3022(2)
H4 H 0.8599 0.8603 0.3374
C3 C 0.82177(17) 0.5026(2) 0.24863(17)
C4 C 0.83225(17) 0.7376(2) 0.19312(18)
N26 N 0.74439(19) 0.3745(3) 0.2764(3)
C5 C 0.95292(19) 0.6720(2) 0.13797(17)
C6 C 0.89547(18) 0.6784(2) 0.27437(17)
C7 C 0.96712(17) 0.5144(3) 0.28076(18)
H5 H 0.9877 0.5017 0.3182
N27 N 0.6779(2) 0.8468(3) 0.0908(2)
H6 H 0.6594 0.8457 0.0550
C8 C 0.72291(18) 0.4618(2) 0.10734(18)
C9 C 0.96945(18) 0.4701(2) 0.23753(18)
C10 C 0.8795(2) 0.4495(3) 0.33679(19)
H7 H 0.9047 0.4113 0.3587
C11 C 0.9928(2) 0.7159(3) 0.1303(2)
H8 H 0.9889 0.7256 0.0946
N28 N 0.7281(2) 0.8819(3) 0.1164(2)
C12 C 0.61593(18) 0.5561(2) 0.15850(19)
C13 C 1.00216(18) 0.6860(2) 0.23215(18)
H9 H 1.0060 0.6755 0.2677
C14 C 0.47534(19) 0.6192(2) 0.19497(19)
C15 C 0.47846(19) 0.6469(3) 0.14705(19)
H10 H 0.4487 0.6429 0.1113
C16 C 0.56184(19) 0.5293(3) 0.1271(2)
H11 H 0.5419 0.5041 0.1441
C17 C 0.58815(19) 0.7456(2) 0.13652(18)
C18 C 0.4278(2) 0.5844(3) 0.1951(2)
H12 H 0.3944 0.5780 0.1622
C19 C 0.90348(19) 0.6393(2) 0.09505(17)
H13 H 0.8950 0.6419 0.0575
C20 C 0.74744(19) 0.4943(2) 0.07736(18)
H14 H 0.7305 0.4916 0.0387
C21 C 0.66864(19) 0.7874(2) 0.20958(19)
C22 C 0.64386(18) 0.5477(3) 0.2187(2)
N29 N 0.7399(2) 0.4198(3) 0.3135(2)
H15 H 0.7582 0.4104 0.3486
C23 C 0.85851(18) 0.4466(3) 0.28062(19)
H16 H 0.8692 0.4064 0.2639
C24 C 0.94049(19) 0.4633(2) 0.14447(19)
H17 H 0.9193 0.4834 0.1089
C25 C 1.0379(2) 0.7450(3) 0.1753(2)
H18 H 1.0657 0.7744 0.1709
C26 C 0.69968(18) 0.8000(2) 0.26933(19)
C27 C 0.80793(18) 0.7425(2) 0.13302(19)
C28 C 0.88540(19) 0.7366(3) 0.30365(19)
H19 H 0.9039 0.7373 0.3424
C29 C 0.4794(2) 0.5688(3) 0.2909(2)
H20 H 0.4821 0.5508 0.3248
C30 C 1.0018(2) 0.4043(3) 0.2457(2)
H21 H 1.0227 0.3846 0.2814
C31 C 0.80591(18) 0.5611(3) 0.27333(18)
H22 H 0.7802 0.5989 0.2515
C32 C 1.04233(19) 0.7311(2) 0.2267(2)
H23 H 1.0725 0.7522 0.2579
C33 C 1.0031(2) 0.3683(3) 0.2015(2)
H24 H 1.0249 0.3236 0.2063
C34 C 0.58992(19) 0.3267(3) 0.1355(2)
C35 C 0.4303(2) 0.5598(3) 0.2439(2)
H25 H 0.3984 0.5369 0.2452
C36 C 0.64562(19) 0.5908(3) 0.1332(2)
H26 H 0.6829 0.6084 0.1546
C37 C 0.9723(2) 0.3983(3) 0.1503(2)
H27 H 0.9729 0.3748 0.1192
N30 N 0.7241(2) 0.9799(3) 0.2006(3)
N31 N 0.8170(2) 0.9466(3) 0.1797(3)
C38 C 0.5019(2) 0.8239(3) 0.2029(2)
H28 H 0.4865 0.8084 0.1658
C39 C 0.5368(2) 0.5392(3) 0.0708(2)
H29 H 0.4994 0.5222 0.0493
C40 C 0.8485(2) 0.7923(2) 0.2754(2)
N32 N 0.7392(2) 0.2970(3) 0.1952(3)
C41 C 0.8275(2) 0.5642(3) 0.32938(19)
H30 H 0.8173 0.6048 0.3462
C42 C 0.6054(2) 0.7778(3) 0.1004(2)
H31 H 0.5828 0.7758 0.0621
C43 C 0.6037(2) 0.3621(3) 0.0954(2)
H32 H 0.5797 0.3598 0.0574
C44 C 0.6855(2) 0.8629(3) 0.2918(2)
H33 H 0.6563 0.8962 0.2692
C45 C 0.5669(3) 0.8070(3) 0.2933(2)
C46 C 0.8638(2) 0.5082(3) 0.3611(2)
H34 H 0.8780 0.5100 0.3997
C47 C 0.6570(2) 0.8132(3) 0.1230(2)
C48 C 0.7570(2) 0.7076(3) 0.0997(2)
H35 H 0.7373 0.6793 0.1154
C49 C 0.5250(2) 0.6042(3) 0.28857(19)
H36 H 0.5586 0.6104 0.3213
C50 C 0.7416(2) 0.7505(3) 0.3028(2)
H37 H 0.7507 0.7071 0.2876
C51 C 0.8366(2) 0.7839(3) 0.1096(2)
H38 H 0.8714 0.8075 0.1322
C52 C 0.6101(3) 0.7592(3) 0.3298(2)
H39 H 0.6280 0.7672 0.3681
C53 C 0.66413(19) 0.5952(3) 0.3056(2)
C54 C 0.7053(2) 0.4819(3) 0.2940(3)
C55 C 0.7352(2) 0.7144(3) 0.0435(2)
H40 H 0.7006 0.6904 0.0206
C56 C 0.7700(2) 0.7641(3) 0.3578(2)
H41 H 0.7987 0.7303 0.3805
C57 C 0.6212(2) 0.5997(3) 0.0773(2)
H42 H 0.6416 0.6231 0.0602
C58 C 0.7567(2) 0.8271(3) 0.3802(2)
H43 H 0.7767 0.8367 0.4182
C59 C 0.6994(2) 0.5329(4) 0.3285(2)
H44 H 0.7187 0.5265 0.3669
C60 C 0.7144(2) 0.8764(3) 0.3472(2)
H45 H 0.7053 0.9195 0.3627
C61 C 0.5703(3) 0.2594(3) 0.2139(3)
H46 H 0.5643 0.2360 0.2422
C62 C 0.6187(3) 0.3053(3) 0.2269(3)
H47 H 0.6445 0.3130 0.2640
C63 C 0.5668(2) 0.5743(3) 0.0463(2)
H48 H 0.5498 0.5809 0.0079
C64 C 0.8142(2) 0.7904(3) 0.0534(2)
H49 H 0.8336 0.8187 0.0374
C65 C 0.7859(3) 0.9598(3) 0.2928(4)
H50 H 0.8037 0.9712 0.3306
C66 C 0.4793(3) 0.8870(3) 0.2164(3)
H51 H 0.4485 0.9135 0.1891
C67 C 0.5416(2) 0.2830(3) 0.1211(3)
H52 H 0.5154 0.2772 0.0839
C68 C 0.5327(3) 0.2489(3) 0.1609(3)
H53 H 0.5004 0.2180 0.1520
C69 C 0.7637(3) 0.7560(4) 0.0207(2)
H54 H 0.7484 0.7609 -0.0178
C70 C 0.5456(3) 0.8715(4) 0.3082(3)
H55 H 0.5617 0.8879 0.3451
C71 C 0.7426(3) 1.0048(3) 0.2528(4)
C72 C 0.5018(3) 0.9105(3) 0.2695(3)
H56 H 0.4869 0.9538 0.2793
C73 C 0.6610(4) 1.0853(5) 0.1681(6)
H57 H 0.6331 1.1127 0.1386
C74 C 0.7196(4) 1.0708(4) 0.2631(5)
H58 H 0.7319 1.0887 0.2993
C75 C 0.8011(3) 0.9586(4) 0.1258(4)
C76 C 0.7503(3) 0.9207(4) 0.0904(4)
H59 H 0.7344 0.9235 0.0517
C77 C 0.8637(3) 0.9807(3) 0.2164(4)
H60 H 0.8756 0.9713 0.2541
C78 C 0.8791(5) 1.0427(5) 0.1467(7)
H61 H 0.9002 1.0768 0.1359
C79 C 0.6842(3) 1.0183(4) 0.1579(5)
H62 H 0.6721 1.0003 0.1217
C80 C 0.6784(5) 1.1102(5) 0.2193(7)
H63 H 0.6625 1.1551 0.2260
C81 C 0.8312(4) 1.0059(4) 0.1070(5)
H64 H 0.8200 1.0129 0.0691
C82 C 0.8950(4) 1.0294(4) 0.2004(6)
H65 H 0.9276 1.0534 0.2272
C83 C 0.7863(7) 0.1665(8) 0.1805(8)
H66 H 0.8058 0.1221 0.1787
C84 C 0.7212(5) 0.2615(7) 0.1357(5)
H67 H 0.6947 0.2851 0.1033
C85 C 0.7472(5) 0.1943(7) 0.1355(8)
H68 H 0.7366 0.1676 0.1022
C86 C 0.7712(7) 0.2678(10) 0.2300(6)
C87 C 0.8007(5) 0.2007(8) 0.2323(7)
H69 H 0.8279 0.1797 0.2655
C88 C 0.7757(6) 0.3130(11) 0.2775(6)
H70 H 0.8034 0.2973 0.3122
F1 F 0.56408(13) 0.5192(2) 0.90293(15)
F2 F 0.64127(16) 0.5685(2) 0.97494(15)
F3 F 0.6168(2) 0.4471(3) 0.97191(16)
F4 F 0.65064(18) 0.4912(4) 0.9157(2)
B1 B 0.6179(2) 0.5079(4) 0.9413(2)
F5 F 0.89561(16) 0.8673(2) 0.41311(16)
F6 F 0.91296(18) 0.7442(2) 0.43435(15)
F7 F 0.98395(19) 0.8259(3) 0.4492(2)
F8 F 0.9395(3) 0.8326(3) 0.50111(18)
B2 B 0.9318(3) 0.8165(5) 0.4504(3)
F9 F 0.88253(18) 0.4813(3) 0.00809(16)
F10 F 0.82000(19) 0.4709(2) -0.08166(16)
F11 F 0.8002(3) 0.5489(2) -0.02501(15)
F12 F 0.7976(3) 0.4224(3) -0.0183(3)
B3 B 0.8258(4) 0.4803(4) -0.0296(3)
F13 F 0.45879(16) 0.7226(3) 0.01351(14)
F14 F 0.3637(2) 0.7237(3) -0.0140(2)
F15 F 0.4211(2) 0.7904(3) 0.05933(19)
F16 F 0.4062(3) 0.8242(4) -0.0266(3)
B4 B 0.4116(4) 0.7667(5) 0.0073(3)
N33 N 0.85275(18) 0.3480(2) 0.17185(19)
C95 C 0.8374(2) 0.3259(3) 0.1291(2)
C96 C 0.8168(3) 0.2972(5) 0.0738(3)
H76 H 0.8334 0.2472 0.0745
H77 H 0.8275 0.3323 0.0521
H78 H 0.7757 0.2926 0.0575
F17 F 0.5647(2) 0.9067(3) 0.91243(17)
F18 F 0.6432(2) 0.8679(4) 0.9824(2)
F19 F 0.5613(3) 0.8440(5) 0.9827(2)
F20 F 0.5857(4) 0.7863(6) 0.9287(5)
B5 B 0.5873(5) 0.8495(7) 0.9511(4)
N34 N 0.5792(2) 0.9292(3) 0.1646(2)
C97 C 0.5511(3) 0.9388(4) 0.1203(3)
C98 C 0.5160(5) 0.9532(7) 0.0629(4)
H79 H 0.4955 1.0009 0.0587
H80 H 0.4892 0.9114 0.0474
H81 H 0.5398 0.9569 0.0438
F22 F 0.8016(2) 0.3760(3) 0.42008(18)
F23 F 0.8183(3) 0.3695(3) 0.5073(2)
F24 F 0.8715(2) 0.4397(4) 0.4835(2)
F25 F 0.7852(2) 0.4775(3) 0.4604(3)
B7 B 0.8185(4) 0.4162(5) 0.4691(3)
N35 N 0.9467(2) 0.5972(3) 0.6109(2)
C99 C 0.9473(3) 0.5971(3) 0.5702(3)
C100 C 0.9488(6) 0.5972(6) 0.5181(4)
H82 H 0.9874 0.5879 0.5234
H83 H 0.9359 0.6466 0.5004
H84 H 0.9240 0.5572 0.4950
N36 N 0.0583(2) 0.7075(3) 0.3722(2)
C101 C 0.0401(2) 0.6777(3) 0.3972(2)
C102 C 0.0168(3) 0.6389(4) 0.4293(2)
H85 H -0.0095 0.5996 0.4070
H86 H -0.0031 0.6754 0.4415
H87 H 0.0473 0.6153 0.4611
C103 C 0.0954(3) 0.7460(4) 0.5590(3)
N37 N 0.0756(3) 0.7113(4) 0.5807(3)
C104 C 0.1187(4) 0.7885(4) 0.5294(4)
H88 H 0.1331 0.7536 0.5106
H89 H 0.1495 0.8203 0.5547
H90 H 0.0895 0.8208 0.5025
C105 C 0.9615(3) 0.0331(4) 0.4319(3)
H91 H 0.9364 0.0180 0.4480
H92 H 0.9832 0.0778 0.4510
H93 H 0.9872 -0.0087 0.4353
C106 C 0.9284(3) 0.0509(4) 0.3752(4)
N38 N 0.9030(4) 0.0640(6) 0.3316(4)
C107 C 0.7032(5) 0.2865(6) -0.1202(4)
C108 C 0.7037(4) 0.2849(6) -0.0663(4)
H94 H 0.7338 0.2512 -0.0422
H95 H 0.6673 0.2663 -0.0699
H96 H 0.7103 0.3363 -0.0510
N39 N 0.7103(7) 0.2875(7) -0.1601(5)
C109 C 0.6572(5) 0.0598(6) -0.0526(5)
N40 N 0.6502(6) 0.1256(9) -0.1363(6)
C110 C 0.6581(7) 0.0975(9) -0.0939(8)
C89? C 0.8115(6) 0.1650(7) 0.2241(6)
H71? H 0.8347 0.1217 0.2296
C90? C 0.7435(5) 0.2526(7) 0.1644(5)
H72? H 0.7202 0.2623 0.1269
C91? C 0.7774(8) 0.1887(8) 0.1752(12)
H73? H 0.7757 0.1603 0.1450
C92? C 0.7776(7) 0.2726(10) 0.2574(7)
C93? C 0.8118(5) 0.2076(7) 0.2685(6)
H74? H 0.8346 0.1924 0.3050
C94? C 0.7764(6) 0.3172(10) 0.3015(5)
H75? H 0.7946 0.3070 0.3396
F21? F 0.5986(5) 0.9359(6) 0.9969(4)
B6? B 0.5866(5) 0.8782(7) 0.9602(4)
C111? C 0.6516(16) 0.0452(18) -0.0056(13)
N41? N 0.6523(14) 0.0352(16) 0.0383(10)
N42? N 0.7063(17) 0.091(2) 0.0474(11)
C112? C 0.686(2) 0.082(3) -0.001(2)
loop_
_geom_bond_atom_site_label_1
_geom_bond_atom_site_label_2
_geom_bond_site_symmetry_1
_geom_bond_site_symmetry_2
Fe1 N1 1_555 1_555
Fe2 N7 1_555 1_555
Fe3 N9 1_555 1_555
Fe4 N13 1_555 1_555
N1 C5 1_555 1_555
N2 Fe1 1_555 1_555
N3 Fe1 1_555 1_555
N4 Fe1 1_555 1_555
N5 N3 1_555 1_555
N6 H1 1_555 1_555
N7 C17 1_555 1_555
N8 Fe1 1_555 1_555
N9 C2 1_555 1_555
N10 Fe1 1_555 1_555
N11 Fe2 1_555 1_555
N12 N11 1_555 1_555
H2 N12 1_555 1_555
N13 C4 1_555 1_555
N14 H3 1_555 1_555
N15 Fe2 1_555 1_555
N16 Fe3 1_555 1_555
N17 Fe3 1_555 1_555
N18 Fe4 1_555 1_555
N19 Fe2 1_555 1_555
N20 Fe2 1_555 1_555
N21 Fe2 1_555 1_555
N22 Fe3 1_555 1_555
N23 N21 1_555 1_555
N24 Fe4 1_555 1_555
C1 N4 1_555 1_555
C2 N4 1_555 1_555
N25 N24 1_555 1_555
H4 N25 1_555 1_555
C3 C2 1_555 1_555
C4 N2 1_555 1_555
N26 Fe3 1_555 1_555
C5 C11 1_555 1_555
C6 N2 1_555 1_555
C7 N3 1_555 1_555
H5 C7 1_555 1_555
N27 H6 1_555 1_555
C8 N9 1_555 1_555
C9 N8 1_555 1_555
C10 H7 1_555 1_555
C11 H8 1_555 1_555
N28 Fe4 1_555 1_555
C12 C16 1_555 1_555
C13 N1 1_555 1_555
H9 C13 1_555 1_555
C14 N15 1_555 1_555
C15 N11 1_555 1_555
H10 C15 1_555 1_555
C16 H11 1_555 1_555
C17 N12 1_555 1_555
C18 C14 1_555 1_555
H12 C18 1_555 1_555
C19 N10 1_555 1_555
H13 C19 1_555 1_555
C20 C1 1_555 1_555
H14 C20 1_555 1_555
C21 N7 1_555 1_555
C22 N17 1_555 1_555
N29 N26 1_555 1_555
H15 N29 1_555 1_555
C23 C3 1_555 1_555
H16 C23 1_555 1_555
C24 N8 1_555 1_555
H17 C24 1_555 1_555
C25 C11 1_555 1_555
H18 C25 1_555 1_555
C26 C21 1_555 1_555
C27 C4 1_555 1_555
C28 C6 1_555 1_555
H19 C28 1_555 1_555
C29 H20 1_555 1_555
C30 C9 1_555 1_555
H21 C30 1_555 1_555
C31 C3 1_555 1_555
H22 C31 1_555 1_555
C32 C13 1_555 1_555
H23 C32 1_555 1_555
C33 C30 1_555 1_555
H24 C33 1_555 1_555
C34 N22 1_555 1_555
C35 C18 1_555 1_555
H25 C35 1_555 1_555
C36 C12 1_555 1_555
H26 C36 1_555 1_555
C37 C24 1_555 1_555
H27 C37 1_555 1_555
N30 Fe4 1_555 1_555
N31 Fe4 1_555 1_555
C38 N19 1_555 1_555
H28 C38 1_555 1_555
C39 C16 1_555 1_555
H29 C39 1_555 1_555
C40 N13 1_555 1_555
N32 Fe3 1_555 1_555
C41 C31 1_555 1_555
H30 C41 1_555 1_555
C42 C17 1_555 1_555
H31 C42 1_555 1_555
C43 N16 1_555 1_555
H32 C43 1_555 1_555
C44 C26 1_555 1_555
H33 C44 1_555 1_555
C45 N19 1_555 1_555
C46 C10 1_555 1_555
H34 C46 1_555 1_555
C47 N18 1_555 1_555
C48 C27 1_555 1_555
H35 C48 1_555 1_555
C49 N15 1_555 1_555
H36 C49 1_555 1_555
C50 C26 1_555 1_555
H37 C50 1_555 1_555
C51 C27 1_555 1_555
H38 C51 1_555 1_555
C52 N21 1_555 1_555
H39 C52 1_555 1_555
C53 N20 1_555 1_555
C54 N17 1_555 1_555
C55 C48 1_555 1_555
H40 C55 1_555 1_555
C56 C50 1_555 1_555
H41 C56 1_555 1_555
C57 C36 1_555 1_555
H42 C57 1_555 1_555
C58 C56 1_555 1_555
H43 C58 1_555 1_555
C59 C53 1_555 1_555
H44 C59 1_555 1_555
C60 C44 1_555 1_555
H45 C60 1_555 1_555
C61 H46 1_555 1_555
C62 N22 1_555 1_555
H47 C62 1_555 1_555
C63 C39 1_555 1_555
H48 C63 1_555 1_555
C64 C51 1_555 1_555
H49 C64 1_555 1_555
C65 N24 1_555 1_555
H50 C65 1_555 1_555
C66 C38 1_555 1_555
H51 C66 1_555 1_555
C67 C34 1_555 1_555
H52 C67 1_555 1_555
C68 C61 1_555 1_555
H53 C68 1_555 1_555
C69 C55 1_555 1_555
H54 C69 1_555 1_555
C70 C45 1_555 1_555
H55 C70 1_555 1_555
C71 N30 1_555 1_555
C72 C66 1_555 1_555
H56 C72 1_555 1_555
C73 H57 1_555 1_555
C74 C71 1_555 1_555
H58 C74 1_555 1_555
C75 N31 1_555 1_555
C76 N28 1_555 1_555
H59 C76 1_555 1_555
C77 N31 1_555 1_555
H60 C77 1_555 1_555
C78 H61 1_555 1_555
C79 N30 1_555 1_555
H62 C79 1_555 1_555
C80 C73 1_555 1_555
H63 C80 1_555 1_555
C81 C75 1_555 1_555
H64 C81 1_555 1_555
C82 C77 1_555 1_555
H65 C82 1_555 1_555
C83 H66 1_555 1_555
C84 N32 1_555 1_555
H67 C84 1_555 1_555
C85 C83 1_555 1_555
H68 C85 1_555 1_555
C86 N32 1_555 1_555
C87 C83 1_555 1_555
H69 C87 1_555 1_555
C88 N26 1_555 1_555
H70 C88 1_555 1_555
F1 B1 1_555 1_555
F2 B1 1_555 1_555
F3 B1 1_555 1_555
F4 B1 1_555 1_555
F5 B2 1_555 1_555
F6 B2 1_555 1_555
F7 B2 1_555 1_555
F8 B2 1_555 1_555
F9 B3 1_555 1_555
F10 B3 1_555 1_555
F11 B3 1_555 1_555
F12 B3 1_555 1_555
F13 B4 1_555 1_555
F14 B4 1_555 1_555
F15 B4 1_555 1_555
F16 B4 1_555 1_555
N33 C95 1_555 1_555
C95 C96 1_555 1_555
C96 H76 1_555 1_555
H77 C96 1_555 1_555
H78 C96 1_555 1_555
F17 B5 1_555 1_555
F18 B5 1_555 1_555
F19 B5 1_555 1_555
F20 B5 1_555 1_555
N34 C97 1_555 1_555
C97 C98 1_555 1_555
C98 H79 1_555 1_555
H80 C98 1_555 1_555
H81 C98 1_555 1_555
F22 B7 1_555 1_555
F23 B7 1_555 1_555
F24 B7 1_555 1_555
F25 B7 1_555 1_555
N35 C99 1_555 1_555
C99 C100 1_555 1_555
C100 H82 1_555 1_555
H83 C100 1_555 1_555
H84 C100 1_555 1_555
N36 C101 1_555 1_555
C101 C102 1_555 1_555
C102 H85 1_555 1_555
H86 C102 1_555 1_555
H87 C102 1_555 1_555
C103 N37 1_555 1_555
C104 C103 1_555 1_555
H88 C104 1_555 1_555
H89 C104 1_555 1_555
H90 C104 1_555 1_555
C105 H91 1_555 1_555
H92 C105 1_555 1_555
H93 C105 1_555 1_555
C106 C105 1_555 1_555
N38 C106 1_555 1_555
C107 C108 1_555 1_555
C108 H94 1_555 1_555
H95 C108 1_555 1_555
H96 C108 1_555 1_555
N39 C107 1_555 1_555
C109 C110 1_555 1_555
N40 C110 1_555 1_555
N5 C6 1_555 1_555
N6 N10 1_555 1_555
N6 C1 1_555 1_555
N14 N16 1_555 1_555
N14 C8 1_555 1_555
N18 C21 1_555 1_555
N20 C22 1_555 1_555
N23 C53 1_555 1_555
N25 C40 1_555 1_555
C5 C19 1_555 1_555
C7 C9 1_555 1_555
N27 N28 1_555 1_555
N27 C47 1_555 1_555
C8 C20 1_555 1_555
C10 C23 1_555 1_555
C12 C22 1_555 1_555
C14 C15 1_555 1_555
N29 C54 1_555 1_555
C25 C32 1_555 1_555
C28 C40 1_555 1_555
C29 C35 1_555 1_555
C29 C49 1_555 1_555
C33 C37 1_555 1_555
C34 C43 1_555 1_555
C41 C46 1_555 1_555
C42 C47 1_555 1_555
C45 C52 1_555 1_555
C54 C59 1_555 1_555
C57 C63 1_555 1_555
C58 C60 1_555 1_555
C61 C62 1_555 1_555
C64 C69 1_555 1_555
C65 C71 1_555 1_555
C67 C68 1_555 1_555
C70 C72 1_555 1_555
C73 C79 1_555 1_555
C74 C80 1_555 1_555
C75 C76 1_555 1_555
C78 C81 1_555 1_555
C78 C82 1_555 1_555
C84 C85 1_555 1_555
C86 C87 1_555 1_555
C86 C88 1_555 1_555

#END
