# generated using pymatgen
data_Fe5B6H90C108(N7F3)6
_symmetry_space_group_name_H-M   'P 1'
_cell_length_a   17.53990000
_cell_length_b   25.93170000
_cell_length_c   26.04619316
_cell_angle_alpha   90.00000000
_cell_angle_beta   99.93331942
_cell_angle_gamma   90.00000000
_symmetry_Int_Tables_number   1
_chemical_formula_structural   Fe5B6H90C108(N7F3)6
_chemical_formula_sum   'Fe20 B24 H360 C432 N168 F72'
_cell_volume   11669.24170285
_cell_formula_units_Z   4
loop_
 _symmetry_equiv_pos_site_id
 _symmetry_equiv_pos_as_xyz
  1  'x, y, z'
loop_
 _atom_site_type_symbol
 _atom_site_label
 _atom_site_symmetry_multiplicity
 _atom_site_fract_x
 _atom_site_fract_y
 _atom_site_fract_z
 _atom_site_occupancy
  Fe  Fe1  1  0.435680  0.876030  0.712630  1
  Fe  Fe2  1  0.064320  0.376030  0.787370  1
  Fe  Fe3  1  0.564320  0.123970  0.287370  1
  Fe  Fe4  1  0.935680  0.623970  0.212630  1
  Fe  Fe5  1  0.241480  0.671100  0.693810  1
  Fe  Fe6  1  0.258520  0.171100  0.806190  1
  Fe  Fe7  1  0.758520  0.328900  0.306190  1
  Fe  Fe8  1  0.741480  0.828900  0.193810  1
  Fe  Fe9  1  0.526300  0.524700  0.686300  1
  Fe  Fe10  1  0.973700  0.024700  0.813700  1
  Fe  Fe11  1  0.473700  0.475300  0.313700  1
  Fe  Fe12  1  0.026300  0.975300  0.186300  1
  Fe  Fe13  1  0.719920  0.732930  0.690060  1
  Fe  Fe14  1  0.780080  0.232930  0.809940  1
  Fe  Fe15  1  0.280080  0.267070  0.309940  1
  Fe  Fe16  1  0.219920  0.767070  0.190060  1
  Fe  Fe17  1  0.526767  0.530700  0.666667  1
  Fe  Fe18  1  0.973233  0.030700  0.833333  1
  Fe  Fe19  1  0.473233  0.469300  0.333333  1
  Fe  Fe20  1  0.026767  0.969300  0.166667  1
  B  B21  1  0.639700  0.747000  0.438700  1
  B  B22  1  0.860300  0.247000  0.061300  1
  B  B23  1  0.360300  0.253000  0.561300  1
  B  B24  1  0.139700  0.753000  0.938700  1
  B  B25  1  0.352700  0.593600  0.941300  1
  B  B26  1  0.147300  0.093600  0.558700  1
  B  B27  1  0.647300  0.406400  0.058700  1
  B  B28  1  0.852700  0.906400  0.441300  1
  B  B29  1  0.255600  0.730000  0.445800  1
  B  B30  1  0.244400  0.230000  0.054200  1
  B  B31  1  0.744400  0.270000  0.554200  1
  B  B32  1  0.755600  0.770000  0.945800  1
  B  B33  1  0.473100  0.773100  0.041800  1
  B  B34  1  0.026900  0.273100  0.458200  1
  B  B35  1  0.526900  0.226900  0.958200  1
  B  B36  1  0.973100  0.726900  0.541800  1
  B  B37  1  0.674700  0.730000  0.448700  1
  B  B38  1  0.825300  0.230000  0.051300  1
  B  B39  1  0.325300  0.270000  0.551300  1
  B  B40  1  0.174700  0.770000  0.948700  1
  B  B41  1  0.356500  0.631500  0.952700  1
  B  B42  1  0.143500  0.131500  0.547300  1
  B  B43  1  0.643500  0.368500  0.047300  1
  B  B44  1  0.856500  0.868500  0.452700  1
  H  H45  1  0.209400  0.720400  0.554100  1
  H  H46  1  0.290600  0.220400  0.945900  1
  H  H47  1  0.790600  0.279600  0.445900  1
  H  H48  1  0.709400  0.779600  0.054100  1
  H  H49  1  0.307800  0.628000  0.833500  1
  H  H50  1  0.192200  0.128000  0.666500  1
  H  H51  1  0.692200  0.372000  0.166500  1
  H  H52  1  0.807800  0.872000  0.333500  1
  H  H53  1  0.665000  0.711900  0.543500  1
  H  H54  1  0.835000  0.211900  0.956500  1
  H  H55  1  0.335000  0.288100  0.456500  1
  H  H56  1  0.165000  0.788100  0.043500  1
  H  H57  1  0.738000  0.751900  0.837100  1
  H  H58  1  0.762000  0.251900  0.662900  1
  H  H59  1  0.262000  0.248100  0.162900  1
  H  H60  1  0.238000  0.748100  0.337100  1
  H  H61  1  0.545300  0.940100  0.795300  1
  H  H62  1  0.954700  0.440100  0.704700  1
  H  H63  1  0.454700  0.059900  0.204700  1
  H  H64  1  0.045300  0.559900  0.295300  1
  H  H65  1  0.621000  0.011600  0.794500  1
  H  H66  1  0.879000  0.511600  0.705500  1
  H  H67  1  0.379000  0.988400  0.205500  1
  H  H68  1  0.121000  0.488400  0.294500  1
  H  H69  1  0.628400  0.052100  0.716300  1
  H  H70  1  0.871600  0.552100  0.783700  1
  H  H71  1  0.371600  0.947900  0.283700  1
  H  H72  1  0.128400  0.447900  0.216300  1
  H  H73  1  0.557000  0.018800  0.639500  1
  H  H74  1  0.943000  0.518800  0.860500  1
  H  H75  1  0.443000  0.981200  0.360500  1
  H  H76  1  0.057000  0.481200  0.139500  1
  H  H77  1  0.464000  0.945000  0.595600  1
  H  H78  1  0.036000  0.445000  0.904400  1
  H  H79  1  0.536000  0.055000  0.404400  1
  H  H80  1  0.964000  0.555000  0.095600  1
  H  H81  1  0.291500  0.798000  0.557800  1
  H  H82  1  0.208500  0.298000  0.942200  1
  H  H83  1  0.708500  0.202000  0.442200  1
  H  H84  1  0.791500  0.702000  0.057800  1
  H  H85  1  0.442600  0.721500  0.758200  1
  H  H86  1  0.057400  0.221500  0.741800  1
  H  H87  1  0.557400  0.278500  0.241800  1
  H  H88  1  0.942600  0.778500  0.258200  1
  H  H89  1  0.461100  0.707500  0.846000  1
  H  H90  1  0.038900  0.207500  0.654000  1
  H  H91  1  0.538900  0.292500  0.154000  1
  H  H92  1  0.961100  0.792500  0.346000  1
  H  H93  1  0.377700  0.745500  0.896400  1
  H  H94  1  0.122300  0.245500  0.603600  1
  H  H95  1  0.622300  0.254500  0.103600  1
  H  H96  1  0.877700  0.754500  0.396400  1
  H  H97  1  0.278900  0.799400  0.856800  1
  H  H98  1  0.221100  0.299400  0.643200  1
  H  H99  1  0.721100  0.200600  0.143200  1
  H  H100  1  0.778900  0.700600  0.356800  1
  H  H101  1  0.261900  0.811900  0.769000  1
  H  H102  1  0.238100  0.311900  0.731000  1
  H  H103  1  0.738100  0.188100  0.231000  1
  H  H104  1  0.761900  0.688100  0.269000  1
  H  H105  1  0.138400  0.641600  0.555000  1
  H  H106  1  0.361600  0.141600  0.945000  1
  H  H107  1  0.861600  0.358400  0.445000  1
  H  H108  1  0.638400  0.858400  0.055000  1
  H  H109  1  0.060400  0.560400  0.569300  1
  H  H110  1  0.439600  0.060400  0.930700  1
  H  H111  1  0.939600  0.439600  0.430700  1
  H  H112  1  0.560400  0.939600  0.069300  1
  H  H113  1  0.025500  0.502100  0.630300  1
  H  H114  1  0.474500  0.002100  0.869700  1
  H  H115  1  0.974500  0.497900  0.369700  1
  H  H116  1  0.525500  0.997900  0.130300  1
  H  H117  1  0.074900  0.512100  0.716900  1
  H  H118  1  0.425100  0.012100  0.783100  1
  H  H119  1  0.925100  0.487900  0.283100  1
  H  H120  1  0.574900  0.987900  0.216900  1
  H  H121  1  0.166000  0.575600  0.743700  1
  H  H122  1  0.334000  0.075600  0.756300  1
  H  H123  1  0.834000  0.424400  0.256300  1
  H  H124  1  0.666000  0.924400  0.243700  1
  H  H125  1  0.089300  0.734900  0.643800  1
  H  H126  1  0.410700  0.234900  0.856200  1
  H  H127  1  0.910700  0.265100  0.356200  1
  H  H128  1  0.589300  0.765100  0.143800  1
  H  H129  1  0.991600  0.781000  0.669800  1
  H  H130  1  0.508400  0.281000  0.830200  1
  H  H131  1  0.008400  0.219000  0.330200  1
  H  H132  1  0.491600  0.719000  0.169800  1
  H  H133  1  0.984900  0.784400  0.759000  1
  H  H134  1  0.515100  0.284400  0.741000  1
  H  H135  1  0.015100  0.215600  0.241000  1
  H  H136  1  0.484900  0.715600  0.259000  1
  H  H137  1  0.080000  0.742900  0.817700  1
  H  H138  1  0.420000  0.242900  0.682300  1
  H  H139  1  0.920000  0.257100  0.182300  1
  H  H140  1  0.580000  0.757100  0.317700  1
  H  H141  1  0.200700  0.685300  0.832800  1
  H  H142  1  0.299300  0.185300  0.667200  1
  H  H143  1  0.799300  0.314700  0.167200  1
  H  H144  1  0.700700  0.814700  0.332800  1
  H  H145  1  0.431600  0.582300  0.831700  1
  H  H146  1  0.068400  0.082300  0.668300  1
  H  H147  1  0.568400  0.417700  0.168300  1
  H  H148  1  0.931600  0.917700  0.331700  1
  H  H149  1  0.418400  0.663400  0.625800  1
  H  H150  1  0.081600  0.163400  0.874200  1
  H  H151  1  0.581600  0.336600  0.374200  1
  H  H152  1  0.918400  0.836600  0.125800  1
  H  H153  1  0.377200  0.671000  0.539600  1
  H  H154  1  0.122800  0.171000  0.960400  1
  H  H155  1  0.622800  0.329000  0.460400  1
  H  H156  1  0.877200  0.829000  0.039600  1
  H  H157  1  0.291000  0.610300  0.494600  1
  H  H158  1  0.209000  0.110300  0.005400  1
  H  H159  1  0.709000  0.389700  0.505400  1
  H  H160  1  0.791000  0.889700  0.994600  1
  H  H161  1  0.253300  0.539100  0.540000  1
  H  H162  1  0.246700  0.039100  0.960000  1
  H  H163  1  0.746700  0.460900  0.460000  1
  H  H164  1  0.753300  0.960900  0.040000  1
  H  H165  1  0.296600  0.533900  0.628600  1
  H  H166  1  0.203400  0.033900  0.871400  1
  H  H167  1  0.703400  0.466100  0.371400  1
  H  H168  1  0.796600  0.966100  0.128600  1
  H  H169  1  0.575900  0.637700  0.535800  1
  H  H170  1  0.924100  0.137700  0.964200  1
  H  H171  1  0.424100  0.362300  0.464200  1
  H  H172  1  0.075900  0.862300  0.035800  1
  H  H173  1  0.552100  0.674000  0.747700  1
  H  H174  1  0.947900  0.174000  0.752300  1
  H  H175  1  0.447900  0.326000  0.252300  1
  H  H176  1  0.052100  0.826000  0.247700  1
  H  H177  1  0.583100  0.672700  0.836200  1
  H  H178  1  0.916900  0.172700  0.663800  1
  H  H179  1  0.416900  0.327300  0.163800  1
  H  H180  1  0.083100  0.827300  0.336200  1
  H  H181  1  0.692000  0.628000  0.878400  1
  H  H182  1  0.808000  0.128000  0.621600  1
  H  H183  1  0.308000  0.372000  0.121600  1
  H  H184  1  0.192000  0.872000  0.378400  1
  H  H185  1  0.765500  0.582100  0.829300  1
  H  H186  1  0.734500  0.082100  0.670700  1
  H  H187  1  0.234500  0.417900  0.170700  1
  H  H188  1  0.265500  0.917900  0.329300  1
  H  H189  1  0.735000  0.582900  0.737800  1
  H  H190  1  0.765000  0.082900  0.762200  1
  H  H191  1  0.265000  0.417100  0.262200  1
  H  H192  1  0.235000  0.917100  0.237800  1
  H  H193  1  0.747400  0.785900  0.556100  1
  H  H194  1  0.752600  0.285900  0.943900  1
  H  H195  1  0.252600  0.214100  0.443900  1
  H  H196  1  0.247400  0.714100  0.056100  1
  H  H197  1  0.850500  0.859400  0.584100  1
  H  H198  1  0.649500  0.359400  0.915900  1
  H  H199  1  0.149500  0.140600  0.415900  1
  H  H200  1  0.350500  0.640600  0.084100  1
  H  H201  1  0.923300  0.903300  0.652700  1
  H  H202  1  0.576700  0.403300  0.847300  1
  H  H203  1  0.076700  0.096700  0.347300  1
  H  H204  1  0.423300  0.596700  0.152700  1
  H  H205  1  0.914700  0.883900  0.736900  1
  H  H206  1  0.585300  0.383900  0.763100  1
  H  H207  1  0.085300  0.116100  0.263100  1
  H  H208  1  0.414700  0.616100  0.236900  1
  H  H209  1  0.828100  0.820500  0.752600  1
  H  H210  1  0.671900  0.320500  0.747400  1
  H  H211  1  0.171900  0.179500  0.247400  1
  H  H212  1  0.328100  0.679500  0.252600  1
  H  H213  1  0.842000  0.675400  0.627900  1
  H  H214  1  0.658000  0.175400  0.872100  1
  H  H215  1  0.158000  0.324600  0.372100  1
  H  H216  1  0.342000  0.824600  0.127900  1
  H  H217  1  0.957800  0.628600  0.646400  1
  H  H218  1  0.542200  0.128600  0.853600  1
  H  H219  1  0.042200  0.371400  0.353600  1
  H  H220  1  0.457800  0.871400  0.146400  1
  H  H221  1  0.010300  0.614300  0.733300  1
  H  H222  1  0.489700  0.114300  0.766700  1
  H  H223  1  0.989700  0.385700  0.266700  1
  H  H224  1  0.510300  0.885700  0.233300  1
  H  H225  1  0.951900  0.647800  0.796800  1
  H  H226  1  0.548100  0.147800  0.703200  1
  H  H227  1  0.048100  0.352200  0.203200  1
  H  H228  1  0.451900  0.852200  0.296800  1
  H  H229  1  0.843500  0.700900  0.822800  1
  H  H230  1  0.656500  0.200900  0.677200  1
  H  H231  1  0.156500  0.299100  0.177200  1
  H  H232  1  0.343500  0.799100  0.322800  1
  H  H233  1  0.622700  0.799200  0.848200  1
  H  H234  1  0.877300  0.299200  0.651800  1
  H  H235  1  0.377300  0.200800  0.151800  1
  H  H236  1  0.122700  0.700800  0.348200  1
  H  H237  1  0.624600  0.869800  0.643000  1
  H  H238  1  0.875400  0.369800  0.857000  1
  H  H239  1  0.375400  0.130200  0.357000  1
  H  H240  1  0.124600  0.630200  0.143000  1
  H  H241  1  0.606400  0.870100  0.554000  1
  H  H242  1  0.893600  0.370100  0.946000  1
  H  H243  1  0.393600  0.129900  0.446000  1
  H  H244  1  0.106400  0.629900  0.054000  1
  H  H245  1  0.527100  0.812300  0.505700  1
  H  H246  1  0.972900  0.312300  0.994300  1
  H  H247  1  0.472900  0.187700  0.494300  1
  H  H248  1  0.027100  0.687700  0.005700  1
  H  H249  1  0.471000  0.747800  0.548300  1
  H  H250  1  0.029000  0.247800  0.951700  1
  H  H251  1  0.529000  0.252200  0.451700  1
  H  H252  1  0.971000  0.752200  0.048300  1
  H  H253  1  0.492800  0.742600  0.638100  1
  H  H254  1  0.007200  0.242600  0.861900  1
  H  H255  1  0.507200  0.257400  0.361900  1
  H  H256  1  0.992800  0.757400  0.138100  1
  H  H257  1  0.382200  0.898100  0.840100  1
  H  H258  1  0.117800  0.398100  0.659900  1
  H  H259  1  0.617800  0.101900  0.159900  1
  H  H260  1  0.882200  0.601900  0.340100  1
  H  H261  1  0.255100  0.952300  0.812600  1
  H  H262  1  0.244900  0.452300  0.687400  1
  H  H263  1  0.744900  0.047700  0.187400  1
  H  H264  1  0.755100  0.547700  0.312600  1
  H  H265  1  0.177700  0.996300  0.744300  1
  H  H266  1  0.322300  0.496300  0.755700  1
  H  H267  1  0.822300  0.003700  0.255700  1
  H  H268  1  0.677700  0.503700  0.244300  1
  H  H269  1  0.207500  0.994100  0.662100  1
  H  H270  1  0.292500  0.494100  0.837900  1
  H  H271  1  0.792500  0.005900  0.337900  1
  H  H272  1  0.707500  0.505900  0.162100  1
  H  H273  1  0.307200  0.943100  0.645600  1
  H  H274  1  0.192800  0.443100  0.854400  1
  H  H275  1  0.692800  0.056900  0.354400  1
  H  H276  1  0.807200  0.556900  0.145600  1
  H  H277  1  0.759800  0.439800  0.765400  1
  H  H278  1  0.740200  0.939800  0.734600  1
  H  H279  1  0.240200  0.560200  0.234600  1
  H  H280  1  0.259800  0.060200  0.265400  1
  H  H281  1  0.790900  0.398400  0.694800  1
  H  H282  1  0.709100  0.898400  0.805200  1
  H  H283  1  0.209100  0.601600  0.305200  1
  H  H284  1  0.290900  0.101600  0.194800  1
  H  H285  1  0.712400  0.413600  0.606500  1
  H  H286  1  0.787600  0.913600  0.893500  1
  H  H287  1  0.287600  0.586400  0.393500  1
  H  H288  1  0.212400  0.086400  0.106500  1
  H  H289  1  0.608600  0.471300  0.606500  1
  H  H290  1  0.891400  0.971300  0.893500  1
  H  H291  1  0.391400  0.528700  0.393500  1
  H  H292  1  0.108600  0.028700  0.106500  1
  H  H293  1  0.473200  0.451200  0.761300  1
  H  H294  1  0.026800  0.951200  0.738700  1
  H  H295  1  0.526800  0.548800  0.238700  1
  H  H296  1  0.973200  0.048800  0.261300  1
  H  H297  1  0.400100  0.371600  0.753700  1
  H  H298  1  0.099900  0.871600  0.746300  1
  H  H299  1  0.599900  0.628400  0.246300  1
  H  H300  1  0.900100  0.128400  0.253700  1
  H  H301  1  0.348100  0.345800  0.676000  1
  H  H302  1  0.151900  0.845800  0.824000  1
  H  H303  1  0.651900  0.654200  0.324000  1
  H  H304  1  0.848100  0.154200  0.176000  1
  H  H305  1  0.364900  0.384000  0.599600  1
  H  H306  1  0.135100  0.884000  0.900400  1
  H  H307  1  0.635100  0.616000  0.400400  1
  H  H308  1  0.864900  0.116000  0.099600  1
  H  H309  1  0.430600  0.469600  0.560900  1
  H  H310  1  0.069400  0.969600  0.939100  1
  H  H311  1  0.569400  0.530400  0.439100  1
  H  H312  1  0.930600  0.030400  0.060900  1
  H  H313  1  0.654200  0.487100  0.805800  1
  H  H314  1  0.845800  0.987100  0.694200  1
  H  H315  1  0.345800  0.512900  0.194200  1
  H  H316  1  0.154200  0.012900  0.305800  1
  H  H317  1  0.698200  0.522600  0.539300  1
  H  H318  1  0.801800  0.022600  0.960700  1
  H  H319  1  0.301800  0.477400  0.460700  1
  H  H320  1  0.198200  0.977400  0.039300  1
  H  H321  1  0.784600  0.531700  0.533300  1
  H  H322  1  0.715400  0.031700  0.966700  1
  H  H323  1  0.215400  0.468300  0.466700  1
  H  H324  1  0.284600  0.968300  0.033300  1
  H  H325  1  0.726100  0.577900  0.527000  1
  H  H326  1  0.773900  0.077900  0.973000  1
  H  H327  1  0.273900  0.422100  0.473000  1
  H  H328  1  0.226100  0.922100  0.027000  1
  H  H329  1  0.871100  0.661000  0.990700  1
  H  H330  1  0.628900  0.161000  0.509300  1
  H  H331  1  0.128900  0.339000  0.009300  1
  H  H332  1  0.371100  0.839000  0.490700  1
  H  H333  1  0.889100  0.601900  0.997200  1
  H  H334  1  0.610900  0.101900  0.502800  1
  H  H335  1  0.110900  0.398100  0.002800  1
  H  H336  1  0.389100  0.898100  0.497200  1
  H  H337  1  0.806700  0.620400  0.970200  1
  H  H338  1  0.693300  0.120400  0.529800  1
  H  H339  1  0.193300  0.379600  0.029800  1
  H  H340  1  0.306700  0.879600  0.470200  1
  H  H341  1  0.003800  0.849300  0.937800  1
  H  H342  1  0.496200  0.349300  0.562200  1
  H  H343  1  0.996200  0.150700  0.062200  1
  H  H344  1  0.503800  0.650700  0.437800  1
  H  H345  1  0.951900  0.803500  0.950700  1
  H  H346  1  0.548100  0.303500  0.549300  1
  H  H347  1  0.048100  0.196500  0.049300  1
  H  H348  1  0.451900  0.696500  0.450700  1
  H  H349  1  0.916300  0.858800  0.940300  1
  H  H350  1  0.583700  0.358800  0.559700  1
  H  H351  1  0.083700  0.141200  0.059700  1
  H  H352  1  0.416300  0.641200  0.440300  1
  H  H353  1  0.589900  0.917700  0.440400  1
  H  H354  1  0.910100  0.417700  0.059600  1
  H  H355  1  0.410100  0.082300  0.559600  1
  H  H356  1  0.089900  0.582300  0.940400  1
  H  H357  1  0.662200  0.882900  0.438100  1
  H  H358  1  0.837800  0.382900  0.061900  1
  H  H359  1  0.337800  0.117100  0.561900  1
  H  H360  1  0.162200  0.617100  0.938100  1
  H  H361  1  0.578700  0.860500  0.421300  1
  H  H362  1  0.921300  0.360500  0.078700  1
  H  H363  1  0.421300  0.139500  0.578700  1
  H  H364  1  0.078700  0.639500  0.921300  1
  H  H365  1  0.755200  0.428900  0.738800  1
  H  H366  1  0.744800  0.928900  0.761200  1
  H  H367  1  0.244800  0.571100  0.261200  1
  H  H368  1  0.255200  0.071100  0.238800  1
  H  H369  1  0.791600  0.400900  0.665400  1
  H  H370  1  0.708400  0.900900  0.834600  1
  H  H371  1  0.208400  0.599100  0.334600  1
  H  H372  1  0.291600  0.099100  0.165400  1
  H  H373  1  0.725700  0.434000  0.584700  1
  H  H374  1  0.774300  0.934000  0.915300  1
  H  H375  1  0.274300  0.566000  0.415300  1
  H  H376  1  0.225700  0.066000  0.084700  1
  H  H377  1  0.615000  0.481400  0.583200  1
  H  H378  1  0.885000  0.981400  0.916800  1
  H  H379  1  0.385000  0.518600  0.416800  1
  H  H380  1  0.115000  0.018600  0.083200  1
  H  H381  1  0.459200  0.444000  0.731100  1
  H  H382  1  0.040800  0.944000  0.768900  1
  H  H383  1  0.540800  0.556000  0.268900  1
  H  H384  1  0.959200  0.056000  0.231100  1
  H  H385  1  0.399200  0.373200  0.714500  1
  H  H386  1  0.100800  0.873200  0.785500  1
  H  H387  1  0.600800  0.626800  0.285500  1
  H  H388  1  0.899200  0.126800  0.214500  1
  H  H389  1  0.347100  0.343700  0.634700  1
  H  H390  1  0.152900  0.843700  0.865300  1
  H  H391  1  0.652900  0.656300  0.365300  1
  H  H392  1  0.847100  0.156300  0.134700  1
  H  H393  1  0.374000  0.400100  0.565500  1
  H  H394  1  0.126000  0.900100  0.934500  1
  H  H395  1  0.626000  0.599900  0.434500  1
  H  H396  1  0.874000  0.099900  0.065500  1
  H  H397  1  0.436500  0.484900  0.537200  1
  H  H398  1  0.063500  0.984900  0.962800  1
  H  H399  1  0.563500  0.515100  0.462800  1
  H  H400  1  0.936500  0.015100  0.037200  1
  H  H401  1  0.653400  0.479000  0.783700  1
  H  H402  1  0.846600  0.979000  0.716300  1
  H  H403  1  0.346600  0.521000  0.216300  1
  H  H404  1  0.153400  0.021000  0.283700  1
  C  C405  1  0.547300  0.955800  0.763500  1
  C  C406  1  0.952700  0.455800  0.736500  1
  C  C407  1  0.452700  0.044200  0.236500  1
  C  C408  1  0.047300  0.544200  0.263500  1
  C  C409  1  0.593200  0.998900  0.763400  1
  C  C410  1  0.906800  0.498900  0.736600  1
  C  C411  1  0.406800  0.001100  0.236600  1
  C  C412  1  0.093200  0.501100  0.263400  1
  C  C413  1  0.597800  0.023000  0.717100  1
  C  C414  1  0.902200  0.523000  0.782900  1
  C  C415  1  0.402200  0.977000  0.282900  1
  C  C416  1  0.097800  0.477000  0.217100  1
  C  C417  1  0.555700  0.003200  0.671500  1
  C  C418  1  0.944300  0.503200  0.828500  1
  C  C419  1  0.444300  0.996800  0.328500  1
  C  C420  1  0.055700  0.496800  0.171500  1
  C  C421  1  0.511100  0.958900  0.675200  1
  C  C422  1  0.988900  0.458900  0.824800  1
  C  C423  1  0.488900  0.041100  0.324800  1
  C  C424  1  0.011100  0.541100  0.175200  1
  C  C425  1  0.467100  0.933500  0.629700  1
  C  C426  1  0.032900  0.433500  0.870300  1
  C  C427  1  0.532900  0.066500  0.370300  1
  C  C428  1  0.967100  0.566500  0.129700  1
  C  C429  1  0.353700  0.825300  0.625200  1
  C  C430  1  0.146300  0.325300  0.874800  1
  C  C431  1  0.646300  0.174700  0.374800  1
  C  C432  1  0.853700  0.674700  0.125200  1
  C  C433  1  0.304900  0.792000  0.593400  1
  C  C434  1  0.195100  0.292000  0.906600  1
  C  C435  1  0.695100  0.208000  0.406600  1
  C  C436  1  0.804900  0.708000  0.093400  1
  C  C437  1  0.277200  0.749800  0.616300  1
  C  C438  1  0.222800  0.249800  0.883700  1
  C  C439  1  0.722800  0.250200  0.383700  1
  C  C440  1  0.777200  0.750200  0.116300  1
  C  C441  1  0.337500  0.776100  0.697900  1
  C  C442  1  0.162500  0.276100  0.802100  1
  C  C443  1  0.662500  0.223900  0.302100  1
  C  C444  1  0.837500  0.723900  0.197900  1
  C  C445  1  0.350700  0.769000  0.754600  1
  C  C446  1  0.149300  0.269000  0.745400  1
  C  C447  1  0.649300  0.231000  0.245400  1
  C  C448  1  0.850700  0.731000  0.254600  1
  C  C449  1  0.410000  0.737100  0.778200  1
  C  C450  1  0.090000  0.237100  0.721800  1
  C  C451  1  0.590000  0.262900  0.221800  1
  C  C452  1  0.910000  0.762900  0.278200  1
  C  C453  1  0.420800  0.728600  0.830300  1
  C  C454  1  0.079200  0.228600  0.669700  1
  C  C455  1  0.579200  0.271400  0.169700  1
  C  C456  1  0.920800  0.771400  0.330300  1
  C  C457  1  0.370900  0.751700  0.860700  1
  C  C458  1  0.129100  0.251700  0.639300  1
  C  C459  1  0.629100  0.248300  0.139300  1
  C  C460  1  0.870900  0.748300  0.360700  1
  C  C461  1  0.311700  0.783500  0.837200  1
  C  C462  1  0.188300  0.283500  0.662800  1
  C  C463  1  0.688300  0.216500  0.162800  1
  C  C464  1  0.811700  0.716500  0.337200  1
  C  C465  1  0.302400  0.791100  0.784900  1
  C  C466  1  0.197600  0.291100  0.715100  1
  C  C467  1  0.697600  0.208900  0.215100  1
  C  C468  1  0.802400  0.708900  0.284900  1
  C  C469  1  0.156200  0.641100  0.590700  1
  C  C470  1  0.343800  0.141100  0.909300  1
  C  C471  1  0.843800  0.358900  0.409300  1
  C  C472  1  0.656200  0.858900  0.090700  1
  C  C473  1  0.133300  0.602100  0.624400  1
  C  C474  1  0.366700  0.102100  0.875600  1
  C  C475  1  0.866700  0.397900  0.375600  1
  C  C476  1  0.633300  0.897900  0.124400  1
  C  C477  1  0.080500  0.563100  0.604700  1
  C  C478  1  0.419500  0.063100  0.895300  1
  C  C479  1  0.919500  0.436900  0.395300  1
  C  C480  1  0.580500  0.936900  0.104700  1
  C  C481  1  0.059900  0.528800  0.641100  1
  C  C482  1  0.440100  0.028800  0.858900  1
  C  C483  1  0.940100  0.471200  0.358900  1
  C  C484  1  0.559900  0.971200  0.141100  1
  C  C485  1  0.090300  0.534200  0.692500  1
  C  C486  1  0.409700  0.034200  0.807500  1
  C  C487  1  0.909700  0.465800  0.307500  1
  C  C488  1  0.590300  0.965800  0.192500  1
  C  C489  1  0.144300  0.572900  0.708600  1
  C  C490  1  0.355700  0.072900  0.791400  1
  C  C491  1  0.855700  0.427100  0.291400  1
  C  C492  1  0.644300  0.927100  0.208600  1
  C  C493  1  0.087500  0.737100  0.679200  1
  C  C494  1  0.412500  0.237100  0.820800  1
  C  C495  1  0.912500  0.262900  0.320800  1
  C  C496  1  0.587500  0.762900  0.179200  1
  C  C497  1  0.028200  0.764400  0.694200  1
  C  C498  1  0.471800  0.264400  0.805800  1
  C  C499  1  0.971800  0.235600  0.305800  1
  C  C500  1  0.528200  0.735600  0.194200  1
  C  C501  1  0.024600  0.766500  0.747300  1
  C  C502  1  0.475400  0.266500  0.752700  1
  C  C503  1  0.975400  0.233500  0.252700  1
  C  C504  1  0.524600  0.733500  0.247300  1
  C  C505  1  0.080700  0.741600  0.782100  1
  C  C506  1  0.419300  0.241600  0.717900  1
  C  C507  1  0.919300  0.258400  0.217900  1
  C  C508  1  0.580700  0.758400  0.282100  1
  C  C509  1  0.138900  0.714200  0.763300  1
  C  C510  1  0.361100  0.214200  0.736700  1
  C  C511  1  0.861100  0.285800  0.236700  1
  C  C512  1  0.638900  0.785800  0.263300  1
  C  C513  1  0.198400  0.686500  0.796900  1
  C  C514  1  0.301600  0.186500  0.703100  1
  C  C515  1  0.801600  0.313500  0.203100  1
  C  C516  1  0.698400  0.813500  0.296900  1
  C  C517  1  0.356600  0.613400  0.772700  1
  C  C518  1  0.143400  0.113400  0.727300  1
  C  C519  1  0.643400  0.386600  0.227300  1
  C  C520  1  0.856600  0.886600  0.272700  1
  C  C521  1  0.420300  0.586000  0.795700  1
  C  C522  1  0.079700  0.086000  0.704300  1
  C  C523  1  0.579700  0.414000  0.204300  1
  C  C524  1  0.920300  0.914000  0.295700  1
  C  C525  1  0.468100  0.563400  0.763900  1
  C  C526  1  0.031900  0.063400  0.736100  1
  C  C527  1  0.531900  0.436600  0.236100  1
  C  C528  1  0.968100  0.936600  0.263900  1
  C  C529  1  0.385900  0.594900  0.691600  1
  C  C530  1  0.114100  0.094900  0.808400  1
  C  C531  1  0.614100  0.405100  0.308400  1
  C  C532  1  0.885900  0.905100  0.191600  1
  C  C533  1  0.361800  0.598300  0.634700  1
  C  C534  1  0.138200  0.098300  0.865300  1
  C  C535  1  0.638200  0.401700  0.365300  1
  C  C536  1  0.861800  0.901700  0.134700  1
  C  C537  1  0.385000  0.638700  0.608200  1
  C  C538  1  0.115000  0.138700  0.891800  1
  C  C539  1  0.615000  0.361300  0.391800  1
  C  C540  1  0.885000  0.861300  0.108200  1
  C  C541  1  0.360500  0.643300  0.557500  1
  C  C542  1  0.139500  0.143300  0.942500  1
  C  C543  1  0.639500  0.356700  0.442500  1
  C  C544  1  0.860500  0.856700  0.057500  1
  C  C545  1  0.309000  0.606400  0.530100  1
  C  C546  1  0.191000  0.106400  0.969900  1
  C  C547  1  0.691000  0.393600  0.469900  1
  C  C548  1  0.809000  0.893600  0.030100  1
  C  C549  1  0.285800  0.564300  0.557200  1
  C  C550  1  0.214200  0.064300  0.942800  1
  C  C551  1  0.714200  0.435700  0.442800  1
  C  C552  1  0.785800  0.935700  0.057200  1
  C  C553  1  0.312200  0.561200  0.609700  1
  C  C554  1  0.187800  0.061200  0.890300  1
  C  C555  1  0.687800  0.438800  0.390300  1
  C  C556  1  0.812200  0.938800  0.109700  1
  C  C557  1  0.558700  0.594300  0.598900  1
  C  C558  1  0.941300  0.094300  0.901100  1
  C  C559  1  0.441300  0.405700  0.401100  1
  C  C560  1  0.058700  0.905700  0.098900  1
  C  C561  1  0.587900  0.634900  0.571900  1
  C  C562  1  0.912100  0.134900  0.928100  1
  C  C563  1  0.412100  0.365100  0.428100  1
  C  C564  1  0.087900  0.865100  0.071900  1
  C  C565  1  0.635400  0.670300  0.601600  1
  C  C566  1  0.864600  0.170300  0.898400  1
  C  C567  1  0.364600  0.329700  0.398400  1
  C  C568  1  0.135400  0.829700  0.101600  1
  C  C569  1  0.620400  0.630300  0.677800  1
  C  C570  1  0.879600  0.130300  0.822200  1
  C  C571  1  0.379600  0.369700  0.322200  1
  C  C572  1  0.120400  0.869700  0.177800  1
  C  C573  1  0.639700  0.628200  0.734800  1
  C  C574  1  0.860300  0.128200  0.765200  1
  C  C575  1  0.360300  0.371800  0.265200  1
  C  C576  1  0.139700  0.871800  0.234800  1
  C  C577  1  0.594900  0.655400  0.764000  1
  C  C578  1  0.905100  0.155400  0.736000  1
  C  C579  1  0.405100  0.344600  0.236000  1
  C  C580  1  0.094900  0.844600  0.264000  1
  C  C581  1  0.613900  0.654800  0.816500  1
  C  C582  1  0.886100  0.154800  0.683500  1
  C  C583  1  0.386100  0.345200  0.183500  1
  C  C584  1  0.113900  0.845200  0.316500  1
  C  C585  1  0.679200  0.627600  0.842300  1
  C  C586  1  0.820800  0.127600  0.657700  1
  C  C587  1  0.320800  0.372400  0.157700  1
  C  C588  1  0.179200  0.872400  0.342300  1
  C  C589  1  0.722900  0.600700  0.812900  1
  C  C590  1  0.777100  0.100700  0.687100  1
  C  C591  1  0.277100  0.399300  0.187100  1
  C  C592  1  0.222900  0.899300  0.312900  1
  C  C593  1  0.704700  0.600700  0.757900  1
  C  C594  1  0.795300  0.100700  0.742100  1
  C  C595  1  0.295300  0.399300  0.242100  1
  C  C596  1  0.204700  0.899300  0.257900  1
  C  C597  1  0.750500  0.780000  0.591600  1
  C  C598  1  0.749500  0.280000  0.908400  1
  C  C599  1  0.249500  0.220000  0.408400  1
  C  C600  1  0.250500  0.720000  0.091600  1
  C  C601  1  0.797800  0.811100  0.630800  1
  C  C602  1  0.702200  0.311100  0.869200  1
  C  C603  1  0.202200  0.188900  0.369200  1
  C  C604  1  0.297800  0.688900  0.130800  1
  C  C605  1  0.847200  0.851200  0.618400  1
  C  C606  1  0.652800  0.351200  0.881600  1
  C  C607  1  0.152800  0.148800  0.381600  1
  C  C608  1  0.347200  0.648800  0.118400  1
  C  C609  1  0.889900  0.877300  0.659500  1
  C  C610  1  0.610100  0.377300  0.840500  1
  C  C611  1  0.110100  0.122700  0.340500  1
  C  C612  1  0.389900  0.622700  0.159500  1
  C  C613  1  0.884900  0.866400  0.709400  1
  C  C614  1  0.615100  0.366400  0.790600  1
  C  C615  1  0.115100  0.133600  0.290600  1
  C  C616  1  0.384900  0.633600  0.209400  1
  C  C617  1  0.832900  0.827600  0.718300  1
  C  C618  1  0.667100  0.327600  0.781700  1
  C  C619  1  0.167100  0.172400  0.281700  1
  C  C620  1  0.332900  0.672400  0.218300  1
  C  C621  1  0.863800  0.670100  0.662600  1
  C  C622  1  0.636200  0.170100  0.837400  1
  C  C623  1  0.136200  0.329900  0.337400  1
  C  C624  1  0.363800  0.829900  0.162600  1
  C  C625  1  0.934200  0.641300  0.673100  1
  C  C626  1  0.565800  0.141300  0.826900  1
  C  C627  1  0.065800  0.358700  0.326900  1
  C  C628  1  0.434200  0.858700  0.173100  1
  C  C629  1  0.965100  0.633400  0.724500  1
  C  C630  1  0.534900  0.133400  0.775500  1
  C  C631  1  0.034900  0.366600  0.275500  1
  C  C632  1  0.465100  0.866600  0.224500  1
  C  C633  1  0.930500  0.653000  0.761900  1
  C  C634  1  0.569500  0.153000  0.738100  1
  C  C635  1  0.069500  0.347000  0.238100  1
  C  C636  1  0.430500  0.847000  0.261900  1
  C  C637  1  0.863800  0.680600  0.749000  1
  C  C638  1  0.636200  0.180600  0.751000  1
  C  C639  1  0.136200  0.319400  0.251000  1
  C  C640  1  0.363800  0.819400  0.249000  1
  C  C641  1  0.824700  0.703900  0.787300  1
  C  C642  1  0.675300  0.203900  0.712700  1
  C  C643  1  0.175300  0.296100  0.212700  1
  C  C644  1  0.324700  0.796100  0.287300  1
  C  C645  1  0.656100  0.776800  0.782200  1
  C  C646  1  0.843900  0.276800  0.717800  1
  C  C647  1  0.343900  0.223200  0.217800  1
  C  C648  1  0.156100  0.723200  0.282200  1
  C  C649  1  0.610400  0.800100  0.812000  1
  C  C650  1  0.889600  0.300100  0.688000  1
  C  C651  1  0.389600  0.199900  0.188000  1
  C  C652  1  0.110400  0.699900  0.312000  1
  C  C653  1  0.544500  0.825500  0.787300  1
  C  C654  1  0.955500  0.325500  0.712700  1
  C  C655  1  0.455500  0.174500  0.212700  1
  C  C656  1  0.044500  0.674500  0.287300  1
  C  C657  1  0.576300  0.805200  0.707400  1
  C  C658  1  0.923700  0.305200  0.792600  1
  C  C659  1  0.423700  0.194800  0.292600  1
  C  C660  1  0.076300  0.694800  0.207400  1
  C  C661  1  0.560900  0.806600  0.650000  1
  C  C662  1  0.939100  0.306600  0.850000  1
  C  C663  1  0.439100  0.193400  0.350000  1
  C  C664  1  0.060900  0.693400  0.150000  1
  C  C665  1  0.594100  0.844600  0.624200  1
  C  C666  1  0.905900  0.344600  0.875800  1
  C  C667  1  0.405900  0.155400  0.375800  1
  C  C668  1  0.094100  0.655400  0.124200  1
  C  C669  1  0.581900  0.845000  0.570800  1
  C  C670  1  0.918100  0.345000  0.929200  1
  C  C671  1  0.418100  0.155000  0.429200  1
  C  C672  1  0.081900  0.655000  0.070800  1
  C  C673  1  0.536100  0.810500  0.541900  1
  C  C674  1  0.963900  0.310500  0.958100  1
  C  C675  1  0.463900  0.189500  0.458100  1
  C  C676  1  0.036100  0.689500  0.041900  1
  C  C677  1  0.502600  0.772100  0.567700  1
  C  C678  1  0.997400  0.272100  0.932300  1
  C  C679  1  0.497400  0.227900  0.432300  1
  C  C680  1  0.002600  0.727900  0.067700  1
  C  C681  1  0.514800  0.769000  0.621400  1
  C  C682  1  0.985200  0.269000  0.878600  1
  C  C683  1  0.485200  0.231000  0.378600  1
  C  C684  1  0.014800  0.731000  0.121400  1
  C  C685  1  0.383600  0.897100  0.804500  1
  C  C686  1  0.116400  0.397100  0.695500  1
  C  C687  1  0.616400  0.102900  0.195500  1
  C  C688  1  0.883600  0.602900  0.304500  1
  C  C689  1  0.329500  0.922700  0.766600  1
  C  C690  1  0.170500  0.422700  0.733400  1
  C  C691  1  0.670500  0.077300  0.233400  1
  C  C692  1  0.829500  0.577300  0.266600  1
  C  C693  1  0.265800  0.951200  0.778900  1
  C  C694  1  0.234200  0.451200  0.721100  1
  C  C695  1  0.734200  0.048800  0.221100  1
  C  C696  1  0.765800  0.548800  0.278900  1
  C  C697  1  0.220200  0.977300  0.738000  1
  C  C698  1  0.279800  0.477300  0.762000  1
  C  C699  1  0.779800  0.022700  0.262000  1
  C  C700  1  0.720200  0.522700  0.238000  1
  C  C701  1  0.236900  0.975400  0.689000  1
  C  C702  1  0.263100  0.475400  0.811000  1
  C  C703  1  0.763100  0.024600  0.311000  1
  C  C704  1  0.736900  0.524600  0.189000  1
  C  C705  1  0.297600  0.945400  0.679500  1
  C  C706  1  0.202400  0.445400  0.820500  1
  C  C707  1  0.702400  0.054600  0.320500  1
  C  C708  1  0.797600  0.554600  0.179500  1
  C  C709  1  0.658800  0.476600  0.729100  1
  C  C710  1  0.841200  0.976600  0.770900  1
  C  C711  1  0.341200  0.523400  0.270900  1
  C  C712  1  0.158800  0.023400  0.229100  1
  C  C713  1  0.728400  0.444200  0.733000  1
  C  C714  1  0.771600  0.944200  0.767000  1
  C  C715  1  0.271600  0.555800  0.267000  1
  C  C716  1  0.228400  0.055800  0.233000  1
  C  C717  1  0.748600  0.420300  0.690600  1
  C  C718  1  0.751400  0.920300  0.809400  1
  C  C719  1  0.251400  0.579700  0.309400  1
  C  C720  1  0.248600  0.079700  0.190600  1
  C  C721  1  0.701700  0.428900  0.636700  1
  C  C722  1  0.798300  0.928900  0.863300  1
  C  C723  1  0.298300  0.571100  0.363300  1
  C  C724  1  0.201700  0.071100  0.136700  1
  C  C725  1  0.639200  0.463200  0.638200  1
  C  C726  1  0.860800  0.963200  0.861800  1
  C  C727  1  0.360800  0.536800  0.361800  1
  C  C728  1  0.139200  0.036800  0.138200  1
  C  C729  1  0.452000  0.438300  0.728600  1
  C  C730  1  0.048000  0.938300  0.771400  1
  C  C731  1  0.548000  0.561700  0.271400  1
  C  C732  1  0.952000  0.061700  0.228600  1
  C  C733  1  0.407100  0.390300  0.724400  1
  C  C734  1  0.092900  0.890300  0.775600  1
  C  C735  1  0.592900  0.609700  0.275600  1
  C  C736  1  0.907100  0.109700  0.224400  1
  C  C737  1  0.378100  0.375500  0.678100  1
  C  C738  1  0.121900  0.875500  0.821900  1
  C  C739  1  0.621900  0.624500  0.321900  1
  C  C740  1  0.878100  0.124500  0.178100  1
  C  C741  1  0.385500  0.397300  0.632200  1
  C  C742  1  0.114500  0.897300  0.867800  1
  C  C743  1  0.614500  0.602700  0.367800  1
  C  C744  1  0.885500  0.102700  0.132200  1
  C  C745  1  0.431900  0.446700  0.641400  1
  C  C746  1  0.068100  0.946700  0.858600  1
  C  C747  1  0.568100  0.553300  0.358600  1
  C  C748  1  0.931900  0.053300  0.141400  1
  C  C749  1  0.448300  0.477800  0.595700  1
  C  C750  1  0.051700  0.977800  0.904300  1
  C  C751  1  0.551700  0.522200  0.404300  1
  C  C752  1  0.948300  0.022200  0.095700  1
  C  C753  1  0.631400  0.494100  0.771500  1
  C  C754  1  0.868600  0.994100  0.728500  1
  C  C755  1  0.368600  0.505900  0.228500  1
  C  C756  1  0.131400  0.005900  0.271500  1
  C  C757  1  0.759600  0.556500  0.598100  1
  C  C758  1  0.740400  0.056500  0.901900  1
  C  C759  1  0.240400  0.443500  0.401900  1
  C  C760  1  0.259600  0.943500  0.098100  1
  C  C761  1  0.740600  0.546400  0.545400  1
  C  C762  1  0.759400  0.046400  0.954600  1
  C  C763  1  0.259400  0.453600  0.454600  1
  C  C764  1  0.240600  0.953600  0.045400  1
  C  C765  1  0.885600  0.627100  0.926600  1
  C  C766  1  0.614400  0.127100  0.573400  1
  C  C767  1  0.114400  0.372900  0.073400  1
  C  C768  1  0.385600  0.872900  0.426600  1
  C  C769  1  0.861100  0.627700  0.974900  1
  C  C770  1  0.638900  0.127700  0.525100  1
  C  C771  1  0.138900  0.372300  0.025100  1
  C  C772  1  0.361100  0.872300  0.474900  1
  C  C773  1  0.933100  0.822900  0.876600  1
  C  C774  1  0.566900  0.322900  0.623400  1
  C  C775  1  0.066900  0.177100  0.123400  1
  C  C776  1  0.433100  0.677100  0.376600  1
  C  C777  1  0.952900  0.834600  0.930800  1
  C  C778  1  0.547100  0.334600  0.569200  1
  C  C779  1  0.047100  0.165400  0.069200  1
  C  C780  1  0.452900  0.665400  0.430800  1
  C  C781  1  0.610600  0.907200  0.368900  1
  C  C782  1  0.889400  0.407200  0.131100  1
  C  C783  1  0.389400  0.092800  0.631100  1
  C  C784  1  0.110600  0.592800  0.868900  1
  C  C785  1  0.610300  0.890700  0.421500  1
  C  C786  1  0.889700  0.390700  0.078500  1
  C  C787  1  0.389700  0.109300  0.578500  1
  C  C788  1  0.110300  0.609300  0.921500  1
  C  C789  1  0.662000  0.470300  0.706900  1
  C  C790  1  0.838000  0.970300  0.793100  1
  C  C791  1  0.338000  0.529700  0.293100  1
  C  C792  1  0.162000  0.029700  0.206900  1
  C  C793  1  0.726800  0.439100  0.706900  1
  C  C794  1  0.773200  0.939100  0.793100  1
  C  C795  1  0.273200  0.560900  0.293100  1
  C  C796  1  0.226800  0.060900  0.206900  1
  C  C797  1  0.749900  0.423300  0.664100  1
  C  C798  1  0.750100  0.923300  0.835900  1
  C  C799  1  0.250100  0.576700  0.335900  1
  C  C800  1  0.249900  0.076700  0.164100  1
  C  C801  1  0.708700  0.441700  0.615700  1
  C  C802  1  0.791300  0.941700  0.884300  1
  C  C803  1  0.291300  0.558300  0.384300  1
  C  C804  1  0.208700  0.058300  0.115700  1
  C  C805  1  0.643100  0.470900  0.615100  1
  C  C806  1  0.856900  0.970900  0.884900  1
  C  C807  1  0.356900  0.529100  0.384900  1
  C  C808  1  0.143100  0.029100  0.115100  1
  C  C809  1  0.444600  0.435500  0.696100  1
  C  C810  1  0.055400  0.935500  0.803900  1
  C  C811  1  0.555400  0.564500  0.303900  1
  C  C812  1  0.944600  0.064500  0.196100  1
  C  C813  1  0.405800  0.393000  0.685800  1
  C  C814  1  0.094200  0.893000  0.814200  1
  C  C815  1  0.594200  0.607000  0.314200  1
  C  C816  1  0.905800  0.107000  0.185800  1
  C  C817  1  0.375000  0.374300  0.640400  1
  C  C818  1  0.125000  0.874300  0.859600  1
  C  C819  1  0.625000  0.625700  0.359600  1
  C  C820  1  0.875000  0.125700  0.140400  1
  C  C821  1  0.391500  0.409300  0.600000  1
  C  C822  1  0.108500  0.909300  0.900000  1
  C  C823  1  0.608500  0.590700  0.400000  1
  C  C824  1  0.891500  0.090700  0.100000  1
  C  C825  1  0.432100  0.456000  0.609400  1
  C  C826  1  0.067900  0.956000  0.890600  1
  C  C827  1  0.567900  0.544000  0.390600  1
  C  C828  1  0.932100  0.044000  0.109400  1
  C  C829  1  0.450100  0.490300  0.572900  1
  C  C830  1  0.049900  0.990300  0.927100  1
  C  C831  1  0.549900  0.509700  0.427100  1
  C  C832  1  0.950100  0.009700  0.072900  1
  C  C833  1  0.632400  0.487500  0.749500  1
  C  C834  1  0.867600  0.987500  0.750500  1
  C  C835  1  0.367600  0.512500  0.250500  1
  C  C836  1  0.132400  0.012500  0.249500  1
  N  N837  1  0.505500  0.935400  0.720900  1
  N  N838  1  0.994500  0.435400  0.779100  1
  N  N839  1  0.494500  0.064600  0.279100  1
  N  N840  1  0.005500  0.564600  0.220900  1
  N  N841  1  0.432000  0.891800  0.643400  1
  N  N842  1  0.068000  0.391800  0.856600  1
  N  N843  1  0.568000  0.108200  0.356600  1
  N  N844  1  0.932000  0.608200  0.143400  1
  N  N845  1  0.384300  0.865700  0.603400  1
  N  N846  1  0.115700  0.365700  0.896600  1
  N  N847  1  0.615700  0.134300  0.396600  1
  N  N848  1  0.884300  0.634300  0.103400  1
  N  N849  1  0.368600  0.818000  0.678200  1
  N  N850  1  0.131400  0.318000  0.821800  1
  N  N851  1  0.631400  0.182000  0.321800  1
  N  N852  1  0.868600  0.682000  0.178200  1
  N  N853  1  0.293400  0.740500  0.668300  1
  N  N854  1  0.206600  0.240500  0.831700  1
  N  N855  1  0.706600  0.259500  0.331700  1
  N  N856  1  0.793400  0.759500  0.168300  1
  N  N857  1  0.226600  0.715600  0.587600  1
  N  N858  1  0.273400  0.215600  0.912400  1
  N  N859  1  0.773400  0.284400  0.412400  1
  N  N860  1  0.726600  0.784400  0.087600  1
  N  N861  1  0.203800  0.675400  0.614200  1
  N  N862  1  0.296200  0.175400  0.885800  1
  N  N863  1  0.796200  0.324600  0.385800  1
  N  N864  1  0.703800  0.824600  0.114200  1
  N  N865  1  0.165100  0.605800  0.675000  1
  N  N866  1  0.334900  0.105800  0.825000  1
  N  N867  1  0.834900  0.394200  0.325000  1
  N  N868  1  0.665100  0.894200  0.175000  1
  N  N869  1  0.143200  0.713500  0.712800  1
  N  N870  1  0.356800  0.213500  0.787200  1
  N  N871  1  0.856800  0.286500  0.287200  1
  N  N872  1  0.643200  0.786500  0.212800  1
  N  N873  1  0.248700  0.663400  0.774000  1
  N  N874  1  0.251300  0.163400  0.726000  1
  N  N875  1  0.751300  0.336600  0.226000  1
  N  N876  1  0.748700  0.836600  0.274000  1
  N  N877  1  0.304800  0.633600  0.799900  1
  N  N878  1  0.195200  0.133600  0.700100  1
  N  N879  1  0.695200  0.366400  0.200100  1
  N  N880  1  0.804800  0.866400  0.299900  1
  N  N881  1  0.340000  0.620000  0.719900  1
  N  N882  1  0.160000  0.120000  0.780100  1
  N  N883  1  0.660000  0.380000  0.280100  1
  N  N884  1  0.840000  0.880000  0.219900  1
  N  N885  1  0.449600  0.568000  0.709300  1
  N  N886  1  0.050400  0.068000  0.790700  1
  N  N887  1  0.550400  0.432000  0.290700  1
  N  N888  1  0.949600  0.932000  0.209300  1
  N  N889  1  0.575400  0.592400  0.652400  1
  N  N890  1  0.924600  0.092400  0.847600  1
  N  N891  1  0.424600  0.407600  0.347600  1
  N  N892  1  0.075400  0.907600  0.152400  1
  N  N893  1  0.648700  0.669500  0.654100  1
  N  N894  1  0.851300  0.169500  0.845900  1
  N  N895  1  0.351300  0.330500  0.345900  1
  N  N896  1  0.148700  0.830500  0.154100  1
  N  N897  1  0.669600  0.709300  0.577600  1
  N  N898  1  0.830400  0.209300  0.922400  1
  N  N899  1  0.330400  0.290700  0.422400  1
  N  N900  1  0.169600  0.790700  0.077600  1
  N  N901  1  0.712900  0.743000  0.609700  1
  N  N902  1  0.787100  0.243000  0.890300  1
  N  N903  1  0.287100  0.257000  0.390300  1
  N  N904  1  0.212900  0.757000  0.109700  1
  N  N905  1  0.790400  0.800400  0.681000  1
  N  N906  1  0.709600  0.300400  0.819000  1
  N  N907  1  0.209600  0.199600  0.319000  1
  N  N908  1  0.290400  0.699600  0.181000  1
  N  N909  1  0.827900  0.689500  0.697700  1
  N  N910  1  0.672100  0.189500  0.802300  1
  N  N911  1  0.172100  0.310500  0.302300  1
  N  N912  1  0.327900  0.810500  0.197700  1
  N  N913  1  0.761800  0.729000  0.769900  1
  N  N914  1  0.738200  0.229000  0.730100  1
  N  N915  1  0.238200  0.271000  0.230100  1
  N  N916  1  0.261800  0.771000  0.269900  1
  N  N917  1  0.721800  0.752400  0.803200  1
  N  N918  1  0.778200  0.252400  0.696800  1
  N  N919  1  0.278200  0.247600  0.196800  1
  N  N920  1  0.221800  0.747600  0.303200  1
  N  N921  1  0.639700  0.777640  0.728700  1
  N  N922  1  0.860300  0.277640  0.771300  1
  N  N923  1  0.360300  0.222360  0.271300  1
  N  N924  1  0.139700  0.722360  0.228700  1
  N  N925  1  0.528900  0.829180  0.733700  1
  N  N926  1  0.971100  0.329180  0.766300  1
  N  N927  1  0.471100  0.170820  0.266300  1
  N  N928  1  0.028900  0.670820  0.233700  1
  N  N929  1  0.494500  0.847700  0.815800  1
  N  N930  1  0.005500  0.347700  0.684200  1
  N  N931  1  0.505500  0.152300  0.184200  1
  N  N932  1  0.994500  0.652300  0.315800  1
  N  N933  1  0.436000  0.871800  0.784600  1
  N  N934  1  0.064000  0.371800  0.715400  1
  N  N935  1  0.564000  0.128200  0.215400  1
  N  N936  1  0.936000  0.628200  0.284600  1
  N  N937  1  0.343500  0.919600  0.717200  1
  N  N938  1  0.156500  0.419600  0.782800  1
  N  N939  1  0.656500  0.080400  0.282800  1
  N  N940  1  0.843500  0.580400  0.217200  1
  N  N941  1  0.621900  0.484000  0.678900  1
  N  N942  1  0.878100  0.984000  0.821100  1
  N  N943  1  0.378100  0.516000  0.321100  1
  N  N944  1  0.121900  0.016000  0.178900  1
  N  N945  1  0.462400  0.462800  0.687600  1
  N  N946  1  0.037600  0.962800  0.812400  1
  N  N947  1  0.537600  0.537200  0.312400  1
  N  N948  1  0.962400  0.037200  0.187600  1
  N  N949  1  0.492600  0.519900  0.612600  1
  N  N950  1  0.007400  0.019900  0.887400  1
  N  N951  1  0.507400  0.480100  0.387400  1
  N  N952  1  0.992600  0.980100  0.112600  1
  N  N953  1  0.567200  0.523000  0.758000  1
  N  N954  1  0.932800  0.023000  0.742000  1
  N  N955  1  0.432800  0.477000  0.242000  1
  N  N956  1  0.067200  0.977000  0.258000  1
  N  N957  1  0.529600  0.537900  0.797700  1
  N  N958  1  0.970400  0.037900  0.702300  1
  N  N959  1  0.470400  0.462100  0.202300  1
  N  N960  1  0.029600  0.962100  0.297700  1
  N  N961  1  0.509000  0.555700  0.580000  1
  N  N962  1  0.991000  0.055700  0.920000  1
  N  N963  1  0.491000  0.444300  0.420000  1
  N  N964  1  0.009000  0.944300  0.080000  1
  N  N965  1  0.765900  0.565900  0.643000  1
  N  N966  1  0.734100  0.065900  0.857000  1
  N  N967  1  0.234100  0.434100  0.357000  1
  N  N968  1  0.265900  0.934100  0.143000  1
  N  N969  1  0.907100  0.628100  0.886000  1
  N  N970  1  0.592900  0.128100  0.614000  1
  N  N971  1  0.092900  0.371900  0.114000  1
  N  N972  1  0.407100  0.871900  0.386000  1
  N  N973  1  0.919200  0.817300  0.836800  1
  N  N974  1  0.580800  0.317300  0.663200  1
  N  N975  1  0.080800  0.182700  0.163200  1
  N  N976  1  0.419200  0.682700  0.336800  1
  N  N977  1  0.610700  0.921500  0.328100  1
  N  N978  1  0.889300  0.421500  0.171900  1
  N  N979  1  0.389300  0.078500  0.671900  1
  N  N980  1  0.110700  0.578500  0.828100  1
  N  N981  1  0.618200  0.485000  0.660200  1
  N  N982  1  0.881800  0.985000  0.839800  1
  N  N983  1  0.381800  0.515000  0.339800  1
  N  N984  1  0.118200  0.015000  0.160200  1
  N  N985  1  0.465100  0.467800  0.662300  1
  N  N986  1  0.034900  0.967800  0.837700  1
  N  N987  1  0.534900  0.532200  0.337700  1
  N  N988  1  0.965100  0.032200  0.162300  1
  N  N989  1  0.488800  0.532000  0.593400  1
  N  N990  1  0.011200  0.032000  0.906600  1
  N  N991  1  0.511200  0.468000  0.406600  1
  N  N992  1  0.988800  0.968000  0.093400  1
  N  N993  1  0.569900  0.518000  0.736600  1
  N  N994  1  0.930100  0.018000  0.763400  1
  N  N995  1  0.430100  0.482000  0.263400  1
  N  N996  1  0.069900  0.982000  0.236600  1
  N  N997  1  0.534300  0.537800  0.775300  1
  N  N998  1  0.965700  0.037800  0.724700  1
  N  N999  1  0.465700  0.462200  0.224700  1
  N  N1000  1  0.034300  0.962200  0.275300  1
  N  N1001  1  0.518600  0.561600  0.560600  1
  N  N1002  1  0.981400  0.061600  0.939400  1
  N  N1003  1  0.481400  0.438400  0.439400  1
  N  N1004  1  0.018600  0.938400  0.060600  1
  F  F1005  1  0.677800  0.778500  0.476400  1
  F  F1006  1  0.822200  0.278500  0.023600  1
  F  F1007  1  0.322200  0.221500  0.523600  1
  F  F1008  1  0.177800  0.721500  0.976400  1
  F  F1009  1  0.568300  0.765100  0.418600  1
  F  F1010  1  0.931700  0.265100  0.081400  1
  F  F1011  1  0.431700  0.234900  0.581400  1
  F  F1012  1  0.068300  0.734900  0.918600  1
  F  F1013  1  0.634000  0.703700  0.468800  1
  F  F1014  1  0.866000  0.203700  0.031200  1
  F  F1015  1  0.366000  0.296300  0.531200  1
  F  F1016  1  0.134000  0.796300  0.968800  1
  F  F1017  1  0.678900  0.737500  0.401200  1
  F  F1018  1  0.821100  0.237500  0.098800  1
  F  F1019  1  0.321100  0.262500  0.598800  1
  F  F1020  1  0.178900  0.762500  0.901200  1
  F  F1021  1  0.421600  0.616500  0.937900  1
  F  F1022  1  0.078400  0.116500  0.562100  1
  F  F1023  1  0.578400  0.383500  0.062100  1
  F  F1024  1  0.921600  0.883500  0.437900  1
  F  F1025  1  0.339000  0.602400  0.990600  1
  F  F1026  1  0.161000  0.102400  0.509400  1
  F  F1027  1  0.661000  0.397600  0.009400  1
  F  F1028  1  0.839000  0.897600  0.490600  1
  F  F1029  1  0.304600  0.625300  0.910300  1
  F  F1030  1  0.195400  0.125300  0.589700  1
  F  F1031  1  0.695400  0.374700  0.089700  1
  F  F1032  1  0.804600  0.874700  0.410300  1
  F  F1033  1  0.345600  0.542300  0.933100  1
  F  F1034  1  0.154400  0.042300  0.566900  1
  F  F1035  1  0.654400  0.457700  0.066900  1
  F  F1036  1  0.845600  0.957700  0.433100  1
  F  F1037  1  0.235400  0.768100  0.410300  1
  F  F1038  1  0.264600  0.268100  0.089700  1
  F  F1039  1  0.764600  0.231900  0.589700  1
  F  F1040  1  0.735400  0.731900  0.910300  1
  F  F1041  1  0.327600  0.741100  0.475300  1
  F  F1042  1  0.172400  0.241100  0.024700  1
  F  F1043  1  0.672400  0.258900  0.524700  1
  F  F1044  1  0.827600  0.758900  0.975300  1
  F  F1045  1  0.259700  0.684400  0.420500  1
  F  F1046  1  0.240300  0.184400  0.079500  1
  F  F1047  1  0.740300  0.315600  0.579500  1
  F  F1048  1  0.759700  0.815600  0.920500  1
  F  F1049  1  0.202100  0.725900  0.479300  1
  F  F1050  1  0.297900  0.225900  0.020700  1
  F  F1051  1  0.797900  0.274100  0.520700  1
  F  F1052  1  0.702100  0.774100  0.979300  1
  F  F1053  1  0.550400  0.764800  0.051100  1
  F  F1054  1  0.949600  0.264800  0.448900  1
  F  F1055  1  0.449600  0.235200  0.948900  1
  F  F1056  1  0.050400  0.735200  0.551100  1
  F  F1057  1  0.428000  0.752400  0.072900  1
  F  F1058  1  0.072000  0.252400  0.427100  1
  F  F1059  1  0.572000  0.247600  0.927100  1
  F  F1060  1  0.928000  0.747600  0.572900  1
  F  F1061  1  0.471600  0.822700  0.056700  1
  F  F1062  1  0.028400  0.322700  0.443300  1
  F  F1063  1  0.528400  0.177300  0.943300  1
  F  F1064  1  0.971600  0.677300  0.556700  1
  F  F1065  1  0.436900  0.771400  0.992200  1
  F  F1066  1  0.063100  0.271400  0.507800  1
  F  F1067  1  0.563100  0.228600  0.007800  1
  F  F1068  1  0.936900  0.728600  0.492200  1
  F  F1069  1  0.753400  0.713200  0.458400  1
  F  F1070  1  0.746600  0.213200  0.041600  1
  F  F1071  1  0.246600  0.286800  0.541600  1
  F  F1072  1  0.253400  0.786800  0.958400  1
  F  F1073  1  0.369500  0.675000  0.978500  1
  F  F1074  1  0.130500  0.175000  0.521500  1
  F  F1075  1  0.630500  0.325000  0.021500  1
  F  F1076  1  0.869500  0.825000  0.478500  1
