
#######################################################################
#
#                 Cambridge Crystallographic Data Centre
#                                CCDC 
#
#######################################################################
#
# If this CIF has been generated from an entry in the Cambridge 
# Structural Database, then it will include bibliographic, chemical, 
# crystal, experimental, refinement or atomic coordinate data resulting 
# from the CCDC's data processing and validation procedures.
#
#######################################################################

data_HICBIH01
_chemical_formula_moiety         'C88 H70 Fe4 N32 6+,6(B1 F4 1-),8(C2 H3 N1)'
_chemical_name_systematic        
'bis(\m-2-phenyl-4,6-bis(2-((pyridin-2-yl)methylidene)hydrazinyl)pyrimidine)-bis(\m-2-phenyl-4-(2-((pyridin-2-yl)methylidene)hydrazinyl)-6-(((pyridin-2-yl)methylidene)diazan-1-id-1-yl)pyrimidine)-tetra-iron(ii) hexakis(tetrafluoroborate) acetonitrile solvate'
_symmetry_cell_setting           monoclinic
_symmetry_space_group_name_H-M   'P 21/c'
_symmetry_Int_Tables_number      14
_space_group_name_Hall           '-P 2ybc'
loop_
_symmetry_equiv_pos_site_id
_symmetry_equiv_pos_as_xyz
1 x,y,z
2 -x,1/2+y,1/2-z
3 -x,-y,-z
4 x,1/2-y,1/2+z
_cell_length_a                   26.948(2)
_cell_length_b                   17.7359(15)
_cell_length_c                   27.532(2)
_cell_angle_alpha                90
_cell_angle_beta                 115.376(4)
_cell_angle_gamma                90
_cell_volume                     11889.2
_exptl_crystal_description       block
_cell_formula_units_Z            4
_exptl_crystal_preparation       'hgh-spin state'
loop_
_atom_site_label
_atom_site_type_symbol
_atom_site_fract_x
_atom_site_fract_y
_atom_site_fract_z
Fe1 Fe 0.89887(3) 0.58957(4) 0.19006(3)
Fe2 Fe 0.57829(3) 0.68721(4) 0.23223(3)
Fe3 Fe 0.70078(3) 0.40381(4) 0.19942(3)
Fe4 Fe 0.76409(3) 0.87667(4) 0.20064(3)
N1 N 0.95882(15) 0.6530(2) 0.19070(16)
N2 N 0.87232(15) 0.6752(2) 0.22158(14)
N3 N 0.93536(15) 0.5670(2) 0.26341(15)
N4 N 0.82528(15) 0.5346(2) 0.16313(14)
N5 N 0.93295(16) 0.6141(2) 0.30181(15)
N6 N 0.82640(16) 0.5714(2) 0.08303(15)
H1 H 0.8136 0.5732 0.0478
N7 N 0.61688(15) 0.7448(2) 0.19348(14)
N8 N 0.93787(16) 0.4962(2) 0.18547(16)
N9 N 0.74938(15) 0.4650(2) 0.16270(14)
N10 N 0.87374(15) 0.6066(2) 0.11623(15)
N11 N 0.52753(16) 0.6718(2) 0.16089(15)
N12 N 0.53866(16) 0.7033(2) 0.12170(15)
H2 H 0.5162 0.6990 0.0874
N13 N 0.82510(15) 0.7859(2) 0.22857(14)
N14 N 0.67743(16) 0.4274(2) 0.08283(16)
H3 H 0.6601 0.4248 0.0476
N15 N 0.52329(16) 0.6261(2) 0.24395(15)
N16 N 0.65654(16) 0.3954(2) 0.11483(16)
N17 N 0.67838(15) 0.4902(2) 0.24314(15)
N18 N 0.68465(15) 0.8150(2) 0.17873(14)
N19 N 0.54089(17) 0.7802(2) 0.23925(17)
N20 N 0.63196(15) 0.6001(2) 0.25162(14)
N21 N 0.61885(17) 0.7033(2) 0.30663(16)
N22 N 0.62732(17) 0.3358(2) 0.18438(17)
N23 N 0.65591(17) 0.6515(2) 0.33843(15)
N24 N 0.80784(16) 0.8931(2) 0.28336(16)
C1 C 0.80048(19) 0.5337(2) 0.10808(18)
C2 C 0.79817(19) 0.4999(2) 0.18747(17)
N25 N 0.84754(17) 0.8428(2) 0.31137(16)
H4 H 0.8674 0.8477 0.3462
C3 C 0.82209(19) 0.5012(3) 0.24745(18)
C4 C 0.83701(18) 0.7318(2) 0.20030(18)
N26 N 0.74317(17) 0.3766(2) 0.28220(17)
C5 C 0.9540(2) 0.6706(3) 0.1404(2)
C6 C 0.89972(19) 0.6709(3) 0.27803(18)
C7 C 0.96785(19) 0.5090(3) 0.2786(2)
H5 H 0.9886 0.4958 0.3152
N27 N 0.67172(17) 0.8488(2) 0.09287(16)
H6 H 0.6529 0.8498 0.0577
C8 C 0.72664(19) 0.4637(3) 0.10788(18)
C9 C 0.9696(2) 0.4667(3) 0.2350(2)
C10 C 0.8776(3) 0.4464(4) 0.3330(2)
H7 H 0.9019 0.4078 0.3538
C11 C 0.9928(2) 0.7143(3) 0.1329(2)
H8 H 0.9891 0.7253 0.0978
N28 N 0.72056(16) 0.8835(2) 0.11720(16)
C12 C 0.61583(19) 0.5522(3) 0.16325(18)
C13 C 1.0022(2) 0.6803(3) 0.2336(2)
H9 H 1.0061 0.6684 0.2687
C14 C 0.4775(2) 0.6116(3) 0.1979(2)
C15 C 0.4812(2) 0.6385(3) 0.1505(2)
H10 H 0.4528 0.6326 0.1153
C16 C 0.5642(2) 0.5217(3) 0.1338(2)
H11 H 0.5451 0.4971 0.1515
C17 C 0.58662(19) 0.7418(3) 0.13880(18)
C18 C 0.4325(2) 0.5743(3) 0.1980(2)
H12 H 0.4008 0.5652 0.1655
C19 C 0.9051(2) 0.6408(3) 0.09782(19)
H13 H 0.8966 0.6455 0.0607
C20 C 0.75078(19) 0.4978(3) 0.07852(19)
H14 H 0.7344 0.4968 0.0403
C21 C 0.66376(18) 0.7838(2) 0.21043(18)
C22 C 0.64310(18) 0.5476(3) 0.22305(18)
N29 N 0.73675(18) 0.4226(2) 0.31798(17)
H15 H 0.7532 0.4133 0.3527
C23 C 0.8579(2) 0.4452(3) 0.2778(2)
H16 H 0.8687 0.4063 0.2606
C24 C 0.9378(2) 0.4614(3) 0.1420(2)
H17 H 0.9160 0.4815 0.1073
C25 C 1.0368(2) 0.7414(3) 0.1776(3)
H18 H 1.0640 0.7713 0.1733
C26 C 0.69518(19) 0.7961(3) 0.26917(18)
C27 C 0.80956(19) 0.7393(2) 0.14104(18)
C28 C 0.89157(19) 0.7280(3) 0.30885(19)
H19 H 0.9109 0.7276 0.3469
C29 C 0.4805(2) 0.5642(3) 0.2934(2)
H20 H 0.4824 0.5483 0.3271
C30 C 1.0007(2) 0.4021(3) 0.2408(2)
H21 H 1.0221 0.3818 0.2755
C31 C 0.8065(2) 0.5574(3) 0.2732(2)
H22 H 0.7815 0.5956 0.2529
C32 C 1.0415(2) 0.7252(3) 0.2278(2)
H23 H 1.0714 0.7447 0.2587
C33 C 1.0000(3) 0.3679(3) 0.1959(3)
H24 H 1.0215 0.3240 0.1994
C34 C 0.5932(2) 0.3257(3) 0.1319(2)
C35 C 0.4347(2) 0.5505(3) 0.2472(2)
H25 H 0.4044 0.5247 0.2484
C36 C 0.6434(2) 0.5864(3) 0.13696(19)
H26 H 0.6790 0.6068 0.1570
C37 C 0.9686(2) 0.3969(3) 0.1463(3)
H27 H 0.9678 0.3733 0.1150
N30 N 0.73158(17) 0.9813(2) 0.21922(19)
N31 N 0.81407(17) 0.9471(2) 0.17309(18)
C38 C 0.4989(2) 0.8168(3) 0.2019(2)
H28 H 0.4852 0.7995 0.1658
C39 C 0.5406(2) 0.5275(3) 0.0781(2)
H29 H 0.5050 0.5075 0.0575
C40 C 0.85558(19) 0.7840(3) 0.28346(18)
N32 N 0.74388(18) 0.2941(2) 0.2043(2)
C41 C 0.8274(3) 0.5575(4) 0.3280(2)
H30 H 0.8171 0.5964 0.3456
C42 C 0.6026(2) 0.7751(3) 0.10296(19)
H31 H 0.5807 0.7730 0.0653
C43 C 0.6099(2) 0.3617(3) 0.0940(2)
H32 H 0.5879 0.3603 0.0563
C44 C 0.6820(2) 0.8577(3) 0.2923(2)
H33 H 0.6529 0.8905 0.2709
C45 C 0.5613(2) 0.8046(3) 0.2913(2)
C46 C 0.8628(3) 0.5025(5) 0.3582(2)
H34 H 0.8770 0.5033 0.3962
C47 C 0.65253(19) 0.8120(3) 0.12486(18)
C48 C 0.7582(2) 0.7071(3) 0.1109(2)
H35 H 0.7401 0.6800 0.1283
C49 C 0.5244(2) 0.6019(3) 0.2906(2)
H36 H 0.5564 0.6109 0.3229
C50 C 0.7375(2) 0.7479(3) 0.3011(2)
H37 H 0.7464 0.7053 0.2855
C51 C 0.8349(2) 0.7799(3) 0.1146(2)
H38 H 0.8697 0.8027 0.1346
C52 C 0.6046(2) 0.7592(3) 0.3287(2)
H39 H 0.6215 0.7688 0.3663
C53 C 0.6616(2) 0.5977(3) 0.30787(18)
C54 C 0.7036(2) 0.4847(3) 0.29827(19)
C55 C 0.7335(3) 0.7146(4) 0.0551(2)
H40 H 0.6986 0.6923 0.0345
C56 C 0.7663(3) 0.7621(4) 0.3553(2)
H41 H 0.7955 0.7299 0.3771
C57 C 0.6194(3) 0.5910(3) 0.0815(2)
H42 H 0.6388 0.6146 0.0638
C58 C 0.7524(3) 0.8235(4) 0.3775(2)
H43 H 0.7719 0.8327 0.4150
C59 C 0.6962(2) 0.5364(3) 0.3311(2)
H44 H 0.7142 0.5309 0.3691
C60 C 0.7116(3) 0.8711(4) 0.3473(2)
H45 H 0.7031 0.9135 0.3634
C61 C 0.5706(2) 0.2541(3) 0.2070(3)
H46 H 0.5636 0.2296 0.2341
C62 C 0.6157(2) 0.3013(3) 0.2208(2)
H47 H 0.6391 0.3090 0.2577
C63 C 0.5690(3) 0.5625(4) 0.0522(2)
H48 H 0.5529 0.5663 0.0141
C64 C 0.8094(3) 0.7867(4) 0.0595(2)
H49 H 0.8267 0.8145 0.0415
C65 C 0.7973(2) 0.9493(3) 0.3072(2)
H50 H 0.8165 0.9575 0.3449
C66 C 0.4740(3) 0.8792(3) 0.2128(3)
H51 H 0.4437 0.9035 0.1851
C67 C 0.5471(2) 0.2801(3) 0.1160(3)
H52 H 0.5232 0.2744 0.0789
C68 C 0.5364(3) 0.2433(4) 0.1542(3)
H53 H 0.5056 0.2107 0.1441
C69 C 0.7596(3) 0.7542(4) 0.0302(2)
H54 H 0.7428 0.7590 -0.0078
C70 C 0.5384(3) 0.8677(3) 0.3045(3)
H55 H 0.5531 0.8851 0.3406
C71 C 0.7545(2) 0.9986(3) 0.2727(2)
C72 C 0.4949(3) 0.9046(3) 0.2653(3)
H56 H 0.4792 0.9473 0.2742
C73 C 0.7729(3) 0.1849(4) 0.1728(4)
H57 H 0.7698 0.1537 0.1437
C74 C 0.7751(2) 0.3197(3) 0.2979(2)
H58 H 0.7959 0.3083 0.3349
C75 C 0.6735(3) 1.0899(4) 0.2024(3)
H59 H 0.6458 1.1213 0.1772
C76 C 0.7372(3) 1.0602(3) 0.2924(3)
H60 H 0.7533 1.0712 0.3298
C77 C 0.7923(2) 0.9590(3) 0.1200(2)
C78 C 0.7773(2) 0.2733(3) 0.2552(3)
C79 C 0.7401(2) 0.9210(3) 0.0892(2)
H61 H 0.7219 0.9236 0.0511
C80 C 0.8611(2) 0.9813(3) 0.2037(3)
H62 H 0.8775 0.9733 0.2415
C81 C 0.8640(3) 1.0407(4) 0.1270(4)
H63 H 0.8809 1.0737 0.1114
C82 C 0.6929(2) 1.0267(3) 0.1857(3)
H64 H 0.6776 1.0156 0.1484
C83 C 0.6960(3) 1.1050(4) 0.2565(3)
H65 H 0.6831 1.1469 0.2694
C84 C 0.7413(3) 0.2500(3) 0.1637(3)
H66 H 0.7173 0.2635 0.1279
C85 C 0.8160(3) 1.0044(3) 0.0955(3)
H67 H 0.7996 1.0105 0.0576
C86 C 0.8082(3) 0.1667(4) 0.2241(4)
H68 H 0.8316 0.1241 0.2306
C87 C 0.8869(3) 1.0290(3) 0.1806(3)
H69 H 0.9205 1.0531 0.2028
C88 C 0.8102(3) 0.2094(3) 0.2662(3)
H70 H 0.8335 0.1957 0.3022
F1 F 0.56864(18) 0.5282(3) 0.9096(2)
F2 F 0.6451(2) 0.5730(3) 0.9777(2)
F3 F 0.6238(3) 0.4558(3) 0.97334(18)
F4 F 0.6478(2) 0.5058(4) 0.9120(2)
B1 B 0.6212(4) 0.5182(6) 0.9430(3)
F5 F 0.8997(2) 0.8551(3) 0.42137(17)
F6 F 0.9210(4) 0.7365(4) 0.4367(3)
F7 F 0.9795(5) 0.8131(10) 0.4511(7)
F8 F 0.9536(4) 0.8245(5) 0.5042(2)
B2 B 0.9335(6) 0.8052(7) 0.4550(5)
F10 F 0.8843(2) 0.4832(4) 0.0094(2)
F11 F 0.8237(2) 0.4707(3) -0.07526(16)
F12 F 0.8078(2) 0.5512(2) -0.02099(15)
F13 F 0.8091(3) 0.4303(3) -0.0051(3)
B4 B 0.8294(4) 0.4829(5) -0.0258(3)
F14 F 0.45795(19) 0.7058(3) 0.01997(16)
F15 F 0.3695(3) 0.7396(5) -0.0169(3)
F16 F 0.4222(3) 0.7775(4) 0.0637(2)
F17 F 0.4298(5) 0.8173(6) -0.0066(5)
B5 B 0.4181(6) 0.7554(8) 0.0170(4)
N33 N 0.8525(3) 0.3438(4) 0.1698(3)
C89 C 0.8376(3) 0.3205(4) 0.1287(3)
C90 C 0.8179(4) 0.2905(6) 0.0749(3)
H71 H 0.8290 0.2376 0.0766
H72 H 0.8335 0.3195 0.0546
H73 H 0.7777 0.2940 0.0570
F18 F 0.5605(3) 0.9006(5) 0.9143(2)
F19 F 0.6396(3) 0.8773(5) 0.9814(2)
F20 F 0.5679(3) 0.8459(6) 0.9866(2)
F21 F 0.5883(4) 0.7985(7) 0.9290(5)
B6 B 0.5878(5) 0.8607(8) 0.9556(4)
N34 N 0.5783(3) 0.9291(4) 0.1620(3)
C91 C 0.5567(4) 0.9458(5) 0.1206(4)
C92 C 0.5250(6) 0.9645(8) 0.0641(5)
H74 H 0.5162 1.0184 0.0606
H75 H 0.4910 0.9351 0.0495
H76 H 0.5467 0.9526 0.0442
F22 F 0.8014(3) 0.3694(4) 0.42175(19)
F23 F 0.8094(4) 0.3668(4) 0.5041(3)
F24 F 0.8621(3) 0.4277(6) 0.4879(4)
F25 F 0.7817(3) 0.4675(4) 0.4546(3)
B7 B 0.8115(5) 0.4072(7) 0.4664(4)
N35 N 0.9456(4) 0.5979(5) 0.6118(4)
C93 C 0.9393(5) 0.5976(5) 0.5693(5)
C94 C 0.9254(9) 0.5952(8) 0.5135(5)
H77 H 0.9527 0.5651 0.5074
H78 H 0.9249 0.6466 0.5002
H79 H 0.8891 0.5723 0.4944
N36 N 0.0553(3) 0.7008(4) 0.3748(3)
C95 C 0.0384(3) 0.6667(5) 0.4000(4)
C96 C 0.0169(4) 0.6210(6) 0.4311(3)
H80 H -0.0093 0.5840 0.4074
H81 H -0.0016 0.6539 0.4469
H82 H 0.0473 0.5947 0.4599
C97 C 0.0982(5) 0.7559(7) 0.5613(4)
N37 N 0.0910(6) 0.7294(9) 0.5933(5)
C98 C 0.1080(5) 0.7898(6) 0.5208(4)
H83 H 0.1175 0.7511 0.5008
H84 H 0.1386 0.8255 0.5368
H85 H 0.0750 0.8167 0.4963
C99 C 0.9642(4) 0.0299(5) 0.4290(3)
H86 H 0.9385 0.0170 0.4443
H87 H 0.9839 0.0762 0.4458
H88 H 0.9905 -0.0114 0.4357
C100 C 0.9343(4) 0.0413(5) 0.3723(4)
N38 N 0.9106(4) 0.0493(5) 0.3285(4)
C101 C 0.6854(5) 0.2791(6) -0.1162(4)
C102 C 0.7047(4) 0.3007(7) -0.0621(4)
H89 H 0.7253 0.2589 -0.0389
H90 H 0.6736 0.3137 -0.0542
H91 H 0.7289 0.3446 -0.0553
N39 N 0.6691(8) 0.2612(8) -0.1568(4)
C103 C 0.6663(10) 0.0701(13) 0.0113(8)
C104 C 0.6510(6) 0.0698(7) -0.0455(6)
H92 H 0.6679 0.0264 -0.0546
H93 H 0.6636 0.1165 -0.0556
H94 H 0.6109 0.0662 -0.0651
N40 N 0.6778(11) 0.0685(13) 0.0540(6)
loop_
_geom_bond_atom_site_label_1
_geom_bond_atom_site_label_2
_geom_bond_site_symmetry_1
_geom_bond_site_symmetry_2
Fe1 N1 1_555 1_555
Fe2 N7 1_555 1_555
Fe3 N9 1_555 1_555
Fe4 N13 1_555 1_555
N1 C5 1_555 1_555
N2 Fe1 1_555 1_555
N3 Fe1 1_555 1_555
N4 Fe1 1_555 1_555
N5 N3 1_555 1_555
N6 H1 1_555 1_555
N7 C17 1_555 1_555
N8 Fe1 1_555 1_555
N9 C2 1_555 1_555
N10 Fe1 1_555 1_555
N11 Fe2 1_555 1_555
N12 N11 1_555 1_555
H2 N12 1_555 1_555
N13 C4 1_555 1_555
N14 H3 1_555 1_555
N15 Fe2 1_555 1_555
N16 Fe3 1_555 1_555
N17 Fe3 1_555 1_555
N18 Fe4 1_555 1_555
N19 Fe2 1_555 1_555
N20 Fe2 1_555 1_555
N21 Fe2 1_555 1_555
N22 Fe3 1_555 1_555
N23 N21 1_555 1_555
N24 Fe4 1_555 1_555
C1 N4 1_555 1_555
C2 N4 1_555 1_555
N25 N24 1_555 1_555
H4 N25 1_555 1_555
C3 C2 1_555 1_555
C4 N2 1_555 1_555
N26 Fe3 1_555 1_555
C5 C11 1_555 1_555
C6 N2 1_555 1_555
C7 N3 1_555 1_555
H5 C7 1_555 1_555
N27 H6 1_555 1_555
C8 N9 1_555 1_555
C9 N8 1_555 1_555
C10 H7 1_555 1_555
C11 H8 1_555 1_555
N28 Fe4 1_555 1_555
C12 C16 1_555 1_555
C13 N1 1_555 1_555
H9 C13 1_555 1_555
C14 N15 1_555 1_555
C15 N11 1_555 1_555
H10 C15 1_555 1_555
C16 H11 1_555 1_555
C17 N12 1_555 1_555
C18 C14 1_555 1_555
H12 C18 1_555 1_555
C19 N10 1_555 1_555
H13 C19 1_555 1_555
C20 C1 1_555 1_555
H14 C20 1_555 1_555
C21 N7 1_555 1_555
C22 N17 1_555 1_555
N29 N26 1_555 1_555
H15 N29 1_555 1_555
C23 C3 1_555 1_555
H16 C23 1_555 1_555
C24 N8 1_555 1_555
H17 C24 1_555 1_555
C25 C11 1_555 1_555
H18 C25 1_555 1_555
C26 C21 1_555 1_555
C27 C4 1_555 1_555
C28 C6 1_555 1_555
H19 C28 1_555 1_555
C29 H20 1_555 1_555
C30 C9 1_555 1_555
H21 C30 1_555 1_555
C31 C3 1_555 1_555
H22 C31 1_555 1_555
C32 C13 1_555 1_555
H23 C32 1_555 1_555
C33 C30 1_555 1_555
H24 C33 1_555 1_555
C34 N22 1_555 1_555
C35 C18 1_555 1_555
H25 C35 1_555 1_555
C36 C12 1_555 1_555
H26 C36 1_555 1_555
C37 C24 1_555 1_555
H27 C37 1_555 1_555
N30 Fe4 1_555 1_555
N31 Fe4 1_555 1_555
C38 N19 1_555 1_555
H28 C38 1_555 1_555
C39 C16 1_555 1_555
H29 C39 1_555 1_555
C40 N13 1_555 1_555
N32 Fe3 1_555 1_555
C41 C31 1_555 1_555
H30 C41 1_555 1_555
C42 C17 1_555 1_555
H31 C42 1_555 1_555
C43 N16 1_555 1_555
H32 C43 1_555 1_555
C44 C26 1_555 1_555
H33 C44 1_555 1_555
C45 N19 1_555 1_555
C46 C10 1_555 1_555
H34 C46 1_555 1_555
C47 N18 1_555 1_555
C48 C27 1_555 1_555
H35 C48 1_555 1_555
C49 N15 1_555 1_555
H36 C49 1_555 1_555
C50 C26 1_555 1_555
H37 C50 1_555 1_555
C51 C27 1_555 1_555
H38 C51 1_555 1_555
C52 N21 1_555 1_555
H39 C52 1_555 1_555
C53 N20 1_555 1_555
C54 N17 1_555 1_555
C55 C48 1_555 1_555
H40 C55 1_555 1_555
C56 C50 1_555 1_555
H41 C56 1_555 1_555
C57 C36 1_555 1_555
H42 C57 1_555 1_555
C58 C56 1_555 1_555
H43 C58 1_555 1_555
C59 C53 1_555 1_555
H44 C59 1_555 1_555
C60 C44 1_555 1_555
H45 C60 1_555 1_555
C61 H46 1_555 1_555
C62 N22 1_555 1_555
H47 C62 1_555 1_555
C63 C39 1_555 1_555
H48 C63 1_555 1_555
C64 C51 1_555 1_555
H49 C64 1_555 1_555
C65 N24 1_555 1_555
H50 C65 1_555 1_555
C66 C38 1_555 1_555
H51 C66 1_555 1_555
C67 C34 1_555 1_555
H52 C67 1_555 1_555
C68 C61 1_555 1_555
H53 C68 1_555 1_555
C69 C55 1_555 1_555
H54 C69 1_555 1_555
C70 C45 1_555 1_555
H55 C70 1_555 1_555
C71 N30 1_555 1_555
C72 C66 1_555 1_555
H56 C72 1_555 1_555
C73 H57 1_555 1_555
C74 N26 1_555 1_555
H58 C74 1_555 1_555
C75 H59 1_555 1_555
C76 C71 1_555 1_555
H60 C76 1_555 1_555
C77 N31 1_555 1_555
C78 N32 1_555 1_555
C79 N28 1_555 1_555
H61 C79 1_555 1_555
C80 N31 1_555 1_555
H62 C80 1_555 1_555
C81 H63 1_555 1_555
C82 N30 1_555 1_555
H64 C82 1_555 1_555
C83 C75 1_555 1_555
H65 C83 1_555 1_555
C84 N32 1_555 1_555
H66 C84 1_555 1_555
C85 C77 1_555 1_555
H67 C85 1_555 1_555
C86 C73 1_555 1_555
H68 C86 1_555 1_555
C87 C80 1_555 1_555
H69 C87 1_555 1_555
C88 C78 1_555 1_555
H70 C88 1_555 1_555
F1 B1 1_555 1_555
F2 B1 1_555 1_555
F3 B1 1_555 1_555
F4 B1 1_555 1_555
F5 B2 1_555 1_555
F6 B2 1_555 1_555
F7 B2 1_555 1_555
F8 B2 1_555 1_555
F10 B4 1_555 1_555
F11 B4 1_555 1_555
F12 B4 1_555 1_555
F13 B4 1_555 1_555
F14 B5 1_555 1_555
F15 B5 1_555 1_555
F16 B5 1_555 1_555
F17 B5 1_555 1_555
N33 C89 1_555 1_555
C89 C90 1_555 1_555
C90 H71 1_555 1_555
H72 C90 1_555 1_555
H73 C90 1_555 1_555
F18 B6 1_555 1_555
F19 B6 1_555 1_555
F20 B6 1_555 1_555
F21 B6 1_555 1_555
N34 C91 1_555 1_555
C91 C92 1_555 1_555
C92 H74 1_555 1_555
H75 C92 1_555 1_555
H76 C92 1_555 1_555
F22 B7 1_555 1_555
F23 B7 1_555 1_555
F24 B7 1_555 1_555
F25 B7 1_555 1_555
N35 C93 1_555 1_555
C93 C94 1_555 1_555
C94 H77 1_555 1_555
H78 C94 1_555 1_555
H79 C94 1_555 1_555
N36 C95 1_555 1_555
C95 C96 1_555 1_555
C96 H80 1_555 1_555
H81 C96 1_555 1_555
H82 C96 1_555 1_555
C97 N37 1_555 1_555
C98 C97 1_555 1_555
H83 C98 1_555 1_555
H84 C98 1_555 1_555
H85 C98 1_555 1_555
C99 H86 1_555 1_555
H87 C99 1_555 1_555
H88 C99 1_555 1_555
C100 C99 1_555 1_555
N38 C100 1_555 1_555
C101 C102 1_555 1_555
C102 H89 1_555 1_555
H90 C102 1_555 1_555
H91 C102 1_555 1_555
N39 C101 1_555 1_555
C103 C104 1_555 1_555
C104 H92 1_555 1_555
H93 C104 1_555 1_555
H94 C104 1_555 1_555
N40 C103 1_555 1_555
N5 C6 1_555 1_555
N6 N10 1_555 1_555
N6 C1 1_555 1_555
N14 N16 1_555 1_555
N14 C8 1_555 1_555
N18 C21 1_555 1_555
N20 C22 1_555 1_555
N23 C53 1_555 1_555
N25 C40 1_555 1_555
C5 C19 1_555 1_555
C7 C9 1_555 1_555
N27 N28 1_555 1_555
N27 C47 1_555 1_555
C8 C20 1_555 1_555
C10 C23 1_555 1_555
C12 C22 1_555 1_555
C14 C15 1_555 1_555
N29 C54 1_555 1_555
C25 C32 1_555 1_555
C28 C40 1_555 1_555
C29 C35 1_555 1_555
C29 C49 1_555 1_555
C33 C37 1_555 1_555
C34 C43 1_555 1_555
C41 C46 1_555 1_555
C42 C47 1_555 1_555
C45 C52 1_555 1_555
C54 C59 1_555 1_555
C57 C63 1_555 1_555
C58 C60 1_555 1_555
C61 C62 1_555 1_555
C64 C69 1_555 1_555
C65 C71 1_555 1_555
C67 C68 1_555 1_555
C70 C72 1_555 1_555
C73 C84 1_555 1_555
C74 C78 1_555 1_555
C75 C82 1_555 1_555
C76 C83 1_555 1_555
C77 C79 1_555 1_555
C81 C85 1_555 1_555
C81 C87 1_555 1_555
C86 C88 1_555 1_555

#END
