
#######################################################################
#
#                 Cambridge Crystallographic Data Centre
#                                CCDC 
#
#######################################################################
#
# If this CIF has been generated from an entry in the Cambridge 
# Structural Database, then it will include bibliographic, chemical, 
# crystal, experimental, refinement or atomic coordinate data resulting 
# from the CCDC's data processing and validation procedures.
#
#######################################################################

data_HICBED
_chemical_formula_moiety         'C88 H68 Fe4 N32 4+,4(B1 F4 1-),12(C2 H3 N1)'
_chemical_name_systematic        
'tetrakis(\m-2-phenyl-4-(2-((pyridin-2-yl)methylidene)hydrazinyl)-6-(((pyridin-2-yl)methylidene)diazan-1-id-1-yl)pyrimidine)-tetra-iron(ii) tetrakis(tetrafluoroborate) acetonitrile solvate'
_symmetry_cell_setting           monoclinic
_symmetry_space_group_name_H-M   'P 21/c'
_symmetry_Int_Tables_number      14
_space_group_name_Hall           '-P 2ybc'
loop_
_symmetry_equiv_pos_site_id
_symmetry_equiv_pos_as_xyz
1 x,y,z
2 -x,1/2+y,1/2-z
3 -x,-y,-z
4 x,1/2-y,1/2+z
_cell_length_a                   17.5399(8)
_cell_length_b                   25.9317(11)
_cell_length_c                   28.7826(12)
_cell_angle_alpha                90
_cell_angle_beta                 116.955(3)
_cell_angle_gamma                90
_cell_volume                     11669.2
_exptl_crystal_colour            red
_exptl_crystal_description       plate
_cell_formula_units_Z            4
loop_
_atom_site_label
_atom_site_type_symbol
_atom_site_fract_x
_atom_site_fract_y
_atom_site_fract_z
Fe1 Fe 0.27695(7) 0.12397(4) 0.71263(5)
Fe2 Fe 0.45233(6) 0.32890(4) 0.69381(4)
Fe3 Fe 0.1600(6) 0.4753(4) 0.6863(3)
Fe4 Fe -0.02986(6) 0.26707(4) 0.69006(4)
N1 N 0.2154(4) 0.0646(2) 0.7209(3)
N2 N 0.2114(4) 0.1082(2) 0.6434(3)
N3 N 0.2191(4) 0.1343(2) 0.6034(3)
N4 N 0.3096(4) 0.1820(2) 0.6782(2)
N5 N 0.3749(4) 0.2595(2) 0.6683(3)
N6 N 0.3610(4) 0.2844(2) 0.5876(3)
H1 H 0.3447 0.2796 0.5541
N7 N 0.4104(4) 0.3246(2) 0.6142(2)
N8 N 0.5099(4) 0.3942(2) 0.6750(3)
N9 N 0.5696(4) 0.2865(2) 0.7128(3)
N10 N 0.5253(4) 0.3366(2) 0.7740(3)
N11 N 0.4951(5) 0.3664(2) 0.7999(3)
H2 H 0.5257 0.3720 0.8335
N12 N 0.3799(4) 0.3800(2) 0.7199(3)
N13 N 0.2597(4) 0.4320(2) 0.7093(3)
N14 N 0.0770(4) 0.4076(2) 0.6524(3)
N15 N 0.0054(4) 0.3305(2) 0.6541(3)
N16 N -0.0920(5) 0.2907(3) 0.5776(3)
H3 H -0.1215 0.2881 0.5435
N17 N -0.1032(5) 0.2570(3) 0.6097(3)
N18 N -0.1094(4) 0.1996(2) 0.6810(3)
N19 N -0.1302(4) 0.3105(2) 0.6977(3)
N20 N 0.0081(4) 0.2710(2) 0.7699(2)
N21 N 0.0814(4) 0.2476(2) 0.8032(2)
H4 H 0.0991 0.2481 0.8371
N22 N 0.0890(3) 0.22236(19) 0.7287(2)
N23 N 0.2048(3) 0.17082(19) 0.7337(2)
N24 N 0.3213(4) 0.1523(2) 0.8158(3)
N25 N 0.3486(4) 0.1282(2) 0.7846(3)
N26 N 0.3737(5) 0.0804(2) 0.7172(3)
C1 C 0.2162(5) 0.0442(3) 0.7635(4)
H5 H 0.2500 0.0599 0.7953
C2 C 0.1702(6) 0.0011(3) 0.7634(5)
H6 H 0.1735 -0.0116 0.7945
C3 C 0.1193(7) -0.0230(3) 0.7171(6)
H7 H 0.0879 -0.0521 0.7163
C4 C 0.1158(6) -0.0032(3) 0.6715(5)
H8 H 0.0825 -0.0188 0.6395
C5 C 0.1641(6) 0.0411(3) 0.6752(4)
C6 C 0.1626(5) 0.0665(3) 0.6297(4)
H9 H 0.1316 0.0550 0.5956
C7 C 0.2715(5) 0.1747(3) 0.6252(3)
C8 C 0.2885(5) 0.2080(3) 0.5934(3)
H10 H 0.2663 0.2020 0.5578
C9 C 0.3391(5) 0.2502(3) 0.6163(3)
C10 C 0.3604(4) 0.2239(3) 0.6979(3)
C11 C 0.4039(4) 0.2310(2) 0.7546(3)
C12 C 0.3682(5) 0.2629(3) 0.7782(3)
H11 H 0.3156 0.2785 0.7582
C13 C 0.4095(8) 0.2714(4) 0.8303(4)
H12 H 0.3849 0.2925 0.8460
C14 C 0.4898(8) 0.2483(5) 0.8607(4)
H13 H 0.5187 0.2545 0.8964
C15 C 0.5255(6) 0.2165(4) 0.8372(4)
H14 H 0.5779 0.2006 0.8568
C16 C 0.4825(5) 0.2089(3) 0.7849(4)
H15 H 0.5071 0.1881 0.7690
C17 C 0.4345(5) 0.3589(3) 0.5907(4)
H16 H 0.4166 0.3584 0.5550
C18 C 0.4911(5) 0.3979(3) 0.6244(4)
C19 C 0.5242(6) 0.4369(3) 0.6047(5)
H17 H 0.5089 0.4396 0.5693
C20 C 0.5812(7) 0.4712(3) 0.6411(7)
H18 H 0.6048 0.4979 0.6303
C21 C 0.6022(6) 0.4658(4) 0.6925(6)
H19 H 0.6420 0.4879 0.7169
C22 C 0.5643(5) 0.4271(3) 0.7086(5)
H20 H 0.5777 0.4244 0.7437
C23 C 0.5917(5) 0.2629(3) 0.6792(3)
H21 H 0.5545 0.2651 0.6438
C24 C 0.6660(6) 0.2356(3) 0.6942(4)
H22 H 0.6782 0.2190 0.6698
C25 C 0.7227(6) 0.2335(3) 0.7473(5)
H23 H 0.7741 0.2156 0.7590
C26 C 0.7014(6) 0.2584(3) 0.7821(4)
H24 H 0.7377 0.2571 0.8177
C27 C 0.6244(5) 0.2858(3) 0.7633(3)
C28 C 0.5985(5) 0.3135(3) 0.7969(3)
H25 H 0.6321 0.3147 0.8328
C29 C 0.4161(6) 0.3866(3) 0.7727(4)
C30 C 0.3754(6) 0.4140(3) 0.7957(4)
H26 H 0.4001 0.4177 0.8317
C31 C 0.2958(6) 0.4366(3) 0.7639(5)
C32 C 0.3057(5) 0.4051(3) 0.6916(4)
C33 C 0.2729(5) 0.4017(3) 0.6347(4)
C34 C 0.2232(6) 0.3613(4) 0.6082(5)
H27 H 0.2074 0.3366 0.6258
C35 C 0.1970(7) 0.3567(5) 0.5575(7)
H28 H 0.1624 0.3290 0.5396
C36 C 0.2211(9) 0.3936(7) 0.5301(5)
H29 H 0.2036 0.3897 0.4946
C37 C 0.2714(8) 0.4357(5) 0.5572(5)
H30 H 0.2867 0.4609 0.5400
C38 C 0.2975(6) 0.4388(3) 0.6097(4)
H31 H 0.3320 0.4661 0.6286
C39 C 0.0402(6) 0.4057(4) 0.5989(5)
C40 C -0.0160(7) 0.3651(4) 0.5719(4)
H32 H -0.0401 0.3623 0.5358
C41 C -0.0338(6) 0.3297(3) 0.6016(4)
C42 C 0.0574(5) 0.3697(3) 0.6778(4)
C43 C 0.0951(4) 0.3718(2) 0.7348(3)
C44 C 0.1691(5) 0.3446(3) 0.7640(4)
H33 H 0.1956 0.3260 0.7477
C45 C 0.2026(6) 0.3452(4) 0.8165(5)
H34 H 0.2531 0.3273 0.8362
C46 C 0.1631(7) 0.3724(4) 0.8423(4)
H35 H 0.1864 0.3720 0.8784
C47 C 0.0900(6) 0.3993(3) 0.8129(4)
H36 H 0.0638 0.4179 0.8293
C48 C 0.0532(5) 0.3993(3) 0.7579(4)
H37 H 0.0028 0.4171 0.7378
C49 C -0.1589(6) 0.2200(4) 0.5916(4)
H38 H -0.1913 0.2141 0.5561
C50 C -0.1670(6) 0.1889(3) 0.6308(5)
C51 C -0.2288(7) 0.1488(4) 0.6184(6)
H39 H -0.2664 0.1406 0.5841
C52 C -0.2304(10) 0.1227(4) 0.6595(8)
H40 H -0.2706 0.0967 0.6527
C53 C -0.1755(7) 0.1336(4) 0.7094(6)
H41 H -0.1778 0.1161 0.7369
C54 C -0.1146(5) 0.1724(3) 0.7183(4)
H42 H -0.0755 0.1795 0.7526
C55 C -0.2012(5) 0.3299(3) 0.6626(4)
H43 H -0.2141 0.3246 0.6279
C56 C -0.2611(6) 0.3587(3) 0.6731(5)
H44 H -0.3114 0.3714 0.6464
C57 C -0.2406(7) 0.3666(4) 0.7245(6)
H45 H -0.2770 0.3857 0.7333
C58 C -0.1686(5) 0.3470(3) 0.7619(4)
H46 H -0.1551 0.3522 0.7968
C59 C -0.1148(5) 0.3194(3) 0.7490(4)
C60 C -0.0374(5) 0.2961(3) 0.7873(3)
H47 H -0.0207 0.2991 0.8228
C61 C 0.1261(4) 0.2232(2) 0.7822(3)
C62 C 0.2016(5) 0.1999(3) 0.8120(3)
H48 H 0.2255 0.2008 0.8482
C63 C 0.2428(5) 0.1745(3) 0.7873(3)
C64 C 0.1311(4) 0.1948(2) 0.7074(3)
C65 C 0.0891(4) 0.1934(3) 0.6500(3)
C66 C 0.0301(5) 0.1554(3) 0.6242(3)
H49 H 0.0184 0.1302 0.6430
C67 C -0.0111(7) 0.1550(5) 0.5708(5)
H50 H -0.0524 0.1299 0.5540
C68 C 0.0058(8) 0.1895(7) 0.5419(5)
H51 H -0.0214 0.1877 0.5057
C69 C 0.0651(8) 0.2279(5) 0.5677(4)
H52 H 0.0773 0.2522 0.5483
C70 C 0.1066(5) 0.2310(3) 0.6214(3)
H53 H 0.1453 0.2574 0.6381
C71 C 0.4209(5) 0.1029(3) 0.8045(4)
H54 H 0.4579 0.1019 0.8401
C72 C 0.4371(6) 0.0773(3) 0.7666(4)
C73 C 0.5131(6) 0.0488(3) 0.7789(5)
H55 H 0.5575 0.0477 0.8126
C74 C 0.5178(7) 0.0227(3) 0.7380(6)
H56 H 0.5666 0.0037 0.7443
C75 C 0.4521(8) 0.0246(4) 0.6890(6)
H57 H 0.4546 0.0059 0.6621
C76 C 0.3819(6) 0.0546(3) 0.6795(4)
H58 H 0.3384 0.0569 0.6456
C77 C 0.0703(15) 0.5234(10) 0.7291(8)
C78 C 0.0046(14) 0.5558(9) 0.7330(10)
H59 H 0.0056 0.5602 0.7654
C79 C -0.058(2) 0.5797(14) 0.6906(11)
H60 H -0.0961 0.6016 0.6948
C80 C -0.065(2) 0.5711(14) 0.6367(16)
H61 H -0.1059 0.5864 0.6065
C81 C -0.001(2) 0.5368(18) 0.6382(15)
H62 H -0.0021 0.5287 0.6065
C82 C 0.2766(19) 0.5617(13) 0.7286(12)
H63 H 0.2881 0.5488 0.7613
C83 C 0.3173(15) 0.6097(9) 0.7244(12)
H64 H 0.3536 0.6284 0.7537
C84 C 0.3000(17) 0.6245(11) 0.6781(14)
H65 H 0.3279 0.6542 0.6760
C85 C 0.2467(17) 0.6027(11) 0.6322(14)
H66 H 0.2347 0.6160 0.5996
C86 C 0.2095(15) 0.5533(8) 0.6414(12)
C87 C 0.1474(19) 0.5222(11) 0.5957(11)
H67 H 0.1303 0.5304 0.5609
N27 N 0.057(3) 0.516(3) 0.6789(11)
N28 N 0.2252(15) 0.5372(9) 0.6876(10)
N29 N 0.120(2) 0.4801(9) 0.6126(7)
N30 N 0.1908(13) 0.4770(10) 0.7580(5)
N31 N 0.2681(12) 0.4621(10) 0.7977(7)
N32 N 0.071(2) 0.4443(14) 0.5800(14)
C88 C 0.1401(13) 0.5059(9) 0.7715(8)
H68 H 0.1516 0.5129 0.8058
F1 F 0.7986(6) 0.2215(4) 0.4764(3)
F2 F 0.8503(11) 0.2349(9) 0.4186(6)
F3 F 0.8348(6) 0.2963(5) 0.4688(3)
F4 F 0.7223(5) 0.2625(4) 0.4012(3)
B1 B 0.799(3) 0.253(2) 0.4387(17)
F5 F 0.5163(11) 0.3835(8) 0.9379(6)
F6 F 0.6516(10) 0.3976(7) 0.9906(5)
F7 F 0.6057(8) 0.3747(6) 0.9103(5)
F8 F 0.5875(17) 0.4577(10) 0.9331(8)
B2 B 0.5886(12) 0.4064(9) 0.9413(7)
F9 F 0.1749(4) 0.2319(2) 0.4103(2)
F10 F 0.1477(4) 0.2589(2) 0.4753(2)
F11 F 0.1608(5) 0.3156(2) 0.4205(3)
F12 F 0.2772(4) 0.2741(3) 0.4793(2)
B3 B 0.1902(10) 0.2700(5) 0.4458(6)
F13 F 0.5007(12) 0.2352(8) 0.0511(7)
F14 F 0.6449(12) 0.2476(8) 0.0729(8)
F15 F 0.5851(12) 0.1773(8) 0.0567(6)
F16 F 0.5553(13) 0.2286(7) -0.0078(6)
B4 B 0.5687(13) 0.2269(10) 0.0418(7)
N33 N 0.8771(7) 0.4341(3) 0.6430(5)
C89 C 0.8385(13) 0.4435(6) 0.5981(9)
C90 C 0.8048(15) 0.4536(8) 0.5454(7)
H69 H 0.8411 0.4774 0.5393
H70 H 0.7487 0.4683 0.5333
H71 H 0.8009 0.4221 0.5270
N34 N 0.9789(9) 0.3719(7) 0.8860(6)
C91 C 1.0410(11) 0.3729(5) 0.9266(7)
C92 C 1.1138(9) 0.3723(5) 0.9749(4)
H72 H 1.1196 0.3390 0.9907
H73 H 1.1081 0.3981 0.9972
H74 H 1.1635 0.3796 0.9702
N35 N 0.9176(8) 0.1827(6) 0.8368(5)
C93 C 0.9435(7) 0.1771(5) 0.8766(5)
C94 C 0.9779(8) 0.1654(5) 0.9308(5)
H75 H 0.9340 0.1507 0.9378
H76 H 0.9988 0.1965 0.9507
H77 H 1.0240 0.1412 0.9403
N36 N 0.7174(8) 0.0785(6) 0.3281(6)
C95 C 0.7583(10) 0.0928(6) 0.3689(7)
C96 C 0.8112(9) 0.1093(7) 0.4215(6)
H78 H 0.8505 0.0823 0.4404
H79 H 0.7759 0.1171 0.4381
H80 H 0.8426 0.1395 0.4213
loop_
_geom_bond_atom_site_label_1
_geom_bond_atom_site_label_2
_geom_bond_site_symmetry_1
_geom_bond_site_symmetry_2
Fe1 N1 1_555 1_555
Fe2 N5 1_555 1_555
Fe3 N13 1_555 1_555
Fe4 N15 1_555 1_555
N1 C1 1_555 1_555
N2 Fe1 1_555 1_555
N3 N2 1_555 1_555
N4 Fe1 1_555 1_555
N5 C9 1_555 1_555
N6 H1 1_555 1_555
N7 Fe2 1_555 1_555
N8 Fe2 1_555 1_555
N9 Fe2 1_555 1_555
N10 Fe2 1_555 1_555
N11 N10 1_555 1_555
H2 N11 1_555 1_555
N12 Fe2 1_555 1_555
N13 C31 1_555 1_555
N14 Fe3 1_555 1_555
N15 C41 1_555 1_555
N16 H3 1_555 1_555
N17 Fe4 1_555 1_555
N18 Fe4 1_555 1_555
N19 Fe4 1_555 1_555
N20 Fe4 1_555 1_555
N21 N20 1_555 1_555
H4 N21 1_555 1_555
N22 Fe4 1_555 1_555
N23 Fe1 1_555 1_555
N24 N25 1_555 1_555
N25 Fe1 1_555 1_555
N26 Fe1 1_555 1_555
C1 H5 1_555 1_555
C2 C1 1_555 1_555
H6 C2 1_555 1_555
C3 C2 1_555 1_555
H7 C3 1_555 1_555
C4 C3 1_555 1_555
H8 C4 1_555 1_555
C5 N1 1_555 1_555
C6 N2 1_555 1_555
H9 C6 1_555 1_555
C7 N3 1_555 1_555
C8 C7 1_555 1_555
H10 C8 1_555 1_555
C9 N6 1_555 1_555
C10 N4 1_555 1_555
C11 C10 1_555 1_555
C12 C11 1_555 1_555
H11 C12 1_555 1_555
C13 C12 1_555 1_555
H12 C13 1_555 1_555
C14 C13 1_555 1_555
H13 C14 1_555 1_555
C15 C14 1_555 1_555
H14 C15 1_555 1_555
C16 C11 1_555 1_555
H15 C16 1_555 1_555
C17 N7 1_555 1_555
H16 C17 1_555 1_555
C18 N8 1_555 1_555
C19 C18 1_555 1_555
H17 C19 1_555 1_555
C20 C19 1_555 1_555
H18 C20 1_555 1_555
C21 C20 1_555 1_555
H19 C21 1_555 1_555
C22 N8 1_555 1_555
H20 C22 1_555 1_555
C23 N9 1_555 1_555
H21 C23 1_555 1_555
C24 C23 1_555 1_555
H22 C24 1_555 1_555
C25 C24 1_555 1_555
H23 C25 1_555 1_555
C26 C25 1_555 1_555
H24 C26 1_555 1_555
C27 N9 1_555 1_555
C28 N10 1_555 1_555
H25 C28 1_555 1_555
C29 N11 1_555 1_555
C30 C29 1_555 1_555
H26 C30 1_555 1_555
C31 C30 1_555 1_555
C32 N12 1_555 1_555
C33 C32 1_555 1_555
C34 C33 1_555 1_555
H27 C34 1_555 1_555
C35 C34 1_555 1_555
H28 C35 1_555 1_555
C36 C35 1_555 1_555
H29 C36 1_555 1_555
C37 C36 1_555 1_555
H30 C37 1_555 1_555
C38 C33 1_555 1_555
H31 C38 1_555 1_555
C39 N14 1_555 1_555
C40 C39 1_555 1_555
H32 C40 1_555 1_555
C41 N16 1_555 1_555
C42 N14 1_555 1_555
C43 C42 1_555 1_555
C44 C43 1_555 1_555
H33 C44 1_555 1_555
C45 C44 1_555 1_555
H34 C45 1_555 1_555
C46 C45 1_555 1_555
H35 C46 1_555 1_555
C47 C46 1_555 1_555
H36 C47 1_555 1_555
C48 C43 1_555 1_555
H37 C48 1_555 1_555
C49 N17 1_555 1_555
H38 C49 1_555 1_555
C50 N18 1_555 1_555
C51 C50 1_555 1_555
H39 C51 1_555 1_555
C52 C51 1_555 1_555
H40 C52 1_555 1_555
C53 C52 1_555 1_555
H41 C53 1_555 1_555
C54 N18 1_555 1_555
H42 C54 1_555 1_555
C55 N19 1_555 1_555
H43 C55 1_555 1_555
C56 C55 1_555 1_555
H44 C56 1_555 1_555
C57 C56 1_555 1_555
H45 C57 1_555 1_555
C58 C57 1_555 1_555
H46 C58 1_555 1_555
C59 N19 1_555 1_555
C60 N20 1_555 1_555
H47 C60 1_555 1_555
C61 N21 1_555 1_555
C62 C61 1_555 1_555
H48 C62 1_555 1_555
C63 N23 1_555 1_555
C64 N22 1_555 1_555
C65 C64 1_555 1_555
C66 C65 1_555 1_555
H49 C66 1_555 1_555
C67 C66 1_555 1_555
H50 C67 1_555 1_555
C68 C67 1_555 1_555
H51 C68 1_555 1_555
C69 C68 1_555 1_555
H52 C69 1_555 1_555
C70 C65 1_555 1_555
H53 C70 1_555 1_555
C71 N25 1_555 1_555
H54 C71 1_555 1_555
C72 N26 1_555 1_555
C73 C72 1_555 1_555
H55 C73 1_555 1_555
C74 C73 1_555 1_555
H56 C74 1_555 1_555
C75 C74 1_555 1_555
H57 C75 1_555 1_555
C76 N26 1_555 1_555
H58 C76 1_555 1_555
C77 C78 1_555 1_555
C78 H59 1_555 1_555
C79 C78 1_555 1_555
H60 C79 1_555 1_555
C80 C79 1_555 1_555
H61 C80 1_555 1_555
C81 C80 1_555 1_555
H62 C81 1_555 1_555
C82 H63 1_555 1_555
C83 C82 1_555 1_555
H64 C83 1_555 1_555
C84 C83 1_555 1_555
H65 C84 1_555 1_555
C85 C84 1_555 1_555
H66 C85 1_555 1_555
C86 C85 1_555 1_555
C87 C86 1_555 1_555
H67 C87 1_555 1_555
N27 Fe3 1_555 1_555
N28 Fe3 1_555 1_555
N29 Fe3 1_555 1_555
N30 Fe3 1_555 1_555
N31 C31 1_555 1_555
N32 C39 1_555 1_555
C88 C77 1_555 1_555
H68 C88 1_555 1_555
F1 B1 1_555 1_555
F2 B1 1_555 1_555
F3 B1 1_555 1_555
F4 B1 1_555 1_555
F5 B2 1_555 1_555
F6 B2 1_555 1_555
F7 B2 1_555 1_555
F8 B2 1_555 1_555
F9 B3 1_555 1_555
F10 B3 1_555 1_555
F11 B3 1_555 1_555
F12 B3 1_555 1_555
F13 B4 1_555 1_555
F14 B4 1_555 1_555
F15 B4 1_555 1_555
F16 B4 1_555 1_555
N33 C89 1_555 1_555
C89 C90 1_555 1_555
C90 H69 1_555 1_555
H70 C90 1_555 1_555
H71 C90 1_555 1_555
N34 C91 1_555 1_555
C91 C92 1_555 1_555
C92 H72 1_555 1_555
H73 C92 1_555 1_555
H74 C92 1_555 1_555
N35 C93 1_555 1_555
C93 C94 1_555 1_555
C94 H75 1_555 1_555
H76 C94 1_555 1_555
H77 C94 1_555 1_555
N36 C95 1_555 1_555
C95 C96 1_555 1_555
C96 H78 1_555 1_555
H79 C96 1_555 1_555
H80 C96 1_555 1_555
N4 C7 1_555 1_555
N5 C10 1_555 1_555
N6 N7 1_555 1_555
N12 C29 1_555 1_555
N13 C32 1_555 1_555
N15 C42 1_555 1_555
N16 N17 1_555 1_555
N22 C61 1_555 1_555
N23 C64 1_555 1_555
N24 C63 1_555 1_555
C4 C5 1_555 1_555
C5 C6 1_555 1_555
C8 C9 1_555 1_555
C15 C16 1_555 1_555
C17 C18 1_555 1_555
C21 C22 1_555 1_555
C26 C27 1_555 1_555
C27 C28 1_555 1_555
C37 C38 1_555 1_555
C40 C41 1_555 1_555
C47 C48 1_555 1_555
C49 C50 1_555 1_555
C53 C54 1_555 1_555
C58 C59 1_555 1_555
C59 C60 1_555 1_555
C62 C63 1_555 1_555
C69 C70 1_555 1_555
C71 C72 1_555 1_555
C75 C76 1_555 1_555
C77 N27 1_555 1_555
C81 N27 1_555 1_555
C82 N28 1_555 1_555
C86 N28 1_555 1_555
C87 N29 1_555 1_555
N29 N32 1_555 1_555
N30 N31 1_555 1_555
N30 C88 1_555 1_555

#END
