# generated using pymatgen
data_Zn4B8H81C94N35F46
_symmetry_space_group_name_H-M   'P 1'
_cell_length_a   18.55010000
_cell_length_b   19.58380000
_cell_length_c   35.64600000
_cell_angle_alpha   90.00000000
_cell_angle_beta   90.00000000
_cell_angle_gamma   110.79800000
_symmetry_Int_Tables_number   1
_chemical_formula_structural   Zn4B8H81C94N35F46
_chemical_formula_sum   'Zn16 B32 H324 C376 N140 F184'
_cell_volume   12105.71412650
_cell_formula_units_Z   4
loop_
 _symmetry_equiv_pos_site_id
 _symmetry_equiv_pos_as_xyz
  1  'x, y, z'
loop_
 _atom_site_type_symbol
 _atom_site_label
 _atom_site_symmetry_multiplicity
 _atom_site_fract_x
 _atom_site_fract_y
 _atom_site_fract_z
 _atom_site_occupancy
  Zn  Zn1  1  0.978580  0.114440  0.129510  1
  Zn  Zn2  1  0.521420  0.885560  0.629510  1
  Zn  Zn3  1  0.021420  0.885560  0.870490  1
  Zn  Zn4  1  0.478580  0.114440  0.370490  1
  Zn  Zn5  1  0.178590  0.458590  0.113380  1
  Zn  Zn6  1  0.321410  0.541410  0.613380  1
  Zn  Zn7  1  0.821410  0.541410  0.886620  1
  Zn  Zn8  1  0.678590  0.458590  0.386620  1
  Zn  Zn9  1  0.495930  0.391000  0.125400  1
  Zn  Zn10  1  0.004070  0.609000  0.625400  1
  Zn  Zn11  1  0.504070  0.609000  0.874600  1
  Zn  Zn12  1  0.995930  0.391000  0.374600  1
  Zn  Zn13  1  0.293100  0.047750  0.111830  1
  Zn  Zn14  1  0.206900  0.952250  0.611830  1
  Zn  Zn15  1  0.706900  0.952250  0.888170  1
  Zn  Zn16  1  0.793100  0.047750  0.388170  1
  B  B17  1  0.560600  0.170700  0.193000  1
  B  B18  1  0.939400  0.829300  0.693000  1
  B  B19  1  0.439400  0.829300  0.807000  1
  B  B20  1  0.060600  0.170700  0.307000  1
  B  B21  1  0.912400  0.333900  0.197200  1
  B  B22  1  0.587600  0.666100  0.697200  1
  B  B23  1  0.087600  0.666100  0.802800  1
  B  B24  1  0.412400  0.333900  0.302800  1
  B  B25  1  0.982300  0.112500  0.944000  1
  B  B26  1  0.517700  0.887500  0.444000  1
  B  B27  1  0.017700  0.887500  0.056000  1
  B  B28  1  0.482300  0.112500  0.556000  1
  B  B29  1  0.462000  0.621100  0.054900  1
  B  B30  1  0.038000  0.378900  0.554900  1
  B  B31  1  0.538000  0.378900  0.945100  1
  B  B32  1  0.962000  0.621100  0.445100  1
  B  B33  1  0.232400  0.424000  0.936800  1
  B  B34  1  0.267600  0.576000  0.436800  1
  B  B35  1  0.767600  0.576000  0.063200  1
  B  B36  1  0.732400  0.424000  0.563200  1
  B  B37  1  0.051800  0.606500  0.205600  1
  B  B38  1  0.448200  0.393500  0.705600  1
  B  B39  1  0.948200  0.393500  0.794400  1
  B  B40  1  0.551800  0.606500  0.294400  1
  B  B41  1  0.426200  0.896200  0.201300  1
  B  B42  1  0.073800  0.103800  0.701300  1
  B  B43  1  0.573800  0.103800  0.798700  1
  B  B44  1  0.926200  0.896200  0.298700  1
  B  B45  1  0.321700  0.843400  0.006700  1
  B  B46  1  0.178300  0.156600  0.506700  1
  B  B47  1  0.678300  0.156600  0.993300  1
  B  B48  1  0.821700  0.843400  0.493300  1
  H  H49  1  0.896000  0.953100  0.094200  1
  H  H50  1  0.604000  0.046900  0.594200  1
  H  H51  1  0.104000  0.046900  0.905800  1
  H  H52  1  0.396000  0.953100  0.405800  1
  H  H53  1  0.829500  0.834600  0.114900  1
  H  H54  1  0.670500  0.165400  0.614900  1
  H  H55  1  0.170500  0.165400  0.885100  1
  H  H56  1  0.329500  0.834600  0.385100  1
  H  H57  1  0.820100  0.812600  0.179800  1
  H  H58  1  0.679900  0.187400  0.679800  1
  H  H59  1  0.179900  0.187400  0.820200  1
  H  H60  1  0.320100  0.812600  0.320200  1
  H  H61  1  0.877500  0.907900  0.221300  1
  H  H62  1  0.622500  0.092100  0.721300  1
  H  H63  1  0.122500  0.092100  0.778700  1
  H  H64  1  0.377500  0.907900  0.278700  1
  H  H65  1  0.948100  0.044300  0.232100  1
  H  H66  1  0.551900  0.955700  0.732100  1
  H  H67  1  0.051900  0.955700  0.767900  1
  H  H68  1  0.448100  0.044300  0.267900  1
  H  H69  1  0.094100  0.304300  0.231400  1
  H  H70  1  0.405900  0.695700  0.731400  1
  H  H71  1  0.905900  0.695700  0.768600  1
  H  H72  1  0.594100  0.304300  0.268600  1
  H  H73  1  0.226800  0.561700  0.207000  1
  H  H74  1  0.273200  0.438300  0.707000  1
  H  H75  1  0.773200  0.438300  0.793000  1
  H  H76  1  0.726800  0.561700  0.293000  1
  H  H77  1  0.297200  0.693500  0.183300  1
  H  H78  1  0.202800  0.306500  0.683300  1
  H  H79  1  0.702800  0.306500  0.816700  1
  H  H80  1  0.797200  0.693500  0.316700  1
  H  H81  1  0.340600  0.774100  0.133100  1
  H  H82  1  0.159400  0.225900  0.633100  1
  H  H83  1  0.659400  0.225900  0.866900  1
  H  H84  1  0.840600  0.774100  0.366900  1
  H  H85  1  0.324100  0.726800  0.071700  1
  H  H86  1  0.175900  0.273200  0.571700  1
  H  H87  1  0.675900  0.273200  0.928300  1
  H  H88  1  0.824100  0.726800  0.428300  1
  H  H89  1  0.262200  0.602400  0.063200  1
  H  H90  1  0.237800  0.397600  0.563200  1
  H  H91  1  0.737800  0.397600  0.936800  1
  H  H92  1  0.762200  0.602400  0.436800  1
  H  H93  1  0.177000  0.276100  0.076600  1
  H  H94  1  0.323000  0.723900  0.576600  1
  H  H95  1  0.823000  0.723900  0.923400  1
  H  H96  1  0.677000  0.276100  0.423400  1
  H  H97  1  0.158500  0.265100  0.011200  1
  H  H98  1  0.341500  0.734900  0.511200  1
  H  H99  1  0.841500  0.734900  0.988800  1
  H  H100  1  0.658500  0.265100  0.488800  1
  H  H101  1  0.045300  0.269200  0.985800  1
  H  H102  1  0.454700  0.730800  0.485800  1
  H  H103  1  0.954700  0.730800  0.014200  1
  H  H104  1  0.545300  0.269200  0.514200  1
  H  H105  1  0.948700  0.279800  0.022100  1
  H  H106  1  0.551300  0.720200  0.522100  1
  H  H107  1  0.051300  0.720200  0.977900  1
  H  H108  1  0.448700  0.279800  0.477900  1
  H  H109  1  0.964800  0.289600  0.087800  1
  H  H110  1  0.535200  0.710400  0.587800  1
  H  H111  1  0.035200  0.710400  0.912200  1
  H  H112  1  0.464800  0.289600  0.412200  1
  H  H113  1  0.026600  0.473300  0.151000  1
  H  H114  1  0.473400  0.526700  0.651000  1
  H  H115  1  0.973400  0.526700  0.849000  1
  H  H116  1  0.526600  0.473300  0.349000  1
  H  H117  1  0.903800  0.468100  0.130900  1
  H  H118  1  0.596200  0.531900  0.630900  1
  H  H119  1  0.096200  0.531900  0.869100  1
  H  H120  1  0.403800  0.468100  0.369100  1
  H  H121  1  0.872400  0.455200  0.067100  1
  H  H122  1  0.627600  0.544800  0.567100  1
  H  H123  1  0.127600  0.544800  0.932900  1
  H  H124  1  0.372400  0.455200  0.432900  1
  H  H125  1  0.966400  0.450700  0.024000  1
  H  H126  1  0.533600  0.549300  0.524000  1
  H  H127  1  0.033600  0.549300  0.976000  1
  H  H128  1  0.466400  0.450700  0.476000  1
  H  H129  1  0.101700  0.453300  0.011900  1
  H  H130  1  0.398300  0.546700  0.511900  1
  H  H131  1  0.898300  0.546700  0.988100  1
  H  H132  1  0.601700  0.453300  0.488100  1
  H  H133  1  0.352000  0.427700  0.009800  1
  H  H134  1  0.148000  0.572300  0.509800  1
  H  H135  1  0.648000  0.572300  0.990200  1
  H  H136  1  0.852000  0.427700  0.490200  1
  H  H137  1  0.594600  0.392000  0.029700  1
  H  H138  1  0.905400  0.608000  0.529700  1
  H  H139  1  0.405400  0.608000  0.970300  1
  H  H140  1  0.094600  0.392000  0.470300  1
  H  H141  1  0.713400  0.357900  0.051400  1
  H  H142  1  0.786600  0.642100  0.551400  1
  H  H143  1  0.286600  0.642100  0.948600  1
  H  H144  1  0.213400  0.357900  0.448600  1
  H  H145  1  0.779100  0.329300  0.100200  1
  H  H146  1  0.720900  0.670700  0.600200  1
  H  H147  1  0.220900  0.670700  0.899800  1
  H  H148  1  0.279100  0.329300  0.399800  1
  H  H149  1  0.734500  0.323100  0.161500  1
  H  H150  1  0.765500  0.676900  0.661500  1
  H  H151  1  0.265500  0.676900  0.838500  1
  H  H152  1  0.234500  0.323100  0.338500  1
  H  H153  1  0.619400  0.343700  0.171500  1
  H  H154  1  0.880600  0.656300  0.671500  1
  H  H155  1  0.380600  0.656300  0.828500  1
  H  H156  1  0.119400  0.343700  0.328500  1
  H  H157  1  0.398200  0.541600  0.153500  1
  H  H158  1  0.101800  0.458400  0.653500  1
  H  H159  1  0.601800  0.458400  0.846500  1
  H  H160  1  0.898200  0.541600  0.346500  1
  H  H161  1  0.407400  0.556800  0.218100  1
  H  H162  1  0.092600  0.443200  0.718100  1
  H  H163  1  0.592600  0.443200  0.781900  1
  H  H164  1  0.907400  0.556800  0.281900  1
  H  H165  1  0.358100  0.456500  0.256500  1
  H  H166  1  0.141900  0.543500  0.756500  1
  H  H167  1  0.641900  0.543500  0.743500  1
  H  H168  1  0.858100  0.456500  0.243500  1
  H  H169  1  0.291900  0.340800  0.232300  1
  H  H170  1  0.208100  0.659200  0.732300  1
  H  H171  1  0.708100  0.659200  0.767700  1
  H  H172  1  0.791900  0.340800  0.267700  1
  H  H173  1  0.281400  0.324000  0.165800  1
  H  H174  1  0.218600  0.676000  0.665800  1
  H  H175  1  0.718600  0.676000  0.834200  1
  H  H176  1  0.781400  0.324000  0.334200  1
  H  H177  1  0.576900  0.549000  0.087600  1
  H  H178  1  0.923100  0.451000  0.587600  1
  H  H179  1  0.423100  0.451000  0.912400  1
  H  H180  1  0.076900  0.549000  0.412400  1
  H  H181  1  0.648300  0.667000  0.106800  1
  H  H182  1  0.851700  0.333000  0.606800  1
  H  H183  1  0.351700  0.333000  0.893200  1
  H  H184  1  0.148300  0.667000  0.393200  1
  H  H185  1  0.673500  0.691300  0.170800  1
  H  H186  1  0.826500  0.308700  0.670800  1
  H  H187  1  0.326500  0.308700  0.829200  1
  H  H188  1  0.173500  0.691300  0.329200  1
  H  H189  1  0.615100  0.597200  0.214400  1
  H  H190  1  0.884900  0.402800  0.714400  1
  H  H191  1  0.384900  0.402800  0.785600  1
  H  H192  1  0.115100  0.597200  0.285600  1
  H  H193  1  0.531400  0.463400  0.227000  1
  H  H194  1  0.968600  0.536600  0.727000  1
  H  H195  1  0.468600  0.536600  0.773000  1
  H  H196  1  0.031400  0.463400  0.273000  1
  H  H197  1  0.379400  0.203800  0.228600  1
  H  H198  1  0.120600  0.796200  0.728600  1
  H  H199  1  0.620600  0.796200  0.771400  1
  H  H200  1  0.879400  0.203800  0.271400  1
  H  H201  1  0.252400  0.943400  0.205300  1
  H  H202  1  0.247600  0.056600  0.705300  1
  H  H203  1  0.747600  0.056600  0.794700  1
  H  H204  1  0.752400  0.943400  0.294700  1
  H  H205  1  0.184400  0.811800  0.182400  1
  H  H206  1  0.315600  0.188200  0.682400  1
  H  H207  1  0.815600  0.188200  0.817600  1
  H  H208  1  0.684400  0.811800  0.317600  1
  H  H209  1  0.139200  0.732000  0.131600  1
  H  H210  1  0.360800  0.268000  0.631600  1
  H  H211  1  0.860800  0.268000  0.868400  1
  H  H212  1  0.639200  0.732000  0.368400  1
  H  H213  1  0.155600  0.779000  0.070500  1
  H  H214  1  0.344400  0.221000  0.570500  1
  H  H215  1  0.844400  0.221000  0.929500  1
  H  H216  1  0.655600  0.779000  0.429500  1
  H  H217  1  0.213100  0.901800  0.062000  1
  H  H218  1  0.286900  0.098200  0.562000  1
  H  H219  1  0.786900  0.098200  0.938000  1
  H  H220  1  0.713100  0.901800  0.438000  1
  H  H221  1  0.503200  0.215500  0.080800  1
  H  H222  1  0.996800  0.784500  0.580800  1
  H  H223  1  0.496800  0.784500  0.919200  1
  H  H224  1  0.003200  0.215500  0.419200  1
  H  H225  1  0.504900  0.220600  0.014500  1
  H  H226  1  0.995100  0.779400  0.514500  1
  H  H227  1  0.495100  0.779400  0.985500  1
  H  H228  1  0.004900  0.220600  0.485500  1
  H  H229  1  0.405300  0.232700  0.980900  1
  H  H230  1  0.094700  0.767300  0.480900  1
  H  H231  1  0.594700  0.767300  0.019100  1
  H  H232  1  0.905300  0.232700  0.519100  1
  H  H233  1  0.298300  0.239200  0.011700  1
  H  H234  1  0.201700  0.760800  0.511700  1
  H  H235  1  0.701700  0.760800  0.988300  1
  H  H236  1  0.798300  0.239200  0.488300  1
  H  H237  1  0.291800  0.234900  0.076800  1
  H  H238  1  0.208200  0.765100  0.576800  1
  H  H239  1  0.708200  0.765100  0.923200  1
  H  H240  1  0.791800  0.234900  0.423200  1
  H  H241  1  0.445500  0.032600  0.146400  1
  H  H242  1  0.054500  0.967400  0.646400  1
  H  H243  1  0.554500  0.967400  0.853600  1
  H  H244  1  0.945500  0.032600  0.353600  1
  H  H245  1  0.564900  0.033600  0.126600  1
  H  H246  1  0.935100  0.966400  0.626600  1
  H  H247  1  0.435100  0.966400  0.873400  1
  H  H248  1  0.064900  0.033600  0.373400  1
  H  H249  1  0.591200  0.043500  0.061700  1
  H  H250  1  0.908800  0.956500  0.561700  1
  H  H251  1  0.408800  0.956500  0.938300  1
  H  H252  1  0.091200  0.043500  0.438300  1
  H  H253  1  0.496500  0.050500  0.019900  1
  H  H254  1  0.003500  0.949500  0.519900  1
  H  H255  1  0.503500  0.949500  0.980100  1
  H  H256  1  0.996500  0.050500  0.480100  1
  H  H257  1  0.356500  0.048100  0.010200  1
  H  H258  1  0.143500  0.951900  0.510200  1
  H  H259  1  0.643500  0.951900  0.989800  1
  H  H260  1  0.856500  0.048100  0.489800  1
  H  H261  1  0.110900  0.075600  0.011300  1
  H  H262  1  0.389100  0.924400  0.511300  1
  H  H263  1  0.889100  0.924400  0.988700  1
  H  H264  1  0.610900  0.075600  0.488700  1
  H  H265  1  0.864500  0.104800  0.036500  1
  H  H266  1  0.635500  0.895200  0.536500  1
  H  H267  1  0.135500  0.895200  0.963500  1
  H  H268  1  0.364500  0.104800  0.463500  1
  H  H269  1  0.748800  0.131300  0.060900  1
  H  H270  1  0.751200  0.868700  0.560900  1
  H  H271  1  0.251200  0.868700  0.939100  1
  H  H272  1  0.248800  0.131300  0.439100  1
  H  H273  1  0.687200  0.167200  0.111700  1
  H  H274  1  0.812800  0.832800  0.611700  1
  H  H275  1  0.312800  0.832800  0.888300  1
  H  H276  1  0.187200  0.167200  0.388300  1
  H  H277  1  0.745300  0.183300  0.170800  1
  H  H278  1  0.754700  0.816700  0.670800  1
  H  H279  1  0.254700  0.816700  0.829200  1
  H  H280  1  0.245300  0.183300  0.329200  1
  H  H281  1  0.859700  0.162800  0.178900  1
  H  H282  1  0.640300  0.837200  0.678900  1
  H  H283  1  0.140300  0.837200  0.821100  1
  H  H284  1  0.359700  0.162800  0.321100  1
  H  H285  1  0.085500  0.974300  0.159900  1
  H  H286  1  0.414500  0.025700  0.659900  1
  H  H287  1  0.914500  0.025700  0.840100  1
  H  H288  1  0.585500  0.974300  0.340100  1
  H  H289  1  0.086800  0.974300  0.225800  1
  H  H290  1  0.413200  0.025700  0.725800  1
  H  H291  1  0.913200  0.025700  0.774200  1
  H  H292  1  0.586800  0.974300  0.274200  1
  H  H293  1  0.144800  0.082900  0.257600  1
  H  H294  1  0.355200  0.917100  0.757600  1
  H  H295  1  0.855200  0.917100  0.742400  1
  H  H296  1  0.644800  0.082900  0.242400  1
  H  H297  1  0.196800  0.190400  0.227000  1
  H  H298  1  0.303200  0.809600  0.727000  1
  H  H299  1  0.803200  0.809600  0.773000  1
  H  H300  1  0.696800  0.190400  0.273000  1
  H  H301  1  0.197000  0.192100  0.161300  1
  H  H302  1  0.303000  0.807900  0.661300  1
  H  H303  1  0.803000  0.807900  0.838700  1
  H  H304  1  0.697000  0.192100  0.338700  1
  H  H305  1  0.012300  0.174900  0.232900  1
  H  H306  1  0.487700  0.825100  0.732900  1
  H  H307  1  0.987700  0.825100  0.767100  1
  H  H308  1  0.512300  0.174900  0.267100  1
  H  H309  1  0.159800  0.435300  0.219800  1
  H  H310  1  0.340200  0.564700  0.719800  1
  H  H311  1  0.840200  0.564700  0.780200  1
  H  H312  1  0.659800  0.435300  0.280200  1
  H  H313  1  0.229900  0.449400  0.010300  1
  H  H314  1  0.270100  0.550600  0.510300  1
  H  H315  1  0.770100  0.550600  0.989700  1
  H  H316  1  0.729900  0.449400  0.489700  1
  H  H317  1  0.477000  0.412800  0.018800  1
  H  H318  1  0.023000  0.587200  0.518800  1
  H  H319  1  0.523000  0.587200  0.981200  1
  H  H320  1  0.977000  0.412800  0.481200  1
  H  H321  1  0.464800  0.334000  0.228800  1
  H  H322  1  0.035200  0.666000  0.728800  1
  H  H323  1  0.535200  0.666000  0.771200  1
  H  H324  1  0.964800  0.334000  0.271200  1
  H  H325  1  0.314100  0.072700  0.217800  1
  H  H326  1  0.185900  0.927300  0.717800  1
  H  H327  1  0.685900  0.927300  0.782200  1
  H  H328  1  0.814100  0.072700  0.282200  1
  H  H329  1  0.230600  0.054100  0.009800  1
  H  H330  1  0.269400  0.945900  0.509800  1
  H  H331  1  0.769400  0.945900  0.990200  1
  H  H332  1  0.730600  0.054100  0.490200  1
  H  H333  1  0.984600  0.088000  0.022700  1
  H  H334  1  0.515400  0.912000  0.522700  1
  H  H335  1  0.015400  0.912000  0.977300  1
  H  H336  1  0.484600  0.088000  0.477300  1
  H  H337  1  0.700400  0.001300  0.152600  1
  H  H338  1  0.799600  0.998700  0.652600  1
  H  H339  1  0.299600  0.998700  0.847400  1
  H  H340  1  0.200400  0.001300  0.347400  1
  H  H341  1  0.632900  0.972300  0.183000  1
  H  H342  1  0.867100  0.027700  0.683000  1
  H  H343  1  0.367100  0.027700  0.817000  1
  H  H344  1  0.132900  0.972300  0.317000  1
  H  H345  1  0.683600  0.923900  0.172400  1
  H  H346  1  0.816400  0.076100  0.672400  1
  H  H347  1  0.316400  0.076100  0.827600  1
  H  H348  1  0.183600  0.923900  0.327600  1
  H  H349  1  0.313300  0.584900  0.317100  1
  H  H350  1  0.186700  0.415100  0.817100  1
  H  H351  1  0.686700  0.415100  0.682900  1
  H  H352  1  0.813300  0.584900  0.182900  1
  H  H353  1  0.337600  0.514600  0.320900  1
  H  H354  1  0.162400  0.485400  0.820900  1
  H  H355  1  0.662400  0.485400  0.679100  1
  H  H356  1  0.837600  0.514600  0.179100  1
  H  H357  1  0.271900  0.523300  0.347500  1
  H  H358  1  0.228100  0.476700  0.847500  1
  H  H359  1  0.728100  0.476700  0.652500  1
  H  H360  1  0.771900  0.523300  0.152500  1
  H  H361  1  0.979100  0.640200  0.127600  1
  H  H362  1  0.520900  0.359800  0.627600  1
  H  H363  1  0.020900  0.359800  0.872400  1
  H  H364  1  0.479100  0.640200  0.372400  1
  H  H365  1  0.914700  0.637800  0.097200  1
  H  H366  1  0.585300  0.362200  0.597200  1
  H  H367  1  0.085300  0.362200  0.902800  1
  H  H368  1  0.414700  0.637800  0.402800  1
  H  H369  1  0.982600  0.713300  0.106500  1
  H  H370  1  0.517400  0.286700  0.606500  1
  H  H371  1  0.017400  0.286700  0.893500  1
  H  H372  1  0.482600  0.713300  0.393500  1
  C  C373  1  0.890800  0.943800  0.120400  1
  C  C374  1  0.609200  0.056200  0.620400  1
  C  C375  1  0.109200  0.056200  0.879600  1
  C  C376  1  0.390800  0.943800  0.379600  1
  C  C377  1  0.851900  0.873000  0.132300  1
  C  C378  1  0.648100  0.127000  0.632300  1
  C  C379  1  0.148100  0.127000  0.867700  1
  C  C380  1  0.351900  0.873000  0.367700  1
  C  C381  1  0.846700  0.860500  0.170500  1
  C  C382  1  0.653300  0.139500  0.670500  1
  C  C383  1  0.153300  0.139500  0.829500  1
  C  C384  1  0.346700  0.860500  0.329500  1
  C  C385  1  0.879800  0.916600  0.195100  1
  C  C386  1  0.620200  0.083400  0.695100  1
  C  C387  1  0.120200  0.083400  0.804900  1
  C  C388  1  0.379800  0.916600  0.304900  1
  C  C389  1  0.915900  0.985200  0.181400  1
  C  C390  1  0.584100  0.014800  0.681400  1
  C  C391  1  0.084100  0.014800  0.818600  1
  C  C392  1  0.415900  0.985200  0.318600  1
  C  C393  1  0.949700  0.048500  0.205500  1
  C  C394  1  0.550300  0.951500  0.705500  1
  C  C395  1  0.050300  0.951500  0.794500  1
  C  C396  1  0.449700  0.048500  0.294500  1
  C  C397  1  0.051900  0.234600  0.187500  1
  C  C398  1  0.448100  0.765400  0.687500  1
  C  C399  1  0.948100  0.765400  0.812500  1
  C  C400  1  0.551900  0.234600  0.312500  1
  C  C401  1  0.090400  0.300100  0.204900  1
  C  C402  1  0.409600  0.699900  0.704900  1
  C  C403  1  0.909600  0.699900  0.795100  1
  C  C404  1  0.590400  0.300100  0.295100  1
  C  C405  1  0.123700  0.360100  0.181200  1
  C  C406  1  0.376300  0.639900  0.681200  1
  C  C407  1  0.876300  0.639900  0.818800  1
  C  C408  1  0.623700  0.360100  0.318800  1
  C  C409  1  0.080600  0.287300  0.129700  1
  C  C410  1  0.419400  0.712700  0.629700  1
  C  C411  1  0.919400  0.712700  0.870300  1
  C  C412  1  0.580600  0.287300  0.370300  1
  C  C413  1  0.221700  0.548400  0.181300  1
  C  C414  1  0.278300  0.451600  0.681300  1
  C  C415  1  0.778300  0.451600  0.818700  1
  C  C416  1  0.721700  0.548400  0.318700  1
  C  C417  1  0.252200  0.602200  0.151400  1
  C  C418  1  0.247800  0.397800  0.651400  1
  C  C419  1  0.747800  0.397800  0.848600  1
  C  C420  1  0.752200  0.602200  0.348600  1
  C  C421  1  0.289700  0.675800  0.158300  1
  C  C422  1  0.210300  0.324200  0.658300  1
  C  C423  1  0.710300  0.324200  0.841700  1
  C  C424  1  0.789700  0.675800  0.341700  1
  C  C425  1  0.315900  0.723200  0.128800  1
  C  C426  1  0.184100  0.276800  0.628800  1
  C  C427  1  0.684100  0.276800  0.871200  1
  C  C428  1  0.815900  0.723200  0.371200  1
  C  C429  1  0.305900  0.695500  0.092700  1
  C  C430  1  0.194100  0.304500  0.592700  1
  C  C431  1  0.694100  0.304500  0.907300  1
  C  C432  1  0.805900  0.695500  0.407300  1
  C  C433  1  0.268800  0.621400  0.088000  1
  C  C434  1  0.231200  0.378600  0.588000  1
  C  C435  1  0.731200  0.378600  0.912000  1
  C  C436  1  0.768800  0.621400  0.412000  1
  C  C437  1  0.072400  0.281500  0.088500  1
  C  C438  1  0.427600  0.718500  0.588500  1
  C  C439  1  0.927600  0.718500  0.911500  1
  C  C440  1  0.572400  0.281500  0.411500  1
  C  C441  1  0.130100  0.276000  0.065800  1
  C  C442  1  0.369900  0.724000  0.565800  1
  C  C443  1  0.869900  0.724000  0.934200  1
  C  C444  1  0.630100  0.276000  0.434200  1
  C  C445  1  0.119600  0.270300  0.027100  1
  C  C446  1  0.380400  0.729700  0.527100  1
  C  C447  1  0.880400  0.729700  0.972900  1
  C  C448  1  0.619600  0.270300  0.472900  1
  C  C449  1  0.051900  0.272400  0.012300  1
  C  C450  1  0.448100  0.727600  0.512300  1
  C  C451  1  0.948100  0.727600  0.987700  1
  C  C452  1  0.551900  0.272400  0.487700  1
  C  C453  1  0.994700  0.278900  0.033400  1
  C  C454  1  0.505300  0.721100  0.533400  1
  C  C455  1  0.005300  0.721100  0.966600  1
  C  C456  1  0.494700  0.278900  0.466600  1
  C  C457  1  0.004200  0.284200  0.072300  1
  C  C458  1  0.495800  0.715800  0.572300  1
  C  C459  1  0.995800  0.715800  0.927700  1
  C  C460  1  0.504200  0.284200  0.427700  1
  C  C461  1  0.013900  0.468600  0.125100  1
  C  C462  1  0.486100  0.531400  0.625100  1
  C  C463  1  0.986100  0.531400  0.874900  1
  C  C464  1  0.513900  0.468600  0.374900  1
  C  C465  1  0.940700  0.465300  0.113100  1
  C  C466  1  0.559300  0.534700  0.613100  1
  C  C467  1  0.059300  0.534700  0.886900  1
  C  C468  1  0.440700  0.465300  0.386900  1
  C  C469  1  0.922100  0.458100  0.075400  1
  C  C470  1  0.577900  0.541900  0.575400  1
  C  C471  1  0.077900  0.541900  0.924600  1
  C  C472  1  0.422100  0.458100  0.424600  1
  C  C473  1  0.977300  0.455200  0.050100  1
  C  C474  1  0.522700  0.544800  0.550100  1
  C  C475  1  0.022700  0.544800  0.949900  1
  C  C476  1  0.477300  0.455200  0.449900  1
  C  C477  1  0.048900  0.459100  0.063500  1
  C  C478  1  0.451100  0.540900  0.563500  1
  C  C479  1  0.951100  0.540900  0.936500  1
  C  C480  1  0.548900  0.459100  0.436500  1
  C  C481  1  0.107300  0.454100  0.038400  1
  C  C482  1  0.392700  0.545900  0.538400  1
  C  C483  1  0.892700  0.545900  0.961600  1
  C  C484  1  0.607300  0.454100  0.461600  1
  C  C485  1  0.285000  0.435500  0.054800  1
  C  C486  1  0.215000  0.564500  0.554800  1
  C  C487  1  0.715000  0.564500  0.945200  1
  C  C488  1  0.785000  0.435500  0.445200  1
  C  C489  1  0.348000  0.426600  0.036400  1
  C  C490  1  0.152000  0.573400  0.536400  1
  C  C491  1  0.652000  0.573400  0.963600  1
  C  C492  1  0.848000  0.426600  0.463600  1
  C  C493  1  0.403600  0.416200  0.058700  1
  C  C494  1  0.096400  0.583800  0.558700  1
  C  C495  1  0.596400  0.583800  0.941300  1
  C  C496  1  0.903600  0.416200  0.441300  1
  C  C497  1  0.339100  0.425600  0.111800  1
  C  C498  1  0.160900  0.574400  0.611800  1
  C  C499  1  0.660900  0.574400  0.888200  1
  C  C500  1  0.839100  0.425600  0.388200  1
  C  C501  1  0.580400  0.387300  0.055500  1
  C  C502  1  0.919600  0.612700  0.555500  1
  C  C503  1  0.419600  0.612700  0.944500  1
  C  C504  1  0.080400  0.387300  0.444500  1
  C  C505  1  0.627800  0.369500  0.084600  1
  C  C506  1  0.872200  0.630500  0.584600  1
  C  C507  1  0.372200  0.630500  0.915400  1
  C  C508  1  0.127800  0.369500  0.415400  1
  C  C509  1  0.695000  0.355500  0.076400  1
  C  C510  1  0.805000  0.644500  0.576400  1
  C  C511  1  0.305000  0.644500  0.923600  1
  C  C512  1  0.195000  0.355500  0.423600  1
  C  C513  1  0.733100  0.338600  0.105300  1
  C  C514  1  0.766900  0.661400  0.605300  1
  C  C515  1  0.266900  0.661400  0.894700  1
  C  C516  1  0.233100  0.338600  0.394700  1
  C  C517  1  0.707400  0.334500  0.141300  1
  C  C518  1  0.792600  0.665500  0.641300  1
  C  C519  1  0.292600  0.665500  0.858700  1
  C  C520  1  0.207400  0.334500  0.358700  1
  C  C521  1  0.639400  0.347900  0.146800  1
  C  C522  1  0.860600  0.652100  0.646800  1
  C  C523  1  0.360600  0.652100  0.853200  1
  C  C524  1  0.139400  0.347900  0.353200  1
  C  C525  1  0.340500  0.432100  0.153400  1
  C  C526  1  0.159500  0.567900  0.653400  1
  C  C527  1  0.659500  0.567900  0.846600  1
  C  C528  1  0.840500  0.432100  0.346600  1
  C  C529  1  0.376800  0.500400  0.169400  1
  C  C530  1  0.123200  0.499600  0.669400  1
  C  C531  1  0.623200  0.499600  0.830600  1
  C  C532  1  0.876800  0.500400  0.330600  1
  C  C533  1  0.382700  0.509700  0.207500  1
  C  C534  1  0.117300  0.490300  0.707500  1
  C  C535  1  0.617300  0.490300  0.792500  1
  C  C536  1  0.882700  0.509700  0.292500  1
  C  C537  1  0.352500  0.450300  0.230100  1
  C  C538  1  0.147500  0.549700  0.730100  1
  C  C539  1  0.647500  0.549700  0.769900  1
  C  C540  1  0.852500  0.450300  0.269900  1
  C  C541  1  0.313800  0.381000  0.215800  1
  C  C542  1  0.186200  0.619000  0.715800  1
  C  C543  1  0.686200  0.619000  0.784200  1
  C  C544  1  0.813800  0.381000  0.284200  1
  C  C545  1  0.307400  0.370900  0.176400  1
  C  C546  1  0.192600  0.629100  0.676400  1
  C  C547  1  0.692600  0.629100  0.823600  1
  C  C548  1  0.807400  0.370900  0.323600  1
  C  C549  1  0.585700  0.559100  0.113600  1
  C  C550  1  0.914300  0.440900  0.613600  1
  C  C551  1  0.414300  0.440900  0.886400  1
  C  C552  1  0.085700  0.559100  0.386400  1
  C  C553  1  0.628500  0.629200  0.124800  1
  C  C554  1  0.871500  0.370800  0.624800  1
  C  C555  1  0.371500  0.370800  0.875200  1
  C  C556  1  0.128500  0.629200  0.375200  1
  C  C557  1  0.642100  0.644000  0.162500  1
  C  C558  1  0.857900  0.356000  0.662500  1
  C  C559  1  0.357900  0.356000  0.837500  1
  C  C560  1  0.142100  0.644000  0.337500  1
  C  C561  1  0.608900  0.587900  0.188300  1
  C  C562  1  0.891100  0.412100  0.688300  1
  C  C563  1  0.391100  0.412100  0.811700  1
  C  C564  1  0.108900  0.587900  0.311700  1
  C  C565  1  0.567200  0.519200  0.175400  1
  C  C566  1  0.932800  0.480800  0.675400  1
  C  C567  1  0.432800  0.480800  0.824600  1
  C  C568  1  0.067200  0.519200  0.324600  1
  C  C569  1  0.530100  0.458000  0.200500  1
  C  C570  1  0.969900  0.542000  0.700500  1
  C  C571  1  0.469900  0.542000  0.799500  1
  C  C572  1  0.030100  0.458000  0.299500  1
  C  C573  1  0.423900  0.273300  0.184500  1
  C  C574  1  0.076100  0.726700  0.684500  1
  C  C575  1  0.576100  0.726700  0.815500  1
  C  C576  1  0.923900  0.273300  0.315500  1
  C  C577  1  0.384200  0.207600  0.202100  1
  C  C578  1  0.115800  0.792400  0.702100  1
  C  C579  1  0.615800  0.792400  0.797900  1
  C  C580  1  0.884200  0.207600  0.297900  1
  C  C581  1  0.351900  0.148000  0.179000  1
  C  C582  1  0.148100  0.852000  0.679000  1
  C  C583  1  0.648100  0.852000  0.821000  1
  C  C584  1  0.851900  0.148000  0.321000  1
  C  C585  1  0.391100  0.219300  0.126600  1
  C  C586  1  0.108900  0.780700  0.626600  1
  C  C587  1  0.608900  0.780700  0.873400  1
  C  C588  1  0.891100  0.219300  0.373400  1
  C  C589  1  0.254900  0.957100  0.179600  1
  C  C590  1  0.245100  0.042900  0.679600  1
  C  C591  1  0.745100  0.042900  0.820400  1
  C  C592  1  0.754900  0.957100  0.320400  1
  C  C593  1  0.223700  0.903500  0.150400  1
  C  C594  1  0.276300  0.096500  0.650400  1
  C  C595  1  0.776300  0.096500  0.849600  1
  C  C596  1  0.723700  0.903500  0.349600  1
  C  C597  1  0.189700  0.829900  0.157500  1
  C  C598  1  0.310300  0.170100  0.657500  1
  C  C599  1  0.810300  0.170100  0.842500  1
  C  C600  1  0.689700  0.829900  0.342500  1
  C  C601  1  0.163500  0.783000  0.127400  1
  C  C602  1  0.336500  0.217000  0.627400  1
  C  C603  1  0.836500  0.217000  0.872600  1
  C  C604  1  0.663500  0.783000  0.372600  1
  C  C605  1  0.172800  0.810500  0.091500  1
  C  C606  1  0.327200  0.189500  0.591500  1
  C  C607  1  0.827200  0.189500  0.908500  1
  C  C608  1  0.672800  0.810500  0.408500  1
  C  C609  1  0.207000  0.883200  0.086900  1
  C  C610  1  0.293000  0.116800  0.586900  1
  C  C611  1  0.793000  0.116800  0.913100  1
  C  C612  1  0.707000  0.883200  0.413100  1
  C  C613  1  0.395900  0.224000  0.085000  1
  C  C614  1  0.104100  0.776000  0.585000  1
  C  C615  1  0.604100  0.776000  0.915000  1
  C  C616  1  0.895900  0.224000  0.415000  1
  C  C617  1  0.461200  0.220100  0.067100  1
  C  C618  1  0.038800  0.779900  0.567100  1
  C  C619  1  0.538800  0.779900  0.932900  1
  C  C620  1  0.961200  0.220100  0.432900  1
  C  C621  1  0.461400  0.223400  0.027600  1
  C  C622  1  0.038600  0.776600  0.527600  1
  C  C623  1  0.538600  0.776600  0.972400  1
  C  C624  1  0.961400  0.223400  0.472400  1
  C  C625  1  0.402700  0.230500  0.007500  1
  C  C626  1  0.097300  0.769500  0.507500  1
  C  C627  1  0.597300  0.769500  0.992500  1
  C  C628  1  0.902700  0.230500  0.492500  1
  C  C629  1  0.339800  0.234500  0.025700  1
  C  C630  1  0.160200  0.765500  0.525700  1
  C  C631  1  0.660200  0.765500  0.974300  1
  C  C632  1  0.839800  0.234500  0.474300  1
  C  C633  1  0.335700  0.231600  0.064300  1
  C  C634  1  0.164300  0.768400  0.564300  1
  C  C635  1  0.664300  0.768400  0.935700  1
  C  C636  1  0.835700  0.231600  0.435700  1
  C  C637  1  0.455700  0.036000  0.120200  1
  C  C638  1  0.044300  0.964000  0.620200  1
  C  C639  1  0.544300  0.964000  0.879800  1
  C  C640  1  0.955700  0.036000  0.379800  1
  C  C641  1  0.527800  0.036700  0.109000  1
  C  C642  1  0.972200  0.963300  0.609000  1
  C  C643  1  0.472200  0.963300  0.891000  1
  C  C644  1  0.027800  0.036700  0.391000  1
  C  C645  1  0.542800  0.042300  0.070900  1
  C  C646  1  0.957200  0.957700  0.570900  1
  C  C647  1  0.457200  0.957700  0.929100  1
  C  C648  1  0.042800  0.042300  0.429100  1
  C  C649  1  0.486400  0.046100  0.046100  1
  C  C650  1  0.013600  0.953900  0.546100  1
  C  C651  1  0.513600  0.953900  0.953900  1
  C  C652  1  0.986400  0.046100  0.453900  1
  C  C653  1  0.416100  0.043500  0.059700  1
  C  C654  1  0.083900  0.956500  0.559700  1
  C  C655  1  0.583900  0.956500  0.940300  1
  C  C656  1  0.916100  0.043500  0.440300  1
  C  C657  1  0.353300  0.048700  0.036800  1
  C  C658  1  0.146700  0.951300  0.536800  1
  C  C659  1  0.646700  0.951300  0.963200  1
  C  C660  1  0.853300  0.048700  0.463200  1
  C  C661  1  0.177300  0.070700  0.054400  1
  C  C662  1  0.322700  0.929300  0.554400  1
  C  C663  1  0.822700  0.929300  0.945600  1
  C  C664  1  0.677300  0.070700  0.445600  1
  C  C665  1  0.116400  0.077800  0.037800  1
  C  C666  1  0.383600  0.922200  0.537800  1
  C  C667  1  0.883600  0.922200  0.962200  1
  C  C668  1  0.616400  0.077800  0.462200  1
  C  C669  1  0.061100  0.088500  0.060700  1
  C  C670  1  0.438900  0.911500  0.560700  1
  C  C671  1  0.938900  0.911500  0.939300  1
  C  C672  1  0.561100  0.088500  0.439300  1
  C  C673  1  0.132000  0.084300  0.113000  1
  C  C674  1  0.368000  0.915700  0.613000  1
  C  C675  1  0.868000  0.915700  0.887000  1
  C  C676  1  0.632000  0.084300  0.387000  1
  C  C677  1  0.882300  0.111100  0.061700  1
  C  C678  1  0.617700  0.888900  0.561700  1
  C  C679  1  0.117700  0.888900  0.938300  1
  C  C680  1  0.382300  0.111100  0.438300  1
  C  C681  1  0.839300  0.127600  0.091700  1
  C  C682  1  0.660700  0.872400  0.591700  1
  C  C683  1  0.160700  0.872400  0.908300  1
  C  C684  1  0.339300  0.127600  0.408300  1
  C  C685  1  0.771000  0.138200  0.085300  1
  C  C686  1  0.729000  0.861800  0.585300  1
  C  C687  1  0.229000  0.861800  0.914700  1
  C  C688  1  0.271000  0.138200  0.414700  1
  C  C689  1  0.734500  0.159500  0.115300  1
  C  C690  1  0.765500  0.840500  0.615300  1
  C  C691  1  0.265500  0.840500  0.884700  1
  C  C692  1  0.234500  0.159500  0.384700  1
  C  C693  1  0.768700  0.168800  0.150100  1
  C  C694  1  0.731300  0.831200  0.650100  1
  C  C695  1  0.231300  0.831200  0.849900  1
  C  C696  1  0.268700  0.168800  0.349900  1
  C  C697  1  0.836600  0.157000  0.154800  1
  C  C698  1  0.663400  0.843000  0.654800  1
  C  C699  1  0.163400  0.843000  0.845200  1
  C  C700  1  0.336600  0.157000  0.345200  1
  C  C701  1  0.141500  0.084300  0.154300  1
  C  C702  1  0.358500  0.915700  0.654300  1
  C  C703  1  0.858500  0.915700  0.845700  1
  C  C704  1  0.641500  0.084300  0.345700  1
  C  C705  1  0.108400  0.018600  0.173300  1
  C  C706  1  0.391600  0.981400  0.673300  1
  C  C707  1  0.891600  0.981400  0.826700  1
  C  C708  1  0.608400  0.018600  0.326700  1
  C  C709  1  0.109400  0.018600  0.212300  1
  C  C710  1  0.390600  0.981400  0.712300  1
  C  C711  1  0.890600  0.981400  0.787700  1
  C  C712  1  0.609400  0.018600  0.287700  1
  C  C713  1  0.143500  0.083300  0.231000  1
  C  C714  1  0.356500  0.916700  0.731000  1
  C  C715  1  0.856500  0.916700  0.769000  1
  C  C716  1  0.643500  0.083300  0.269000  1
  C  C717  1  0.174600  0.146300  0.213300  1
  C  C718  1  0.325400  0.853700  0.713300  1
  C  C719  1  0.825400  0.853700  0.786700  1
  C  C720  1  0.674600  0.146300  0.286700  1
  C  C721  1  0.174200  0.147100  0.174200  1
  C  C722  1  0.325800  0.852900  0.674200  1
  C  C723  1  0.825800  0.852900  0.825800  1
  C  C724  1  0.674200  0.147100  0.325800  1
  C  C725  1  0.739000  0.009400  0.205700  1
  C  C726  1  0.761000  0.990600  0.705700  1
  C  C727  1  0.261000  0.990600  0.794300  1
  C  C728  1  0.239000  0.009400  0.294300  1
  C  C729  1  0.684500  0.973800  0.176000  1
  C  C730  1  0.815500  0.026200  0.676000  1
  C  C731  1  0.315500  0.026200  0.824000  1
  C  C732  1  0.184500  0.973800  0.324000  1
  C  C733  1  0.236600  0.494400  0.294900  1
  C  C734  1  0.263400  0.505600  0.794900  1
  C  C735  1  0.763400  0.505600  0.705100  1
  C  C736  1  0.736600  0.494400  0.205100  1
  C  C737  1  0.294500  0.532400  0.322300  1
  C  C738  1  0.205500  0.467600  0.822300  1
  C  C739  1  0.705500  0.467600  0.677700  1
  C  C740  1  0.794500  0.532400  0.177700  1
  C  C741  1  0.017200  0.645700  0.074000  1
  C  C742  1  0.482800  0.354300  0.574000  1
  C  C743  1  0.982800  0.354300  0.926000  1
  C  C744  1  0.517200  0.645700  0.426000  1
  C  C745  1  0.969400  0.660500  0.103900  1
  C  C746  1  0.530600  0.339500  0.603900  1
  C  C747  1  0.030600  0.339500  0.896100  1
  C  C748  1  0.469400  0.660500  0.396100  1
  N  N749  1  0.921600  0.999800  0.144000  1
  N  N750  1  0.578400  0.000200  0.644000  1
  N  N751  1  0.078400  0.000200  0.856000  1
  N  N752  1  0.421600  0.999800  0.356000  1
  N  N753  1  0.981700  0.110400  0.189120  1
  N  N754  1  0.518300  0.889600  0.689120  1
  N  N755  1  0.018300  0.889600  0.810880  1
  N  N756  1  0.481700  0.110400  0.310880  1
  N  N757  1  0.014600  0.173300  0.208230  1
  N  N758  1  0.485400  0.826700  0.708230  1
  N  N759  1  0.985400  0.826700  0.791770  1
  N  N760  1  0.514600  0.173300  0.291770  1
  N  N761  1  0.046200  0.226700  0.149530  1
  N  N762  1  0.453800  0.773300  0.649530  1
  N  N763  1  0.953800  0.773300  0.850470  1
  N  N764  1  0.546200  0.226700  0.350470  1
  N  N765  1  0.120300  0.353100  0.143230  1
  N  N766  1  0.379700  0.646900  0.643230  1
  N  N767  1  0.879700  0.646900  0.856770  1
  N  N768  1  0.620300  0.353100  0.356770  1
  N  N769  1  0.157600  0.427400  0.195490  1
  N  N770  1  0.342400  0.572600  0.695490  1
  N  N771  1  0.842400  0.572600  0.804510  1
  N  N772  1  0.657600  0.427400  0.304510  1
  N  N773  1  0.188100  0.482900  0.170740  1
  N  N774  1  0.311900  0.517100  0.670740  1
  N  N775  1  0.811900  0.517100  0.829260  1
  N  N776  1  0.688100  0.482900  0.329260  1
  N  N777  1  0.241800  0.575100  0.116300  1
  N  N778  1  0.258200  0.424900  0.616300  1
  N  N779  1  0.758200  0.424900  0.883700  1
  N  N780  1  0.741800  0.575100  0.383700  1
  N  N781  1  0.064500  0.464900  0.100200  1
  N  N782  1  0.435500  0.535100  0.600200  1
  N  N783  1  0.935500  0.535100  0.899800  1
  N  N784  1  0.564500  0.464900  0.399800  1
  N  N785  1  0.167300  0.451000  0.054640  1
  N  N786  1  0.332700  0.549000  0.554640  1
  N  N787  1  0.832700  0.549000  0.945360  1
  N  N788  1  0.667300  0.451000  0.445360  1
  N  N789  1  0.227900  0.446000  0.034930  1
  N  N790  1  0.272100  0.554000  0.534930  1
  N  N791  1  0.772100  0.554000  0.965070  1
  N  N792  1  0.727900  0.446000  0.465070  1
  N  N793  1  0.282300  0.435700  0.092600  1
  N  N794  1  0.217700  0.564300  0.592600  1
  N  N795  1  0.717700  0.564300  0.907400  1
  N  N796  1  0.782300  0.435700  0.407400  1
  N  N797  1  0.399700  0.414200  0.096680  1
  N  N798  1  0.100300  0.585800  0.596680  1
  N  N799  1  0.600300  0.585800  0.903320  1
  N  N800  1  0.899700  0.414200  0.403320  1
  N  N801  1  0.468600  0.409000  0.043180  1
  N  N802  1  0.031400  0.591000  0.543180  1
  N  N803  1  0.531400  0.591000  0.956820  1
  N  N804  1  0.968600  0.409000  0.456820  1
  N  N805  1  0.519100  0.396000  0.067160  1
  N  N806  1  0.980900  0.604000  0.567160  1
  N  N807  1  0.480900  0.604000  0.932840  1
  N  N808  1  0.019100  0.396000  0.432840  1
  N  N809  1  0.600800  0.366100  0.119670  1
  N  N810  1  0.899200  0.633900  0.619670  1
  N  N811  1  0.399200  0.633900  0.880330  1
  N  N812  1  0.100800  0.366100  0.380330  1
  N  N813  1  0.556400  0.505200  0.138200  1
  N  N814  1  0.943600  0.494800  0.638200  1
  N  N815  1  0.443600  0.494800  0.861800  1
  N  N816  1  0.056400  0.505200  0.361800  1
  N  N817  1  0.495900  0.396800  0.184640  1
  N  N818  1  0.004100  0.603200  0.684640  1
  N  N819  1  0.504100  0.603200  0.815360  1
  N  N820  1  0.995900  0.396800  0.315360  1
  N  N821  1  0.462100  0.334600  0.204190  1
  N  N822  1  0.037900  0.665400  0.704190  1
  N  N823  1  0.537900  0.665400  0.795810  1
  N  N824  1  0.962100  0.334600  0.295810  1
  N  N825  1  0.426800  0.280100  0.146070  1
  N  N826  1  0.073200  0.719900  0.646070  1
  N  N827  1  0.573200  0.719900  0.853930  1
  N  N828  1  0.926800  0.280100  0.353930  1
  N  N829  1  0.352800  0.153700  0.141040  1
  N  N830  1  0.147200  0.846300  0.641040  1
  N  N831  1  0.647200  0.846300  0.858960  1
  N  N832  1  0.852800  0.153700  0.358960  1
  N  N833  1  0.316800  0.080100  0.193400  1
  N  N834  1  0.183200  0.919900  0.693400  1
  N  N835  1  0.683200  0.919900  0.806600  1
  N  N836  1  0.816800  0.080100  0.306600  1
  N  N837  1  0.286300  0.024400  0.169300  1
  N  N838  1  0.213700  0.975600  0.669300  1
  N  N839  1  0.713700  0.975600  0.830700  1
  N  N840  1  0.786300  0.024400  0.330700  1
  N  N841  1  0.232800  0.930800  0.115000  1
  N  N842  1  0.267200  0.069200  0.615000  1
  N  N843  1  0.767200  0.069200  0.885000  1
  N  N844  1  0.732800  0.930800  0.385000  1
  N  N845  1  0.399900  0.039600  0.098100  1
  N  N846  1  0.100100  0.960400  0.598100  1
  N  N847  1  0.600100  0.960400  0.901900  1
  N  N848  1  0.899900  0.039600  0.401900  1
  N  N849  1  0.294400  0.053900  0.052570  1
  N  N850  1  0.205600  0.946100  0.552570  1
  N  N851  1  0.705600  0.946100  0.947430  1
  N  N852  1  0.794400  0.053900  0.447430  1
  N  N853  1  0.234000  0.058700  0.034300  1
  N  N854  1  0.266000  0.941300  0.534300  1
  N  N855  1  0.766000  0.941300  0.965700  1
  N  N856  1  0.734000  0.058700  0.465700  1
  N  N857  1  0.189300  0.073500  0.092830  1
  N  N858  1  0.310700  0.926500  0.592830  1
  N  N859  1  0.810700  0.926500  0.907170  1
  N  N860  1  0.689300  0.073500  0.407170  1
  N  N861  1  0.070000  0.094000  0.099180  1
  N  N862  1  0.430000  0.906000  0.599180  1
  N  N863  1  0.930000  0.906000  0.900820  1
  N  N864  1  0.570000  0.094000  0.400820  1
  N  N865  1  0.995300  0.093100  0.046870  1
  N  N866  1  0.504700  0.906900  0.546870  1
  N  N867  1  0.004700  0.906900  0.953130  1
  N  N868  1  0.495300  0.093100  0.453130  1
  N  N869  1  0.947000  0.105600  0.071540  1
  N  N870  1  0.553000  0.894400  0.571540  1
  N  N871  1  0.053000  0.894400  0.928460  1
  N  N872  1  0.447000  0.105600  0.428460  1
  N  N873  1  0.870900  0.137600  0.125900  1
  N  N874  1  0.629100  0.862400  0.625900  1
  N  N875  1  0.129100  0.862400  0.874100  1
  N  N876  1  0.370900  0.137600  0.374100  1
  N  N877  1  0.783400  0.036600  0.228100  1
  N  N878  1  0.716600  0.963400  0.728100  1
  N  N879  1  0.216600  0.963400  0.771900  1
  N  N880  1  0.283400  0.036600  0.271900  1
  N  N881  1  0.193200  0.463600  0.273500  1
  N  N882  1  0.306800  0.536400  0.773500  1
  N  N883  1  0.806800  0.536400  0.726500  1
  N  N884  1  0.693200  0.463600  0.226500  1
  N  N885  1  0.057700  0.635700  0.050100  1
  N  N886  1  0.442300  0.364300  0.550100  1
  N  N887  1  0.942300  0.364300  0.949900  1
  N  N888  1  0.557700  0.635700  0.449900  1
  F  F889  1  0.610200  0.135800  0.184950  1
  F  F890  1  0.889800  0.864200  0.684950  1
  F  F891  1  0.389800  0.864200  0.815050  1
  F  F892  1  0.110200  0.135800  0.315050  1
  F  F893  1  0.499600  0.126000  0.214800  1
  F  F894  1  0.000400  0.874000  0.714800  1
  F  F895  1  0.500400  0.874000  0.785200  1
  F  F896  1  0.999600  0.126000  0.285200  1
  F  F897  1  0.532700  0.190200  0.160210  1
  F  F898  1  0.967300  0.809800  0.660210  1
  F  F899  1  0.467300  0.809800  0.839790  1
  F  F900  1  0.032700  0.190200  0.339790  1
  F  F901  1  0.595900  0.233100  0.214730  1
  F  F902  1  0.904100  0.766900  0.714730  1
  F  F903  1  0.404100  0.766900  0.785270  1
  F  F904  1  0.095900  0.233100  0.285270  1
  F  F905  1  0.876000  0.273100  0.218690  1
  F  F906  1  0.624000  0.726900  0.718690  1
  F  F907  1  0.124000  0.726900  0.781310  1
  F  F908  1  0.376000  0.273100  0.281310  1
  F  F909  1  0.939300  0.316500  0.164200  1
  F  F910  1  0.560700  0.683500  0.664200  1
  F  F911  1  0.060700  0.683500  0.835800  1
  F  F912  1  0.439300  0.316500  0.335800  1
  F  F913  1  0.972100  0.380400  0.218770  1
  F  F914  1  0.527900  0.619600  0.718770  1
  F  F915  1  0.027900  0.619600  0.781230  1
  F  F916  1  0.472100  0.380400  0.281230  1
  F  F917  1  0.860700  0.368500  0.189670  1
  F  F918  1  0.639300  0.631500  0.689670  1
  F  F919  1  0.139300  0.631500  0.810330  1
  F  F920  1  0.360700  0.368500  0.310330  1
  F  F921  1  0.023300  0.183400  0.933940  1
  F  F922  1  0.476700  0.816600  0.433940  1
  F  F923  1  0.976700  0.816600  0.066060  1
  F  F924  1  0.523300  0.183400  0.566060  1
  F  F925  1  0.929300  0.109300  0.971930  1
  F  F926  1  0.570700  0.890700  0.471930  1
  F  F927  1  0.070700  0.890700  0.028070  1
  F  F928  1  0.429300  0.109300  0.528070  1
  F  F929  1  0.947100  0.072700  0.913880  1
  F  F930  1  0.552900  0.927300  0.413880  1
  F  F931  1  0.052900  0.927300  0.086120  1
  F  F932  1  0.447100  0.072700  0.586120  1
  F  F933  1  0.034200  0.082700  0.959900  1
  F  F934  1  0.465800  0.917300  0.459900  1
  F  F935  1  0.965800  0.917300  0.040100  1
  F  F936  1  0.534200  0.082700  0.540100  1
  F  F937  1  0.428900  0.578200  0.084640  1
  F  F938  1  0.071100  0.421800  0.584640  1
  F  F939  1  0.571100  0.421800  0.915360  1
  F  F940  1  0.928900  0.578200  0.415360  1
  F  F941  1  0.506400  0.590500  0.033850  1
  F  F942  1  0.993600  0.409500  0.533850  1
  F  F943  1  0.493600  0.409500  0.966150  1
  F  F944  1  0.006400  0.590500  0.466150  1
  F  F945  1  0.510900  0.687900  0.068350  1
  F  F946  1  0.989100  0.312100  0.568350  1
  F  F947  1  0.489100  0.312100  0.931650  1
  F  F948  1  0.010900  0.687900  0.431650  1
  F  F949  1  0.409100  0.632100  0.031960  1
  F  F950  1  0.090900  0.367900  0.531960  1
  F  F951  1  0.590900  0.367900  0.968040  1
  F  F952  1  0.909100  0.632100  0.468040  1
  F  F953  1  0.234800  0.462900  0.905600  1
  F  F954  1  0.265200  0.537100  0.405600  1
  F  F955  1  0.765200  0.537100  0.094400  1
  F  F956  1  0.734800  0.462900  0.594400  1
  F  F957  1  0.173800  0.424200  0.959420  1
  F  F958  1  0.326200  0.575800  0.459420  1
  F  F959  1  0.826200  0.575800  0.040580  1
  F  F960  1  0.673800  0.424200  0.540580  1
  F  F961  1  0.217100  0.351700  0.927500  1
  F  F962  1  0.282900  0.648300  0.427500  1
  F  F963  1  0.782900  0.648300  0.072500  1
  F  F964  1  0.717100  0.351700  0.572500  1
  F  F965  1  0.300100  0.450700  0.956500  1
  F  F966  1  0.199900  0.549300  0.456500  1
  F  F967  1  0.699900  0.549300  0.043500  1
  F  F968  1  0.800100  0.450700  0.543500  1
  F  F969  1  0.075500  0.551400  0.218530  1
  F  F970  1  0.424500  0.448600  0.718530  1
  F  F971  1  0.924500  0.448600  0.781470  1
  F  F972  1  0.575500  0.551400  0.281470  1
  F  F973  1  0.096300  0.655200  0.186000  1
  F  F974  1  0.403700  0.344800  0.686000  1
  F  F975  1  0.903700  0.344800  0.814000  1
  F  F976  1  0.596300  0.655200  0.314000  1
  F  F977  1  0.034900  0.638800  0.241000  1
  F  F978  1  0.465100  0.361200  0.741000  1
  F  F979  1  0.965100  0.361200  0.759000  1
  F  F980  1  0.534900  0.638800  0.259000  1
  F  F981  1  0.977500  0.575900  0.190600  1
  F  F982  1  0.522500  0.424100  0.690600  1
  F  F983  1  0.022500  0.424100  0.809400  1
  F  F984  1  0.477500  0.575900  0.309400  1
  F  F985  1  0.420400  0.845300  0.227900  1
  F  F986  1  0.079600  0.154700  0.727900  1
  F  F987  1  0.579600  0.154700  0.772100  1
  F  F988  1  0.920400  0.845300  0.272100  1
  F  F989  1  0.398100  0.886800  0.163900  1
  F  F990  1  0.101900  0.113200  0.663900  1
  F  F991  1  0.601900  0.113200  0.836100  1
  F  F992  1  0.898100  0.886800  0.336100  1
  F  F993  1  0.387200  0.936600  0.210700  1
  F  F994  1  0.112800  0.063400  0.710700  1
  F  F995  1  0.612800  0.063400  0.789300  1
  F  F996  1  0.887200  0.936600  0.289300  1
  F  F997  1  0.507400  0.925300  0.194500  1
  F  F998  1  0.992600  0.074700  0.694500  1
  F  F999  1  0.492600  0.074700  0.805500  1
  F  F1000  1  0.007400  0.925300  0.305500  1
  F  F1001  1  0.337700  0.813900  0.972000  1
  F  F1002  1  0.162300  0.186100  0.472000  1
  F  F1003  1  0.662300  0.186100  0.028000  1
  F  F1004  1  0.837700  0.813900  0.528000  1
  F  F1005  1  0.258500  0.781300  0.012600  1
  F  F1006  1  0.241500  0.218700  0.512600  1
  F  F1007  1  0.741500  0.218700  0.987400  1
  F  F1008  1  0.758500  0.781300  0.487400  1
  F  F1009  1  0.311700  0.904900  0.997200  1
  F  F1010  1  0.188300  0.095100  0.497200  1
  F  F1011  1  0.688300  0.095100  0.002800  1
  F  F1012  1  0.811700  0.904900  0.502800  1
  F  F1013  1  0.387200  0.846800  0.027900  1
  F  F1014  1  0.112800  0.153200  0.527900  1
  F  F1015  1  0.612800  0.153200  0.972100  1
  F  F1016  1  0.887200  0.846800  0.472100  1
  F  F1017  1  0.255300  0.361100  0.951200  1
  F  F1018  1  0.244700  0.638900  0.451200  1
  F  F1019  1  0.744700  0.638900  0.048800  1
  F  F1020  1  0.755300  0.361100  0.548800  1
  F  F1021  1  0.205000  0.367900  0.905900  1
  F  F1022  1  0.295000  0.632100  0.405900  1
  F  F1023  1  0.795000  0.632100  0.094100  1
  F  F1024  1  0.705000  0.367900  0.594100  1
  F  F1025  1  0.301000  0.473000  0.949700  1
  F  F1026  1  0.199000  0.527000  0.449700  1
  F  F1027  1  0.699000  0.527000  0.050300  1
  F  F1028  1  0.801000  0.473000  0.550300  1
  F  F1029  1  0.076000  0.612000  0.167100  1
  F  F1030  1  0.424000  0.388000  0.667100  1
  F  F1031  1  0.924000  0.388000  0.832900  1
  F  F1032  1  0.576000  0.612000  0.332900  1
  F  F1033  1  0.098200  0.671200  0.219900  1
  F  F1034  1  0.401800  0.328800  0.719900  1
  F  F1035  1  0.901800  0.328800  0.780100  1
  F  F1036  1  0.598200  0.671200  0.280100  1
  F  F1037  1  0.975100  0.580200  0.208700  1
  F  F1038  1  0.524900  0.419800  0.708700  1
  F  F1039  1  0.024900  0.419800  0.791300  1
  F  F1040  1  0.475100  0.580200  0.291300  1
  F  F1041  1  0.384500  0.825200  0.208100  1
  F  F1042  1  0.115500  0.174800  0.708100  1
  F  F1043  1  0.615500  0.174800  0.791900  1
  F  F1044  1  0.884500  0.825200  0.291900  1
  F  F1045  1  0.461900  0.895600  0.167400  1
  F  F1046  1  0.038100  0.104400  0.667400  1
  F  F1047  1  0.538100  0.104400  0.832600  1
  F  F1048  1  0.961900  0.895600  0.332600  1
  F  F1049  1  0.414700  0.957800  0.212800  1
  F  F1050  1  0.085300  0.042200  0.712800  1
  F  F1051  1  0.585300  0.042200  0.787200  1
  F  F1052  1  0.914700  0.957800  0.287200  1
  F  F1053  1  0.489400  0.912000  0.225400  1
  F  F1054  1  0.010600  0.088000  0.725400  1
  F  F1055  1  0.510600  0.088000  0.774600  1
  F  F1056  1  0.989400  0.912000  0.274600  1
  F  F1057  1  0.242600  0.817400  0.004900  1
  F  F1058  1  0.257400  0.182600  0.504900  1
  F  F1059  1  0.757400  0.182600  0.995100  1
  F  F1060  1  0.742600  0.817400  0.495100  1
  F  F1061  1  0.355600  0.805000  0.988300  1
  F  F1062  1  0.144400  0.195000  0.488300  1
  F  F1063  1  0.644400  0.195000  0.011700  1
  F  F1064  1  0.855600  0.805000  0.511700  1
  F  F1065  1  0.347700  0.916600  0.994600  1
  F  F1066  1  0.152300  0.083400  0.494600  1
  F  F1067  1  0.652300  0.083400  0.005400  1
  F  F1068  1  0.847700  0.916600  0.505400  1
  F  F1069  1  0.330000  0.852100  0.044700  1
  F  F1070  1  0.170000  0.147900  0.544700  1
  F  F1071  1  0.670000  0.147900  0.955300  1
  F  F1072  1  0.830000  0.852100  0.455300  1
