
#######################################################################
#
#                 Cambridge Crystallographic Data Centre
#                                CCDC 
#
#######################################################################
#
# If this CIF has been generated from an entry in the Cambridge 
# Structural Database, then it will include bibliographic, chemical, 
# crystal, experimental, refinement or atomic coordinate data resulting 
# from the CCDC's data processing and validation procedures.
#
#######################################################################

data_HICCII
_chemical_formula_moiety         'C88 H68 N32 Zn4 4+,4(B1 F4 1-),8(H2 O1)'
_chemical_name_systematic        
'tetrakis(\m-2-phenyl-4-(2-((pyridin-2-yl)methylidene)hydrazinyl)-6-(((pyridin-2-yl)methylidene)diazan-1-id-1-yl)pyrimidine)-tetra-zinc(ii) tetrakis(tetrafluoroborate) octahydrate'
_symmetry_cell_setting           tetragonal
_symmetry_space_group_name_H-M   'P 4/n c c'
_symmetry_Int_Tables_number      130
_space_group_name_Hall           '-P 4a 2ac'
loop_
_symmetry_equiv_pos_site_id
_symmetry_equiv_pos_as_xyz
1 x,y,z
2 1/2-x,1/2-y,z
3 1/2-y,x,z
4 y,1/2-x,z
5 -x,1/2+y,1/2-z
6 1/2+x,-y,1/2-z
7 1/2+y,1/2+x,1/2-z
8 -y,-x,1/2-z
9 -x,-y,-z
10 1/2+x,1/2+y,-z
11 1/2+y,-x,-z
12 -y,1/2+x,-z
13 x,1/2-y,1/2+z
14 1/2-x,y,1/2+z
15 1/2-y,1/2-x,1/2+z
16 y,x,1/2+z
_cell_length_a                   21.6393(13)
_cell_length_b                   21.6393(13)
_cell_length_c                   21.1688(15)
_cell_angle_alpha                90
_cell_angle_beta                 90
_cell_angle_gamma                90
_cell_volume                     9912.49
_exptl_crystal_colour            red
_exptl_crystal_description       block
_cell_formula_units_Z            4
loop_
_atom_site_label
_atom_site_type_symbol
_atom_site_fract_x
_atom_site_fract_y
_atom_site_fract_z
Zn1 Zn 0.54645(2) 0.28736(2) 0.47444(2)
N1 N 0.70451(13) 0.39816(13) 0.54693(13)
N2 N 0.61229(14) 0.34032(14) 0.52874(13)
N3 N 0.78342(14) 0.44820(14) 0.62340(15)
N4 N 0.54917(15) 0.31027(17) 0.61285(15)
H1 H 0.5388 0.3090 0.6530
N5 N 0.73324(14) 0.42333(15) 0.65283(14)
N6 N 0.87105(14) 0.50372(14) 0.55723(14)
N7 N 0.51499(14) 0.28188(14) 0.56762(14)
N8 N 0.45793(14) 0.23205(15) 0.47124(15)
C1 C 0.60060(16) 0.34084(17) 0.59239(17)
C2 C 0.69317(16) 0.39739(16) 0.61131(16)
C3 C 0.67308(16) 0.37311(17) 0.44003(16)
C4 C 0.66303(16) 0.37026(15) 0.50978(16)
C5 C 0.82467(18) 0.47648(18) 0.65568(18)
H2 H 0.8220 0.4793 0.7004
C6 C 0.63955(17) 0.36934(17) 0.63462(16)
H3 H 0.6303 0.3700 0.6785
C7 C 0.43301(18) 0.22286(18) 0.5288(2)
C8 C 0.7075(2) 0.3284(2) 0.40939(19)
H4 H 0.7248 0.2951 0.4327
C9 C 0.64723(18) 0.42093(19) 0.40499(18)
H5 H 0.6231 0.4516 0.4255
C10 C 0.46676(17) 0.2502(2) 0.58172(18)
H6 H 0.4537 0.2447 0.6242
C11 C 0.87596(18) 0.50422(17) 0.62114(18)
C12 C 0.6565(2) 0.4242(2) 0.34018(19)
H7 H 0.6384 0.4567 0.3163
C13 C 0.91641(19) 0.52912(19) 0.5227(2)
H8 H 0.9128 0.5289 0.4780
C14 C 0.6923(2) 0.3798(2) 0.31046(19)
H9 H 0.7000 0.3826 0.2664
C15 C 0.7167(2) 0.3320(2) 0.3447(2)
H10 H 0.7402 0.3010 0.3239
C16 C 0.92675(19) 0.5302(2) 0.6516(2)
H11 H 0.9292 0.5303 0.6964
C17 C 0.42683(19) 0.21095(19) 0.4206(2)
H12 H 0.4444 0.2169 0.3799
C18 C 0.9681(2) 0.5555(2) 0.5498(2)
H13 H 0.9995 0.5732 0.5242
C19 C 0.3774(2) 0.1910(2) 0.5369(2)
H14 H 0.3616 0.1832 0.5780
C20 C 0.9734(2) 0.5557(2) 0.6158(2)
H15 H 1.0087 0.5732 0.6356
C21 C 0.3707(2) 0.1811(2) 0.4250(2)
H16 H 0.3493 0.1679 0.3881
C22 C 0.3463(2) 0.1711(2) 0.4843(2)
H17 H 0.3079 0.1503 0.4887
Zn1J Zn 0.78736(2) 0.45355(2) 0.52556(2)
N1J N 0.89816(13) 0.29549(13) 0.45307(13)
N2J N 0.84032(14) 0.38771(14) 0.47126(13)
N3J N 0.94820(14) 0.21658(14) 0.37660(15)
N4J N 0.81027(17) 0.45083(15) 0.38715(15)
H1J H 0.8090 0.4612 0.3470
N5J N 0.92333(15) 0.26676(14) 0.34717(14)
N6J N 1.00372(14) 0.12895(14) 0.44277(14)
N7J N 0.78188(14) 0.48501(14) 0.43238(14)
N8J N 0.73205(15) 0.54207(14) 0.52876(15)
C1J C 0.84084(17) 0.39940(16) 0.40761(17)
C2J C 0.89739(16) 0.30683(16) 0.38869(16)
C3J C 0.87311(17) 0.32692(16) 0.55997(16)
C4J C 0.87026(15) 0.33697(16) 0.49022(16)
C5J C 0.97648(18) 0.17533(18) 0.34432(18)
H2J H 0.9793 0.1780 0.2996
C6J C 0.86934(17) 0.36045(17) 0.36538(16)
H3J H 0.8700 0.3697 0.3215
C7J C 0.72286(18) 0.56699(18) 0.4712(2)
C8J C 0.8284(2) 0.2925(2) 0.59061(19)
H4J H 0.7951 0.2752 0.5673
C9J C 0.92093(19) 0.35277(18) 0.59501(18)
H5J H 0.9516 0.3769 0.5745
C10J C 0.7502(2) 0.53324(17) 0.41828(18)
H6J H 0.7447 0.5463 0.3758
C11J C 1.00422(17) 0.12404(18) 0.37886(18)
C12J C 0.9242(2) 0.3435(2) 0.65982(19)
H7J H 0.9567 0.3616 0.6837
C13J C 1.02912(19) 0.08359(19) 0.4773(2)
H8J H 1.0289 0.0872 0.5220
C14J C 0.8798(2) 0.3077(2) 0.68954(19)
H9J H 0.8826 0.3000 0.7336
C15J C 0.8320(2) 0.2833(2) 0.6553(2)
H10J H 0.8010 0.2598 0.6761
C16J C 1.0302(2) 0.07325(19) 0.3484(2)
H11J H 1.0303 0.0708 0.3036
C17J C 0.71095(19) 0.57317(19) 0.5794(2)
H12J H 0.7169 0.5556 0.6201
C18J C 1.0555(2) 0.0319(2) 0.4502(2)
H13J H 1.0732 0.0005 0.4758
C19J C 0.6910(2) 0.6226(2) 0.4631(2)
H14J H 0.6832 0.6384 0.4220
C20J C 1.0557(2) 0.0266(2) 0.3842(2)
H15J H 1.0732 -0.0087 0.3644
C21J C 0.6811(2) 0.6293(2) 0.5750(2)
H16J H 0.6679 0.6507 0.6119
C22J C 0.6711(2) 0.6537(2) 0.5157(2)
H17J H 0.6503 0.6921 0.5113
Zn1K Zn 0.71264(2) 0.04645(2) 0.52556(2)
N1K N 0.60184(13) 0.20451(13) 0.45307(13)
N2K N 0.65968(14) 0.11229(14) 0.47126(13)
N3K N 0.55180(14) 0.28342(14) 0.37660(15)
N4K N 0.68973(17) 0.04917(15) 0.38715(15)
H1K H 0.6910 0.0388 0.3470
N5K N 0.57667(15) 0.23324(14) 0.34717(14)
N6K N 0.49628(14) 0.37105(14) 0.44277(14)
N7K N 0.71812(14) 0.01499(14) 0.43238(14)
N8K N 0.76795(15) -0.04207(14) 0.52876(15)
C1K C 0.65916(17) 0.10060(16) 0.40761(17)
C2K C 0.60261(16) 0.19317(16) 0.38869(16)
C3K C 0.62689(17) 0.17308(16) 0.55997(16)
C4K C 0.62974(15) 0.16303(16) 0.49022(16)
C5K C 0.52352(18) 0.32467(18) 0.34432(18)
H2K H 0.5207 0.3220 0.2996
C6K C 0.63066(17) 0.13955(17) 0.36538(16)
H3K H 0.6300 0.1303 0.3215
C7K C 0.77714(18) -0.06699(18) 0.4712(2)
C8K C 0.6716(2) 0.2075(2) 0.59061(19)
H4K H 0.7049 0.2248 0.5673
C9K C 0.57907(19) 0.14723(18) 0.59501(18)
H5K H 0.5484 0.1231 0.5745
C10K C 0.7498(2) -0.03324(17) 0.41828(18)
H6K H 0.7553 -0.0463 0.3758
C11K C 0.49578(17) 0.37596(18) 0.37886(18)
C12K C 0.5758(2) 0.1565(2) 0.65982(19)
H7K H 0.5433 0.1384 0.6837
C13K C 0.47088(19) 0.41641(19) 0.4773(2)
H8K H 0.4711 0.4128 0.5220
C14K C 0.6202(2) 0.1923(2) 0.68954(19)
H9K H 0.6174 0.2000 0.7336
C15K C 0.6680(2) 0.2167(2) 0.6553(2)
H10K H 0.6990 0.2402 0.6761
C16K C 0.4698(2) 0.42675(19) 0.3484(2)
H11K H 0.4697 0.4292 0.3036
C17K C 0.78905(19) -0.07317(19) 0.5794(2)
H12K H 0.7831 -0.0556 0.6201
C18K C 0.4445(2) 0.4681(2) 0.4502(2)
H13K H 0.4268 0.4995 0.4758
C19K C 0.8090(2) -0.1226(2) 0.4631(2)
H14K H 0.8168 -0.1384 0.4220
C20K C 0.4443(2) 0.4734(2) 0.3842(2)
H15K H 0.4268 0.5087 0.3644
C21K C 0.8189(2) -0.1293(2) 0.5750(2)
H16K H 0.8321 -0.1507 0.6119
C22K C 0.8289(2) -0.1537(2) 0.5157(2)
H17K H 0.8497 -0.1921 0.5113
Zn1A Zn 0.95355(2) 0.21264(2) 0.47444(2)
N1A N 0.79549(13) 0.10184(13) 0.54693(13)
N2A N 0.88771(14) 0.15968(14) 0.52874(13)
N3A N 0.71658(14) 0.05180(14) 0.62340(15)
N4A N 0.95083(15) 0.18973(17) 0.61285(15)
H1A H 0.9612 0.1910 0.6530
N5A N 0.76676(14) 0.07667(15) 0.65283(14)
N6A N 0.62895(14) -0.00372(14) 0.55723(14)
N7A N 0.98501(14) 0.21812(14) 0.56762(14)
N8A N 1.04207(14) 0.26795(15) 0.47124(15)
C1A C 0.89940(16) 0.15916(17) 0.59239(17)
C2A C 0.80683(16) 0.10261(16) 0.61131(16)
C3A C 0.82692(16) 0.12689(17) 0.44003(16)
C4A C 0.83697(16) 0.12974(15) 0.50978(16)
C5A C 0.67533(18) 0.02352(18) 0.65568(18)
H2A H 0.6780 0.0207 0.7004
C6A C 0.86045(17) 0.13066(17) 0.63462(16)
H3A H 0.8697 0.1300 0.6785
C7A C 1.06699(18) 0.27714(18) 0.5288(2)
C8A C 0.7925(2) 0.1716(2) 0.40939(19)
H4A H 0.7752 0.2049 0.4327
C9A C 0.85277(18) 0.07907(19) 0.40499(18)
H5A H 0.8769 0.0484 0.4255
C10A C 1.03324(17) 0.2498(2) 0.58172(18)
H6A H 1.0463 0.2553 0.6242
C11A C 0.62404(18) -0.00422(17) 0.62114(18)
C12A C 0.8435(2) 0.0758(2) 0.34018(19)
H7A H 0.8616 0.0433 0.3163
C13A C 0.58359(19) -0.02912(19) 0.5227(2)
H8A H 0.5872 -0.0289 0.4780
C14A C 0.8077(2) 0.1202(2) 0.31046(19)
H9A H 0.8000 0.1174 0.2664
C15A C 0.7833(2) 0.1680(2) 0.3447(2)
H10A H 0.7598 0.1990 0.3239
C16A C 0.57325(19) -0.0302(2) 0.6516(2)
H11A H 0.5708 -0.0303 0.6964
C17A C 1.07317(19) 0.28905(19) 0.4206(2)
H12A H 1.0556 0.2831 0.3799
C18A C 0.5319(2) -0.0555(2) 0.5498(2)
H13A H 0.5005 -0.0732 0.5242
C19A C 1.1226(2) 0.3090(2) 0.5369(2)
H14A H 1.1384 0.3168 0.5780
C20A C 0.5266(2) -0.0557(2) 0.6158(2)
H15A H 0.4913 -0.0732 0.6356
C21A C 1.1293(2) 0.3189(2) 0.4250(2)
H16A H 1.1507 0.3321 0.3881
C22A C 1.1537(2) 0.3289(2) 0.4843(2)
H17A H 1.1921 0.3497 0.4887
O1 O 0.5212(2) 0.3104(2) 0.73759(16)
H18 H 0.488(2) 0.338(3) 0.749(3)
H19 H 0.551(2) 0.307(3) 0.771(2)
F1 F 0.3589(3) 0.4280(3) 0.6997(2)
F2 F 0.4240(3) 0.4540(3) 0.6158(2)
F3 F 0.4668(3) 0.4224(3) 0.7078(2)
F4 F 0.4138(3) 0.3554(2) 0.6477(3)
B1 B 0.4173(4) 0.4136(4) 0.6684(4)
loop_
_geom_bond_atom_site_label_1
_geom_bond_atom_site_label_2
_geom_bond_site_symmetry_1
_geom_bond_site_symmetry_2
Zn1 N2 1_555 1_555
N1 C2 1_555 1_555
N2 C1 1_555 1_555
N3 N5 1_555 1_555
N4 H1 1_555 1_555
N5 C2 1_555 1_555
N6 C11 1_555 1_555
N7 Zn1 1_555 1_555
N8 Zn1 1_555 1_555
C1 N4 1_555 1_555
C2 C6 1_555 1_555
C3 C4 1_555 1_555
C4 N1 1_555 1_555
C5 N3 1_555 1_555
H2 C5 1_555 1_555
C6 C1 1_555 1_555
H3 C6 1_555 1_555
C7 N8 1_555 1_555
C8 C3 1_555 1_555
H4 C8 1_555 1_555
C9 C3 1_555 1_555
H5 C9 1_555 1_555
C10 N7 1_555 1_555
H6 C10 1_555 1_555
C11 C5 1_555 1_555
C12 C9 1_555 1_555
H7 C12 1_555 1_555
C13 N6 1_555 1_555
H8 C13 1_555 1_555
C14 C12 1_555 1_555
H9 C14 1_555 1_555
C15 C8 1_555 1_555
H10 C15 1_555 1_555
C16 C11 1_555 1_555
H11 C16 1_555 1_555
C17 N8 1_555 1_555
H12 C17 1_555 1_555
C18 C13 1_555 1_555
H13 C18 1_555 1_555
C19 C7 1_555 1_555
H14 C19 1_555 1_555
C20 C16 1_555 1_555
H15 C20 1_555 1_555
C21 C17 1_555 1_555
H16 C21 1_555 1_555
C22 C19 1_555 1_555
H17 C22 1_555 1_555
O1 H18 1_555 1_555
H19 O1 1_555 1_555
F1 B1 1_555 1_555
F2 B1 1_555 1_555
F3 B1 1_555 1_555
F4 B1 1_555 1_555
Zn1J N1 1_555 1_555
N1J C2J 1_555 1_555
N2J Zn1J 1_555 1_555
N3J N5J 1_555 1_555
N4J H1J 1_555 1_555
N5J C2J 1_555 1_555
N6J C11J 1_555 1_555
N7J Zn1J 1_555 1_555
N8J Zn1J 1_555 1_555
C1J N2J 1_555 1_555
C2J C6J 1_555 1_555
C3J C4J 1_555 1_555
C4J N1J 1_555 1_555
C5J N3J 1_555 1_555
H2J C5J 1_555 1_555
C6J C1J 1_555 1_555
H3J C6J 1_555 1_555
C7J N8J 1_555 1_555
C8J C3J 1_555 1_555
H4J C8J 1_555 1_555
C9J C3J 1_555 1_555
H5J C9J 1_555 1_555
C10J N7J 1_555 1_555
H6J C10J 1_555 1_555
C11J C5J 1_555 1_555
C12J C9J 1_555 1_555
H7J C12J 1_555 1_555
C13J N6J 1_555 1_555
H8J C13J 1_555 1_555
C14J C12J 1_555 1_555
H9J C14J 1_555 1_555
C15J C8J 1_555 1_555
H10J C15J 1_555 1_555
C16J C11J 1_555 1_555
H11J C16J 1_555 1_555
C17J N8J 1_555 1_555
H12J C17J 1_555 1_555
C18J C13J 1_555 1_555
H13J C18J 1_555 1_555
C19J C7J 1_555 1_555
H14J C19J 1_555 1_555
C20J C16J 1_555 1_555
H15J C20J 1_555 1_555
C21J C17J 1_555 1_555
H16J C21J 1_555 1_555
C22J C19J 1_555 1_555
H17J C22J 1_555 1_555
Zn1K N2K 1_555 1_555
N1K Zn1 1_555 1_555
N2K C1K 1_555 1_555
N3K Zn1 1_555 1_555
N4K H1K 1_555 1_555
N5K N3K 1_555 1_555
N6K Zn1 1_555 1_555
N7K Zn1K 1_555 1_555
N8K Zn1K 1_555 1_555
C1K N4K 1_555 1_555
C2K N1K 1_555 1_555
C3K C4K 1_555 1_555
C4K N1K 1_555 1_555
C5K N3K 1_555 1_555
H2K C5K 1_555 1_555
C6K C1K 1_555 1_555
H3K C6K 1_555 1_555
C7K N8K 1_555 1_555
C8K C3K 1_555 1_555
H4K C8K 1_555 1_555
C9K C3K 1_555 1_555
H5K C9K 1_555 1_555
C10K N7K 1_555 1_555
H6K C10K 1_555 1_555
C11K N6K 1_555 1_555
C12K C9K 1_555 1_555
H7K C12K 1_555 1_555
C13K N6K 1_555 1_555
H8K C13K 1_555 1_555
C14K C12K 1_555 1_555
H9K C14K 1_555 1_555
C15K C8K 1_555 1_555
H10K C15K 1_555 1_555
C16K C11K 1_555 1_555
H11K C16K 1_555 1_555
C17K N8K 1_555 1_555
H12K C17K 1_555 1_555
C18K C13K 1_555 1_555
H13K C18K 1_555 1_555
C19K C7K 1_555 1_555
H14K C19K 1_555 1_555
C20K C16K 1_555 1_555
H15K C20K 1_555 1_555
C21K C17K 1_555 1_555
H16K C21K 1_555 1_555
C22K C19K 1_555 1_555
H17K C22K 1_555 1_555
Zn1A N1J 1_555 1_555
N1A Zn1K 1_555 1_555
N2A Zn1A 1_555 1_555
N3A Zn1K 1_555 1_555
N4A H1A 1_555 1_555
N5A N3A 1_555 1_555
N6A Zn1K 1_555 1_555
N7A Zn1A 1_555 1_555
N8A Zn1A 1_555 1_555
C1A N2A 1_555 1_555
C2A N1A 1_555 1_555
C3A C4A 1_555 1_555
C4A N1A 1_555 1_555
C5A N3A 1_555 1_555
H2A C5A 1_555 1_555
C6A C1A 1_555 1_555
H3A C6A 1_555 1_555
C7A N8A 1_555 1_555
C8A C3A 1_555 1_555
H4A C8A 1_555 1_555
C9A C3A 1_555 1_555
H5A C9A 1_555 1_555
C10A N7A 1_555 1_555
H6A C10A 1_555 1_555
C11A N6A 1_555 1_555
C12A C9A 1_555 1_555
H7A C12A 1_555 1_555
C13A N6A 1_555 1_555
H8A C13A 1_555 1_555
C14A C12A 1_555 1_555
H9A C14A 1_555 1_555
C15A C8A 1_555 1_555
H10A C15A 1_555 1_555
C16A C11A 1_555 1_555
H11A C16A 1_555 1_555
C17A N8A 1_555 1_555
H12A C17A 1_555 1_555
C18A C13A 1_555 1_555
H13A C18A 1_555 1_555
C19A C7A 1_555 1_555
H14A C19A 1_555 1_555
C20A C16A 1_555 1_555
H15A C20A 1_555 1_555
C21A C17A 1_555 1_555
H16A C21A 1_555 1_555
C22A C19A 1_555 1_555
H17A C22A 1_555 1_555
N2 C4 1_555 1_555
N3 Zn1J 1_555 1_555
N4 N7 1_555 1_555
N6 Zn1J 1_555 1_555
C7 C10 1_555 1_555
C14 C15 1_555 1_555
C18 C20 1_555 1_555
C21 C22 1_555 1_555
N2J C4J 1_555 1_555
N3J Zn1A 1_555 1_555
N4J N7J 1_555 1_555
N4J C1J 1_555 1_555
N6J Zn1A 1_555 1_555
C7J C10J 1_555 1_555
C14J C15J 1_555 1_555
C18J C20J 1_555 1_555
C21J C22J 1_555 1_555
N2K C4K 1_555 1_555
N4K N7K 1_555 1_555
N5K C2K 1_555 1_555
C2K C6K 1_555 1_555
C5K C11K 1_555 1_555
C7K C10K 1_555 1_555
C14K C15K 1_555 1_555
C18K C20K 1_555 1_555
C21K C22K 1_555 1_555
N2A C4A 1_555 1_555
N4A N7A 1_555 1_555
N4A C1A 1_555 1_555
N5A C2A 1_555 1_555
C2A C6A 1_555 1_555
C5A C11A 1_555 1_555
C7A C10A 1_555 1_555
C14A C15A 1_555 1_555
C18A C20A 1_555 1_555
C21A C22A 1_555 1_555

#END
