# generated using pymatgen
data_ZnBH19C22N8OF4
_symmetry_space_group_name_H-M   'P 1'
_cell_length_a   21.16880000
_cell_length_b   21.63930000
_cell_length_c   21.63930000
_cell_angle_alpha   90.00000000
_cell_angle_beta   90.00000000
_cell_angle_gamma   90.00000000
_symmetry_Int_Tables_number   1
_chemical_formula_structural   ZnBH19C22N8OF4
_chemical_formula_sum   'Zn16 B16 H304 C352 N128 O16 F64'
_cell_volume   9912.48756489
_cell_formula_units_Z   16
loop_
 _symmetry_equiv_pos_site_id
 _symmetry_equiv_pos_as_xyz
  1  'x, y, z'
loop_
 _atom_site_type_symbol
 _atom_site_label
 _atom_site_symmetry_multiplicity
 _atom_site_fract_x
 _atom_site_fract_y
 _atom_site_fract_z
 _atom_site_occupancy
  Zn  Zn1  1  0.474440  0.546450  0.287360  1.0
  Zn  Zn2  1  0.474440  0.953550  0.212640  1.0
  Zn  Zn3  1  0.474440  0.212640  0.546450  1.0
  Zn  Zn4  1  0.474440  0.287360  0.953550  1.0
  Zn  Zn5  1  0.025560  0.453550  0.787360  1.0
  Zn  Zn6  1  0.025560  0.046450  0.712640  1.0
  Zn  Zn7  1  0.025560  0.787360  0.046450  1.0
  Zn  Zn8  1  0.025560  0.712640  0.453550  1.0
  Zn  Zn9  1  0.525560  0.453550  0.712640  1.0
  Zn  Zn10  1  0.525560  0.046450  0.787360  1.0
  Zn  Zn11  1  0.525560  0.787360  0.453550  1.0
  Zn  Zn12  1  0.525560  0.712640  0.046450  1.0
  Zn  Zn13  1  0.974440  0.546450  0.212640  1.0
  Zn  Zn14  1  0.974440  0.953550  0.287360  1.0
  Zn  Zn15  1  0.974440  0.212640  0.953550  1.0
  Zn  Zn16  1  0.974440  0.287360  0.546450  1.0
  B  B17  1  0.668400  0.417300  0.413600  1
  B  B18  1  0.668400  0.082700  0.086400  1
  B  B19  1  0.668400  0.086400  0.417300  1
  B  B20  1  0.668400  0.413600  0.082700  1
  B  B21  1  0.831600  0.582700  0.913600  1
  B  B22  1  0.831600  0.917300  0.586400  1
  B  B23  1  0.831600  0.913600  0.917300  1
  B  B24  1  0.831600  0.586400  0.582700  1
  B  B25  1  0.331600  0.582700  0.586400  1
  B  B26  1  0.331600  0.917300  0.913600  1
  B  B27  1  0.331600  0.913600  0.582700  1
  B  B28  1  0.331600  0.586400  0.917300  1
  B  B29  1  0.168400  0.417300  0.086400  1
  B  B30  1  0.168400  0.082700  0.413600  1
  B  B31  1  0.168400  0.086400  0.082700  1
  B  B32  1  0.168400  0.413600  0.417300  1
  H  H33  1  0.749000  0.488000  0.338000  1
  H  H34  1  0.749000  0.012000  0.162000  1
  H  H35  1  0.749000  0.162000  0.488000  1
  H  H36  1  0.749000  0.338000  0.012000  1
  H  H37  1  0.751000  0.512000  0.838000  1
  H  H38  1  0.751000  0.988000  0.662000  1
  H  H39  1  0.751000  0.838000  0.988000  1
  H  H40  1  0.751000  0.662000  0.512000  1
  H  H41  1  0.251000  0.512000  0.662000  1
  H  H42  1  0.251000  0.988000  0.838000  1
  H  H43  1  0.251000  0.838000  0.512000  1
  H  H44  1  0.251000  0.662000  0.988000  1
  H  H45  1  0.249000  0.488000  0.162000  1
  H  H46  1  0.249000  0.012000  0.338000  1
  H  H47  1  0.249000  0.162000  0.012000  1
  H  H48  1  0.249000  0.338000  0.488000  1
  H  H49  1  0.771000  0.551000  0.307000  1
  H  H50  1  0.771000  0.949000  0.193000  1
  H  H51  1  0.771000  0.193000  0.551000  1
  H  H52  1  0.771000  0.307000  0.949000  1
  H  H53  1  0.729000  0.449000  0.807000  1
  H  H54  1  0.729000  0.051000  0.693000  1
  H  H55  1  0.729000  0.807000  0.051000  1
  H  H56  1  0.729000  0.693000  0.449000  1
  H  H57  1  0.229000  0.449000  0.693000  1
  H  H58  1  0.229000  0.051000  0.807000  1
  H  H59  1  0.229000  0.807000  0.449000  1
  H  H60  1  0.229000  0.693000  0.051000  1
  H  H61  1  0.271000  0.551000  0.193000  1
  H  H62  1  0.271000  0.949000  0.307000  1
  H  H63  1  0.271000  0.193000  0.949000  1
  H  H64  1  0.271000  0.307000  0.551000  1
  H  H65  1  0.653000  0.538800  0.309000  1.0
  H  H66  1  0.653000  0.961200  0.191000  1.0
  H  H67  1  0.653000  0.191000  0.538800  1.0
  H  H68  1  0.653000  0.309000  0.961200  1.0
  H  H69  1  0.847000  0.461200  0.809000  1.0
  H  H70  1  0.847000  0.038800  0.691000  1.0
  H  H71  1  0.847000  0.809000  0.038800  1.0
  H  H72  1  0.847000  0.691000  0.461200  1.0
  H  H73  1  0.347000  0.461200  0.691000  1.0
  H  H74  1  0.347000  0.038800  0.809000  1.0
  H  H75  1  0.347000  0.809000  0.461200  1.0
  H  H76  1  0.347000  0.691000  0.038800  1.0
  H  H77  1  0.153000  0.538800  0.191000  1.0
  H  H78  1  0.153000  0.961200  0.309000  1.0
  H  H79  1  0.153000  0.191000  0.961200  1.0
  H  H80  1  0.153000  0.309000  0.538800  1.0
  H  H81  1  0.700400  0.822000  0.479300  1.0
  H  H82  1  0.700400  0.678000  0.020700  1.0
  H  H83  1  0.700400  0.020700  0.822000  1.0
  H  H84  1  0.700400  0.479300  0.678000  1.0
  H  H85  1  0.799600  0.178000  0.979300  1.0
  H  H86  1  0.799600  0.322000  0.520700  1.0
  H  H87  1  0.799600  0.979300  0.322000  1.0
  H  H88  1  0.799600  0.520700  0.178000  1.0
  H  H89  1  0.299600  0.178000  0.520700  1.0
  H  H90  1  0.299600  0.322000  0.979300  1.0
  H  H91  1  0.299600  0.979300  0.178000  1.0
  H  H92  1  0.299600  0.520700  0.322000  1.0
  H  H93  1  0.200400  0.822000  0.020700  1.0
  H  H94  1  0.200400  0.678000  0.479300  1.0
  H  H95  1  0.200400  0.020700  0.678000  1.0
  H  H96  1  0.200400  0.479300  0.822000  1.0
  H  H97  1  0.678500  0.630300  0.370000  1.0
  H  H98  1  0.678500  0.869700  0.130000  1.0
  H  H99  1  0.678500  0.130000  0.630300  1.0
  H  H100  1  0.678500  0.370000  0.869700  1.0
  H  H101  1  0.821500  0.369700  0.870000  1.0
  H  H102  1  0.821500  0.130300  0.630000  1.0
  H  H103  1  0.821500  0.870000  0.130300  1.0
  H  H104  1  0.821500  0.630000  0.369700  1.0
  H  H105  1  0.321500  0.369700  0.630000  1.0
  H  H106  1  0.321500  0.130300  0.870000  1.0
  H  H107  1  0.321500  0.870000  0.369700  1.0
  H  H108  1  0.321500  0.630000  0.130300  1.0
  H  H109  1  0.178500  0.630300  0.130000  1.0
  H  H110  1  0.178500  0.869700  0.370000  1.0
  H  H111  1  0.178500  0.130000  0.869700  1.0
  H  H112  1  0.178500  0.370000  0.630300  1.0
  H  H113  1  0.432700  0.724800  0.295100  1.0
  H  H114  1  0.432700  0.775200  0.204900  1.0
  H  H115  1  0.432700  0.204900  0.724800  1.0
  H  H116  1  0.432700  0.295100  0.775200  1.0
  H  H117  1  0.067300  0.275200  0.795100  1.0
  H  H118  1  0.067300  0.224800  0.704900  1.0
  H  H119  1  0.067300  0.795100  0.224800  1.0
  H  H120  1  0.067300  0.704900  0.275200  1.0
  H  H121  1  0.567300  0.275200  0.704900  1.0
  H  H122  1  0.567300  0.224800  0.795100  1.0
  H  H123  1  0.567300  0.795100  0.275200  1.0
  H  H124  1  0.567300  0.704900  0.224800  1.0
  H  H125  1  0.932700  0.724800  0.204900  1.0
  H  H126  1  0.932700  0.775200  0.295100  1.0
  H  H127  1  0.932700  0.204900  0.775200  1.0
  H  H128  1  0.932700  0.295100  0.724800  1.0
  H  H129  1  0.425500  0.623100  0.451600  1.0
  H  H130  1  0.425500  0.876900  0.048400  1.0
  H  H131  1  0.425500  0.048400  0.623100  1.0
  H  H132  1  0.425500  0.451600  0.876900  1.0
  H  H133  1  0.074500  0.376900  0.951600  1.0
  H  H134  1  0.074500  0.123100  0.548400  1.0
  H  H135  1  0.074500  0.951600  0.123100  1.0
  H  H136  1  0.074500  0.548400  0.376900  1.0
  H  H137  1  0.574500  0.376900  0.548400  1.0
  H  H138  1  0.574500  0.123100  0.951600  1.0
  H  H139  1  0.574500  0.951600  0.376900  1.0
  H  H140  1  0.574500  0.548400  0.123100  1.0
  H  H141  1  0.925500  0.623100  0.048400  1.0
  H  H142  1  0.925500  0.876900  0.451600  1.0
  H  H143  1  0.925500  0.048400  0.876900  1.0
  H  H144  1  0.925500  0.451600  0.623100  1.0
  H  H145  1  0.624200  0.453700  0.244700  1.0
  H  H146  1  0.624200  0.046300  0.255300  1.0
  H  H147  1  0.624200  0.255300  0.453700  1.0
  H  H148  1  0.624200  0.244700  0.046300  1.0
  H  H149  1  0.875800  0.546300  0.744700  1.0
  H  H150  1  0.875800  0.953700  0.755300  1.0
  H  H151  1  0.875800  0.744700  0.953700  1.0
  H  H152  1  0.875800  0.755300  0.546300  1.0
  H  H153  1  0.375800  0.546300  0.755300  1.0
  H  H154  1  0.375800  0.953700  0.744700  1.0
  H  H155  1  0.375800  0.744700  0.546300  1.0
  H  H156  1  0.375800  0.755300  0.953700  1.0
  H  H157  1  0.124200  0.453700  0.255300  1.0
  H  H158  1  0.124200  0.046300  0.244700  1.0
  H  H159  1  0.124200  0.255300  0.046300  1.0
  H  H160  1  0.124200  0.244700  0.453700  1.0
  H  H161  1  0.316300  0.638400  0.456700  1.0
  H  H162  1  0.316300  0.861600  0.043300  1.0
  H  H163  1  0.316300  0.043300  0.638400  1.0
  H  H164  1  0.316300  0.456700  0.861600  1.0
  H  H165  1  0.183700  0.361600  0.956700  1.0
  H  H166  1  0.183700  0.138400  0.543300  1.0
  H  H167  1  0.183700  0.956700  0.138400  1.0
  H  H168  1  0.183700  0.543300  0.361600  1.0
  H  H169  1  0.683700  0.361600  0.543300  1.0
  H  H170  1  0.683700  0.138400  0.956700  1.0
  H  H171  1  0.683700  0.956700  0.361600  1.0
  H  H172  1  0.683700  0.543300  0.138400  1.0
  H  H173  1  0.816300  0.638400  0.043300  1.0
  H  H174  1  0.816300  0.861600  0.456700  1.0
  H  H175  1  0.816300  0.043300  0.861600  1.0
  H  H176  1  0.816300  0.456700  0.638400  1.0
  H  H177  1  0.478000  0.912800  0.528900  1.0
  H  H178  1  0.478000  0.587200  0.971100  1.0
  H  H179  1  0.478000  0.971100  0.912800  1.0
  H  H180  1  0.478000  0.528900  0.587200  1.0
  H  H181  1  0.022000  0.087200  0.028900  1.0
  H  H182  1  0.022000  0.412800  0.471100  1.0
  H  H183  1  0.022000  0.028900  0.412800  1.0
  H  H184  1  0.022000  0.471100  0.087200  1.0
  H  H185  1  0.522000  0.087200  0.471100  1.0
  H  H186  1  0.522000  0.412800  0.028900  1.0
  H  H187  1  0.522000  0.028900  0.087200  1.0
  H  H188  1  0.522000  0.471100  0.412800  1.0
  H  H189  1  0.978000  0.912800  0.971100  1.0
  H  H190  1  0.978000  0.587200  0.528900  1.0
  H  H191  1  0.978000  0.971100  0.587200  1.0
  H  H192  1  0.978000  0.528900  0.912800  1.0
  H  H193  1  0.266400  0.700000  0.382600  1.0
  H  H194  1  0.266400  0.800000  0.117400  1.0
  H  H195  1  0.266400  0.117400  0.700000  1.0
  H  H196  1  0.266400  0.382600  0.800000  1.0
  H  H197  1  0.233600  0.300000  0.882600  1.0
  H  H198  1  0.233600  0.200000  0.617400  1.0
  H  H199  1  0.233600  0.882600  0.200000  1.0
  H  H200  1  0.233600  0.617400  0.300000  1.0
  H  H201  1  0.733600  0.300000  0.617400  1.0
  H  H202  1  0.733600  0.200000  0.882600  1.0
  H  H203  1  0.733600  0.882600  0.300000  1.0
  H  H204  1  0.733600  0.617400  0.200000  1.0
  H  H205  1  0.766400  0.700000  0.117400  1.0
  H  H206  1  0.766400  0.800000  0.382600  1.0
  H  H207  1  0.766400  0.117400  0.800000  1.0
  H  H208  1  0.766400  0.382600  0.700000  1.0
  H  H209  1  0.323900  0.740200  0.301000  1.0
  H  H210  1  0.323900  0.759800  0.199000  1.0
  H  H211  1  0.323900  0.199000  0.740200  1.0
  H  H212  1  0.323900  0.301000  0.759800  1.0
  H  H213  1  0.176100  0.259800  0.801000  1.0
  H  H214  1  0.176100  0.240200  0.699000  1.0
  H  H215  1  0.176100  0.801000  0.240200  1.0
  H  H216  1  0.176100  0.699000  0.259800  1.0
  H  H217  1  0.676100  0.259800  0.699000  1.0
  H  H218  1  0.676100  0.240200  0.801000  1.0
  H  H219  1  0.676100  0.801000  0.259800  1.0
  H  H220  1  0.676100  0.699000  0.240200  1.0
  H  H221  1  0.823900  0.740200  0.199000  1.0
  H  H222  1  0.823900  0.759800  0.301000  1.0
  H  H223  1  0.823900  0.199000  0.759800  1.0
  H  H224  1  0.823900  0.301000  0.740200  1.0
  H  H225  1  0.696400  0.929200  0.530300  1.0
  H  H226  1  0.696400  0.570800  0.969700  1.0
  H  H227  1  0.696400  0.969700  0.929200  1.0
  H  H228  1  0.696400  0.530300  0.570800  1.0
  H  H229  1  0.803600  0.070800  0.030300  1.0
  H  H230  1  0.803600  0.429200  0.469700  1.0
  H  H231  1  0.803600  0.030300  0.429200  1.0
  H  H232  1  0.803600  0.469700  0.070800  1.0
  H  H233  1  0.303600  0.070800  0.469700  1.0
  H  H234  1  0.303600  0.429200  0.030300  1.0
  H  H235  1  0.303600  0.030300  0.070800  1.0
  H  H236  1  0.303600  0.469700  0.429200  1.0
  H  H237  1  0.196400  0.929200  0.969700  1.0
  H  H238  1  0.196400  0.570800  0.530300  1.0
  H  H239  1  0.196400  0.969700  0.570800  1.0
  H  H240  1  0.196400  0.530300  0.929200  1.0
  H  H241  1  0.379900  0.444400  0.216900  1.0
  H  H242  1  0.379900  0.055600  0.283100  1.0
  H  H243  1  0.379900  0.283100  0.444400  1.0
  H  H244  1  0.379900  0.216900  0.055600  1.0
  H  H245  1  0.120100  0.555600  0.716900  1.0
  H  H246  1  0.120100  0.944400  0.783100  1.0
  H  H247  1  0.120100  0.716900  0.944400  1.0
  H  H248  1  0.120100  0.783100  0.555600  1.0
  H  H249  1  0.620100  0.555600  0.783100  1.0
  H  H250  1  0.620100  0.944400  0.716900  1.0
  H  H251  1  0.620100  0.716900  0.555600  1.0
  H  H252  1  0.620100  0.783100  0.944400  1.0
  H  H253  1  0.879900  0.444400  0.283100  1.0
  H  H254  1  0.879900  0.055600  0.216900  1.0
  H  H255  1  0.879900  0.283100  0.055600  1.0
  H  H256  1  0.879900  0.216900  0.444400  1.0
  H  H257  1  0.524200  0.999500  0.573200  1.0
  H  H258  1  0.524200  0.500500  0.926800  1.0
  H  H259  1  0.524200  0.926800  0.999500  1.0
  H  H260  1  0.524200  0.573200  0.500500  1.0
  H  H261  1  0.975800  0.000500  0.073200  1.0
  H  H262  1  0.975800  0.499500  0.426800  1.0
  H  H263  1  0.975800  0.073200  0.499500  1.0
  H  H264  1  0.975800  0.426800  0.000500  1.0
  H  H265  1  0.475800  0.000500  0.426800  1.0
  H  H266  1  0.475800  0.499500  0.073200  1.0
  H  H267  1  0.475800  0.073200  0.000500  1.0
  H  H268  1  0.475800  0.426800  0.499500  1.0
  H  H269  1  0.024200  0.999500  0.926800  1.0
  H  H270  1  0.024200  0.500500  0.573200  1.0
  H  H271  1  0.024200  0.926800  0.500500  1.0
  H  H272  1  0.024200  0.573200  0.999500  1.0
  H  H273  1  0.578000  0.361600  0.183200  1.0
  H  H274  1  0.578000  0.138400  0.316800  1.0
  H  H275  1  0.578000  0.316800  0.361600  1.0
  H  H276  1  0.578000  0.183200  0.138400  1.0
  H  H277  1  0.922000  0.638400  0.683200  1.0
  H  H278  1  0.922000  0.861600  0.816800  1.0
  H  H279  1  0.922000  0.683200  0.861600  1.0
  H  H280  1  0.922000  0.816800  0.638400  1.0
  H  H281  1  0.422000  0.638400  0.816800  1.0
  H  H282  1  0.422000  0.861600  0.683200  1.0
  H  H283  1  0.422000  0.683200  0.638400  1.0
  H  H284  1  0.422000  0.816800  0.861600  1.0
  H  H285  1  0.078000  0.361600  0.316800  1.0
  H  H286  1  0.078000  0.138400  0.183200  1.0
  H  H287  1  0.078000  0.316800  0.138400  1.0
  H  H288  1  0.078000  0.183200  0.361600  1.0
  H  H289  1  0.635600  0.008700  0.573200  1.0
  H  H290  1  0.635600  0.491300  0.926800  1.0
  H  H291  1  0.635600  0.926800  0.008700  1.0
  H  H292  1  0.635600  0.573200  0.491300  1.0
  H  H293  1  0.864400  0.991300  0.073200  1.0
  H  H294  1  0.864400  0.508700  0.426800  1.0
  H  H295  1  0.864400  0.073200  0.508700  1.0
  H  H296  1  0.864400  0.426800  0.991300  1.0
  H  H297  1  0.364400  0.991300  0.426800  1.0
  H  H298  1  0.364400  0.508700  0.073200  1.0
  H  H299  1  0.364400  0.073200  0.991300  1.0
  H  H300  1  0.364400  0.426800  0.508700  1.0
  H  H301  1  0.135600  0.008700  0.926800  1.0
  H  H302  1  0.135600  0.491300  0.573200  1.0
  H  H303  1  0.135600  0.926800  0.491300  1.0
  H  H304  1  0.135600  0.573200  0.008700  1.0
  H  H305  1  0.388100  0.349300  0.167900  1.0
  H  H306  1  0.388100  0.150700  0.332100  1.0
  H  H307  1  0.388100  0.332100  0.349300  1.0
  H  H308  1  0.388100  0.167900  0.150700  1.0
  H  H309  1  0.111900  0.650700  0.667900  1.0
  H  H310  1  0.111900  0.849300  0.832100  1.0
  H  H311  1  0.111900  0.667900  0.849300  1.0
  H  H312  1  0.111900  0.832100  0.650700  1.0
  H  H313  1  0.611900  0.650700  0.832100  1.0
  H  H314  1  0.611900  0.849300  0.667900  1.0
  H  H315  1  0.611900  0.667900  0.650700  1.0
  H  H316  1  0.611900  0.832100  0.849300  1.0
  H  H317  1  0.888100  0.349300  0.332100  1.0
  H  H318  1  0.888100  0.150700  0.167900  1.0
  H  H319  1  0.888100  0.332100  0.150700  1.0
  H  H320  1  0.888100  0.167900  0.349300  1.0
  H  H321  1  0.488700  0.307900  0.150300  1.0
  H  H322  1  0.488700  0.192100  0.349700  1.0
  H  H323  1  0.488700  0.349700  0.307900  1.0
  H  H324  1  0.488700  0.150300  0.192100  1.0
  H  H325  1  0.011300  0.692100  0.650300  1.0
  H  H326  1  0.011300  0.807900  0.849700  1.0
  H  H327  1  0.011300  0.650300  0.807900  1.0
  H  H328  1  0.011300  0.849700  0.692100  1.0
  H  H329  1  0.511300  0.692100  0.849700  1.0
  H  H330  1  0.511300  0.807900  0.650300  1.0
  H  H331  1  0.511300  0.650300  0.692100  1.0
  H  H332  1  0.511300  0.849700  0.807900  1.0
  H  H333  1  0.988700  0.307900  0.349700  1.0
  H  H334  1  0.988700  0.192100  0.150300  1.0
  H  H335  1  0.988700  0.349700  0.192100  1.0
  H  H336  1  0.988700  0.150300  0.307900  1.0
  C  C337  1  0.592390  0.600600  0.340840  1.0
  C  C338  1  0.592390  0.899400  0.159160  1.0
  C  C339  1  0.592390  0.159160  0.600600  1.0
  C  C340  1  0.592390  0.340840  0.899400  1.0
  C  C341  1  0.907610  0.399400  0.840840  1.0
  C  C342  1  0.907610  0.100600  0.659160  1.0
  C  C343  1  0.907610  0.840840  0.100600  1.0
  C  C344  1  0.907610  0.659160  0.399400  1.0
  C  C345  1  0.407610  0.399400  0.659160  1.0
  C  C346  1  0.407610  0.100600  0.840840  1.0
  C  C347  1  0.407610  0.840840  0.399400  1.0
  C  C348  1  0.407610  0.659160  0.100600  1.0
  C  C349  1  0.092390  0.600600  0.159160  1.0
  C  C350  1  0.092390  0.899400  0.340840  1.0
  C  C351  1  0.092390  0.159160  0.899400  1.0
  C  C352  1  0.092390  0.340840  0.600600  1.0
  C  C353  1  0.611310  0.693170  0.397390  1.0
  C  C354  1  0.611310  0.806830  0.102610  1.0
  C  C355  1  0.611310  0.102610  0.693170  1.0
  C  C356  1  0.611310  0.397390  0.806830  1.0
  C  C357  1  0.888690  0.306830  0.897390  1.0
  C  C358  1  0.888690  0.193170  0.602610  1.0
  C  C359  1  0.888690  0.897390  0.193170  1.0
  C  C360  1  0.888690  0.602610  0.306830  1.0
  C  C361  1  0.388690  0.306830  0.602610  1.0
  C  C362  1  0.388690  0.193170  0.897390  1.0
  C  C363  1  0.388690  0.897390  0.306830  1.0
  C  C364  1  0.388690  0.602610  0.193170  1.0
  C  C365  1  0.111310  0.693170  0.102610  1.0
  C  C366  1  0.111310  0.806830  0.397390  1.0
  C  C367  1  0.111310  0.102610  0.806830  1.0
  C  C368  1  0.111310  0.397390  0.693170  1.0
  C  C369  1  0.440030  0.673080  0.373110  1.0
  C  C370  1  0.440030  0.826920  0.126890  1.0
  C  C371  1  0.440030  0.126890  0.673080  1.0
  C  C372  1  0.440030  0.373110  0.826920  1.0
  C  C373  1  0.059970  0.326920  0.873110  1.0
  C  C374  1  0.059970  0.173080  0.626890  1.0
  C  C375  1  0.059970  0.873110  0.173080  1.0
  C  C376  1  0.059970  0.626890  0.326920  1.0
  C  C377  1  0.559970  0.326920  0.626890  1.0
  C  C378  1  0.559970  0.173080  0.873110  1.0
  C  C379  1  0.559970  0.873110  0.326920  1.0
  C  C380  1  0.559970  0.626890  0.173080  1.0
  C  C381  1  0.940030  0.673080  0.126890  1.0
  C  C382  1  0.940030  0.826920  0.373110  1.0
  C  C383  1  0.940030  0.126890  0.826920  1.0
  C  C384  1  0.940030  0.373110  0.673080  1.0
  C  C385  1  0.509780  0.663030  0.370260  1.0
  C  C386  1  0.509780  0.836970  0.129740  1.0
  C  C387  1  0.509780  0.129740  0.663030  1.0
  C  C388  1  0.509780  0.370260  0.836970  1.0
  C  C389  1  0.990220  0.336970  0.870260  1.0
  C  C390  1  0.990220  0.163030  0.629740  1.0
  C  C391  1  0.990220  0.870260  0.163030  1.0
  C  C392  1  0.990220  0.629740  0.336970  1.0
  C  C393  1  0.490220  0.336970  0.629740  1.0
  C  C394  1  0.490220  0.163030  0.870260  1.0
  C  C395  1  0.490220  0.870260  0.336970  1.0
  C  C396  1  0.490220  0.629740  0.163030  1.0
  C  C397  1  0.009780  0.663030  0.129740  1.0
  C  C398  1  0.009780  0.836970  0.370260  1.0
  C  C399  1  0.009780  0.129740  0.836970  1.0
  C  C400  1  0.009780  0.370260  0.663030  1.0
  C  C401  1  0.655680  0.824670  0.476480  1.0
  C  C402  1  0.655680  0.675330  0.023520  1.0
  C  C403  1  0.655680  0.023520  0.824670  1.0
  C  C404  1  0.655680  0.476480  0.675330  1.0
  C  C405  1  0.844320  0.175330  0.976480  1.0
  C  C406  1  0.844320  0.324670  0.523520  1.0
  C  C407  1  0.844320  0.976480  0.324670  1.0
  C  C408  1  0.844320  0.523520  0.175330  1.0
  C  C409  1  0.344320  0.175330  0.523520  1.0
  C  C410  1  0.344320  0.324670  0.976480  1.0
  C  C411  1  0.344320  0.976480  0.175330  1.0
  C  C412  1  0.344320  0.523520  0.324670  1.0
  C  C413  1  0.155680  0.824670  0.023520  1.0
  C  C414  1  0.155680  0.675330  0.476480  1.0
  C  C415  1  0.155680  0.023520  0.675330  1.0
  C  C416  1  0.155680  0.476480  0.824670  1.0
  C  C417  1  0.634620  0.639550  0.369340  1.0
  C  C418  1  0.634620  0.860450  0.130660  1.0
  C  C419  1  0.634620  0.130660  0.639550  1.0
  C  C420  1  0.634620  0.369340  0.860450  1.0
  C  C421  1  0.865380  0.360450  0.869340  1.0
  C  C422  1  0.865380  0.139550  0.630660  1.0
  C  C423  1  0.865380  0.869340  0.139550  1.0
  C  C424  1  0.865380  0.630660  0.360450  1.0
  C  C425  1  0.365380  0.360450  0.630660  1.0
  C  C426  1  0.365380  0.139550  0.869340  1.0
  C  C427  1  0.365380  0.869340  0.360450  1.0
  C  C428  1  0.365380  0.630660  0.139550  1.0
  C  C429  1  0.134620  0.639550  0.130660  1.0
  C  C430  1  0.134620  0.860450  0.369340  1.0
  C  C431  1  0.134620  0.130660  0.860450  1.0
  C  C432  1  0.134620  0.369340  0.639550  1.0
  C  C433  1  0.528800  0.433010  0.222860  1.0
  C  C434  1  0.528800  0.066990  0.277140  1.0
  C  C435  1  0.528800  0.277140  0.433010  1.0
  C  C436  1  0.528800  0.222860  0.066990  1.0
  C  C437  1  0.971200  0.566990  0.722860  1.0
  C  C438  1  0.971200  0.933010  0.777140  1.0
  C  C439  1  0.971200  0.722860  0.933010  1.0
  C  C440  1  0.971200  0.777140  0.566990  1.0
  C  C441  1  0.471200  0.566990  0.777140  1.0
  C  C442  1  0.471200  0.933010  0.722860  1.0
  C  C443  1  0.471200  0.722860  0.566990  1.0
  C  C444  1  0.471200  0.777140  0.933010  1.0
  C  C445  1  0.028800  0.433010  0.277140  1.0
  C  C446  1  0.028800  0.066990  0.222860  1.0
  C  C447  1  0.028800  0.277140  0.066990  1.0
  C  C448  1  0.028800  0.222860  0.433010  1.0
  C  C449  1  0.409390  0.707500  0.328400  1.0
  C  C450  1  0.409390  0.792500  0.171600  1.0
  C  C451  1  0.409390  0.171600  0.707500  1.0
  C  C452  1  0.409390  0.328400  0.792500  1.0
  C  C453  1  0.090610  0.292500  0.828400  1.0
  C  C454  1  0.090610  0.207500  0.671600  1.0
  C  C455  1  0.090610  0.828400  0.207500  1.0
  C  C456  1  0.090610  0.671600  0.292500  1.0
  C  C457  1  0.590610  0.292500  0.671600  1.0
  C  C458  1  0.590610  0.207500  0.828400  1.0
  C  C459  1  0.590610  0.828400  0.292500  1.0
  C  C460  1  0.590610  0.671600  0.207500  1.0
  C  C461  1  0.909390  0.707500  0.171600  1.0
  C  C462  1  0.909390  0.792500  0.328400  1.0
  C  C463  1  0.909390  0.171600  0.792500  1.0
  C  C464  1  0.909390  0.328400  0.707500  1.0
  C  C465  1  0.404990  0.647230  0.420930  1.0
  C  C466  1  0.404990  0.852770  0.079070  1.0
  C  C467  1  0.404990  0.079070  0.647230  1.0
  C  C468  1  0.404990  0.420930  0.852770  1.0
  C  C469  1  0.095010  0.352770  0.920930  1.0
  C  C470  1  0.095010  0.147230  0.579070  1.0
  C  C471  1  0.095010  0.920930  0.147230  1.0
  C  C472  1  0.095010  0.579070  0.352770  1.0
  C  C473  1  0.595010  0.352770  0.579070  1.0
  C  C474  1  0.595010  0.147230  0.920930  1.0
  C  C475  1  0.595010  0.920930  0.352770  1.0
  C  C476  1  0.595010  0.579070  0.147230  1.0
  C  C477  1  0.904990  0.647230  0.079070  1.0
  C  C478  1  0.904990  0.852770  0.420930  1.0
  C  C479  1  0.904990  0.079070  0.852770  1.0
  C  C480  1  0.904990  0.420930  0.647230  1.0
  C  C481  1  0.581720  0.466760  0.250200  1.0
  C  C482  1  0.581720  0.033240  0.249800  1.0
  C  C483  1  0.581720  0.249800  0.466760  1.0
  C  C484  1  0.581720  0.250200  0.033240  1.0
  C  C485  1  0.918280  0.533240  0.750200  1.0
  C  C486  1  0.918280  0.966760  0.749800  1.0
  C  C487  1  0.918280  0.750200  0.966760  1.0
  C  C488  1  0.918280  0.749800  0.533240  1.0
  C  C489  1  0.418280  0.533240  0.749800  1.0
  C  C490  1  0.418280  0.966760  0.750200  1.0
  C  C491  1  0.418280  0.750200  0.533240  1.0
  C  C492  1  0.418280  0.749800  0.966760  1.0
  C  C493  1  0.081720  0.466760  0.249800  1.0
  C  C494  1  0.081720  0.033240  0.250200  1.0
  C  C495  1  0.081720  0.249800  0.033240  1.0
  C  C496  1  0.081720  0.250200  0.466760  1.0
  C  C497  1  0.621140  0.875960  0.504220  1.0
  C  C498  1  0.621140  0.624040  0.995780  1.0
  C  C499  1  0.621140  0.995780  0.875960  1.0
  C  C500  1  0.621140  0.504220  0.624040  1.0
  C  C501  1  0.878860  0.124040  0.004220  1.0
  C  C502  1  0.878860  0.375960  0.495780  1.0
  C  C503  1  0.878860  0.004220  0.375960  1.0
  C  C504  1  0.878860  0.495780  0.124040  1.0
  C  C505  1  0.378860  0.124040  0.495780  1.0
  C  C506  1  0.378860  0.375960  0.004220  1.0
  C  C507  1  0.378860  0.004220  0.124040  1.0
  C  C508  1  0.378860  0.495780  0.375960  1.0
  C  C509  1  0.121140  0.875960  0.995780  1.0
  C  C510  1  0.121140  0.624040  0.504220  1.0
  C  C511  1  0.121140  0.995780  0.624040  1.0
  C  C512  1  0.121140  0.504220  0.875960  1.0
  C  C513  1  0.340180  0.656500  0.424200  1.0
  C  C514  1  0.340180  0.843500  0.075800  1.0
  C  C515  1  0.340180  0.075800  0.656500  1.0
  C  C516  1  0.340180  0.424200  0.843500  1.0
  C  C517  1  0.159820  0.343500  0.924200  1.0
  C  C518  1  0.159820  0.156500  0.575800  1.0
  C  C519  1  0.159820  0.924200  0.156500  1.0
  C  C520  1  0.159820  0.575800  0.343500  1.0
  C  C521  1  0.659820  0.343500  0.575800  1.0
  C  C522  1  0.659820  0.156500  0.924200  1.0
  C  C523  1  0.659820  0.924200  0.343500  1.0
  C  C524  1  0.659820  0.575800  0.156500  1.0
  C  C525  1  0.840180  0.656500  0.075800  1.0
  C  C526  1  0.840180  0.843500  0.424200  1.0
  C  C527  1  0.840180  0.075800  0.843500  1.0
  C  C528  1  0.840180  0.424200  0.656500  1.0
  C  C529  1  0.522700  0.916410  0.529120  1.0
  C  C530  1  0.522700  0.583590  0.970880  1.0
  C  C531  1  0.522700  0.970880  0.916410  1.0
  C  C532  1  0.522700  0.529120  0.583590  1.0
  C  C533  1  0.977300  0.083590  0.029120  1.0
  C  C534  1  0.977300  0.416410  0.470880  1.0
  C  C535  1  0.977300  0.029120  0.416410  1.0
  C  C536  1  0.977300  0.470880  0.083590  1.0
  C  C537  1  0.477300  0.083590  0.470880  1.0
  C  C538  1  0.477300  0.416410  0.029120  1.0
  C  C539  1  0.477300  0.029120  0.083590  1.0
  C  C540  1  0.477300  0.470880  0.416410  1.0
  C  C541  1  0.022700  0.916410  0.970880  1.0
  C  C542  1  0.022700  0.583590  0.529120  1.0
  C  C543  1  0.022700  0.970880  0.583590  1.0
  C  C544  1  0.022700  0.529120  0.916410  1.0
  C  C545  1  0.310460  0.692300  0.379800  1.0
  C  C546  1  0.310460  0.807700  0.120200  1.0
  C  C547  1  0.310460  0.120200  0.692300  1.0
  C  C548  1  0.310460  0.379800  0.807700  1.0
  C  C549  1  0.189540  0.307700  0.879800  1.0
  C  C550  1  0.189540  0.192300  0.620200  1.0
  C  C551  1  0.189540  0.879800  0.192300  1.0
  C  C552  1  0.189540  0.620200  0.307700  1.0
  C  C553  1  0.689540  0.307700  0.620200  1.0
  C  C554  1  0.689540  0.192300  0.879800  1.0
  C  C555  1  0.689540  0.879800  0.307700  1.0
  C  C556  1  0.689540  0.620200  0.192300  1.0
  C  C557  1  0.810460  0.692300  0.120200  1.0
  C  C558  1  0.810460  0.807700  0.379800  1.0
  C  C559  1  0.810460  0.120200  0.807700  1.0
  C  C560  1  0.810460  0.379800  0.692300  1.0
  C  C561  1  0.344700  0.716700  0.332000  1.0
  C  C562  1  0.344700  0.783300  0.168000  1.0
  C  C563  1  0.344700  0.168000  0.716700  1.0
  C  C564  1  0.344700  0.332000  0.783300  1.0
  C  C565  1  0.155300  0.283300  0.832000  1.0
  C  C566  1  0.155300  0.216700  0.668000  1.0
  C  C567  1  0.155300  0.832000  0.216700  1.0
  C  C568  1  0.155300  0.668000  0.283300  1.0
  C  C569  1  0.655300  0.283300  0.668000  1.0
  C  C570  1  0.655300  0.216700  0.832000  1.0
  C  C571  1  0.655300  0.832000  0.283300  1.0
  C  C572  1  0.655300  0.668000  0.216700  1.0
  C  C573  1  0.844700  0.716700  0.168000  1.0
  C  C574  1  0.844700  0.783300  0.332000  1.0
  C  C575  1  0.844700  0.168000  0.783300  1.0
  C  C576  1  0.844700  0.332000  0.716700  1.0
  C  C577  1  0.651600  0.926750  0.530200  1.0
  C  C578  1  0.651600  0.573250  0.969800  1.0
  C  C579  1  0.651600  0.969800  0.926750  1.0
  C  C580  1  0.651600  0.530200  0.573250  1.0
  C  C581  1  0.848400  0.073250  0.030200  1.0
  C  C582  1  0.848400  0.426750  0.469800  1.0
  C  C583  1  0.848400  0.030200  0.426750  1.0
  C  C584  1  0.848400  0.469800  0.073250  1.0
  C  C585  1  0.348400  0.073250  0.469800  1.0
  C  C586  1  0.348400  0.426750  0.030200  1.0
  C  C587  1  0.348400  0.030200  0.073250  1.0
  C  C588  1  0.348400  0.469800  0.426750  1.0
  C  C589  1  0.151600  0.926750  0.969800  1.0
  C  C590  1  0.151600  0.573250  0.530200  1.0
  C  C591  1  0.151600  0.969800  0.573250  1.0
  C  C592  1  0.151600  0.530200  0.926750  1.0
  C  C593  1  0.420600  0.426830  0.210950  1.0
  C  C594  1  0.420600  0.073170  0.289050  1.0
  C  C595  1  0.420600  0.289050  0.426830  1.0
  C  C596  1  0.420600  0.210950  0.073170  1.0
  C  C597  1  0.079400  0.573170  0.710950  1.0
  C  C598  1  0.079400  0.926830  0.789050  1.0
  C  C599  1  0.079400  0.710950  0.926830  1.0
  C  C600  1  0.079400  0.789050  0.573170  1.0
  C  C601  1  0.579400  0.573170  0.789050  1.0
  C  C602  1  0.579400  0.926830  0.710950  1.0
  C  C603  1  0.579400  0.710950  0.573170  1.0
  C  C604  1  0.579400  0.789050  0.926830  1.0
  C  C605  1  0.920600  0.426830  0.289050  1.0
  C  C606  1  0.920600  0.073170  0.210950  1.0
  C  C607  1  0.920600  0.289050  0.073170  1.0
  C  C608  1  0.920600  0.210950  0.426830  1.0
  C  C609  1  0.549800  0.968100  0.555500  1.0
  C  C610  1  0.549800  0.531900  0.944500  1.0
  C  C611  1  0.549800  0.944500  0.968100  1.0
  C  C612  1  0.549800  0.555500  0.531900  1.0
  C  C613  1  0.950200  0.031900  0.055500  1.0
  C  C614  1  0.950200  0.468100  0.444500  1.0
  C  C615  1  0.950200  0.055500  0.468100  1.0
  C  C616  1  0.950200  0.444500  0.031900  1.0
  C  C617  1  0.450200  0.031900  0.444500  1.0
  C  C618  1  0.450200  0.468100  0.055500  1.0
  C  C619  1  0.450200  0.055500  0.031900  1.0
  C  C620  1  0.450200  0.444500  0.468100  1.0
  C  C621  1  0.049800  0.968100  0.944500  1.0
  C  C622  1  0.049800  0.531900  0.555500  1.0
  C  C623  1  0.049800  0.944500  0.531900  1.0
  C  C624  1  0.049800  0.555500  0.968100  1.0
  C  C625  1  0.536900  0.377400  0.191000  1.0
  C  C626  1  0.536900  0.122600  0.309000  1.0
  C  C627  1  0.536900  0.309000  0.377400  1.0
  C  C628  1  0.536900  0.191000  0.122600  1.0
  C  C629  1  0.963100  0.622600  0.691000  1.0
  C  C630  1  0.963100  0.877400  0.809000  1.0
  C  C631  1  0.963100  0.691000  0.877400  1.0
  C  C632  1  0.963100  0.809000  0.622600  1.0
  C  C633  1  0.463100  0.622600  0.809000  1.0
  C  C634  1  0.463100  0.877400  0.691000  1.0
  C  C635  1  0.463100  0.691000  0.622600  1.0
  C  C636  1  0.463100  0.809000  0.877400  1.0
  C  C637  1  0.036900  0.377400  0.309000  1.0
  C  C638  1  0.036900  0.122600  0.191000  1.0
  C  C639  1  0.036900  0.309000  0.122600  1.0
  C  C640  1  0.036900  0.191000  0.377400  1.0
  C  C641  1  0.615800  0.973400  0.555700  1.0
  C  C642  1  0.615800  0.526600  0.944300  1.0
  C  C643  1  0.615800  0.944300  0.973400  1.0
  C  C644  1  0.615800  0.555700  0.526600  1.0
  C  C645  1  0.884200  0.026600  0.055700  1.0
  C  C646  1  0.884200  0.473400  0.444300  1.0
  C  C647  1  0.884200  0.055700  0.473400  1.0
  C  C648  1  0.884200  0.444300  0.026600  1.0
  C  C649  1  0.384200  0.026600  0.444300  1.0
  C  C650  1  0.384200  0.473400  0.055700  1.0
  C  C651  1  0.384200  0.055700  0.026600  1.0
  C  C652  1  0.384200  0.444300  0.473400  1.0
  C  C653  1  0.115800  0.973400  0.944300  1.0
  C  C654  1  0.115800  0.526600  0.555700  1.0
  C  C655  1  0.115800  0.944300  0.526600  1.0
  C  C656  1  0.115800  0.555700  0.973400  1.0
  C  C657  1  0.425000  0.370700  0.181100  1.0
  C  C658  1  0.425000  0.129300  0.318900  1.0
  C  C659  1  0.425000  0.318900  0.370700  1.0
  C  C660  1  0.425000  0.181100  0.129300  1.0
  C  C661  1  0.075000  0.629300  0.681100  1.0
  C  C662  1  0.075000  0.870700  0.818900  1.0
  C  C663  1  0.075000  0.681100  0.870700  1.0
  C  C664  1  0.075000  0.818900  0.629300  1.0
  C  C665  1  0.575000  0.629300  0.818900  1.0
  C  C666  1  0.575000  0.870700  0.681100  1.0
  C  C667  1  0.575000  0.681100  0.629300  1.0
  C  C668  1  0.575000  0.818900  0.870700  1.0
  C  C669  1  0.925000  0.370700  0.318900  1.0
  C  C670  1  0.925000  0.129300  0.181100  1.0
  C  C671  1  0.925000  0.318900  0.129300  1.0
  C  C672  1  0.925000  0.181100  0.370700  1.0
  C  C673  1  0.484300  0.346300  0.171100  1.0
  C  C674  1  0.484300  0.153700  0.328900  1.0
  C  C675  1  0.484300  0.328900  0.346300  1.0
  C  C676  1  0.484300  0.171100  0.153700  1.0
  C  C677  1  0.015700  0.653700  0.671100  1.0
  C  C678  1  0.015700  0.846300  0.828900  1.0
  C  C679  1  0.015700  0.671100  0.846300  1.0
  C  C680  1  0.015700  0.828900  0.653700  1.0
  C  C681  1  0.515700  0.653700  0.828900  1.0
  C  C682  1  0.515700  0.846300  0.671100  1.0
  C  C683  1  0.515700  0.671100  0.653700  1.0
  C  C684  1  0.515700  0.828900  0.846300  1.0
  C  C685  1  0.984300  0.346300  0.328900  1.0
  C  C686  1  0.984300  0.153700  0.171100  1.0
  C  C687  1  0.984300  0.328900  0.153700  1.0
  C  C688  1  0.984300  0.171100  0.346300  1.0
  N  N689  1  0.546930  0.704510  0.398160  1.0
  N  N690  1  0.546930  0.795490  0.101840  1.0
  N  N691  1  0.546930  0.101840  0.704510  1.0
  N  N692  1  0.546930  0.398160  0.795490  1.0
  N  N693  1  0.953070  0.295490  0.898160  1.0
  N  N694  1  0.953070  0.204510  0.601840  1.0
  N  N695  1  0.953070  0.898160  0.204510  1.0
  N  N696  1  0.953070  0.601840  0.295490  1.0
  N  N697  1  0.453070  0.295490  0.601840  1.0
  N  N698  1  0.453070  0.204510  0.898160  1.0
  N  N699  1  0.453070  0.898160  0.295490  1.0
  N  N700  1  0.453070  0.601840  0.204510  1.0
  N  N701  1  0.046930  0.704510  0.101840  1.0
  N  N702  1  0.046930  0.795490  0.398160  1.0
  N  N703  1  0.046930  0.101840  0.795490  1.0
  N  N704  1  0.046930  0.398160  0.704510  1.0
  N  N705  1  0.528740  0.612290  0.340320  1.0
  N  N706  1  0.528740  0.887710  0.159680  1.0
  N  N707  1  0.528740  0.159680  0.612290  1.0
  N  N708  1  0.528740  0.340320  0.887710  1.0
  N  N709  1  0.971260  0.387710  0.840320  1.0
  N  N710  1  0.971260  0.112290  0.659680  1.0
  N  N711  1  0.971260  0.840320  0.112290  1.0
  N  N712  1  0.971260  0.659680  0.387710  1.0
  N  N713  1  0.471260  0.387710  0.659680  1.0
  N  N714  1  0.471260  0.112290  0.840320  1.0
  N  N715  1  0.471260  0.840320  0.387710  1.0
  N  N716  1  0.471260  0.659680  0.112290  1.0
  N  N717  1  0.028740  0.612290  0.159680  1.0
  N  N718  1  0.028740  0.887710  0.340320  1.0
  N  N719  1  0.028740  0.159680  0.887710  1.0
  N  N720  1  0.028740  0.340320  0.612290  1.0
  N  N721  1  0.623400  0.783420  0.448200  1.0
  N  N722  1  0.623400  0.716580  0.051800  1.0
  N  N723  1  0.623400  0.051800  0.783420  1.0
  N  N724  1  0.623400  0.448200  0.716580  1.0
  N  N725  1  0.876600  0.216580  0.948200  1.0
  N  N726  1  0.876600  0.283420  0.551800  1.0
  N  N727  1  0.876600  0.948200  0.283420  1.0
  N  N728  1  0.876600  0.551800  0.216580  1.0
  N  N729  1  0.376600  0.216580  0.551800  1.0
  N  N730  1  0.376600  0.283420  0.948200  1.0
  N  N731  1  0.376600  0.948200  0.216580  1.0
  N  N732  1  0.376600  0.551800  0.283420  1.0
  N  N733  1  0.123400  0.783420  0.051800  1.0
  N  N734  1  0.123400  0.716580  0.448200  1.0
  N  N735  1  0.123400  0.051800  0.716580  1.0
  N  N736  1  0.123400  0.448200  0.783420  1.0
  N  N737  1  0.612850  0.549170  0.310270  1.0
  N  N738  1  0.612850  0.950830  0.189730  1.0
  N  N739  1  0.612850  0.189730  0.549170  1.0
  N  N740  1  0.612850  0.310270  0.950830  1.0
  N  N741  1  0.887150  0.450830  0.810270  1.0
  N  N742  1  0.887150  0.049170  0.689730  1.0
  N  N743  1  0.887150  0.810270  0.049170  1.0
  N  N744  1  0.887150  0.689730  0.450830  1.0
  N  N745  1  0.387150  0.450830  0.689730  1.0
  N  N746  1  0.387150  0.049170  0.810270  1.0
  N  N747  1  0.387150  0.810270  0.450830  1.0
  N  N748  1  0.387150  0.689730  0.049170  1.0
  N  N749  1  0.112850  0.549170  0.189730  1.0
  N  N750  1  0.112850  0.950830  0.310270  1.0
  N  N751  1  0.112850  0.189730  0.950830  1.0
  N  N752  1  0.112850  0.310270  0.549170  1.0
  N  N753  1  0.652830  0.733240  0.423330  1.0
  N  N754  1  0.652830  0.766760  0.076670  1.0
  N  N755  1  0.652830  0.076670  0.733240  1.0
  N  N756  1  0.652830  0.423330  0.766760  1.0
  N  N757  1  0.847170  0.266760  0.923330  1.0
  N  N758  1  0.847170  0.233240  0.576670  1.0
  N  N759  1  0.847170  0.923330  0.233240  1.0
  N  N760  1  0.847170  0.576670  0.266760  1.0
  N  N761  1  0.347170  0.266760  0.576670  1.0
  N  N762  1  0.347170  0.233240  0.923330  1.0
  N  N763  1  0.347170  0.923330  0.266760  1.0
  N  N764  1  0.347170  0.576670  0.233240  1.0
  N  N765  1  0.152830  0.733240  0.076670  1.0
  N  N766  1  0.152830  0.766760  0.423330  1.0
  N  N767  1  0.152830  0.076670  0.766760  1.0
  N  N768  1  0.152830  0.423330  0.733240  1.0
  N  N769  1  0.557230  0.871050  0.503720  1.0
  N  N770  1  0.557230  0.628950  0.996280  1.0
  N  N771  1  0.557230  0.996280  0.871050  1.0
  N  N772  1  0.557230  0.503720  0.628950  1.0
  N  N773  1  0.942770  0.128950  0.003720  1.0
  N  N774  1  0.942770  0.371050  0.496280  1.0
  N  N775  1  0.942770  0.003720  0.371050  1.0
  N  N776  1  0.942770  0.496280  0.128950  1.0
  N  N777  1  0.442770  0.128950  0.496280  1.0
  N  N778  1  0.442770  0.371050  0.003720  1.0
  N  N779  1  0.442770  0.003720  0.128950  1.0
  N  N780  1  0.442770  0.496280  0.371050  1.0
  N  N781  1  0.057230  0.871050  0.996280  1.0
  N  N782  1  0.057230  0.628950  0.503720  1.0
  N  N783  1  0.057230  0.996280  0.628950  1.0
  N  N784  1  0.057230  0.503720  0.871050  1.0
  N  N785  1  0.567620  0.514990  0.281880  1.0
  N  N786  1  0.567620  0.985010  0.218120  1.0
  N  N787  1  0.567620  0.218120  0.514990  1.0
  N  N788  1  0.567620  0.281880  0.985010  1.0
  N  N789  1  0.932380  0.485010  0.781880  1.0
  N  N790  1  0.932380  0.014990  0.718120  1.0
  N  N791  1  0.932380  0.781880  0.014990  1.0
  N  N792  1  0.932380  0.718120  0.485010  1.0
  N  N793  1  0.432380  0.485010  0.718120  1.0
  N  N794  1  0.432380  0.014990  0.781880  1.0
  N  N795  1  0.432380  0.781880  0.485010  1.0
  N  N796  1  0.432380  0.718120  0.014990  1.0
  N  N797  1  0.067620  0.514990  0.218120  1.0
  N  N798  1  0.067620  0.985010  0.281880  1.0
  N  N799  1  0.067620  0.218120  0.985010  1.0
  N  N800  1  0.067620  0.281880  0.514990  1.0
  N  N801  1  0.471240  0.457930  0.232050  1.0
  N  N802  1  0.471240  0.042070  0.267950  1.0
  N  N803  1  0.471240  0.267950  0.457930  1.0
  N  N804  1  0.471240  0.232050  0.042070  1.0
  N  N805  1  0.028760  0.542070  0.732050  1.0
  N  N806  1  0.028760  0.957930  0.767950  1.0
  N  N807  1  0.028760  0.732050  0.957930  1.0
  N  N808  1  0.028760  0.767950  0.542070  1.0
  N  N809  1  0.528760  0.542070  0.767950  1.0
  N  N810  1  0.528760  0.957930  0.732050  1.0
  N  N811  1  0.528760  0.732050  0.542070  1.0
  N  N812  1  0.528760  0.767950  0.957930  1.0
  N  N813  1  0.971240  0.457930  0.267950  1.0
  N  N814  1  0.971240  0.042070  0.232050  1.0
  N  N815  1  0.971240  0.267950  0.042070  1.0
  N  N816  1  0.971240  0.232050  0.457930  1.0
  O  O817  1  0.737590  0.521200  0.310400  1
  O  O818  1  0.737590  0.978800  0.189600  1
  O  O819  1  0.737590  0.189600  0.521200  1
  O  O820  1  0.737590  0.310400  0.978800  1
  O  O821  1  0.762410  0.478800  0.810400  1
  O  O822  1  0.762410  0.021200  0.689600  1
  O  O823  1  0.762410  0.810400  0.021200  1
  O  O824  1  0.762410  0.689600  0.478800  1
  O  O825  1  0.262410  0.478800  0.689600  1
  O  O826  1  0.262410  0.021200  0.810400  1
  O  O827  1  0.262410  0.810400  0.478800  1
  O  O828  1  0.262410  0.689600  0.021200  1
  O  O829  1  0.237590  0.521200  0.189600  1
  O  O830  1  0.237590  0.978800  0.310400  1
  O  O831  1  0.237590  0.189600  0.978800  1
  O  O832  1  0.237590  0.310400  0.521200  1
  F  F833  1  0.699700  0.358900  0.428000  1
  F  F834  1  0.699700  0.141100  0.072000  1
  F  F835  1  0.699700  0.072000  0.358900  1
  F  F836  1  0.699700  0.428000  0.141100  1
  F  F837  1  0.800300  0.641100  0.928000  1
  F  F838  1  0.800300  0.858900  0.572000  1
  F  F839  1  0.800300  0.928000  0.858900  1
  F  F840  1  0.800300  0.572000  0.641100  1
  F  F841  1  0.300300  0.641100  0.572000  1
  F  F842  1  0.300300  0.858900  0.928000  1
  F  F843  1  0.300300  0.928000  0.641100  1
  F  F844  1  0.300300  0.572000  0.858900  1
  F  F845  1  0.199700  0.358900  0.072000  1
  F  F846  1  0.199700  0.141100  0.428000  1
  F  F847  1  0.199700  0.072000  0.141100  1
  F  F848  1  0.199700  0.428000  0.358900  1
  F  F849  1  0.615800  0.424000  0.454000  1
  F  F850  1  0.615800  0.076000  0.046000  1
  F  F851  1  0.615800  0.046000  0.424000  1
  F  F852  1  0.615800  0.454000  0.076000  1
  F  F853  1  0.884200  0.576000  0.954000  1
  F  F854  1  0.884200  0.924000  0.546000  1
  F  F855  1  0.884200  0.954000  0.924000  1
  F  F856  1  0.884200  0.546000  0.576000  1
  F  F857  1  0.384200  0.576000  0.546000  1
  F  F858  1  0.384200  0.924000  0.954000  1
  F  F859  1  0.384200  0.954000  0.576000  1
  F  F860  1  0.384200  0.546000  0.924000  1
  F  F861  1  0.115800  0.424000  0.046000  1
  F  F862  1  0.115800  0.076000  0.454000  1
  F  F863  1  0.115800  0.046000  0.076000  1
  F  F864  1  0.115800  0.454000  0.424000  1
  F  F865  1  0.707800  0.466800  0.422400  1
  F  F866  1  0.707800  0.033200  0.077600  1
  F  F867  1  0.707800  0.077600  0.466800  1
  F  F868  1  0.707800  0.422400  0.033200  1
  F  F869  1  0.792200  0.533200  0.922400  1
  F  F870  1  0.792200  0.966800  0.577600  1
  F  F871  1  0.792200  0.922400  0.966800  1
  F  F872  1  0.792200  0.577600  0.533200  1
  F  F873  1  0.292200  0.533200  0.577600  1
  F  F874  1  0.292200  0.966800  0.922400  1
  F  F875  1  0.292200  0.922400  0.533200  1
  F  F876  1  0.292200  0.577600  0.966800  1
  F  F877  1  0.207800  0.466800  0.077600  1
  F  F878  1  0.207800  0.033200  0.422400  1
  F  F879  1  0.207800  0.077600  0.033200  1
  F  F880  1  0.207800  0.422400  0.466800  1
  F  F881  1  0.647700  0.413800  0.355400  1
  F  F882  1  0.647700  0.086200  0.144600  1
  F  F883  1  0.647700  0.144600  0.413800  1
  F  F884  1  0.647700  0.355400  0.086200  1
  F  F885  1  0.852300  0.586200  0.855400  1
  F  F886  1  0.852300  0.913800  0.644600  1
  F  F887  1  0.852300  0.855400  0.913800  1
  F  F888  1  0.852300  0.644600  0.586200  1
  F  F889  1  0.352300  0.586200  0.644600  1
  F  F890  1  0.352300  0.913800  0.855400  1
  F  F891  1  0.352300  0.855400  0.586200  1
  F  F892  1  0.352300  0.644600  0.913800  1
  F  F893  1  0.147700  0.413800  0.144600  1
  F  F894  1  0.147700  0.086200  0.355400  1
  F  F895  1  0.147700  0.144600  0.086200  1
  F  F896  1  0.147700  0.355400  0.413800  1
