
#######################################################################
#
#                 Cambridge Crystallographic Data Centre
#                                CCDC 
#
#######################################################################
#
# If this CIF has been generated from an entry in the Cambridge 
# Structural Database, then it will include bibliographic, chemical, 
# crystal, experimental, refinement or atomic coordinate data resulting 
# from the CCDC's data processing and validation procedures.
#
#######################################################################

data_HICCEE
_chemical_formula_moiety         'C88 H72 N32 Zn4 8+,8(B1 F4 1-),8(C2 H3 N1)'
_chemical_name_systematic        
'tetrakis(\m-2-phenyl-4,6-bis(2-((pyridin-2-yl)methylidene)hydrazinyl)pyrimidine)-tetra-zinc(ii) octakis(tetrafluoroborate) acetonitrile solvate'
_symmetry_cell_setting           monoclinic
_symmetry_space_group_name_H-M   'P 21/c'
_symmetry_Int_Tables_number      14
_space_group_name_Hall           '-P 2ybc'
loop_
_symmetry_equiv_pos_site_id
_symmetry_equiv_pos_as_xyz
1 x,y,z
2 -x,1/2+y,1/2-z
3 -x,-y,-z
4 x,1/2-y,1/2+z
_cell_length_a                   19.5838(5)
_cell_length_b                   35.6460(10)
_cell_length_c                   18.5501(5)
_cell_angle_alpha                90
_cell_angle_beta                 110.798(2)
_cell_angle_gamma                90
_cell_volume                     12105.7
_exptl_crystal_colour            orange
_exptl_crystal_description       prism
_cell_formula_units_Z            4
loop_
_atom_site_label
_atom_site_type_symbol
_atom_site_fract_x
_atom_site_fract_y
_atom_site_fract_z
C1 C -0.0562(6) 0.1204(3) -0.1092(8)
H1 H -0.0469 0.0942 -0.1040
C2 C -0.1270(7) 0.1323(4) -0.1481(10)
H2 H -0.1654 0.1149 -0.1705
C3 C -0.1395(6) 0.1705(4) -0.1533(10)
H3 H -0.1874 0.1798 -0.1799
C4 C -0.0834(6) 0.1951(3) -0.1202(8)
H4 H -0.0921 0.2213 -0.1225
C5 C -0.0148(5) 0.1814(2) -0.0841(6)
C6 C 0.0485(5) 0.2055(2) -0.0503(5)
H5 H 0.0443 0.2321 -0.0519
C7 C 0.2346(4) 0.1875(2) 0.0519(4)
C8 C 0.3001(4) 0.2049(2) 0.0904(5)
H6 H 0.3043 0.2314 0.0941
C9 C 0.3601(4) 0.1812(2) 0.1237(4)
C10 C 0.2873(4) 0.1297(2) 0.0806(5)
C11 C 0.5484(5) 0.1813(2) 0.2217(5)
H7 H 0.5617 0.2070 0.2268
C12 C 0.6022(5) 0.1514(3) 0.2522(5)
C13 C 0.6758(5) 0.1583(3) 0.2897(6)
H8 H 0.6935 0.1833 0.2972
C14 C 0.7232(6) 0.1288(3) 0.3159(7)
H9 H 0.7741 0.1331 0.3406
C15 C 0.6955(6) 0.0927(3) 0.3059(7)
H10 H 0.7268 0.0717 0.3241
C16 C 0.6214(6) 0.0880(3) 0.2688(6)
H11 H 0.6024 0.0632 0.2622
C17 C 0.2815(6) 0.0885(3) 0.0724(8)
C18 C 0.2760(5) 0.0658(3) 0.1301(8)
H12 H 0.2761 0.0766 0.1770
C19 C 0.2703(6) 0.0271(3) 0.1196(8)
H13 H 0.2651 0.0112 0.1585
C20 C 0.2724(6) 0.0123(3) 0.0519(8)
H14 H 0.2692 -0.0142 0.0453
C21 C 0.2789(5) 0.0334(3) -0.0053(8)
H15 H 0.2798 0.0221 -0.0513
C22 C 0.2842(5) 0.0723(3) 0.0042(8)
H16 H 0.2896 0.0878 -0.0352
C23 C 0.4686(5) 0.1251(3) 0.0139(5)
H17 H 0.4733 0.1510 0.0266
C24 C 0.4653(6) 0.1131(3) -0.0593(6)
H18 H 0.4681 0.1309 -0.0962
C25 C 0.4581(5) 0.0754(3) -0.0779(5)
H19 H 0.4552 0.0671 -0.1276
C26 C 0.4552(5) 0.0501(3) -0.0227(5)
H20 H 0.4507 0.0240 -0.0336
C27 C 0.4591(5) 0.0635(2) 0.0489(5)
C28 C 0.4541(5) 0.0384(2) 0.1073(5)
H21 H 0.4533 0.0119 0.1017
C29 C 0.4355(4) 0.0548(2) 0.2850(5)
C30 C 0.4266(4) 0.0364(2) 0.3480(5)
H22 H 0.4277 0.0098 0.3520
C31 C 0.4162(4) 0.0587(2) 0.4036(5)
C32 C 0.4256(4) 0.1118(2) 0.3391(4)
C33 C 0.3873(5) 0.0555(2) 0.5804(6)
H23 H 0.3920 0.0297 0.5946
C34 C 0.3695(5) 0.0846(2) 0.6278(5)
C35 C 0.3555(5) 0.0764(3) 0.6950(5)
H24 H 0.3579 0.0514 0.7134
C36 C 0.3386(6) 0.1053(3) 0.7331(6)
H25 H 0.3293 0.1002 0.7791
C37 C 0.3345(6) 0.1413(3) 0.7074(5)
H26 H 0.3231 0.1615 0.7345
C38 C 0.3479(5) 0.1468(3) 0.6394(5)
H27 H 0.3437 0.1715 0.6194
C39 C 0.4321(4) 0.1534(2) 0.3405(4)
C40 C 0.5004(5) 0.1694(2) 0.3768(5)
H28 H 0.5416 0.1535 0.3982
C41 C 0.5097(6) 0.2075(3) 0.3827(6)
H29 H 0.5568 0.2181 0.4074
C42 C 0.4503(7) 0.2301(3) 0.3525(6)
H30 H 0.4565 0.2565 0.3581
C43 C 0.3810(7) 0.2158(3) 0.3138(6)
H31 H 0.3408 0.2323 0.2919
C44 C 0.3709(6) 0.1764(2) 0.3074(5)
H32 H 0.3240 0.1658 0.2814
C45 C 0.5591(5) 0.1136(3) 0.5857(5)
H33 H 0.5490 0.0876 0.5769
C46 C 0.6292(6) 0.1248(3) 0.6285(6)
H34 H 0.6670 0.1068 0.6483
C47 C 0.6440(7) 0.1625(3) 0.6421(7)
H35 H 0.6913 0.1708 0.6735
C48 C 0.5879(5) 0.1883(3) 0.6089(5)
H36 H 0.5972 0.2144 0.6151
C49 C 0.5192(5) 0.1754(2) 0.5672(4)
C50 C 0.4580(5) 0.2005(2) 0.5301(4)
H37 H 0.4634 0.2270 0.5314
C51 C 0.2733(4) 0.1845(2) 0.4239(5)
C52 C 0.2076(5) 0.2021(2) 0.3842(5)
H38 H 0.2038 0.2286 0.3794
C53 C 0.1480(4) 0.1790(2) 0.3519(5)
C54 C 0.2193(4) 0.1266(2) 0.3911(4)
C55 C -0.0429(5) 0.1796(3) 0.2549(6)
H39 H -0.0566 0.2053 0.2524
C56 C -0.0965(5) 0.1504(3) 0.2237(6)
C57 C -0.1701(5) 0.1575(3) 0.1897(6)
H40 H -0.1882 0.1824 0.1844
C58 C -0.2170(6) 0.1274(4) 0.1635(6)
H41 H -0.2680 0.1316 0.1392
C59 C -0.1895(6) 0.0915(3) 0.1728(6)
H42 H -0.2210 0.0705 0.1556
C60 C -0.1168(5) 0.0869(3) 0.2070(6)
H43 H -0.0982 0.0620 0.2131
C61 C 0.2240(4) 0.0850(2) 0.3959(5)
C62 C 0.2201(5) 0.0671(3) 0.4612(5)
H44 H 0.2155 0.0808 0.5032
C63 C 0.2234(6) 0.0276(3) 0.4614(8)
H45 H 0.2206 0.0145 0.5049
C64 C 0.2305(6) 0.0075(3) 0.4027(9)
H46 H 0.2327 -0.0191 0.4053
C65 C 0.2345(6) 0.0257(3) 0.3398(8)
H47 H 0.2392 0.0117 0.2983
C66 C 0.2316(4) 0.0643(2) 0.3357(6)
H48 H 0.2349 0.0768 0.2918
C67 C 0.0360(5) 0.1202(3) 0.4557(6)
H49 H 0.0326 0.1464 0.4455
C68 C 0.0367(6) 0.1090(3) 0.5278(6)
H50 H 0.0336 0.1266 0.5649
C69 C 0.0423(6) 0.0709(4) 0.5428(7)
H51 H 0.0435 0.0617 0.5912
C70 C 0.0461(5) 0.0461(3) 0.4864(6)
H52 H 0.0505 0.0199 0.4965
C71 C 0.0435(5) 0.0597(3) 0.4161(6)
C72 C 0.0487(5) 0.0368(3) 0.3533(5)
H53 H 0.0481 0.0102 0.3565
C73 C 0.0707(4) 0.0544(2) 0.1773(5)
C74 C 0.0778(4) 0.0378(2) 0.1164(5)
H54 H 0.0756 0.0113 0.1109
C75 C 0.0885(4) 0.0607(2) 0.0611(5)
C76 C 0.0843(4) 0.1130(2) 0.1320(6)
C77 C 0.1111(5) 0.0617(2) -0.1177(5)
H55 H 0.1048 0.0365 -0.1355
C78 C 0.1276(5) 0.0917(3) -0.1607(6)
C79 C 0.1382(5) 0.0853(3) -0.2290(6)
H56 H 0.1313 0.0609 -0.2512
C80 C 0.1595(6) 0.1153(3) -0.2655(6)
H57 H 0.1672 0.1117 -0.3128
C81 C 0.1688(5) 0.1501(3) -0.2313(6)
H58 H 0.1833 0.1708 -0.2547
C82 C 0.1570(5) 0.1548(3) -0.1634(5)
H59 H 0.1628 0.1789 -0.1403
C83 C 0.0843(7) 0.1543(3) 0.1415(7)
C84 C 0.0186(7) 0.1733(3) 0.1084(7)
H60 H -0.0257 0.1599 0.0855
C85 C 0.0186(7) 0.2123(3) 0.1094(7)
H61 H -0.0257 0.2258 0.0868
C86 C 0.0833(7) 0.2310(3) 0.1435(7)
H62 H 0.0829 0.2576 0.1448
C87 C 0.1463(7) 0.2133(3) 0.1746(7)
H63 H 0.1904 0.2270 0.1968
C88 C 0.1471(7) 0.1742(3) 0.1742(7)
H64 H 0.1921 0.1613 0.1970
N1 N -0.0002(4) 0.1440(2) -0.0784(5)
N2 N 0.1104(4) 0.18912(18) -0.0183(4)
N3 N 0.1733(4) 0.20823(17) 0.0146(4)
H65 H 0.1749 0.2329 0.0123
N4 N 0.2267(4) 0.14953(17) 0.0462(4)
N5 N 0.3531(3) 0.14323(17) 0.1203(4)
N6 N 0.4274(4) 0.19549(17) 0.1576(4)
H66 H 0.4353 0.2198 0.1598
N7 N 0.4829(3) 0.17074(17) 0.1881(4)
N8 N 0.5751(4) 0.1163(2) 0.2418(4)
N9 N 0.4649(4) 0.1002(2) 0.0645(4)
N10 N 0.4510(4) 0.05464(17) 0.1673(4)
N11 N 0.4460(4) 0.03493(18) 0.2279(4)
H67 H 0.4494 0.0103 0.2299
N12 N 0.4357(3) 0.09260(17) 0.2823(3)
N13 N 0.4142(3) 0.09668(16) 0.3997(4)
N14 N 0.4090(4) 0.04318(17) 0.4686(4)
H68 H 0.4128 0.0188 0.4770
N15 N 0.3960(3) 0.06716(17) 0.5191(4)
N16 N 0.3661(4) 0.11967(19) 0.6008(4)
N17 N 0.5052(4) 0.13820(18) 0.5564(3)
N18 N 0.3968(3) 0.18464(17) 0.4959(3)
N19 N 0.3346(4) 0.20419(17) 0.4621(4)
H69 H 0.3340 0.2288 0.4648
N20 N 0.2801(3) 0.14607(17) 0.4268(4)
N21 N 0.1537(4) 0.14104(18) 0.3528(4)
N22 N 0.0801(4) 0.1934(2) 0.3168(4)
H70 H 0.0727 0.2178 0.3141
N23 N 0.0244(4) 0.1693(2) 0.2863(4)
N24 N -0.0692(4) 0.1150(2) 0.2328(5)
N25 N 0.0396(4) 0.0981(2) 0.3999(4)
N26 N 0.0539(4) 0.05257(19) 0.2944(4)
N27 N 0.0587(4) 0.0343(2) 0.2340(4)
H71 H 0.0541 0.0098 0.2306
N28 N 0.0735(4) 0.09283(18) 0.1893(5)
N29 N 0.0940(4) 0.09918(18) 0.0700(4)
N30 N 0.0931(4) 0.04687(19) -0.0047(4)
H72 H 0.0880 0.0227 -0.0154
N31 N 0.1056(4) 0.07154(18) -0.0530(4)
N32 N 0.1376(4) 0.1259(2) -0.1291(4)
Zn1 Zn 0.11444(6) 0.12951(3) -0.02142(7)
Zn2 Zn 0.45859(6) 0.11338(3) 0.17859(6)
Zn3 Zn 0.39100(6) 0.12540(3) 0.49593(6)
Zn4 Zn 0.04775(6) 0.11183(3) 0.29310(7)
C89 C 0.0094(6) 0.2057(3) 0.7390(7)
C90 C -0.0262(7) 0.1760(4) 0.6845(9)
H73 H 0.0013 0.1526 0.7004
H74 H -0.0277 0.1830 0.6329
H75 H -0.0761 0.1724 0.6836
N33 N 0.0366(5) 0.2281(2) 0.7834(5)
C91 C 0.4944(6) 0.2949(3) 0.2366(6)
C92 C 0.5324(8) 0.3223(4) 0.2945(7)
H76 H 0.5849 0.3171 0.3133
H77 H 0.5146 0.3209 0.3376
H78 H 0.5233 0.3475 0.2719
N34 N 0.4636(5) 0.2735(2) 0.1932(4)
C93 C 0.6457(7) 0.0740(5) 0.0172(10)
C94 C 0.6605(7) 0.1039(4) -0.0306(7)
H79 H 0.6402 0.1276 -0.0209
H80 H 0.6378 0.0972 -0.0853
H81 H 0.7133 0.1065 -0.0174
N35 N 0.6357(6) 0.0501(4) 0.0577(10)
B1 B 0.1707(7) 0.1930(3) 0.5606(6)
F1 F 0.1358(5) 0.18495(18) 0.6102(4)
F2 F 0.1260(3) 0.21480(15) 0.4996(4)
F3 F 0.1902(3) 0.16021(13) 0.5327(3)
F4 F 0.2331(4) 0.21473(18) 0.5959(5)
B2 B 0.3339(6) 0.1972(3) 0.9124(7)
F5 F 0.2731(4) 0.21869(17) 0.8760(5)
F6 F 0.3165(3) 0.16420(13) 0.9393(3)
F7 F 0.3804(3) 0.21877(15) 0.9721(3)
F8 F 0.3685(4) 0.18967(16) 0.8607(4)
B3 B 0.1125(6) 0.9440(3) 0.9823(8)
F9 F 0.1834(3) 0.93394(17) 1.0233(4)
F10 F 0.1093(4) 0.97193(17) 0.9293(4)
F11 F 0.0727(3) 0.91388(14) 0.9471(3)
F12 F 0.0827(4) 0.9599(2) 1.0342(4)
B4 B 0.6211(6) 0.0549(3) 0.4620(7)
F13 F 0.5782(4) 0.08464(17) 0.4289(4)
F14 F 0.5905(4) 0.03385(17) 0.5064(4)
F15 F 0.6879(4) 0.06835(17) 0.5109(4)
F16 F 0.6321(4) 0.03196(17) 0.4091(4)
B5 B 0.4240(8) 0.9368(4) 0.2324(8)
F17 F 0.4629(7) 0.9056(3) 0.2348(7)
F18 F 0.4242(5) 0.95942(18) 0.1738(4)
F19 F 0.3517(8) 0.9275(3) 0.2171(8)
F20 F 0.4507(9) 0.9565(4) 0.3001(11)
B6 B 0.6065(7) 0.2056(4) 0.0518(9)
F24 F 0.5514(4) 0.21853(19) 0.0755(4)
F25 F 0.6552(8) 0.1860(4) 0.0963(8)
F26 F 0.6388(7) 0.2410(4) 0.0349(8)
F27 F 0.5759(9) 0.1906(4) -0.0225(10)
B7 B 0.8962(9) 0.2013(4) 0.4262(9)
F31 F 0.8453(12) 0.2279(6) 0.4204(13)
F32 F 0.8868(11) 0.1639(5) 0.3981(13)
F33 F 0.9366(14) 0.2107(8) 0.3872(14)
F34 F 0.9253(11) 0.1945(6) 0.5074(12)
B8 B 0.8434(9) 0.0067(5) 0.3217(9)
F39 F 0.8139(13) -0.0280(6) 0.3377(14)
F40 F 0.7813(9) 0.0126(5) 0.2585(12)
F41 F 0.9049(12) -0.0028(8) 0.3117(13)
F42 F 0.8468(13) 0.0279(6) 0.3872(13)
loop_
_geom_bond_atom_site_label_1
_geom_bond_atom_site_label_2
_geom_bond_site_symmetry_1
_geom_bond_site_symmetry_2
C1 H1 1_555 1_555
C2 C1 1_555 1_555
H2 C2 1_555 1_555
C3 C2 1_555 1_555
H3 C3 1_555 1_555
C4 C3 1_555 1_555
H4 C4 1_555 1_555
C5 C4 1_555 1_555
C6 C5 1_555 1_555
H5 C6 1_555 1_555
C7 C8 1_555 1_555
C8 H6 1_555 1_555
C9 C8 1_555 1_555
C10 C17 1_555 1_555
C11 H7 1_555 1_555
C12 C11 1_555 1_555
C13 C12 1_555 1_555
H8 C13 1_555 1_555
C14 C13 1_555 1_555
H9 C14 1_555 1_555
C15 C14 1_555 1_555
H10 C15 1_555 1_555
C16 C15 1_555 1_555
H11 C16 1_555 1_555
C17 C18 1_555 1_555
C18 H12 1_555 1_555
C19 C18 1_555 1_555
H13 C19 1_555 1_555
C20 C19 1_555 1_555
H14 C20 1_555 1_555
C21 C20 1_555 1_555
H15 C21 1_555 1_555
C22 C17 1_555 1_555
H16 C22 1_555 1_555
C23 H17 1_555 1_555
C24 C23 1_555 1_555
H18 C24 1_555 1_555
C25 C24 1_555 1_555
H19 C25 1_555 1_555
C26 C25 1_555 1_555
H20 C26 1_555 1_555
C27 C26 1_555 1_555
C28 C27 1_555 1_555
H21 C28 1_555 1_555
C29 C30 1_555 1_555
C30 H22 1_555 1_555
C31 C30 1_555 1_555
C32 C39 1_555 1_555
C33 H23 1_555 1_555
C34 C33 1_555 1_555
C35 C34 1_555 1_555
H24 C35 1_555 1_555
C36 C35 1_555 1_555
H25 C36 1_555 1_555
C37 C36 1_555 1_555
H26 C37 1_555 1_555
C38 C37 1_555 1_555
H27 C38 1_555 1_555
C39 C40 1_555 1_555
C40 H28 1_555 1_555
C41 C40 1_555 1_555
H29 C41 1_555 1_555
C42 C41 1_555 1_555
H30 C42 1_555 1_555
C43 C42 1_555 1_555
H31 C43 1_555 1_555
C44 C39 1_555 1_555
H32 C44 1_555 1_555
C45 H33 1_555 1_555
C46 C45 1_555 1_555
H34 C46 1_555 1_555
C47 C46 1_555 1_555
H35 C47 1_555 1_555
C48 C47 1_555 1_555
H36 C48 1_555 1_555
C49 C48 1_555 1_555
C50 C49 1_555 1_555
H37 C50 1_555 1_555
C51 C52 1_555 1_555
C52 H38 1_555 1_555
C53 C52 1_555 1_555
C54 C61 1_555 1_555
C55 H39 1_555 1_555
C56 C55 1_555 1_555
C57 C56 1_555 1_555
H40 C57 1_555 1_555
C58 C57 1_555 1_555
H41 C58 1_555 1_555
C59 C58 1_555 1_555
H42 C59 1_555 1_555
C60 C59 1_555 1_555
H43 C60 1_555 1_555
C61 C62 1_555 1_555
C62 H44 1_555 1_555
C63 C62 1_555 1_555
H45 C63 1_555 1_555
C64 C63 1_555 1_555
H46 C64 1_555 1_555
C65 C64 1_555 1_555
H47 C65 1_555 1_555
C66 C61 1_555 1_555
H48 C66 1_555 1_555
C67 H49 1_555 1_555
C68 C67 1_555 1_555
H50 C68 1_555 1_555
C69 C68 1_555 1_555
H51 C69 1_555 1_555
C70 C69 1_555 1_555
H52 C70 1_555 1_555
C71 C70 1_555 1_555
C72 C71 1_555 1_555
H53 C72 1_555 1_555
C73 C74 1_555 1_555
C74 H54 1_555 1_555
C75 C74 1_555 1_555
C76 C83 1_555 1_555
C77 H55 1_555 1_555
C78 C77 1_555 1_555
C79 C78 1_555 1_555
H56 C79 1_555 1_555
C80 C79 1_555 1_555
H57 C80 1_555 1_555
C81 C80 1_555 1_555
H58 C81 1_555 1_555
C82 C81 1_555 1_555
H59 C82 1_555 1_555
C83 C84 1_555 1_555
C84 H60 1_555 1_555
C85 C84 1_555 1_555
H61 C85 1_555 1_555
C86 C85 1_555 1_555
H62 C86 1_555 1_555
C87 C86 1_555 1_555
H63 C87 1_555 1_555
C88 C83 1_555 1_555
H64 C88 1_555 1_555
N1 C1 1_555 1_555
N2 C6 1_555 1_555
N3 C7 1_555 1_555
H65 N3 1_555 1_555
N4 C7 1_555 1_555
N5 C9 1_555 1_555
N6 C9 1_555 1_555
H66 N6 1_555 1_555
N7 C11 1_555 1_555
N8 C12 1_555 1_555
N9 C23 1_555 1_555
N10 C28 1_555 1_555
N11 C29 1_555 1_555
H67 N11 1_555 1_555
N12 C29 1_555 1_555
N13 C31 1_555 1_555
N14 C31 1_555 1_555
H68 N14 1_555 1_555
N15 C33 1_555 1_555
N16 C34 1_555 1_555
N17 C45 1_555 1_555
N18 C50 1_555 1_555
N19 C51 1_555 1_555
H69 N19 1_555 1_555
N20 C51 1_555 1_555
N21 C53 1_555 1_555
N22 C53 1_555 1_555
H70 N22 1_555 1_555
N23 C55 1_555 1_555
N24 C56 1_555 1_555
N25 C67 1_555 1_555
N26 C72 1_555 1_555
N27 C73 1_555 1_555
H71 N27 1_555 1_555
N28 C73 1_555 1_555
N29 C75 1_555 1_555
N30 C75 1_555 1_555
H72 N30 1_555 1_555
N31 C77 1_555 1_555
N32 C78 1_555 1_555
Zn1 N1 1_555 1_555
Zn2 N5 1_555 1_555
Zn3 N13 1_555 1_555
Zn4 N21 1_555 1_555
C89 C90 1_555 1_555
C90 H73 1_555 1_555
H74 C90 1_555 1_555
H75 C90 1_555 1_555
N33 C89 1_555 1_555
C91 C92 1_555 1_555
C92 H76 1_555 1_555
H77 C92 1_555 1_555
H78 C92 1_555 1_555
N34 C91 1_555 1_555
C93 C94 1_555 1_555
C94 H79 1_555 1_555
H80 C94 1_555 1_555
H81 C94 1_555 1_555
N35 C93 1_555 1_555
B1 F1 1_555 1_555
F2 B1 1_555 1_555
F3 B1 1_555 1_555
F4 B1 1_555 1_555
B2 F5 1_555 1_555
F6 B2 1_555 1_555
F7 B2 1_555 1_555
F8 B2 1_555 1_555
B3 F9 1_555 1_555
F10 B3 1_555 1_555
F11 B3 1_555 1_555
F12 B3 1_555 1_555
B4 F13 1_555 1_555
F14 B4 1_555 1_555
F15 B4 1_555 1_555
F16 B4 1_555 1_555
B5 F17 1_555 1_555
F18 B5 1_555 1_555
F19 B5 1_555 1_555
F20 B5 1_555 1_555
B6 F24 1_555 1_555
F25 B6 1_555 1_555
F26 B6 1_555 1_555
F27 B6 1_555 1_555
B7 F31 1_555 1_555
F32 B7 1_555 1_555
F33 B7 1_555 1_555
F34 B7 1_555 1_555
B8 F39 1_555 1_555
F40 B8 1_555 1_555
F41 B8 1_555 1_555
F42 B8 1_555 1_555
C5 N1 1_555 1_555
C10 N4 1_555 1_555
C10 N5 1_555 1_555
C16 N8 1_555 1_555
C21 C22 1_555 1_555
C27 N9 1_555 1_555
C32 N12 1_555 1_555
C32 N13 1_555 1_555
C38 N16 1_555 1_555
C43 C44 1_555 1_555
C49 N17 1_555 1_555
C54 N20 1_555 1_555
C54 N21 1_555 1_555
C60 N24 1_555 1_555
C65 C66 1_555 1_555
C71 N25 1_555 1_555
C76 N28 1_555 1_555
C76 N29 1_555 1_555
C82 N32 1_555 1_555
C87 C88 1_555 1_555
N2 N3 1_555 1_555
N2 Zn1 1_555 1_555
N4 Zn1 1_555 1_555
N6 N7 1_555 1_555
N7 Zn2 1_555 1_555
N8 Zn2 1_555 1_555
N9 Zn2 1_555 1_555
N10 N11 1_555 1_555
N10 Zn2 1_555 1_555
N12 Zn2 1_555 1_555
N14 N15 1_555 1_555
N15 Zn3 1_555 1_555
N16 Zn3 1_555 1_555
N17 Zn3 1_555 1_555
N18 N19 1_555 1_555
N18 Zn3 1_555 1_555
N20 Zn3 1_555 1_555
N22 N23 1_555 1_555
N23 Zn4 1_555 1_555
N24 Zn4 1_555 1_555
N25 Zn4 1_555 1_555
N26 N27 1_555 1_555
N26 Zn4 1_555 1_555
N28 Zn4 1_555 1_555
N29 Zn1 1_555 1_555
N30 N31 1_555 1_555
N31 Zn1 1_555 1_555
N32 Zn1 1_555 1_555

#END
