
#######################################################################
#
#                 Cambridge Crystallographic Data Centre
#                                CCDC 
#
#######################################################################
#
# If this CIF has been generated from an entry in the Cambridge 
# Structural Database, then it will include bibliographic, chemical, 
# crystal, experimental, refinement or atomic coordinate data resulting 
# from the CCDC's data processing and validation procedures.
#
#######################################################################

data_HICCAA
_chemical_formula_moiety         'C88 H72 Fe4 N32 8+,8(B1 F4 1-),2(C2 H3 N1)'
_chemical_name_systematic        
'tetrakis(\m-2-phenyl-4,6-bis(2-((pyridin-2-yl)methylidene)hydrazinyl)pyrimidine)-tetra-iron(ii) octakis(tetrafluoroborate) acetonitrile solvate'
_symmetry_cell_setting           monoclinic
_symmetry_space_group_name_H-M   'C 2/c'
_symmetry_Int_Tables_number      15
_space_group_name_Hall           '-C 2yn'
loop_
_symmetry_equiv_pos_site_id
_symmetry_equiv_pos_as_xyz
1 x,y,z
2 -x,y,1/2-z
3 1/2+x,1/2+y,z
4 1/2-x,1/2+y,1/2-z
5 -x,-y,-z
6 x,-y,1/2+z
7 1/2-x,1/2-y,-z
8 1/2+x,1/2-y,1/2+z
_cell_length_a                   17.479(3)
_cell_length_b                   36.198(6)
_cell_length_c                   18.614(3)
_cell_angle_alpha                90
_cell_angle_beta                 108.768(6)
_cell_angle_gamma                90
_cell_volume                     11151
_exptl_crystal_colour            red
_exptl_crystal_description       needle
_cell_formula_units_Z            4
loop_
_atom_site_label
_atom_site_type_symbol
_atom_site_fract_x
_atom_site_fract_y
_atom_site_fract_z
Fe1 Fe 0.13857(8) 0.12509(3) 0.50503(7)
Fe2 Fe 0.22812(8) 0.13668(4) 0.20088(8)
C1 C -0.0591(11) 0.2191(6) 0.4821(13)
H1 H -0.0671 0.2310 0.5235
N1 N 0.1125(4) 0.1241(2) 0.6067(4)
N2 N 0.2608(5) 0.1195(3) 0.5627(4)
N3 N 0.2341(5) 0.1946(2) 0.1987(5)
N4 N 0.1983(4) 0.1570(2) 0.2998(4)
N5 N -0.1167(4) 0.1088(2) 0.3646(4)
C2 C -0.4620(8) 0.0884(4) 0.1777(7)
H2 H -0.4796 0.0640 0.1705
N6 N 0.1636(4) 0.1514(2) 0.4135(4)
N7 N 0.2566(5) 0.1499(3) 0.0982(5)
N8 N -0.3553(5) 0.1327(3) 0.2346(4)
N9 N 0.1530(5) 0.0703(2) 0.5035(4)
N10 N -0.2535(5) 0.0804(2) 0.2950(4)
N11 N 0.0220(4) 0.1054(2) 0.4406(4)
N12 N 0.2179(5) 0.2145(2) 0.2536(5)
H3 H 0.2213 0.2382 0.2550
N13 N 0.0868(5) 0.0489(2) 0.4706(4)
H4 H 0.0888 0.0252 0.4723
N14 N -0.1936(5) 0.0561(2) 0.3299(4)
H5 H -0.2023 0.0327 0.3302
C3 C 0.2835(9) 0.1390(6) -0.0191(8)
H6 H 0.2853 0.1230 -0.0577
C4 C -0.3838(6) 0.0979(3) 0.2234(6)
C5 C 0.1012(6) 0.0949(3) 0.6457(7)
H7 H 0.0991 0.0716 0.6244
C6 C 0.2947(9) 0.2002(5) 0.0339(10)
H8 H 0.3065 0.2251 0.0309
C7 C 0.4203(9) 0.1024(7) 0.6352(9)
H9 H 0.4744 0.0971 0.6602
C8 C 0.2855(6) 0.0837(4) 0.5706(5)
C9 C -0.3250(7) 0.0689(3) 0.2607(5)
H10 H -0.3390 0.0441 0.2593
C10 C 0.1824(5) 0.1377(3) 0.3549(5)
C11 C 0.1773(6) 0.2118(3) 0.3654(6)
H11 H 0.1745 0.2374 0.3684
C12 C 0.1961(6) 0.1950(3) 0.3068(6)
C13 C 0.3149(8) 0.1459(4) 0.5910(7)
H12 H 0.2977 0.1704 0.5866
N15 N 0.1479(5) 0.2033(2) 0.4806(5)
H13 H 0.1465 0.2267 0.4883
C14 C 0.2223(6) 0.0560(3) 0.5376(5)
H14 H 0.2317 0.0307 0.5411
C15 C 0.2710(7) 0.1866(4) 0.0918(7)
C16 C 0.2788(13) 0.0449(5) 0.3897(9)
H15 H 0.3299 0.0347 0.4118
C17 C 0.3655(9) 0.0735(5) 0.6067(7)
H16 H 0.3816 0.0489 0.6116
C18 C 0.1920(8) 0.0971(3) 0.3534(6)
C19 C 0.2683(9) 0.0829(3) 0.3884(7)
H17 H 0.3117 0.0985 0.4108
C20 C -0.0523(6) 0.0498(2) 0.3972(5)
H18 H -0.0541 0.0242 0.3940
C21 C -0.0579(7) 0.1795(4) 0.4747(9)
H19 H -0.0660 0.1644 0.5120
C22 C 0.1025(7) 0.1623(4) 0.7083(7)
H20 H 0.1011 0.1857 0.7283
C23 C 0.1376(14) 0.0350(6) 0.3193(10)
H21 H 0.0962 0.0186 0.2956
C24 C -0.5116(8) 0.1178(5) 0.1440(8)
H22 H -0.5646 0.1131 0.1140
N16 N 0.1353(5) 0.1782(2) 0.5297(5)
C25 C 0.1131(6) 0.1581(3) 0.6382(6)
C26 C -0.4063(8) 0.1589(4) 0.2002(7)
H23 H -0.3889 0.1833 0.2074
C27 C -0.0476(12) 0.2374(6) 0.4227(16)
H24 H -0.0463 0.2630 0.4269
C28 C -0.0456(6) 0.1239(3) 0.4047(5)
C29 C 0.3947(11) 0.1384(6) 0.6263(9)
H25 H 0.4314 0.1576 0.6441
C30 C 0.1627(5) 0.1895(3) 0.4193(5)
C31 C -0.1203(6) 0.0708(3) 0.3636(5)
C32 C 0.0170(6) 0.0675(3) 0.4349(5)
C33 C -0.4858(9) 0.1518(5) 0.1532(8)
H26 H -0.5194 0.1711 0.1291
C34 C 0.1265(10) 0.0743(4) 0.3180(7)
H27 H 0.0759 0.0845 0.2937
C35 C 0.2580(7) 0.2103(4) 0.1486(8)
H28 H 0.2666 0.2357 0.1488
C36 C 0.3001(12) 0.1752(7) -0.0196(10)
H29 H 0.3166 0.1841 -0.0592
C37 C 0.0924(8) 0.0980(5) 0.7168(8)
H30 H 0.0853 0.0771 0.7429
C38 C 0.0943(8) 0.1318(6) 0.7473(8)
H31 H 0.0899 0.1343 0.7955
C39 C 0.2168(18) 0.0234(5) 0.3596(11)
H32 H 0.2256 -0.0019 0.3653
C40 C -0.0446(6) 0.1642(3) 0.4126(7)
C41 C 0.2627(7) 0.1269(4) 0.0461(7)
H33 H 0.2533 0.1019 0.0512
C42 C 0.1245(7) 0.1879(3) 0.5926(7)
H34 H 0.1242 0.2125 0.6070
C43 C -0.0351(7) 0.1855(3) 0.3544(10)
H35 H -0.0270 0.1738 0.3129
C44 C -0.0372(10) 0.2238(5) 0.3565(13)
H36 H -0.0323 0.2388 0.3177
Fe1A Fe -0.13857(8) 0.12509(3) -0.00503(7)
Fe2A Fe -0.22812(8) 0.13668(4) 0.29912(8)
C1A C 0.0591(11) 0.2191(6) 0.0179(13)
H1A H 0.0671 0.2310 -0.0235
N1A N -0.1125(4) 0.1241(2) -0.1067(4)
N2A N -0.2608(5) 0.1195(3) -0.0627(4)
N3A N -0.2341(5) 0.1946(2) 0.3013(5)
N4A N -0.1983(4) 0.1570(2) 0.2002(4)
N5A N 0.1167(4) 0.1088(2) 0.1354(4)
C2A C 0.4620(8) 0.0884(4) 0.3223(7)
H2A H 0.4796 0.0640 0.3295
N6A N -0.1636(4) 0.1514(2) 0.0865(4)
N7A N -0.2566(5) 0.1499(3) 0.4018(5)
N8A N 0.3553(5) 0.1327(3) 0.2654(4)
N9A N -0.1530(5) 0.0703(2) -0.0035(4)
N10A N 0.2535(5) 0.0804(2) 0.2050(4)
N11A N -0.0220(4) 0.1054(2) 0.0594(4)
N12A N -0.2179(5) 0.2145(2) 0.2464(5)
H3A H -0.2213 0.2382 0.2450
N13A N -0.0868(5) 0.0489(2) 0.0294(4)
H4A H -0.0888 0.0252 0.0277
N14A N 0.1936(5) 0.0561(2) 0.1701(4)
H5A H 0.2023 0.0327 0.1698
C3A C -0.2835(9) 0.1390(6) 0.5191(8)
H6A H -0.2853 0.1230 0.5577
C4A C 0.3838(6) 0.0979(3) 0.2766(6)
C5A C -0.1012(6) 0.0949(3) -0.1457(7)
H7A H -0.0991 0.0716 -0.1244
C6A C -0.2947(9) 0.2002(5) 0.4661(10)
H8A H -0.3065 0.2251 0.4691
C7A C -0.4203(9) 0.1024(7) -0.1352(9)
H9A H -0.4744 0.0971 -0.1602
C8A C -0.2855(6) 0.0837(4) -0.0706(5)
C9A C 0.3250(7) 0.0689(3) 0.2393(5)
H10A H 0.3390 0.0441 0.2407
C10A C -0.1824(5) 0.1377(3) 0.1451(5)
C11A C -0.1773(6) 0.2118(3) 0.1346(6)
H11A H -0.1745 0.2374 0.1316
C12A C -0.1961(6) 0.1950(3) 0.1932(6)
C13A C -0.3149(8) 0.1459(4) -0.0910(7)
H12A H -0.2977 0.1704 -0.0866
N15A N -0.1479(5) 0.2033(2) 0.0194(5)
H13A H -0.1465 0.2267 0.0117
C14A C -0.2223(6) 0.0560(3) -0.0376(5)
H14A H -0.2317 0.0307 -0.0411
C15A C -0.2710(7) 0.1866(4) 0.4082(7)
C16A C -0.2788(13) 0.0449(5) 0.1103(9)
H15A H -0.3299 0.0347 0.0882
C17A C -0.3655(9) 0.0735(5) -0.1067(7)
H16A H -0.3816 0.0489 -0.1116
C18A C -0.1920(8) 0.0971(3) 0.1466(6)
C19A C -0.2683(9) 0.0829(3) 0.1116(7)
H17A H -0.3117 0.0985 0.0892
C20A C 0.0523(6) 0.0498(2) 0.1028(5)
H18A H 0.0541 0.0242 0.1060
C21A C 0.0579(7) 0.1795(4) 0.0253(9)
H19A H 0.0660 0.1644 -0.0120
C22A C -0.1025(7) 0.1623(4) -0.2083(7)
H20A H -0.1011 0.1857 -0.2283
C23A C -0.1376(14) 0.0350(6) 0.1807(10)
H21A H -0.0962 0.0186 0.2044
C24A C 0.5116(8) 0.1178(5) 0.3560(8)
H22A H 0.5646 0.1131 0.3860
N16A N -0.1353(5) 0.1782(2) -0.0297(5)
C25A C -0.1131(6) 0.1581(3) -0.1382(6)
C26A C 0.4063(8) 0.1589(4) 0.2998(7)
H23A H 0.3889 0.1833 0.2926
C27A C 0.0476(12) 0.2374(6) 0.0773(16)
H24A H 0.0463 0.2630 0.0731
C28A C 0.0456(6) 0.1239(3) 0.0953(5)
C29A C -0.3947(11) 0.1384(6) -0.1263(9)
H25A H -0.4314 0.1576 -0.1441
C30A C -0.1627(5) 0.1895(3) 0.0807(5)
C31A C 0.1203(6) 0.0708(3) 0.1364(5)
C32A C -0.0170(6) 0.0675(3) 0.0651(5)
C33A C 0.4858(9) 0.1518(5) 0.3468(8)
H26A H 0.5194 0.1711 0.3709
C34A C -0.1265(10) 0.0743(4) 0.1820(7)
H27A H -0.0759 0.0845 0.2063
C35A C -0.2580(7) 0.2103(4) 0.3514(8)
H28A H -0.2666 0.2357 0.3512
C36A C -0.3001(12) 0.1752(7) 0.5196(10)
H29A H -0.3166 0.1841 0.5592
C37A C -0.0924(8) 0.0980(5) -0.2168(8)
H30A H -0.0853 0.0771 -0.2429
C38A C -0.0943(8) 0.1318(6) -0.2473(8)
H31A H -0.0899 0.1343 -0.2955
C39A C -0.2168(18) 0.0234(5) 0.1404(11)
H32A H -0.2256 -0.0019 0.1347
C40A C 0.0446(6) 0.1642(3) 0.0874(7)
C41A C -0.2627(7) 0.1269(4) 0.4539(7)
H33A H -0.2533 0.1019 0.4488
C42A C -0.1245(7) 0.1879(3) -0.0926(7)
H34A H -0.1242 0.2125 -0.1070
C43A C 0.0351(7) 0.1855(3) 0.1456(10)
H35A H 0.0270 0.1738 0.1871
C44A C 0.0372(10) 0.2238(5) 0.1435(13)
H36A H 0.0323 0.2388 0.1823
F1 F 0.9097(4) 0.08290(16) 0.5396(4)
F2 F 0.8406(6) 0.0297(2) 0.5091(5)
F3 F 0.8561(6) 0.0566(2) 0.6190(5)
F4 F 0.9547(7) 0.0290(2) 0.5907(7)
B1 B 0.8880(9) 0.0509(4) 0.5644(8)
F5 F 0.3586(5) 0.21915(18) 0.5200(5)
F6 F 0.4643(5) 0.1905(2) 0.5008(5)
F7 F 0.3403(4) 0.16961(16) 0.4423(4)
F8 F 0.3776(6) 0.2247(2) 0.4085(5)
B2 B 0.3871(9) 0.2006(4) 0.4692(9)
F9 F 0.7070(6) 0.1563(2) 0.7465(6)
F10 F 0.6937(9) 0.2089(2) 0.7923(6)
F11 F 0.7020(7) 0.2102(3) 0.6833(6)
F12 F 0.5979(8) 0.1857(5) 0.7002(9)
B3 B 0.6740(12) 0.1900(5) 0.7295(10)
N17 N 0.2344(6) 0.0210(3) 0.7001(6)
C45 C 0.3101(9) 0.0724(4) 0.7894(9)
H37 H 0.3110 0.0945 0.7611
H38 H 0.3645 0.0648 0.8160
H39 H 0.2822 0.0771 0.8252
C46 C 0.2687(8) 0.0432(3) 0.7377(7)
F13 F 0.5502(16) -0.0104(8) 0.201(2)
B4 B 0.5000 -0.0084(10) 0.2500
F14 F 0.4424(6) 0.0109(3) 0.2005(8)
F13A F 0.4498(16) -0.0104(8) 0.299(2)
F14A F 0.5576(6) 0.0109(3) 0.2995(8)
F15? F 0.5205(13) -0.0408(5) 0.2264(19)
F16? F 0.039(2) 0.2163(7) 0.819(2)
F17? F 0.0577(19) 0.2768(7) 0.823(3)
B5? B 0.011(6) 0.2463(12) 0.784(4)
F18? F 0.011(6) 0.2463(12) 0.784(4)
F19? F -0.071(3) 0.2508(9) 0.774(4)
loop_
_geom_bond_atom_site_label_1
_geom_bond_atom_site_label_2
_geom_bond_site_symmetry_1
_geom_bond_site_symmetry_2
Fe1 N1 1_555 1_555
Fe2 N3 1_555 1_555
C1 H1 1_555 1_555
N1 C5 1_555 1_555
N2 Fe1 1_555 1_555
N3 N12 1_555 1_555
N4 Fe2 1_555 1_555
N5 C28 1_555 1_555
C2 H2 1_555 1_555
N6 Fe1 1_555 1_555
N7 Fe2 1_555 1_555
N8 C4 1_555 1_555
N9 Fe1 1_555 1_555
N10 N14 1_555 1_555
N11 Fe1 1_555 1_555
N12 H3 1_555 1_555
N13 N9 1_555 1_555
H4 N13 1_555 1_555
N14 H5 1_555 1_555
C3 H6 1_555 1_555
C4 C2 1_555 1_555
C5 H7 1_555 1_555
C6 H8 1_555 1_555
C7 H9 1_555 1_555
C8 N2 1_555 1_555
C9 N10 1_555 1_555
H10 C9 1_555 1_555
C10 N4 1_555 1_555
C11 H11 1_555 1_555
C12 N4 1_555 1_555
C13 N2 1_555 1_555
H12 C13 1_555 1_555
N15 H13 1_555 1_555
C14 N9 1_555 1_555
H14 C14 1_555 1_555
C15 N7 1_555 1_555
C16 H15 1_555 1_555
C17 C7 1_555 1_555
H16 C17 1_555 1_555
C18 C10 1_555 1_555
C19 C16 1_555 1_555
H17 C19 1_555 1_555
C20 H18 1_555 1_555
C21 C1 1_555 1_555
H19 C21 1_555 1_555
C22 H20 1_555 1_555
C23 H21 1_555 1_555
C24 C2 1_555 1_555
H22 C24 1_555 1_555
N16 Fe1 1_555 1_555
C25 N1 1_555 1_555
C26 N8 1_555 1_555
H23 C26 1_555 1_555
C27 C1 1_555 1_555
H24 C27 1_555 1_555
C28 N11 1_555 1_555
C29 C7 1_555 1_555
H25 C29 1_555 1_555
C30 N6 1_555 1_555
C31 N5 1_555 1_555
C32 N11 1_555 1_555
C33 C24 1_555 1_555
H26 C33 1_555 1_555
C34 C18 1_555 1_555
H27 C34 1_555 1_555
C35 N3 1_555 1_555
H28 C35 1_555 1_555
C36 C3 1_555 1_555
H29 C36 1_555 1_555
C37 C5 1_555 1_555
H30 C37 1_555 1_555
C38 C22 1_555 1_555
H31 C38 1_555 1_555
C39 C16 1_555 1_555
H32 C39 1_555 1_555
C40 C21 1_555 1_555
C41 N7 1_555 1_555
H33 C41 1_555 1_555
C42 N16 1_555 1_555
H34 C42 1_555 1_555
C43 C40 1_555 1_555
H35 C43 1_555 1_555
C44 C27 1_555 1_555
H36 C44 1_555 1_555
F1 B1 1_555 1_555
F2 B1 1_555 1_555
F3 B1 1_555 1_555
F4 B1 1_555 1_555
F5 B2 1_555 1_555
F6 B2 1_555 1_555
F7 B2 1_555 1_555
F8 B2 1_555 1_555
F9 B3 1_555 1_555
F10 B3 1_555 1_555
F11 B3 1_555 1_555
F12 B3 1_555 1_555
N17 C46 1_555 1_555
C45 H37 1_555 1_555
H38 C45 1_555 1_555
H39 C45 1_555 1_555
C46 C45 1_555 1_555
F13 B4 1_555 1_555
B4 F14 1_555 1_555
Fe1A N1A 1_555 1_555
Fe2A N5 1_555 1_555
C1A H1A 1_555 1_555
N1A C5A 1_555 1_555
N2A Fe1A 1_555 1_555
N3A Fe2A 1_555 1_555
N4A Fe2A 1_555 1_555
N5A Fe2 1_555 1_555
C2A H2A 1_555 1_555
N6A Fe1A 1_555 1_555
N7A Fe2A 1_555 1_555
N8A Fe2 1_555 1_555
N9A Fe1A 1_555 1_555
N10A Fe2 1_555 1_555
N11A Fe1A 1_555 1_555
N12A N3A 1_555 1_555
H3A N12A 1_555 1_555
N13A N9A 1_555 1_555
H4A N13A 1_555 1_555
N14A N10A 1_555 1_555
H5A N14A 1_555 1_555
C3A H6A 1_555 1_555
C4A C2A 1_555 1_555
C5A H7A 1_555 1_555
C6A H8A 1_555 1_555
C7A H9A 1_555 1_555
C8A N2A 1_555 1_555
C9A N10A 1_555 1_555
H10A C9A 1_555 1_555
C10A N4A 1_555 1_555
C11A H11A 1_555 1_555
C12A N4A 1_555 1_555
C13A N2A 1_555 1_555
H12A C13A 1_555 1_555
N15A H13A 1_555 1_555
C14A N9A 1_555 1_555
H14A C14A 1_555 1_555
C15A N7A 1_555 1_555
C16A H15A 1_555 1_555
C17A C7A 1_555 1_555
H16A C17A 1_555 1_555
C18A C10A 1_555 1_555
C19A C16A 1_555 1_555
H17A C19A 1_555 1_555
C20A H18A 1_555 1_555
C21A C1A 1_555 1_555
H19A C21A 1_555 1_555
C22A H20A 1_555 1_555
C23A H21A 1_555 1_555
C24A C2A 1_555 1_555
H22A C24A 1_555 1_555
N16A Fe1A 1_555 1_555
C25A N1A 1_555 1_555
C26A N8A 1_555 1_555
H23A C26A 1_555 1_555
C27A C1A 1_555 1_555
H24A C27A 1_555 1_555
C28A N5A 1_555 1_555
C29A C7A 1_555 1_555
H25A C29A 1_555 1_555
C30A N6A 1_555 1_555
C31A N5A 1_555 1_555
C32A N11A 1_555 1_555
C33A C24A 1_555 1_555
H26A C33A 1_555 1_555
C34A C18A 1_555 1_555
H27A C34A 1_555 1_555
C35A N3A 1_555 1_555
H28A C35A 1_555 1_555
C36A C3A 1_555 1_555
H29A C36A 1_555 1_555
C37A C5A 1_555 1_555
H30A C37A 1_555 1_555
C38A C22A 1_555 1_555
H31A C38A 1_555 1_555
C39A C16A 1_555 1_555
H32A C39A 1_555 1_555
C40A C21A 1_555 1_555
C41A N7A 1_555 1_555
H33A C41A 1_555 1_555
C42A N16A 1_555 1_555
H34A C42A 1_555 1_555
C43A C40A 1_555 1_555
H35A C43A 1_555 1_555
C44A C27A 1_555 1_555
H36A C44A 1_555 1_555
F13A B4 1_555 1_555
F14A B4 1_555 1_555
N6 C10 1_555 1_555
N8 Fe2A 1_555 1_555
N10 Fe2A 1_555 1_555
N12 C12 1_555 1_555
N13 C32 1_555 1_555
N14 C31 1_555 1_555
C3 C41 1_555 1_555
C4 C9 1_555 1_555
C6 C15 1_555 1_555
C6 C36 1_555 1_555
C8 C14 1_555 1_555
C8 C17 1_555 1_555
C11 C12 1_555 1_555
C11 C30 1_555 1_555
C13 C29 1_555 1_555
N15 N16 1_555 1_555
N15 C30 1_555 1_555
C15 C35 1_555 1_555
C18 C19 1_555 1_555
C20 C31 1_555 1_555
C20 C32 1_555 1_555
C22 C25 1_555 1_555
C23 C34 1_555 1_555
C23 C39 1_555 1_555
C25 C42 1_555 1_555
C26 C33 1_555 1_555
C28 C40 1_555 1_555
C37 C38 1_555 1_555
C43 C44 1_555 1_555
N6A C10A 1_555 1_555
N8A C4A 1_555 1_555
N11A C28A 1_555 1_555
N12A C12A 1_555 1_555
N13A C32A 1_555 1_555
N14A C31A 1_555 1_555
C3A C41A 1_555 1_555
C4A C9A 1_555 1_555
C6A C15A 1_555 1_555
C6A C36A 1_555 1_555
C8A C14A 1_555 1_555
C8A C17A 1_555 1_555
C11A C12A 1_555 1_555
C11A C30A 1_555 1_555
C13A C29A 1_555 1_555
N15A N16A 1_555 1_555
N15A C30A 1_555 1_555
C15A C35A 1_555 1_555
C18A C19A 1_555 1_555
C20A C31A 1_555 1_555
C20A C32A 1_555 1_555
C22A C25A 1_555 1_555
C23A C34A 1_555 1_555
C23A C39A 1_555 1_555
C25A C42A 1_555 1_555
C26A C33A 1_555 1_555
C28A C40A 1_555 1_555
C37A C38A 1_555 1_555
C43A C44A 1_555 1_555

#END
