
#######################################################################
#
#                 Cambridge Crystallographic Data Centre
#                                CCDC 
#
#######################################################################
#
# If this CIF has been generated from an entry in the Cambridge 
# Structural Database, then it will include bibliographic, chemical, 
# crystal, experimental, refinement or atomic coordinate data resulting 
# from the CCDC's data processing and validation procedures.
#
#######################################################################

data_HIDMUF
_chemical_formula_moiety         
'C264 H280 Cu8 N32 O16 Zn2 8+,8(C32 H12 B1 F24 1-),5(H2 O1)'
_chemical_name_systematic        
"bis(\m-4,4',4'',4'''-(porphyrin-5,10,15,20-tetrayl)tetrabenzoato)-tetrakis(\m-7,10,13,24,27,30-hexamethyl-7,10,13,24,27,30-hexaazapentacyclo[30.2.2.2^2,5^.2^15,18^.2^19,22^]dotetraconta-1(34),2,4,15,17,19,21,32,35,37,39,41-dodecaene)-octa-copper(ii)-di-zinc(ii) octakis(tetrakis(3,5--bis(trifluoromethyl)phenyl)borate) unknown solvate pentahydrate"
_symmetry_cell_setting           monoclinic
_symmetry_space_group_name_H-M   'P 21/c'
_symmetry_Int_Tables_number      14
_space_group_name_Hall           '-P 2ybc'
loop_
_symmetry_equiv_pos_site_id
_symmetry_equiv_pos_as_xyz
1 x,y,z
2 -x,1/2+y,1/2-z
3 -x,-y,-z
4 x,1/2-y,1/2+z
_cell_length_a                   45.200(7)
_cell_length_b                   45.530(9)
_cell_length_c                   34.840(9)
_cell_angle_alpha                90
_cell_angle_beta                 92.22(3)
_cell_angle_gamma                90
_cell_volume                     71645.4
_exptl_crystal_colour            purple
_exptl_crystal_description       prism
_cell_formula_units_Z            4
loop_
_atom_site_label
_atom_site_type_symbol
_atom_site_fract_x
_atom_site_fract_y
_atom_site_fract_z
O9 O 0.4991(3) 0.4925(3) 0.4082(4)
O10 O 0.9943(4) 0.4916(4) 0.0886(5)
O11 O 0.9989(4) 0.4823(5) 0.2462(6)
O12 O 0.5032(6) 0.4942(6) 0.2492(8)
Cu1 Cu 0.46024(4) 0.25054(3) 0.66364(4)
Cu2 Cu 0.43843(5) 0.24149(4) 0.34988(5)
Zn1 Zn 0.49629(3) 0.49353(3) 0.33819(6)
Cu3 Cu 0.23998(4) 0.54159(6) 0.35320(5)
Cu4 Cu 0.75285(4) 0.44941(5) 0.33090(5)
O1 O 0.44974(18) 0.28201(19) 0.3430(3)
N1 N 0.47089(19) 0.5288(2) 0.3358(3)
N2 N 0.45768(19) 0.4693(2) 0.3352(3)
O2 O 0.2841(2) 0.5361(2) 0.3496(3)
N3 N 0.5325(2) 0.5189(2) 0.3340(3)
O3 O 0.4535(2) 0.2834(2) 0.2781(3)
O4 O 0.53278(19) 0.70811(17) 0.3413(3)
N4 N 0.4156(2) 0.25154(19) 0.6676(3)
N5 N 0.52206(19) 0.4573(2) 0.3325(3)
N6 N 0.5026(2) 0.2412(2) 0.6741(3)
N7 N 0.4540(2) 0.2073(2) 0.6583(3)
C1 C 0.5512(3) 0.4525(3) 0.3310(3)
C2 C 0.4311(3) 0.4809(3) 0.3349(3)
C3 C 0.4815(3) 0.5602(3) 0.3380(4)
C4 C 0.3908(3) 0.5186(3) 0.3300(5)
O5 O 0.2842(2) 0.5408(3) 0.2870(3)
C5 C 0.4820(3) 0.4193(3) 0.3311(3)
C6 C 0.4745(3) 0.3878(3) 0.3264(4)
C7 C 0.5046(3) 0.2386(3) 0.3570(4)
C8 C 0.4280(3) 0.5621(3) 0.3361(4)
C9 C 0.4084(2) 0.4535(3) 0.3361(3)
C10 C 0.5620(3) 0.5050(3) 0.3318(4)
C11 C 0.6606(3) 0.4629(3) 0.3122(5)
C12 C 0.5178(3) 0.5988(3) 0.3288(4)
C13 C 0.6038(3) 0.4711(3) 0.3232(5)
C14 C 0.2409(5) 0.4826(5) 0.3059(7)
C15 C 0.5721(3) 0.4762(3) 0.3299(4)
C16 C 0.5114(3) 0.4257(3) 0.3315(3)
C17 C 0.5666(2) 0.5613(3) 0.3323(4)
C18 C 0.4259(2) 0.4294(3) 0.3311(4)
C19 C 0.3437(3) 0.5227(3) 0.3639(5)
C20 C 0.4407(3) 0.5323(3) 0.3358(4)
C21 C 0.5823(2) 0.5359(3) 0.3330(4)
C22 C 0.4611(3) 0.3265(3) 0.3178(4)
C23 C 0.5605(3) 0.4244(3) 0.3249(3)
C24 C 0.5291(3) 0.6627(4) 0.3178(4)
C25 C 0.4566(3) 0.4389(3) 0.3328(4)
C26 C 0.5180(3) 0.6165(3) 0.3586(4)
C27 C 0.4576(3) 0.5784(3) 0.3387(4)
C28 C 0.4120(3) 0.2833(3) 0.4189(4)
C29 C 0.6526(3) 0.4640(3) 0.3479(5)
C30 C 0.3838(3) 0.2818(3) 0.3585(4)
C31 C 0.5087(3) 0.5675(3) 0.3358(4)
C32 C 0.5130(3) 0.2463(3) 0.4843(4)
C33 C 0.3918(3) 0.2774(2) 0.4825(3)
C34 C 0.4209(3) 0.5096(3) 0.3369(4)
C35 C 0.3980(3) 0.2783(3) 0.6050(4)
C36 C 0.4736(3) 0.3748(3) 0.2891(4)
C37 C 0.3306(4) 0.5321(3) 0.3212(5)
C38 C 0.2648(3) 0.5008(3) 0.4276(5)
C39 C 0.4150(3) 0.2852(3) 0.4611(4)
N8 N 0.4263(4) 0.2005(4) 0.3625(4)
C40 C 0.4174(3) 0.2864(3) 0.5892(4)
C41 C 0.4723(3) 0.3692(3) 0.3574(4)
C42 C 0.5364(3) 0.4079(3) 0.3275(3)
C43 C 0.4547(3) 0.2950(4) 0.3095(5)
C44 C 0.2633(4) 0.6069(4) 0.3619(5)
C45 C 0.4627(3) 0.3379(3) 0.3526(4)
C46 C 0.3875(3) 0.2794(3) 0.4029(4)
C47 C 0.2526(4) 0.4840(4) 0.6113(5)
C48 C 0.5218(3) 0.2553(3) 0.6071(4)
C49 C 0.5139(3) 0.2497(3) 0.5279(4)
C50 C 0.5335(3) 0.5514(3) 0.3346(4)
C51 C 0.3958(4) 0.2723(4) 0.6474(5)
C52 C 0.3465(4) 0.5317(4) 0.2938(4)
C53 C 0.5357(3) 0.2339(3) 0.5463(4)
C54 C 0.4944(3) 0.2651(3) 0.4199(4)
C55 C 0.5263(4) 0.2569(3) 0.6538(5)
C56 C 0.3773(3) 0.5254(3) 0.2966(4)
O6 O 0.7132(2) 0.4557(2) 0.3324(3)
C57 C 0.2501(3) 0.4818(3) 0.5271(5)
C58 C 0.3921(3) 0.2768(3) 0.5265(4)
N9 N 0.2304(3) 0.4980(3) 0.3488(4)
C59 C 0.5203(3) 0.6094(3) 0.2948(4)
C60 C 0.2523(3) 0.4810(4) 0.4111(5)
C61 C 0.5079(4) 0.2417(4) 0.4025(6)
C62 C 0.4631(3) 0.3436(3) 0.2867(4)
C63 C 0.4961(3) 0.2673(3) 0.5473(5)
C64 C 0.4980(3) 0.2745(4) 0.5881(5)
C65 C 0.2694(4) 0.6123(4) 0.6551(6)
C66 C 0.2406(4) 0.5948(4) 0.3048(6)
C67 C 0.4158(4) 0.2843(4) 0.5478(5)
C68 C 0.2676(4) 0.6082(5) 0.5300(6)
C69 C 0.2827(4) 0.5866(4) 0.4667(5)
C70 C 0.6234(3) 0.4688(3) 0.3532(4)
C71 C 0.2663(4) 0.5013(4) 0.5542(6)
C72 C 0.2788(3) 0.5832(4) 0.4252(5)
C73 C 0.2657(3) 0.5026(3) 0.4691(5)
C74 C 0.3721(3) 0.5147(3) 0.3638(5)
C75 C 0.2550(5) 0.4897(5) 0.6566(7)
C76 C 0.6110(3) 0.4706(4) 0.2866(5)
C77 C 0.2649(4) 0.6023(5) 0.4017(7)
C78 C 0.5373(3) 0.2365(4) 0.5899(5)
C79 C 0.2386(4) 0.4610(5) 0.4288(6)
C80 C 0.4967(3) 0.2660(3) 0.4610(4)
C81 C 0.2768(4) 0.5841(4) 0.5459(5)
C82 C 0.6400(3) 0.4675(4) 0.2809(4)
C83 C 0.5279(4) 0.2256(4) 0.4699(6)
C84 C 0.2485(3) 0.4824(3) 0.4866(4)
C85 C 0.5290(3) 0.6456(3) 0.2828(4)
C86 C 0.3600(4) 0.2766(4) 0.4231(6)
C87 C 0.3706(3) 0.2632(3) 0.5456(4)
C88 C 0.2331(3) 0.4600(3) 0.4752(4)
C89 C 0.5289(6) 0.2292(6) 0.4344(10)
C90 C 0.2189(4) 0.6092(4) 0.6582(5)
C91 C 0.2296(4) 0.4672(4) 0.5959(5)
N10 N 0.2401(3) 0.5902(5) 0.3506(4)
C92 C 0.2645(4) 0.6044(4) 0.4872(6)
C93 C 0.2643(6) 0.6410(7) 0.5948(10)
O7 O 0.5386(2) 0.6988(2) 0.2758(3)
C94 C 0.3771(3) 0.2260(4) 0.3569(4)
C95 C 0.2958(4) 0.5361(4) 0.3147(6)
C96 C 0.4080(3) 0.2559(3) 0.7117(5)
C97 C 0.5104(3) 0.2476(3) 0.7141(4)
C98 C 0.4551(5) 0.1813(4) 0.3538(5)
C99 C 0.3966(4) 0.1964(4) 0.3504(5)
N11 N 0.3961(3) 0.2484(3) 0.3418(3)
O8 O 0.7024(2) 0.4503(3) 0.2661(3)
N12 N 0.2061(6) 0.5556(4) 0.6613(5)
N13 N 0.1944(3) 0.5407(5) 0.3651(4)
C100 C 0.5329(3) 0.6926(4) 0.3083(6)
C101 C 0.5232(3) 0.6521(3) 0.3535(4)
C102 C 0.5086(3) 0.2055(3) 0.6686(3)
C103 C 0.4031(3) 0.2192(3) 0.6553(4)
C104 C 0.4796(3) 0.1929(3) 0.6781(4)
C105 C 0.6980(4) 0.4565(3) 0.2997(7)
C106 C 0.2707(4) 0.6132(5) 0.6091(6)
N14 N 0.4765(4) 0.2248(3) 0.3460(3)
C107 C 0.4238(3) 0.1996(3) 0.6708(4)
C108 C 0.3889(3) 0.2549(3) 0.2971(4)
C109 C 0.1816(3) 0.5171(4) 0.3475(5)
C110 C 0.4551(4) 0.1979(4) 0.6144(6)
C111 C 0.2017(5) 0.5086(5) 0.6757(6)
N15 N 0.2351(3) 0.5128(4) 0.6836(5)
N16 N 0.2471(3) 0.5907(5) 0.6709(3)
C112 C 0.4260(4) 0.2040(4) 0.4138(5)
C113 C 0.2109(5) 0.5932(5) 0.3592(6)
C114 C 0.2682(4) 0.5061(4) 0.5961(5)
C115 C 0.2303(4) 0.4736(4) 0.5509(6)
C116 C 0.1996(5) 0.5899(6) 0.6687(6)
C117 C 0.2547(4) 0.4790(4) 0.3650(5)
C118 C 0.3625(4) 0.2730(4) 0.4665(5)
C119 C 0.4811(4) 0.1916(4) 0.3578(5)
C120 C 0.3742(4) 0.2690(4) 0.5880(6)
C121 C 0.4826(3) 0.2200(4) 0.2995(5)
C122 C 0.2437(4) 0.5063(4) 0.7244(7)
C123 C 0.1874(5) 0.5359(5) 0.6821(7)
C124 C 0.2569(5) 0.6253(6) 0.4175(8)
C125 C 0.2007(4) 0.4919(4) 0.3562(5)
C126 C 0.1882(4) 0.5705(5) 0.3478(6)
C127 C 0.2790(3) 0.5847(4) 0.5937(5)
C128 C 0.2664(4) 0.6329(5) 0.5532(7)
C129 C 0.1930(4) 0.5428(4) 0.4077(6)
C130 C 0.2529(4) 0.6000(5) 0.7192(6)
C131 C 0.2601(5) 0.6271(5) 0.4627(7)
C132 C 0.1962(5) 0.5549(5) 0.6082(7)
Cu1B Cu 0.53976(4) 0.74946(3) 0.33636(4)
Cu2B Cu 0.56157(5) 0.75851(4) 0.65012(5)
Zn1B Zn 0.50371(3) 0.50647(3) 0.66181(6)
Cu3B Cu 0.76002(4) 0.45841(6) 0.64680(5)
Cu4B Cu 0.24715(4) 0.55059(5) 0.66910(5)
O1B O 0.55026(18) 0.71799(19) 0.6570(3)
N1B N 0.52911(19) 0.4712(2) 0.6642(3)
N2B N 0.54232(19) 0.5307(2) 0.6648(3)
O2B O 0.7159(2) 0.4639(2) 0.6504(3)
N3B N 0.4675(2) 0.4811(2) 0.6660(3)
O3B O 0.5465(2) 0.7166(2) 0.7219(3)
O4B O 0.46722(19) 0.29189(17) 0.6587(3)
N4B N 0.5844(2) 0.74846(19) 0.3324(3)
N5B N 0.47794(19) 0.5427(2) 0.6675(3)
N6B N 0.4974(2) 0.7588(2) 0.3259(3)
N7B N 0.5460(2) 0.7927(2) 0.3417(3)
C1B C 0.4488(3) 0.5475(3) 0.6690(3)
C2B C 0.5689(3) 0.5191(3) 0.6651(3)
C3B C 0.5185(3) 0.4398(3) 0.6620(4)
C4B C 0.6092(3) 0.4814(3) 0.6700(5)
O5B O 0.7158(2) 0.4592(3) 0.7130(3)
C5B C 0.5180(3) 0.5807(3) 0.6689(3)
C6B C 0.5255(3) 0.6122(3) 0.6736(4)
C7B C 0.4954(3) 0.7614(3) 0.6430(4)
C8B C 0.5720(3) 0.4379(3) 0.6639(4)
C9B C 0.5916(2) 0.5465(3) 0.6639(3)
C10B C 0.4380(3) 0.4950(3) 0.6682(4)
C11B C 0.3394(3) 0.5371(3) 0.6878(5)
C12B C 0.4822(3) 0.4012(3) 0.6712(4)
C13B C 0.3962(3) 0.5289(3) 0.6768(5)
C14B C 0.7591(5) 0.5174(5) 0.6941(7)
C15B C 0.4279(3) 0.5238(3) 0.6701(4)
C16B C 0.4886(3) 0.5743(3) 0.6685(3)
C17B C 0.4334(2) 0.4387(3) 0.6677(4)
C18B C 0.5741(2) 0.5706(3) 0.6689(4)
C19B C 0.6563(3) 0.4773(3) 0.6361(5)
C20B C 0.5593(3) 0.4677(3) 0.6642(4)
C21B C 0.4177(2) 0.4641(3) 0.6670(4)
C22B C 0.5389(3) 0.6735(3) 0.6822(4)
C23B C 0.4395(3) 0.5756(3) 0.6751(3)
C24B C 0.4709(3) 0.3373(4) 0.6822(4)
C25B C 0.5434(3) 0.5611(3) 0.6672(4)
C26B C 0.4820(3) 0.3835(3) 0.6414(4)
C27B C 0.5424(3) 0.4216(3) 0.6613(4)
C28B C 0.5880(3) 0.7167(3) 0.5811(4)
C29B C 0.3474(3) 0.5360(3) 0.6521(5)
C30B C 0.6162(3) 0.7182(3) 0.6415(4)
C31B C 0.4913(3) 0.4325(3) 0.6642(4)
C32B C 0.4870(3) 0.7537(3) 0.5157(4)
C33B C 0.6082(3) 0.7226(2) 0.5175(3)
C34B C 0.5791(3) 0.4904(3) 0.6631(4)
C35B C 0.6020(3) 0.7217(3) 0.3950(4)
C36B C 0.5264(3) 0.6252(3) 0.7109(4)
C37B C 0.6694(4) 0.4679(3) 0.6788(5)
C38B C 0.7352(3) 0.4992(3) 0.5724(5)
C39B C 0.5850(3) 0.7148(3) 0.5389(4)
N8B N 0.5737(4) 0.7995(4) 0.6375(4)
C40B C 0.5826(3) 0.7136(3) 0.4108(4)
C41B C 0.5277(3) 0.6308(3) 0.6426(4)
C42B C 0.4636(3) 0.5921(3) 0.6725(3)
C43B C 0.5453(3) 0.7050(4) 0.6905(5)
C44B C 0.7367(4) 0.3931(4) 0.6381(5)
C45B C 0.5373(3) 0.6621(3) 0.6474(4)
C46B C 0.6125(3) 0.7206(3) 0.5971(4)
C47B C 0.7474(4) 0.5160(4) 0.3887(5)
C48B C 0.4782(3) 0.7447(3) 0.3929(4)
C49B C 0.4861(3) 0.7503(3) 0.4721(4)
C50B C 0.4665(3) 0.4486(3) 0.6654(4)
C51B C 0.6042(4) 0.7277(4) 0.3526(5)
C52B C 0.6535(4) 0.4683(4) 0.7062(4)
C53B C 0.4643(3) 0.7661(3) 0.4537(4)
C54B C 0.5056(3) 0.7349(3) 0.5801(4)
C55B C 0.4737(4) 0.7431(3) 0.3462(5)
C56B C 0.6227(3) 0.4746(3) 0.7034(4)
O6B O 0.2868(2) 0.5443(2) 0.6676(3)
C57B C 0.7499(3) 0.5182(3) 0.4729(5)
C58B C 0.6079(3) 0.7232(3) 0.4735(4)
N9B N 0.7696(3) 0.5020(3) 0.6512(4)
C59B C 0.4797(3) 0.3906(3) 0.7052(4)
C60B C 0.7477(3) 0.5190(4) 0.5889(5)
C61B C 0.4921(4) 0.7583(4) 0.5975(6)
C62B C 0.5369(3) 0.6564(3) 0.7133(4)
C63B C 0.5039(3) 0.7327(3) 0.4527(5)
C64B C 0.5020(3) 0.7255(4) 0.4119(5)
C65B C 0.7306(4) 0.3877(4) 0.3449(6)
C66B C 0.7594(4) 0.4052(4) 0.6952(6)
C67B C 0.5842(4) 0.7157(4) 0.4522(5)
C68B C 0.7324(4) 0.3918(5) 0.4700(6)
C69B C 0.7173(4) 0.4134(4) 0.5333(5)
C70B C 0.3766(3) 0.5312(3) 0.6468(4)
C71B C 0.7337(4) 0.4987(4) 0.4458(6)
C72B C 0.7212(3) 0.4168(4) 0.5748(5)
C73B C 0.7343(3) 0.4974(3) 0.5309(5)
C74B C 0.6279(3) 0.4853(3) 0.6362(5)
C75B C 0.7450(5) 0.5103(5) 0.3434(7)
C76B C 0.3890(3) 0.5294(4) 0.7134(5)
C77B C 0.7351(4) 0.3977(5) 0.5983(7)
C78B C 0.4627(3) 0.7635(4) 0.4101(5)
C79B C 0.7614(4) 0.5390(5) 0.5712(6)
C80B C 0.5033(3) 0.7340(3) 0.5390(4)
C81B C 0.7232(4) 0.4159(4) 0.4541(5)
C82B C 0.3600(3) 0.5325(4) 0.7191(4)
C83B C 0.4721(4) 0.7744(4) 0.5301(6)
C84B C 0.7515(3) 0.5176(3) 0.5134(4)
C85B C 0.4710(3) 0.3544(3) 0.7172(4)
C86B C 0.6400(4) 0.7234(4) 0.5769(6)
C87B C 0.6294(3) 0.7368(3) 0.4544(4)
C88B C 0.7669(3) 0.5400(3) 0.5248(4)
C89B C 0.4711(6) 0.7708(6) 0.5656(10)
C90B C 0.7811(4) 0.3908(4) 0.3418(5)
C91B C 0.7704(4) 0.5328(4) 0.4041(5)
N10B N 0.7599(3) 0.4098(5) 0.6494(4)
C92B C 0.7355(4) 0.3956(4) 0.5128(6)
C93B C 0.7357(6) 0.3590(7) 0.4052(10)
O7B O 0.4614(2) 0.3012(2) 0.7242(3)
C94B C 0.6229(3) 0.7740(4) 0.6431(4)
C95B C 0.7042(4) 0.4639(4) 0.6853(6)
C96B C 0.5920(3) 0.7441(3) 0.2883(5)
C97B C 0.4896(3) 0.7524(3) 0.2859(4)
C98B C 0.5449(5) 0.8187(4) 0.6462(5)
C99B C 0.6034(4) 0.8036(4) 0.6496(5)
N11B N 0.6039(3) 0.7516(3) 0.6582(3)
O8B O 0.2976(2) 0.5497(3) 0.7339(3)
N12B N 0.7939(6) 0.4444(4) 0.3387(5)
N13B N 0.8056(3) 0.4593(5) 0.6349(4)
C100B C 0.4671(3) 0.3074(4) 0.6917(6)
C101B C 0.4768(3) 0.3479(3) 0.6465(4)
C102B C 0.4914(3) 0.7945(3) 0.3314(3)
C103B C 0.5969(3) 0.7808(3) 0.3447(4)
C104B C 0.5204(3) 0.8071(3) 0.3219(4)
C105B C 0.3020(4) 0.5435(3) 0.7003(7)
C106B C 0.7293(4) 0.3868(5) 0.3909(6)
N14B N 0.5235(4) 0.7752(3) 0.6540(3)
C107B C 0.5762(3) 0.8004(3) 0.3292(4)
C108B C 0.6111(3) 0.7451(3) 0.7029(4)
C109B C 0.8184(3) 0.4829(4) 0.6525(5)
C110B C 0.5449(4) 0.8021(4) 0.3856(6)
C111B C 0.7983(5) 0.4914(5) 0.3243(6)
N15B N 0.7649(3) 0.4872(4) 0.3164(5)
N16B N 0.7529(3) 0.4093(5) 0.3291(3)
C112B C 0.5740(4) 0.7960(4) 0.5862(5)
C113B C 0.7891(5) 0.4068(5) 0.6408(6)
C114B C 0.7318(4) 0.4939(4) 0.4039(5)
C115B C 0.7697(4) 0.5264(4) 0.4491(6)
C116B C 0.8004(5) 0.4101(6) 0.3313(6)
C117B C 0.7453(4) 0.5210(4) 0.6350(5)
C118B C 0.6375(4) 0.7270(4) 0.5335(5)
C119B C 0.5189(4) 0.8084(4) 0.6422(5)
C120B C 0.6258(4) 0.7310(4) 0.4120(6)
C121B C 0.5174(3) 0.7800(4) 0.7005(5)
C122B C 0.7563(4) 0.4937(4) 0.2756(7)
C123B C 0.8126(5) 0.4641(5) 0.3179(7)
C124B C 0.7431(5) 0.3747(6) 0.5825(8)
C125B C 0.7993(4) 0.5081(4) 0.6438(5)
C126B C 0.8118(4) 0.4295(5) 0.6522(6)
C127B C 0.7210(3) 0.4153(4) 0.4063(5)
C128B C 0.7336(4) 0.3671(5) 0.4468(7)
C129B C 0.8070(4) 0.4572(4) 0.5923(6)
C130B C 0.7471(4) 0.4000(5) 0.2808(6)
C131B C 0.7399(5) 0.3729(5) 0.5373(7)
C132B C 0.8038(5) 0.4451(5) 0.3918(7)
loop_
_geom_bond_atom_site_label_1
_geom_bond_atom_site_label_2
_geom_bond_site_symmetry_1
_geom_bond_site_symmetry_2
Cu1 N4 1_555 1_555
Cu2 O1 1_555 1_555
Zn1 N1 1_555 1_555
Cu3 O2 1_555 1_555
Cu4 O6 1_555 1_555
O1 C43 1_555 1_555
N1 C3 1_555 1_555
N2 Zn1 1_555 1_555
O2 C95 1_555 1_555
N3 Zn1 1_555 1_555
O3 C43 1_555 1_555
O4 C100 1_555 1_555
N4 C51 1_555 1_555
N5 Zn1 1_555 1_555
N6 Cu1 1_555 1_555
N7 Cu1 1_555 1_555
C1 N5 1_555 1_555
C2 N2 1_555 1_555
C3 C27 1_555 1_555
C4 C34 1_555 1_555
O5 C95 1_555 1_555
C5 C6 1_555 1_555
C6 C36 1_555 1_555
C7 C61 1_555 1_555
C8 C20 1_555 1_555
C9 C2 1_555 1_555
C10 N3 1_555 1_555
C11 C29 1_555 1_555
C12 C26 1_555 1_555
C13 C15 1_555 1_555
C14 N9 1_555 1_555
C15 C1 1_555 1_555
C16 N5 1_555 1_555
C17 C21 1_555 1_555
C18 C9 1_555 1_555
C19 C37 1_555 1_555
C20 N1 1_555 1_555
C21 C10 1_555 1_555
C22 C43 1_555 1_555
C23 C1 1_555 1_555
C24 C85 1_555 1_555
C25 N2 1_555 1_555
C26 C101 1_555 1_555
C27 C8 1_555 1_555
C28 C39 1_555 1_555
C29 C70 1_555 1_555
C30 C46 1_555 1_555
C31 C3 1_555 1_555
C32 C49 1_555 1_555
C33 C39 1_555 1_555
C34 C2 1_555 1_555
C35 C40 1_555 1_555
C36 C62 1_555 1_555
C37 C52 1_555 1_555
C38 C60 1_555 1_555
N8 Cu2 1_555 1_555
C40 C67 1_555 1_555
C41 C6 1_555 1_555
C42 C16 1_555 1_555
C44 C77 1_555 1_555
C45 C22 1_555 1_555
C46 C28 1_555 1_555
C47 C75 1_555 1_555
C48 C55 1_555 1_555
C49 C53 1_555 1_555
C50 N3 1_555 1_555
C51 C35 1_555 1_555
C52 C56 1_555 1_555
C53 C78 1_555 1_555
C54 C61 1_555 1_555
C55 N6 1_555 1_555
C56 C4 1_555 1_555
O6 C105 1_555 1_555
C57 C71 1_555 1_555
C58 C33 1_555 1_555
N9 Cu3 1_555 1_555
C59 C12 1_555 1_555
C60 C79 1_555 1_555
C61 C89 1_555 1_555
C62 C22 1_555 1_555
C63 C49 1_555 1_555
C64 C48 1_555 1_555
C65 C106 1_555 1_555
C66 N10 1_555 1_555
C67 C58 1_555 1_555
C68 C81 1_555 1_555
C69 C72 1_555 1_555
C70 C13 1_555 1_555
C71 C114 1_555 1_555
C72 C77 1_555 1_555
C73 C38 1_555 1_555
C74 C4 1_555 1_555
C75 N15 1_555 1_555
C76 C13 1_555 1_555
C77 C124 1_555 1_555
C78 C48 1_555 1_555
C79 C88 1_555 1_555
C80 C32 1_555 1_555
C81 C127 1_555 1_555
C82 C11 1_555 1_555
C83 C32 1_555 1_555
C84 C57 1_555 1_555
C85 C59 1_555 1_555
C86 C46 1_555 1_555
C87 C58 1_555 1_555
C88 C84 1_555 1_555
C89 C83 1_555 1_555
C90 N16 1_555 1_555
C91 C47 1_555 1_555
N10 Cu3 1_555 1_555
C92 C68 1_555 1_555
C93 C106 1_555 1_555
O7 C100 1_555 1_555
C94 C99 1_555 1_555
C95 C37 1_555 1_555
C96 N4 1_555 1_555
C97 N6 1_555 1_555
C98 N8 1_555 1_555
C99 N8 1_555 1_555
N11 Cu2 1_555 1_555
O8 C105 1_555 1_555
N12 C116 1_555 1_555
N13 Cu3 1_555 1_555
C100 C24 1_555 1_555
C101 C24 1_555 1_555
C102 N6 1_555 1_555
C103 N4 1_555 1_555
C104 N7 1_555 1_555
C105 C11 1_555 1_555
C106 C127 1_555 1_555
N14 Cu2 1_555 1_555
C107 N7 1_555 1_555
C108 N11 1_555 1_555
C109 N13 1_555 1_555
C110 N7 1_555 1_555
C111 N15 1_555 1_555
N15 C122 1_555 1_555
N16 C65 1_555 1_555
C112 N8 1_555 1_555
C113 N10 1_555 1_555
C114 C47 1_555 1_555
C115 C57 1_555 1_555
C116 C90 1_555 1_555
C117 N9 1_555 1_555
C118 C33 1_555 1_555
C119 C98 1_555 1_555
C120 C35 1_555 1_555
C121 N14 1_555 1_555
C123 N12 1_555 1_555
C124 C131 1_555 1_555
C125 N9 1_555 1_555
C126 N13 1_555 1_555
C128 C68 1_555 1_555
C129 N13 1_555 1_555
C130 N16 1_555 1_555
C131 C92 1_555 1_555
C132 N12 1_555 1_555
Cu1B O4 1_555 1_555
Cu2B O1B 1_555 1_555
Zn1B N1B 1_555 1_555
Cu3B O2B 1_555 1_555
Cu4B N12 1_555 1_555
O1B C43B 1_555 1_555
N1B C3B 1_555 1_555
N2B Zn1B 1_555 1_555
O2B C95B 1_555 1_555
N3B Zn1B 1_555 1_555
O3B C43B 1_555 1_555
O4B Cu1 1_555 1_555
N4B Cu1B 1_555 1_555
N5B Zn1B 1_555 1_555
N6B Cu1B 1_555 1_555
N7B Cu1B 1_555 1_555
C1B N5B 1_555 1_555
C2B N2B 1_555 1_555
C3B C27B 1_555 1_555
C4B C34B 1_555 1_555
O5B C95B 1_555 1_555
C5B C6B 1_555 1_555
C6B C36B 1_555 1_555
C7B C61B 1_555 1_555
C8B C20B 1_555 1_555
C9B C2B 1_555 1_555
C10B N3B 1_555 1_555
C11B C29B 1_555 1_555
C12B C26B 1_555 1_555
C13B C15B 1_555 1_555
C14B N9B 1_555 1_555
C15B C1B 1_555 1_555
C16B N5B 1_555 1_555
C17B C21B 1_555 1_555
C18B C9B 1_555 1_555
C19B C37B 1_555 1_555
C20B N1B 1_555 1_555
C21B C10B 1_555 1_555
C22B C43B 1_555 1_555
C23B C1B 1_555 1_555
C24B C85B 1_555 1_555
C25B N2B 1_555 1_555
C26B C101B 1_555 1_555
C27B C8B 1_555 1_555
C28B C39B 1_555 1_555
C29B C70B 1_555 1_555
C30B C46B 1_555 1_555
C31B C3B 1_555 1_555
C32B C49B 1_555 1_555
C33B C39B 1_555 1_555
C34B C2B 1_555 1_555
C35B C40B 1_555 1_555
C36B C62B 1_555 1_555
C37B C52B 1_555 1_555
C38B C60B 1_555 1_555
N8B Cu2B 1_555 1_555
C40B C67B 1_555 1_555
C41B C6B 1_555 1_555
C42B C16B 1_555 1_555
C44B C77B 1_555 1_555
C45B C22B 1_555 1_555
C46B C28B 1_555 1_555
C47B C75B 1_555 1_555
C48B C55B 1_555 1_555
C49B C53B 1_555 1_555
C50B N3B 1_555 1_555
C51B N4B 1_555 1_555
C52B C56B 1_555 1_555
C53B C78B 1_555 1_555
C54B C61B 1_555 1_555
C55B N6B 1_555 1_555
C56B C4B 1_555 1_555
O6B Cu4B 1_555 1_555
C57B C71B 1_555 1_555
C58B C33B 1_555 1_555
N9B Cu3B 1_555 1_555
C59B C12B 1_555 1_555
C60B C79B 1_555 1_555
C61B C89B 1_555 1_555
C62B C22B 1_555 1_555
C63B C49B 1_555 1_555
C64B C48B 1_555 1_555
C65B C106B 1_555 1_555
C66B N10B 1_555 1_555
C67B C58B 1_555 1_555
C68B C81B 1_555 1_555
C69B C72B 1_555 1_555
C70B C13B 1_555 1_555
C71B C114B 1_555 1_555
C72B C77B 1_555 1_555
C73B C38B 1_555 1_555
C74B C4B 1_555 1_555
C75B N15B 1_555 1_555
C76B C13B 1_555 1_555
C77B C124B 1_555 1_555
C78B C48B 1_555 1_555
C79B C88B 1_555 1_555
C80B C32B 1_555 1_555
C81B C127B 1_555 1_555
C82B C11B 1_555 1_555
C83B C32B 1_555 1_555
C84B C57B 1_555 1_555
C85B C59B 1_555 1_555
C86B C46B 1_555 1_555
C87B C58B 1_555 1_555
C88B C84B 1_555 1_555
C89B C83B 1_555 1_555
C90B N16B 1_555 1_555
C91B C47B 1_555 1_555
N10B Cu3B 1_555 1_555
C92B C68B 1_555 1_555
C93B C106B 1_555 1_555
O7B C100B 1_555 1_555
C94B C99B 1_555 1_555
C95B C37B 1_555 1_555
C96B N4B 1_555 1_555
C97B N6B 1_555 1_555
C98B N8B 1_555 1_555
C99B N8B 1_555 1_555
N11B Cu2B 1_555 1_555
O8B C105B 1_555 1_555
N12B Cu4 1_555 1_555
N13B Cu3B 1_555 1_555
C100B O4B 1_555 1_555
C101B C24B 1_555 1_555
C102B N6B 1_555 1_555
C103B N4B 1_555 1_555
C104B N7B 1_555 1_555
C105B C11B 1_555 1_555
C106B C127B 1_555 1_555
N14B Cu2B 1_555 1_555
C107B N7B 1_555 1_555
C108B N11B 1_555 1_555
C109B N13B 1_555 1_555
C110B N7B 1_555 1_555
C111B N15B 1_555 1_555
N15B Cu4 1_555 1_555
N16B Cu4 1_555 1_555
C112B N8B 1_555 1_555
C113B N10B 1_555 1_555
C114B C47B 1_555 1_555
C115B C57B 1_555 1_555
C116B C90B 1_555 1_555
C117B N9B 1_555 1_555
C118B C33B 1_555 1_555
C119B C98B 1_555 1_555
C120B C35B 1_555 1_555
C121B N14B 1_555 1_555
C122B N15B 1_555 1_555
C123B N12B 1_555 1_555
C124B C131B 1_555 1_555
C125B N9B 1_555 1_555
C126B N13B 1_555 1_555
C128B C68B 1_555 1_555
C129B N13B 1_555 1_555
C130B N16B 1_555 1_555
C131B C92B 1_555 1_555
C132B N12B 1_555 1_555
C5 C16 1_555 1_555
C5 C25 1_555 1_555
C7 N14 1_555 1_555
C10 C15 1_555 1_555
C12 C31 1_555 1_555
C17 C50 1_555 1_555
C18 C25 1_555 1_555
C19 C74 1_555 1_555
C20 C34 1_555 1_555
C23 C42 1_555 1_555
C30 N11 1_555 1_555
C31 C50 1_555 1_555
C41 C45 1_555 1_555
C44 N10 1_555 1_555
C54 C80 1_555 1_555
C60 C117 1_555 1_555
C63 C64 1_555 1_555
C69 C92 1_555 1_555
C73 C84 1_555 1_555
C76 C82 1_555 1_555
C86 C118 1_555 1_555
C87 C120 1_555 1_555
C91 C115 1_555 1_555
C93 C128 1_555 1_555
C94 N11 1_555 1_555
C102 C104 1_555 1_555
C103 C107 1_555 1_555
N14 C119 1_555 1_555
C109 C125 1_555 1_555
C111 C123 1_555 1_555
N15 Cu4B 1_555 1_555
N16 Cu4B 1_555 1_555
C113 C126 1_555 1_555
C5B C16B 1_555 1_555
C5B C25B 1_555 1_555
C7B N14B 1_555 1_555
C10B C15B 1_555 1_555
C12B C31B 1_555 1_555
C17B C50B 1_555 1_555
C18B C25B 1_555 1_555
C19B C74B 1_555 1_555
C20B C34B 1_555 1_555
C23B C42B 1_555 1_555
C24B C100B 1_555 1_555
C30B N11B 1_555 1_555
C31B C50B 1_555 1_555
C35B C51B 1_555 1_555
C41B C45B 1_555 1_555
C44B N10B 1_555 1_555
C54B C80B 1_555 1_555
O6B C105B 1_555 1_555
C60B C117B 1_555 1_555
C63B C64B 1_555 1_555
C65B N16B 1_555 1_555
C69B C92B 1_555 1_555
C73B C84B 1_555 1_555
C76B C82B 1_555 1_555
C86B C118B 1_555 1_555
C87B C120B 1_555 1_555
C91B C115B 1_555 1_555
C93B C128B 1_555 1_555
C94B N11B 1_555 1_555
N12B C116B 1_555 1_555
C102B C104B 1_555 1_555
C103B C107B 1_555 1_555
N14B C119B 1_555 1_555
C109B C125B 1_555 1_555
C111B C123B 1_555 1_555
C113B C126B 1_555 1_555

#END
