# generated using pymatgen
data_Zn2Cu8C263(N8O5)4
_symmetry_space_group_name_H-M   'P 1'
_cell_length_a   34.84000000
_cell_length_b   45.20000000
_cell_length_c   45.53000000
_cell_angle_alpha   90.00000000
_cell_angle_beta   90.00000000
_cell_angle_gamma   92.22000000
_symmetry_Int_Tables_number   1
_chemical_formula_structural   Zn2Cu8C263(N8O5)4
_chemical_formula_sum   'Zn8 Cu32 C1052 N128 O80'
_cell_volume   71645.37362092
_cell_formula_units_Z   4
loop_
 _symmetry_equiv_pos_site_id
 _symmetry_equiv_pos_as_xyz
  1  'x, y, z'
loop_
 _atom_site_type_symbol
 _atom_site_label
 _atom_site_symmetry_multiplicity
 _atom_site_fract_x
 _atom_site_fract_y
 _atom_site_fract_z
 _atom_site_occupancy
  Zn  Zn1  1  0.167930  0.997390  0.489050  1
  Zn  Zn2  1  0.332070  0.002610  0.989050  1
  Zn  Zn3  1  0.832070  0.002610  0.510950  1
  Zn  Zn4  1  0.667930  0.997390  0.010950  1
  Zn  Zn5  1  0.338190  0.496290  0.493530  1.0
  Zn  Zn6  1  0.161810  0.503710  0.993530  1.0
  Zn  Zn7  1  0.661810  0.503710  0.506470  1.0
  Zn  Zn8  1  0.838190  0.496290  0.006470  1.0
  Cu  Cu9  1  0.164490  0.251850  0.546480  1
  Cu  Cu10  1  0.335510  0.748150  0.046480  1
  Cu  Cu11  1  0.835510  0.748150  0.453520  1
  Cu  Cu12  1  0.664490  0.251850  0.953520  1
  Cu  Cu13  1  0.173920  0.955930  0.743950  1
  Cu  Cu14  1  0.326080  0.044070  0.243950  1
  Cu  Cu15  1  0.826080  0.044070  0.256050  1
  Cu  Cu16  1  0.673920  0.955930  0.756050  1
  Cu  Cu17  1  0.863210  0.929800  0.757030  1
  Cu  Cu18  1  0.636790  0.070200  0.257030  1
  Cu  Cu19  1  0.136790  0.070200  0.242970  1
  Cu  Cu20  1  0.363210  0.929800  0.742970  1
  Cu  Cu21  1  0.143880  0.744420  0.426270  1
  Cu  Cu22  1  0.356120  0.255580  0.926270  1
  Cu  Cu23  1  0.856120  0.255580  0.573730  1
  Cu  Cu24  1  0.643880  0.744420  0.073730  1
  Cu  Cu25  1  0.663640  0.460240  0.250540  1.0
  Cu  Cu26  1  0.836360  0.539760  0.750540  1.0
  Cu  Cu27  1  0.336360  0.539760  0.749460  1.0
  Cu  Cu28  1  0.163640  0.460240  0.249460  1.0
  Cu  Cu29  1  0.349880  0.438430  0.241490  1.0
  Cu  Cu30  1  0.150120  0.561570  0.741490  1.0
  Cu  Cu31  1  0.650120  0.561570  0.758510  1.0
  Cu  Cu32  1  0.849880  0.438430  0.258510  1.0
  Cu  Cu33  1  0.353200  0.239980  0.541590  1.0
  Cu  Cu34  1  0.146800  0.760020  0.041590  1.0
  Cu  Cu35  1  0.646800  0.760020  0.458410  1.0
  Cu  Cu36  1  0.853200  0.239980  0.958410  1.0
  Cu  Cu37  1  0.330900  0.752850  0.449410  1.0
  Cu  Cu38  1  0.169100  0.247150  0.949410  1.0
  Cu  Cu39  1  0.669100  0.247150  0.550590  1.0
  Cu  Cu40  1  0.830900  0.752850  0.050590  1.0
  C  C41  1  0.174700  0.011100  0.555500  1
  C  C42  1  0.325300  0.988900  0.055500  1
  C  C43  1  0.825300  0.988900  0.444500  1
  C  C44  1  0.674700  0.011100  0.944500  1
  C  C45  1  0.174300  0.891000  0.465400  1
  C  C46  1  0.325700  0.109000  0.965400  1
  C  C47  1  0.825700  0.109000  0.534600  1
  C  C48  1  0.674300  0.891000  0.034600  1
  C  C49  1  0.167900  0.019400  0.384600  1
  C  C50  1  0.332100  0.980600  0.884600  1
  C  C51  1  0.832100  0.980600  0.615400  1
  C  C52  1  0.667900  0.019400  0.115400  1
  C  C53  1  0.167300  0.959600  0.400600  1
  C  C54  1  0.332700  0.040400  0.900600  1
  C  C55  1  0.832700  0.040400  0.599400  1
  C  C56  1  0.667300  0.959600  0.099400  1
  C  C57  1  0.185200  0.974100  0.803200  1
  C  C58  1  0.314800  0.025900  0.303200  1
  C  C59  1  0.814800  0.025900  0.196800  1
  C  C60  1  0.685200  0.974100  0.696800  1
  C  C61  1  0.170900  0.065000  0.478900  1
  C  C62  1  0.329100  0.935000  0.978900  1
  C  C63  1  0.829100  0.935000  0.521100  1
  C  C64  1  0.670900  0.065000  0.021100  1
  C  C65  1  0.182000  0.973100  0.596000  1
  C  C66  1  0.318000  0.026900  0.096000  1
  C  C67  1  0.818000  0.026900  0.404000  1
  C  C68  1  0.682000  0.973100  0.904000  1
  C  C69  1  0.154500  0.969200  0.644000  1
  C  C70  1  0.345500  0.030800  0.144000  1
  C  C71  1  0.845500  0.030800  0.356000  1
  C  C72  1  0.654500  0.969200  0.856000  1
  C  C73  1  0.180500  0.830500  0.451200  1
  C  C74  1  0.319500  0.169500  0.951200  1
  C  C75  1  0.819500  0.169500  0.548800  1
  C  C76  1  0.680500  0.830500  0.048800  1
  C  C77  1  0.170800  0.050700  0.531800  1
  C  C78  1  0.329200  0.949300  0.031800  1
  C  C79  1  0.829200  0.949300  0.468200  1
  C  C80  1  0.670800  0.050700  0.968200  1
  C  C81  1  0.175400  0.060600  0.561700  1
  C  C82  1  0.324600  0.939400  0.061700  1
  C  C83  1  0.824600  0.939400  0.438300  1
  C  C84  1  0.675400  0.060600  0.938300  1
  C  C85  1  0.170500  0.071800  0.507300  1
  C  C86  1  0.329500  0.928200  0.007300  1
  C  C87  1  0.829500  0.928200  0.492700  1
  C  C88  1  0.670500  0.071800  0.992700  1
  C  C89  1  0.174000  0.069900  0.427600  1
  C  C90  1  0.326000  0.930100  0.927600  1
  C  C91  1  0.826000  0.930100  0.572400  1
  C  C92  1  0.674000  0.069900  0.072400  1
  C  C93  1  0.146000  0.842200  0.458300  1
  C  C94  1  0.354000  0.157800  0.958300  1
  C  C95  1  0.854000  0.157800  0.541700  1
  C  C96  1  0.646000  0.842200  0.041700  1
  C  C97  1  0.172800  0.979100  0.562600  1
  C  C98  1  0.327200  0.020900  0.062600  1
  C  C99  1  0.827200  0.020900  0.437400  1
  C  C100  1  0.672800  0.979100  0.937400  1
  C  C101  1  0.172100  0.932800  0.503000  1
  C  C102  1  0.327900  0.067200  0.003000  1
  C  C103  1  0.827900  0.067200  0.497000  1
  C  C104  1  0.672100  0.932800  0.997000  1
  C  C105  1  0.173600  0.036600  0.321700  1
  C  C106  1  0.326400  0.963400  0.821700  1
  C  C107  1  0.826400  0.963400  0.678300  1
  C  C108  1  0.673600  0.036600  0.178300  1
  C  C109  1  0.934900  0.910400  0.712800  1
  C  C110  1  0.565100  0.089600  0.212800  1
  C  C111  1  0.065100  0.089600  0.287200  1
  C  C112  1  0.434900  0.910400  0.787200  1
  C  C113  1  0.145000  0.124700  0.513000  1
  C  C114  1  0.355000  0.875300  0.013000  1
  C  C115  1  0.855000  0.875300  0.487000  1
  C  C116  1  0.645000  0.124700  0.987000  1
  C  C117  1  0.177200  0.101000  0.515000  1
  C  C118  1  0.322800  0.899000  0.015000  1
  C  C119  1  0.822800  0.899000  0.485000  1
  C  C120  1  0.677200  0.101000  0.985000  1
  C  C121  1  0.159500  0.224600  0.613000  1
  C  C122  1  0.340500  0.775400  0.113000  1
  C  C123  1  0.840500  0.775400  0.387000  1
  C  C124  1  0.659500  0.224600  0.887000  1
  C  C125  1  0.172100  0.925000  0.470700  1
  C  C126  1  0.327900  0.075000  0.970700  1
  C  C127  1  0.827900  0.075000  0.529300  1
  C  C128  1  0.672100  0.925000  0.029300  1
  C  C129  1  0.168500  0.941300  0.447200  1
  C  C130  1  0.331500  0.058700  0.947200  1
  C  C131  1  0.831500  0.058700  0.552800  1
  C  C132  1  0.668500  0.941300  0.052800  1
  C  C133  1  0.168100  0.985800  0.421900  1
  C  C134  1  0.331900  0.014200  0.921900  1
  C  C135  1  0.831900  0.014200  0.578100  1
  C  C136  1  0.668100  0.985800  0.078100  1
  C  C137  1  0.107900  0.244200  0.486600  1
  C  C138  1  0.392100  0.755800  0.986600  1
  C  C139  1  0.892100  0.755800  0.513400  1
  C  C140  1  0.607900  0.244200  0.013400  1
  C  C141  1  0.055700  0.989700  0.726600  1
  C  C142  1  0.444300  0.010300  0.226600  1
  C  C143  1  0.944300  0.010300  0.273400  1
  C  C144  1  0.555700  0.989700  0.773400  1
  C  C145  1  0.168400  0.039000  0.434500  1
  C  C146  1  0.331600  0.961000  0.934500  1
  C  C147  1  0.831600  0.961000  0.565500  1
  C  C148  1  0.668400  0.039000  0.065500  1
  C  C149  1  0.173700  0.925100  0.549600  1
  C  C150  1  0.326300  0.074900  0.049600  1
  C  C151  1  0.826300  0.074900  0.450400  1
  C  C152  1  0.673700  0.925100  0.950400  1
  C  C153  1  0.087800  0.228000  0.507000  1
  C  C154  1  0.412200  0.772000  0.007000  1
  C  C155  1  0.912200  0.772000  0.493000  1
  C  C156  1  0.587800  0.228000  0.993000  1
  C  C157  1  0.971300  0.910500  0.713900  1
  C  C158  1  0.528700  0.089500  0.213900  1
  C  C159  1  0.028700  0.089500  0.286100  1
  C  C160  1  0.471300  0.910500  0.786100  1
  C  C161  1  0.868700  0.879000  0.709000  1
  C  C162  1  0.631300  0.121000  0.209000  1
  C  C163  1  0.131300  0.121000  0.291000  1
  C  C164  1  0.368700  0.879000  0.791000  1
  C  C165  1  0.116600  0.890200  0.723000  1
  C  C166  1  0.383400  0.109800  0.223000  1
  C  C167  1  0.883400  0.109800  0.277000  1
  C  C168  1  0.616600  0.890200  0.777000  1
  C  C169  1  0.964300  0.214100  0.592700  1
  C  C170  1  0.535700  0.785900  0.092700  1
  C  C171  1  0.035700  0.785900  0.407300  1
  C  C172  1  0.464300  0.214100  0.907300  1
  C  C173  1  0.160000  0.892600  0.724100  1
  C  C174  1  0.340000  0.107400  0.224100  1
  C  C175  1  0.840000  0.107400  0.275900  1
  C  C176  1  0.660000  0.892600  0.775900  1
  C  C177  1  0.189600  0.163500  0.530100  1
  C  C178  1  0.310400  0.836500  0.030100  1
  C  C179  1  0.810400  0.836500  0.469900  1
  C  C180  1  0.689600  0.163500  0.969900  1
  C  C181  1  0.152400  0.152500  0.520300  1
  C  C182  1  0.347600  0.847500  0.020300  1
  C  C183  1  0.847600  0.847500  0.479700  1
  C  C184  1  0.652400  0.152500  0.979700  1
  C  C185  1  0.172500  0.957100  0.541200  1
  C  C186  1  0.327500  0.042900  0.041200  1
  C  C187  1  0.827500  0.042900  0.458800  1
  C  C188  1  0.672500  0.957100  0.958800  1
  C  C189  1  0.998500  0.005800  0.749200  1
  C  C190  1  0.501500  0.994200  0.249200  1
  C  C191  1  0.001500  0.994200  0.250800  1
  C  C192  1  0.498500  0.005800  0.750800  1
  C  C193  1  0.219500  0.144400  0.531000  1
  C  C194  1  0.280500  0.855600  0.031000  1
  C  C195  1  0.780500  0.855600  0.469000  1
  C  C196  1  0.719500  0.144400  0.969000  1
  C  C197  1  0.099300  0.912600  0.707300  1
  C  C198  1  0.400700  0.087400  0.207300  1
  C  C199  1  0.900700  0.087400  0.292700  1
  C  C200  1  0.599300  0.912600  0.792700  1
  C  C201  1  0.175900  0.910400  0.524900  1
  C  C202  1  0.324100  0.089600  0.024900  1
  C  C203  1  0.824100  0.089600  0.475100  1
  C  C204  1  0.675900  0.910400  0.975100  1
  C  C205  1  0.865900  0.293700  0.619400  1
  C  C206  1  0.634100  0.706300  0.119400  1
  C  C207  1  0.134100  0.706300  0.380600  1
  C  C208  1  0.365900  0.293700  0.880600  1
  C  C209  1  0.055500  0.911500  0.702800  1
  C  C210  1  0.444500  0.088500  0.202800  1
  C  C211  1  0.944500  0.088500  0.297200  1
  C  C212  1  0.555500  0.911500  0.797200  1
  C  C213  1  0.167700  0.014400  0.414600  1
  C  C214  1  0.332300  0.985600  0.914600  1
  C  C215  1  0.832300  0.985600  0.585400  1
  C  C216  1  0.667700  0.014400  0.085400  1
  C  C217  1  0.872900  0.995600  0.769500  1
  C  C218  1  0.627100  0.004400  0.269500  1
  C  C219  1  0.127100  0.004400  0.230500  1
  C  C220  1  0.372900  0.995600  0.730500  1
  C  C221  1  0.167700  0.934200  0.416400  1
  C  C222  1  0.332300  0.065800  0.916400  1
  C  C223  1  0.832300  0.065800  0.583600  1
  C  C224  1  0.667700  0.934200  0.083600  1
  C  C225  1  0.042100  0.007500  0.742400  1
  C  C226  1  0.457900  0.992500  0.242400  1
  C  C227  1  0.957900  0.992500  0.257600  1
  C  C228  1  0.542100  0.007500  0.757600  1
  C  C229  1  0.932600  0.989800  0.737200  1
  C  C230  1  0.567400  0.010200  0.237200  1
  C  C231  1  0.067400  0.010200  0.262800  1
  C  C232  1  0.432600  0.989800  0.762800  1
  C  C233  1  0.206800  0.030300  0.340800  1
  C  C234  1  0.293200  0.969700  0.840800  1
  C  C235  1  0.793200  0.969700  0.659200  1
  C  C236  1  0.706800  0.030300  0.159200  1
  C  C237  1  0.994100  0.888400  0.716200  1
  C  C238  1  0.505900  0.111600  0.216200  1
  C  C239  1  0.005900  0.111600  0.283800  1
  C  C240  1  0.494100  0.888400  0.783800  1
  C  C241  1  0.090800  0.211000  0.587900  1
  C  C242  1  0.409200  0.789000  0.087900  1
  C  C243  1  0.909200  0.789000  0.412100  1
  C  C244  1  0.590800  0.211000  0.912100  1
  C  C245  1  0.178700  0.006600  0.783400  1
  C  C246  1  0.321300  0.993400  0.283400  1
  C  C247  1  0.821300  0.993400  0.216600  1
  C  C248  1  0.678700  0.006600  0.716600  1
  C  C249  1  0.176200  0.035700  0.575900  1
  C  C250  1  0.323800  0.964300  0.075900  1
  C  C251  1  0.823800  0.964300  0.424100  1
  C  C252  1  0.676200  0.035700  0.924100  1
  C  C253  1  0.214400  0.115000  0.523800  1
  C  C254  1  0.285600  0.885000  0.023800  1
  C  C255  1  0.785600  0.885000  0.476200  1
  C  C256  1  0.714400  0.115000  0.976200  1
  C  C257  1  0.137300  0.039600  0.339100  1
  C  C258  1  0.362700  0.960400  0.839100  1
  C  C259  1  0.862700  0.960400  0.660900  1
  C  C260  1  0.637300  0.039600  0.160900  1
  C  C261  1  0.212800  0.258400  0.487700  1
  C  C262  1  0.287200  0.741600  0.987700  1
  C  C263  1  0.787200  0.741600  0.512300  1
  C  C264  1  0.712800  0.258400  0.012300  1
  C  C265  1  0.095900  0.991800  0.723600  1
  C  C266  1  0.404100  0.008200  0.223600  1
  C  C267  1  0.904100  0.008200  0.276400  1
  C  C268  1  0.595900  0.991800  0.776400  1
  C  C269  1  0.188300  0.961300  0.652700  1
  C  C270  1  0.311700  0.038700  0.152700  1
  C  C271  1  0.811700  0.038700  0.347300  1
  C  C272  1  0.688300  0.961300  0.847300  1
  C  C273  1  0.204600  0.954500  0.684800  1
  C  C274  1  0.295400  0.045500  0.184800  1
  C  C275  1  0.795400  0.045500  0.315200  1
  C  C276  1  0.704600  0.954500  0.815200  1
  C  C277  1  0.163400  0.299800  0.582400  1
  C  C278  1  0.336600  0.700200  0.082400  1
  C  C279  1  0.836600  0.700200  0.417600  1
  C  C280  1  0.663400  0.299800  0.917600  1
  C  C281  1  0.048300  0.210400  0.590900  1
  C  C282  1  0.451700  0.789600  0.090900  1
  C  C283  1  0.951700  0.789600  0.409100  1
  C  C284  1  0.548300  0.210400  0.909100  1
  C  C285  1  0.861200  0.318300  0.561500  1
  C  C286  1  0.638800  0.681700  0.061500  1
  C  C287  1  0.138800  0.681700  0.438500  1
  C  C288  1  0.361200  0.318300  0.938500  1
  C  C289  1  0.026500  0.247500  0.493400  1
  C  C290  1  0.473500  0.752500  0.993400  1
  C  C291  1  0.973500  0.752500  0.506600  1
  C  C292  1  0.526500  0.247500  0.006600  1
  C  C293  1  0.912200  0.997900  0.760400  1
  C  C294  1  0.587800  0.002100  0.260400  1
  C  C295  1  0.087800  0.002100  0.239600  1
  C  C296  1  0.412200  0.997900  0.739600  1
  C  C297  1  0.148800  0.242000  0.481500  1
  C  C298  1  0.351200  0.758000  0.981500  1
  C  C299  1  0.851200  0.758000  0.518500  1
  C  C300  1  0.648800  0.242000  0.018500  1
  C  C301  1  0.208800  0.881600  0.462800  1
  C  C302  1  0.291200  0.118400  0.962800  1
  C  C303  1  0.791200  0.118400  0.537200  1
  C  C304  1  0.708800  0.881600  0.037200  1
  C  C305  1  0.142500  0.871700  0.465400  1
  C  C306  1  0.357500  0.128300  0.965400  1
  C  C307  1  0.857500  0.128300  0.534600  1
  C  C308  1  0.642500  0.871700  0.034600  1
  C  C309  1  0.120700  0.953600  0.792200  1
  C  C310  1  0.379300  0.046400  0.292200  1
  C  C311  1  0.879300  0.046400  0.207800  1
  C  C312  1  0.620700  0.953600  0.707800  1
  C  C313  1  0.149500  0.973000  0.615500  1
  C  C314  1  0.350500  0.027000  0.115500  1
  C  C315  1  0.850500  0.027000  0.384500  1
  C  C316  1  0.649500  0.973000  0.884500  1
  C  C317  1  0.176200  0.925900  0.797900  1
  C  C318  1  0.323800  0.074100  0.297900  1
  C  C319  1  0.823800  0.074100  0.202100  1
  C  C320  1  0.676200  0.925900  0.702100  1
  C  C321  1  0.165400  0.019200  0.728900  1
  C  C322  1  0.334600  0.980800  0.228900  1
  C  C323  1  0.834600  0.980800  0.271100  1
  C  C324  1  0.665400  0.019200  0.771100  1
  C  C325  1  0.139400  0.029900  0.369300  1
  C  C326  1  0.360600  0.970100  0.869300  1
  C  C327  1  0.860600  0.970100  0.630700  1
  C  C328  1  0.639400  0.029900  0.130700  1
  C  C329  1  0.864300  0.220900  0.626600  1
  C  C330  1  0.635700  0.779100  0.126600  1
  C  C331  1  0.135700  0.779100  0.373400  1
  C  C332  1  0.364300  0.220900  0.873400  1
  C  C333  1  0.092000  0.237700  0.632800  1
  C  C334  1  0.408000  0.762300  0.132800  1
  C  C335  1  0.908000  0.762300  0.367200  1
  C  C336  1  0.592000  0.237700  0.867200  1
  C  C337  1  0.989100  0.215600  0.618600  1
  C  C338  1  0.510900  0.784400  0.118600  1
  C  C339  1  0.010900  0.784400  0.381400  1
  C  C340  1  0.489100  0.215600  0.881400  1
  C  C341  1  0.062700  0.031700  0.760000  1
  C  C342  1  0.437300  0.968300  0.260000  1
  C  C343  1  0.937300  0.968300  0.240000  1
  C  C344  1  0.562700  0.031700  0.740000  1
  C  C345  1  0.112700  0.224000  0.611300  1
  C  C346  1  0.387300  0.776000  0.111300  1
  C  C347  1  0.887300  0.776000  0.388700  1
  C  C348  1  0.612700  0.224000  0.888700  1
  C  C349  1  0.915000  0.883800  0.712600  1
  C  C350  1  0.585000  0.116200  0.212600  1
  C  C351  1  0.085000  0.116200  0.287400  1
  C  C352  1  0.415000  0.883800  0.787400  1
  C  C353  1  0.959600  0.230000  0.513400  1
  C  C354  1  0.540400  0.770000  0.013400  1
  C  C355  1  0.040400  0.770000  0.486600  1
  C  C356  1  0.459600  0.230000  0.986600  1
  C  C357  1  0.219100  0.957800  0.633400  1
  C  C358  1  0.280900  0.042200  0.133400  1
  C  C359  1  0.780900  0.042200  0.366600  1
  C  C360  1  0.719100  0.957800  0.866600  1
  C  C361  1  0.055400  0.868600  0.732800  1
  C  C362  1  0.444600  0.131400  0.232800  1
  C  C363  1  0.944600  0.131400  0.267200  1
  C  C364  1  0.555400  0.868600  0.767200  1
  C  C365  1  0.199900  0.020800  0.369800  1
  C  C366  1  0.300100  0.979200  0.869800  1
  C  C367  1  0.800100  0.979200  0.630200  1
  C  C368  1  0.699900  0.020800  0.130200  1
  C  C369  1  0.036000  0.889400  0.718300  1
  C  C370  1  0.464000  0.110600  0.218300  1
  C  C371  1  0.964000  0.110600  0.281700  1
  C  C372  1  0.536000  0.889400  0.781700  1
  C  C373  1  0.174300  0.310100  0.523800  1
  C  C374  1  0.325700  0.689900  0.023800  1
  C  C375  1  0.825700  0.689900  0.476200  1
  C  C376  1  0.674300  0.310100  0.976200  1
  C  C377  1  0.033800  0.219500  0.617500  1
  C  C378  1  0.466200  0.780500  0.117500  1
  C  C379  1  0.966200  0.780500  0.382500  1
  C  C380  1  0.533800  0.219500  0.882500  1
  C  C381  1  0.968300  0.992100  0.729100  1
  C  C382  1  0.531700  0.007900  0.229100  1
  C  C383  1  0.031700  0.007900  0.270900  1
  C  C384  1  0.468300  0.992100  0.770900  1
  C  C385  1  0.978100  0.247400  0.500800  1
  C  C386  1  0.521900  0.752600  0.000800  1
  C  C387  1  0.021900  0.752600  0.499200  1
  C  C388  1  0.478100  0.247400  0.999200  1
  C  C389  1  0.218900  0.908200  0.742300  1
  C  C390  1  0.281100  0.091800  0.242300  1
  C  C391  1  0.781100  0.091800  0.257700  1
  C  C392  1  0.718900  0.908200  0.757700  1
  C  C393  1  0.210000  0.847900  0.451700  1
  C  C394  1  0.290000  0.152100  0.951700  1
  C  C395  1  0.790000  0.152100  0.548300  1
  C  C396  1  0.710000  0.847900  0.048300  1
  C  C397  1  0.048500  0.265100  0.469300  1
  C  C398  1  0.451500  0.734900  0.969300  1
  C  C399  1  0.951500  0.734900  0.530700  1
  C  C400  1  0.548500  0.265100  0.030700  1
  C  C401  1  0.932600  0.853000  0.711500  1
  C  C402  1  0.567400  0.147000  0.211500  1
  C  C403  1  0.067400  0.147000  0.288500  1
  C  C404  1  0.432600  0.853000  0.788500  1
  C  C405  1  0.052100  0.229500  0.512400  1
  C  C406  1  0.447900  0.770500  0.012400  1
  C  C407  1  0.947900  0.770500  0.487600  1
  C  C408  1  0.552100  0.229500  0.987600  1
  C  C409  1  0.099800  0.869200  0.735700  1
  C  C410  1  0.400200  0.130800  0.235700  1
  C  C411  1  0.900200  0.130800  0.264300  1
  C  C412  1  0.599800  0.869200  0.764300  1
  C  C413  1  0.163700  0.904300  0.780100  1
  C  C414  1  0.336300  0.095700  0.280100  1
  C  C415  1  0.836300  0.095700  0.219900  1
  C  C416  1  0.663700  0.904300  0.719900  1
  C  C417  1  0.161500  0.280300  0.603500  1
  C  C418  1  0.338500  0.719700  0.103500  1
  C  C419  1  0.838500  0.719700  0.396500  1
  C  C420  1  0.661500  0.280300  0.896500  1
  C  C421  1  0.925100  0.211000  0.593200  1
  C  C422  1  0.574900  0.789000  0.093200  1
  C  C423  1  0.074900  0.789000  0.406800  1
  C  C424  1  0.425100  0.211000  0.906800  1
  C  C425  1  0.980000  0.017100  0.776900  1
  C  C426  1  0.520000  0.982900  0.276900  1
  C  C427  1  0.020000  0.982900  0.223100  1
  C  C428  1  0.480000  0.017100  0.723100  1
  C  C429  1  0.942300  0.012800  0.780900  1
  C  C430  1  0.557700  0.987200  0.280900  1
  C  C431  1  0.057700  0.987200  0.219100  1
  C  C432  1  0.442300  0.012800  0.719100  1
  C  C433  1  0.218900  0.007800  0.735700  1
  C  C434  1  0.281100  0.992200  0.235700  1
  C  C435  1  0.781100  0.992200  0.264300  1
  C  C436  1  0.718900  0.007800  0.764300  1
  C  C437  1  0.964400  0.273800  0.479600  1
  C  C438  1  0.535600  0.726200  0.979600  1
  C  C439  1  0.035600  0.726200  0.520400  1
  C  C440  1  0.464400  0.273800  0.020400  1
  C  C441  1  0.054000  0.234000  0.638000  1
  C  C442  1  0.446000  0.766000  0.138000  1
  C  C443  1  0.946000  0.766000  0.362000  1
  C  C444  1  0.554000  0.234000  0.862000  1
  C  C445  1  0.103900  0.033900  0.756300  1
  C  C446  1  0.396100  0.966100  0.256300  1
  C  C447  1  0.896100  0.966100  0.243700  1
  C  C448  1  0.603900  0.033900  0.743700  1
  C  C449  1  0.198900  0.195400  0.539200  1
  C  C450  1  0.301100  0.804600  0.039200  1
  C  C451  1  0.801100  0.804600  0.460800  1
  C  C452  1  0.698900  0.195400  0.960800  1
  C  C453  1  0.169500  0.045600  0.293800  1
  C  C454  1  0.330500  0.954400  0.793800  1
  C  C455  1  0.830500  0.954400  0.706200  1
  C  C456  1  0.669500  0.045600  0.206200  1
  C  C457  1  0.171600  0.086300  0.452600  1
  C  C458  1  0.328400  0.913700  0.952600  1
  C  C459  1  0.828400  0.913700  0.547400  1
  C  C460  1  0.671600  0.086300  0.047400  1
  C  C461  1  0.214600  0.966800  0.604900  1
  C  C462  1  0.285400  0.033200  0.104900  1
  C  C463  1  0.785400  0.033200  0.395100  1
  C  C464  1  0.714600  0.966800  0.895100  1
  C  C465  1  0.106600  0.294900  0.555200  1
  C  C466  1  0.393400  0.705100  0.055200  1
  C  C467  1  0.893400  0.705100  0.444800  1
  C  C468  1  0.606600  0.294900  0.944800  1
  C  C469  1  0.924000  0.235500  0.522200  1
  C  C470  1  0.576000  0.764500  0.022200  1
  C  C471  1  0.076000  0.764500  0.477800  1
  C  C472  1  0.424000  0.235500  0.977800  1
  C  C473  1  0.186000  0.799800  0.444100  1
  C  C474  1  0.314000  0.200200  0.944100  1
  C  C475  1  0.814000  0.200200  0.555900  1
  C  C476  1  0.686000  0.799800  0.055900  1
  C  C477  1  0.859800  0.261900  0.509300  1
  C  C478  1  0.640200  0.738100  0.009300  1
  C  C479  1  0.140200  0.738100  0.490700  1
  C  C480  1  0.359800  0.261900  0.990700  1
  C  C481  1  0.168700  0.292000  0.496000  1
  C  C482  1  0.331300  0.708000  0.996000  1
  C  C483  1  0.831300  0.708000  0.504000  1
  C  C484  1  0.668700  0.292000  0.004000  1
  C  C485  1  0.819300  0.968000  0.782300  1
  C  C486  1  0.680700  0.032000  0.282300  1
  C  C487  1  0.180700  0.032000  0.217700  1
  C  C488  1  0.319300  0.968000  0.717700  1
  C  C489  1  0.806500  0.882700  0.739400  1
  C  C490  1  0.693500  0.117300  0.239400  1
  C  C491  1  0.193500  0.117300  0.260600  1
  C  C492  1  0.306500  0.882700  0.760600  1
  C  C493  1  0.088500  0.260200  0.463900  1
  C  C494  1  0.411500  0.739800  0.963900  1
  C  C495  1  0.911500  0.739800  0.536100  1
  C  C496  1  0.588500  0.260200  0.036100  1
  C  C497  1  0.122400  0.015000  0.741200  1
  C  C498  1  0.377600  0.985000  0.241200  1
  C  C499  1  0.877600  0.985000  0.258800  1
  C  C500  1  0.622400  0.015000  0.758800  1
  C  C501  1  0.851300  0.311300  0.532300  1
  C  C502  1  0.648700  0.688700  0.032300  1
  C  C503  1  0.148700  0.688700  0.467700  1
  C  C504  1  0.351300  0.311300  0.967700  1
  C  C505  1  0.972300  0.862100  0.715100  1
  C  C506  1  0.527700  0.137900  0.215100  1
  C  C507  1  0.027700  0.137900  0.284900  1
  C  C508  1  0.472300  0.862100  0.784900  1
  C  C509  1  0.878400  0.959000  0.813300  1
  C  C510  1  0.621600  0.041000  0.313300  1
  C  C511  1  0.121600  0.041000  0.186700  1
  C  C512  1  0.378400  0.959000  0.686700  1
  C  C513  1  0.909000  0.216600  0.621100  1
  C  C514  1  0.591000  0.783400  0.121100  1
  C  C515  1  0.091000  0.783400  0.378900  1
  C  C516  1  0.409000  0.216600  0.878900  1
  C  C517  1  0.973400  0.227100  0.644700  1
  C  C518  1  0.526600  0.772900  0.144700  1
  C  C519  1  0.026600  0.772900  0.355300  1
  C  C520  1  0.473400  0.227100  0.855300  1
  C  C521  1  0.810600  0.282500  0.530700  1
  C  C522  1  0.689400  0.717500  0.030700  1
  C  C523  1  0.189400  0.717500  0.469300  1
  C  C524  1  0.310600  0.282500  0.969300  1
  C  C525  1  0.879300  0.924500  0.817600  1
  C  C526  1  0.620700  0.075500  0.317600  1
  C  C527  1  0.120700  0.075500  0.182400  1
  C  C528  1  0.379300  0.924500  0.682400  1
  C  C529  1  0.919300  0.916800  0.794600  1
  C  C530  1  0.580700  0.083200  0.294600  1
  C  C531  1  0.080700  0.083200  0.205400  1
  C  C532  1  0.419300  0.916800  0.705400  1
  C  C533  1  0.215000  0.249500  0.596700  1
  C  C534  1  0.285000  0.750500  0.096700  1
  C  C535  1  0.785000  0.750500  0.403300  1
  C  C536  1  0.715000  0.249500  0.903300  1
  C  C537  1  0.918400  0.292000  0.586300  1
  C  C538  1  0.581600  0.708000  0.086300  1
  C  C539  1  0.081600  0.708000  0.413700  1
  C  C540  1  0.418400  0.292000  0.913700  1
  C  C541  1  0.870100  0.866500  0.766700  1
  C  C542  1  0.629900  0.133500  0.266700  1
  C  C543  1  0.129900  0.133500  0.233300  1
  C  C544  1  0.370100  0.866500  0.733300  1
  C  C545  1  0.905300  0.249600  0.504000  1
  C  C546  1  0.594700  0.750400  0.004000  1
  C  C547  1  0.094700  0.750400  0.496000  1
  C  C548  1  0.405300  0.249600  0.996000  1
  C  C549  1  0.933200  0.221000  0.650400  1
  C  C550  1  0.566800  0.779000  0.150400  1
  C  C551  1  0.066800  0.779000  0.349600  1
  C  C552  1  0.433200  0.221000  0.849600  1
  C  C553  1  0.867400  0.876000  0.794300  1
  C  C554  1  0.632600  0.124000  0.294300  1
  C  C555  1  0.132600  0.124000  0.205700  1
  C  C556  1  0.367400  0.876000  0.705700  1
  C  C557  1  0.806600  0.246100  0.619800  1
  C  C558  1  0.693400  0.753900  0.119800  1
  C  C559  1  0.193400  0.753900  0.380200  1
  C  C560  1  0.306600  0.246100  0.880200  1
  C  C561  1  0.927000  0.271500  0.483000  1
  C  C562  1  0.573000  0.728500  0.983000  1
  C  C563  1  0.073000  0.728500  0.517000  1
  C  C564  1  0.427000  0.271500  0.017000  1
  C  C565  1  0.331000  0.551200  0.452500  1.0
  C  C566  1  0.169000  0.448800  0.952500  1.0
  C  C567  1  0.669000  0.448800  0.547500  1.0
  C  C568  1  0.831000  0.551200  0.047500  1.0
  C  C569  1  0.334900  0.431100  0.480900  1.0
  C  C570  1  0.165100  0.568900  0.980900  1.0
  C  C571  1  0.665100  0.568900  0.519100  1.0
  C  C572  1  0.834900  0.431100  0.019100  1.0
  C  C573  1  0.338000  0.481500  0.560200  1.0
  C  C574  1  0.162000  0.518500  0.060200  1.0
  C  C575  1  0.662000  0.518500  0.439800  1.0
  C  C576  1  0.838000  0.481500  0.939800  1.0
  C  C577  1  0.330000  0.390800  0.518600  1.0
  C  C578  1  0.170000  0.609200  0.018600  1.0
  C  C579  1  0.670000  0.609200  0.481400  1.0
  C  C580  1  0.830000  0.390800  0.981400  1.0
  C  C581  1  0.331100  0.482000  0.419300  1.0
  C  C582  1  0.168900  0.518000  0.919300  1.0
  C  C583  1  0.668900  0.518000  0.580700  1.0
  C  C584  1  0.831100  0.482000  0.080700  1.0
  C  C585  1  0.326400  0.474500  0.387800  1.0
  C  C586  1  0.173600  0.525500  0.887800  1.0
  C  C587  1  0.673600  0.525500  0.612200  1.0
  C  C588  1  0.826400  0.474500  0.112200  1.0
  C  C589  1  0.357000  0.504600  0.238600  1.0
  C  C590  1  0.143000  0.495400  0.738600  1.0
  C  C591  1  0.643000  0.495400  0.761400  1.0
  C  C592  1  0.857000  0.504600  0.261400  1.0
  C  C593  1  0.336100  0.428000  0.562100  1.0
  C  C594  1  0.163900  0.572000  0.062100  1.0
  C  C595  1  0.663900  0.572000  0.437900  1.0
  C  C596  1  0.836100  0.428000  0.937900  1.0
  C  C597  1  0.336100  0.408400  0.453500  1.0
  C  C598  1  0.163900  0.591600  0.953500  1.0
  C  C599  1  0.663900  0.591600  0.546500  1.0
  C  C600  1  0.836100  0.408400  0.046500  1.0
  C  C601  1  0.331800  0.562000  0.505000  1.0
  C  C602  1  0.168200  0.438000  0.005000  1.0
  C  C603  1  0.668200  0.438000  0.495000  1.0
  C  C604  1  0.831800  0.562000  0.995000  1.0
  C  C605  1  0.312200  0.660600  0.462900  1.0
  C  C606  1  0.187800  0.339400  0.962900  1.0
  C  C607  1  0.687800  0.339400  0.537100  1.0
  C  C608  1  0.812200  0.660600  0.037100  1.0
  C  C609  1  0.328800  0.517800  0.598800  1.0
  C  C610  1  0.171200  0.482200  0.098800  1.0
  C  C611  1  0.671200  0.482200  0.401200  1.0
  C  C612  1  0.828800  0.517800  0.901200  1.0
  C  C613  1  0.323200  0.603800  0.471100  1.0
  C  C614  1  0.176800  0.396200  0.971100  1.0
  C  C615  1  0.676800  0.396200  0.528900  1.0
  C  C616  1  0.823200  0.603800  0.028900  1.0
  C  C617  1  0.305900  0.240900  0.482600  1.0
  C  C618  1  0.194100  0.759100  0.982600  1.0
  C  C619  1  0.694100  0.759100  0.517400  1.0
  C  C620  1  0.805900  0.240900  0.017400  1.0
  C  C621  1  0.329900  0.572100  0.476200  1.0
  C  C622  1  0.170100  0.427900  0.976200  1.0
  C  C623  1  0.670100  0.427900  0.523800  1.0
  C  C624  1  0.829900  0.572100  0.023800  1.0
  C  C625  1  0.331500  0.511400  0.425700  1.0
  C  C626  1  0.168500  0.488600  0.925700  1.0
  C  C627  1  0.668500  0.488600  0.574300  1.0
  C  C628  1  0.831500  0.511400  0.074300  1.0
  C  C629  1  0.332300  0.566600  0.561300  1.0
  C  C630  1  0.167700  0.433400  0.061300  1.0
  C  C631  1  0.667700  0.433400  0.438700  1.0
  C  C632  1  0.832300  0.566600  0.938700  1.0
  C  C633  1  0.331100  0.425900  0.429400  1.0
  C  C634  1  0.168900  0.574100  0.929400  1.0
  C  C635  1  0.668900  0.574100  0.570600  1.0
  C  C636  1  0.831100  0.425900  0.070600  1.0
  C  C637  1  0.363900  0.343700  0.522700  1.0
  C  C638  1  0.136100  0.656300  0.022700  1.0
  C  C639  1  0.636100  0.656300  0.477300  1.0
  C  C640  1  0.863900  0.343700  0.977300  1.0
  C  C641  1  0.335800  0.440700  0.532300  1.0
  C  C642  1  0.164200  0.559300  0.032300  1.0
  C  C643  1  0.664200  0.559300  0.467700  1.0
  C  C644  1  0.835800  0.440700  0.967700  1.0
  C  C645  1  0.333000  0.582300  0.535900  1.0
  C  C646  1  0.167000  0.417700  0.035900  1.0
  C  C647  1  0.667000  0.417700  0.464100  1.0
  C  C648  1  0.833000  0.582300  0.964100  1.0
  C  C649  1  0.317800  0.461100  0.326500  1.0
  C  C650  1  0.182200  0.538900  0.826500  1.0
  C  C651  1  0.682200  0.538900  0.673500  1.0
  C  C652  1  0.817800  0.461100  0.173500  1.0
  C  C653  1  0.324900  0.560500  0.424400  1.0
  C  C654  1  0.175100  0.439500  0.924400  1.0
  C  C655  1  0.675100  0.439500  0.575600  1.0
  C  C656  1  0.824900  0.560500  0.075600  1.0
  C  C657  1  0.317800  0.529100  0.662700  1.0
  C  C658  1  0.182200  0.470900  0.162700  1.0
  C  C659  1  0.682200  0.470900  0.337300  1.0
  C  C660  1  0.817800  0.529100  0.837300  1.0
  C  C661  1  0.332800  0.456600  0.438900  1.0
  C  C662  1  0.167200  0.543400  0.938900  1.0
  C  C663  1  0.667200  0.543400  0.561100  1.0
  C  C664  1  0.832800  0.456600  0.061100  1.0
  C  C665  1  0.358600  0.518000  0.616500  1.0
  C  C666  1  0.141400  0.482000  0.116500  1.0
  C  C667  1  0.641400  0.482000  0.383500  1.0
  C  C668  1  0.858600  0.518000  0.883500  1.0
  C  C669  1  0.338700  0.457600  0.578400  1.0
  C  C670  1  0.161300  0.542400  0.078400  1.0
  C  C671  1  0.661300  0.542400  0.421600  1.0
  C  C672  1  0.838700  0.457600  0.921600  1.0
  C  C673  1  0.418900  0.412000  0.283300  1.0
  C  C674  1  0.081100  0.588000  0.783300  1.0
  C  C675  1  0.581100  0.588000  0.716700  1.0
  C  C676  1  0.918900  0.412000  0.216700  1.0
  C  C677  1  0.347900  0.652600  0.464000  1.0
  C  C678  1  0.152100  0.347400  0.964000  1.0
  C  C679  1  0.652100  0.347400  0.536000  1.0
  C  C680  1  0.847900  0.652600  0.036000  1.0
  C  C681  1  0.358500  0.383800  0.281800  1.0
  C  C682  1  0.141500  0.616200  0.781800  1.0
  C  C683  1  0.641500  0.616200  0.718200  1.0
  C  C684  1  0.858500  0.383800  0.218200  1.0
  C  C685  1  0.335800  0.508700  0.567500  1.0
  C  C686  1  0.164200  0.491300  0.067500  1.0
  C  C687  1  0.664200  0.491300  0.432500  1.0
  C  C688  1  0.835800  0.508700  0.932500  1.0
  C  C689  1  0.484300  0.513000  0.246300  1.0
  C  C690  1  0.015700  0.487000  0.746300  1.0
  C  C691  1  0.515700  0.487000  0.753700  1.0
  C  C692  1  0.984300  0.513000  0.253700  1.0
  C  C693  1  0.482500  0.391800  0.277400  1.0
  C  C694  1  0.017500  0.608200  0.777400  1.0
  C  C695  1  0.517500  0.608200  0.722600  1.0
  C  C696  1  0.982500  0.391800  0.222600  1.0
  C  C697  1  0.336900  0.420900  0.509600  1.0
  C  C698  1  0.163100  0.579100  0.009600  1.0
  C  C699  1  0.663100  0.579100  0.490400  1.0
  C  C700  1  0.836900  0.420900  0.990400  1.0
  C  C701  1  0.605000  0.398000  0.278300  1.0
  C  C702  1  0.895000  0.602000  0.778300  1.0
  C  C703  1  0.395000  0.602000  0.721700  1.0
  C  C704  1  0.105000  0.398000  0.221700  1.0
  C  C705  1  0.289100  0.473600  0.374800  1.0
  C  C706  1  0.210900  0.526400  0.874800  1.0
  C  C707  1  0.710900  0.526400  0.625200  1.0
  C  C708  1  0.789100  0.473600  0.125200  1.0
  C  C709  1  0.321200  0.330600  0.532100  1.0
  C  C710  1  0.178800  0.669400  0.032100  1.0
  C  C711  1  0.678800  0.669400  0.467900  1.0
  C  C712  1  0.821200  0.330600  0.967900  1.0
  C  C713  1  0.427600  0.264800  0.500800  1.0
  C  C714  1  0.072400  0.735200  0.000800  1.0
  C  C715  1  0.572400  0.735200  0.499200  1.0
  C  C716  1  0.927600  0.264800  0.999200  1.0
  C  C717  1  0.461100  0.415000  0.285200  1.0
  C  C718  1  0.038900  0.585000  0.785200  1.0
  C  C719  1  0.538900  0.585000  0.714800  1.0
  C  C720  1  0.961100  0.415000  0.214800  1.0
  C  C721  1  0.589200  0.417400  0.286400  1.0
  C  C722  1  0.910800  0.582600  0.786400  1.0
  C  C723  1  0.410800  0.582600  0.713600  1.0
  C  C724  1  0.089200  0.417400  0.213600  1.0
  C  C725  1  0.357400  0.472300  0.369200  1.0
  C  C726  1  0.142600  0.527700  0.869200  1.0
  C  C727  1  0.642600  0.527700  0.630800  1.0
  C  C728  1  0.857400  0.472300  0.130800  1.0
  C  C729  1  0.327500  0.536400  0.407900  1.0
  C  C730  1  0.172500  0.463600  0.907900  1.0
  C  C731  1  0.672500  0.463600  0.592100  1.0
  C  C732  1  0.827500  0.536400  0.092100  1.0
  C  C733  1  0.309500  0.454700  0.295000  1.0
  C  C734  1  0.190500  0.545300  0.795000  1.0
  C  C735  1  0.690500  0.545300  0.705000  1.0
  C  C736  1  0.809500  0.454700  0.205000  1.0
  C  C737  1  0.361900  0.263300  0.606900  1.0
  C  C738  1  0.138100  0.736700  0.106900  1.0
  C  C739  1  0.638100  0.736700  0.393100  1.0
  C  C740  1  0.861900  0.263300  0.893100  1.0
  C  C741  1  0.352600  0.462700  0.337900  1.0
  C  C742  1  0.147400  0.537300  0.837900  1.0
  C  C743  1  0.647400  0.537300  0.662100  1.0
  C  C744  1  0.852600  0.462700  0.162100  1.0
  C  C745  1  0.402900  0.387500  0.279400  1.0
  C  C746  1  0.097100  0.612500  0.779400  1.0
  C  C747  1  0.597100  0.612500  0.720600  1.0
  C  C748  1  0.902900  0.387500  0.220600  1.0
  C  C749  1  0.611300  0.252600  0.484000  1.0
  C  C750  1  0.888700  0.747400  0.984000  1.0
  C  C751  1  0.388700  0.747400  0.516000  1.0
  C  C752  1  0.111300  0.252600  0.016000  1.0
  C  C753  1  0.607100  0.521800  0.255300  1.0
  C  C754  1  0.892900  0.478200  0.755300  1.0
  C  C755  1  0.392900  0.478200  0.744700  1.0
  C  C756  1  0.107100  0.521800  0.244700  1.0
  C  C757  1  0.527900  0.513900  0.249700  1.0
  C  C758  1  0.972100  0.486100  0.749700  1.0
  C  C759  1  0.472100  0.486100  0.750300  1.0
  C  C760  1  0.027900  0.513900  0.250300  1.0
  C  C761  1  0.334600  0.533500  0.551400  1.0
  C  C762  1  0.165400  0.466500  0.051400  1.0
  C  C763  1  0.665400  0.466500  0.448600  1.0
  C  C764  1  0.834600  0.533500  0.948600  1.0
  C  C765  1  0.647400  0.395800  0.272300  1.0
  C  C766  1  0.852600  0.604200  0.772300  1.0
  C  C767  1  0.352600  0.604200  0.727700  1.0
  C  C768  1  0.147400  0.395800  0.227700  1.0
  C  C769  1  0.293800  0.346500  0.531700  1.0
  C  C770  1  0.206200  0.653500  0.031700  1.0
  C  C771  1  0.706200  0.653500  0.468300  1.0
  C  C772  1  0.793800  0.346500  0.968300  1.0
  C  C773  1  0.546300  0.535700  0.233900  1.0
  C  C774  1  0.953700  0.464300  0.733900  1.0
  C  C775  1  0.453700  0.464300  0.766100  1.0
  C  C776  1  0.046300  0.535700  0.266100  1.0
  C  C777  1  0.419900  0.494400  0.265100  1.0
  C  C778  1  0.080100  0.505600  0.765100  1.0
  C  C779  1  0.580100  0.505600  0.734900  1.0
  C  C780  1  0.919900  0.494400  0.234900  1.0
  C  C781  1  0.653800  0.526300  0.256900  1.0
  C  C782  1  0.846200  0.473700  0.756900  1.0
  C  C783  1  0.346200  0.473700  0.743100  1.0
  C  C784  1  0.153800  0.526300  0.243100  1.0
  C  C785  1  0.296600  0.377300  0.525400  1.0
  C  C786  1  0.203400  0.622700  0.025400  1.0
  C  C787  1  0.703400  0.622700  0.474600  1.0
  C  C788  1  0.796600  0.377300  0.974600  1.0
  C  C789  1  0.527100  0.250100  0.481800  1.0
  C  C790  1  0.972900  0.749900  0.981800  1.0
  C  C791  1  0.472900  0.749900  0.518200  1.0
  C  C792  1  0.027100  0.250100  0.018200  1.0
  C  C793  1  0.526500  0.392100  0.276800  1.0
  C  C794  1  0.973500  0.607900  0.776800  1.0
  C  C795  1  0.473500  0.607900  0.723200  1.0
  C  C796  1  0.026500  0.392100  0.223200  1.0
  C  C797  1  0.294800  0.520300  0.609400  1.0
  C  C798  1  0.205200  0.479700  0.109400  1.0
  C  C799  1  0.705200  0.479700  0.390600  1.0
  C  C800  1  0.794800  0.520300  0.890600  1.0
  C  C801  1  0.411100  0.252300  0.481000  1.0
  C  C802  1  0.088900  0.747700  0.981000  1.0
  C  C803  1  0.588900  0.747700  0.519000  1.0
  C  C804  1  0.911100  0.252300  0.019000  1.0
  C  C805  1  0.402500  0.507900  0.241700  1.0
  C  C806  1  0.097500  0.492100  0.741700  1.0
  C  C807  1  0.597500  0.492100  0.758300  1.0
  C  C808  1  0.902500  0.507900  0.258300  1.0
  C  C809  1  0.286700  0.463100  0.343600  1.0
  C  C810  1  0.213300  0.536900  0.843600  1.0
  C  C811  1  0.713300  0.536900  0.656400  1.0
  C  C812  1  0.786700  0.463100  0.156400  1.0
  C  C813  1  0.547300  0.496100  0.267300  1.0
  C  C814  1  0.952700  0.503900  0.767300  1.0
  C  C815  1  0.452700  0.503900  0.732700  1.0
  C  C816  1  0.047300  0.496100  0.232700  1.0
  C  C817  1  0.588100  0.498000  0.274500  1.0
  C  C818  1  0.911900  0.502000  0.774500  1.0
  C  C819  1  0.411900  0.502000  0.725500  1.0
  C  C820  1  0.088100  0.498000  0.225500  1.0
  C  C821  1  0.655100  0.269400  0.612300  1.0
  C  C822  1  0.844900  0.730600  0.112300  1.0
  C  C823  1  0.344900  0.730600  0.387700  1.0
  C  C824  1  0.155100  0.269400  0.887700  1.0
  C  C825  1  0.304800  0.240600  0.594800  1.0
  C  C826  1  0.195200  0.759400  0.094800  1.0
  C  C827  1  0.695200  0.759400  0.405200  1.0
  C  C828  1  0.804800  0.240600  0.905200  1.0
  C  C829  1  0.547800  0.415800  0.284300  1.0
  C  C830  1  0.952200  0.584200  0.784300  1.0
  C  C831  1  0.452200  0.584200  0.715700  1.0
  C  C832  1  0.047800  0.415800  0.215700  1.0
  C  C833  1  0.530000  0.267600  0.608200  1.0
  C  C834  1  0.970000  0.732400  0.108200  1.0
  C  C835  1  0.470000  0.732400  0.391800  1.0
  C  C836  1  0.030000  0.267600  0.891800  1.0
  C  C837  1  0.466700  0.282700  0.586600  1.0
  C  C838  1  0.033300  0.717300  0.086600  1.0
  C  C839  1  0.533300  0.717300  0.413400  1.0
  C  C840  1  0.966700  0.282700  0.913400  1.0
  C  C841  1  0.353200  0.623400  0.468800  1.0
  C  C842  1  0.146800  0.376600  0.968800  1.0
  C  C843  1  0.646800  0.376600  0.531200  1.0
  C  C844  1  0.853200  0.623400  0.031200  1.0
  C  C845  1  0.554200  0.266300  0.501300  1.0
  C  C846  1  0.945800  0.733700  0.001300  1.0
  C  C847  1  0.445800  0.733700  0.498700  1.0
  C  C848  1  0.054200  0.266300  0.998700  1.0
  C  C849  1  0.425200  0.278800  0.583200  1.0
  C  C850  1  0.074800  0.721200  0.083200  1.0
  C  C851  1  0.574800  0.721200  0.416800  1.0
  C  C852  1  0.925200  0.278800  0.916800  1.0
  C  C853  1  0.469100  0.265700  0.502600  1.0
  C  C854  1  0.030900  0.734300  0.002600  1.0
  C  C855  1  0.530900  0.734300  0.497400  1.0
  C  C856  1  0.969100  0.265700  0.997400  1.0
  C  C857  1  0.363800  0.372100  0.514700  1.0
  C  C858  1  0.136200  0.627900  0.014700  1.0
  C  C859  1  0.636200  0.627900  0.485300  1.0
  C  C860  1  0.863800  0.372100  0.985300  1.0
  C  C861  1  0.656600  0.255000  0.489700  1.0
  C  C862  1  0.843400  0.745000  0.989700  1.0
  C  C863  1  0.343400  0.745000  0.510300  1.0
  C  C864  1  0.156600  0.255000  0.010300  1.0
  C  C865  1  0.286600  0.611000  0.470600  1.0
  C  C866  1  0.213400  0.389000  0.970600  1.0
  C  C867  1  0.713400  0.389000  0.529400  1.0
  C  C868  1  0.786600  0.611000  0.029400  1.0
  C  C869  1  0.401700  0.264900  0.602300  1.0
  C  C870  1  0.098300  0.735100  0.102300  1.0
  C  C871  1  0.598300  0.735100  0.397700  1.0
  C  C872  1  0.901700  0.264900  0.897700  1.0
  C  C873  1  0.589900  0.537300  0.236500  1.0
  C  C874  1  0.910100  0.462700  0.736500  1.0
  C  C875  1  0.410100  0.462700  0.763500  1.0
  C  C876  1  0.089900  0.537300  0.263500  1.0
  C  C877  1  0.428800  0.238600  0.461000  1.0
  C  C878  1  0.071200  0.761400  0.961000  1.0
  C  C879  1  0.571200  0.761400  0.539000  1.0
  C  C880  1  0.928800  0.238600  0.039000  1.0
  C  C881  1  0.461000  0.496700  0.266000  1.0
  C  C882  1  0.039000  0.503300  0.766000  1.0
  C  C883  1  0.539000  0.503300  0.734000  1.0
  C  C884  1  0.961000  0.496700  0.234000  1.0
  C  C885  1  0.545900  0.276800  0.584100  1.0
  C  C886  1  0.954100  0.723200  0.084100  1.0
  C  C887  1  0.454100  0.723200  0.415900  1.0
  C  C888  1  0.045900  0.276800  0.915900  1.0
  C  C889  1  0.280900  0.640000  0.467500  1.0
  C  C890  1  0.219100  0.360000  0.967500  1.0
  C  C891  1  0.719100  0.360000  0.532500  1.0
  C  C892  1  0.780900  0.640000  0.032500  1.0
  C  C893  1  0.469900  0.527900  0.225600  1.0
  C  C894  1  0.030100  0.472100  0.725600  1.0
  C  C895  1  0.530100  0.472100  0.774400  1.0
  C  C896  1  0.969900  0.527900  0.274400  1.0
  C  C897  1  0.486600  0.248500  0.482400  1.0
  C  C898  1  0.013400  0.751500  0.982400  1.0
  C  C899  1  0.513400  0.751500  0.517600  1.0
  C  C900  1  0.986600  0.248500  0.017600  1.0
  C  C901  1  0.282800  0.529000  0.645600  1.0
  C  C902  1  0.217200  0.471000  0.145600  1.0
  C  C903  1  0.717200  0.471000  0.354400  1.0
  C  C904  1  0.782800  0.529000  0.854400  1.0
  C  C905  1  0.423100  0.360000  0.276600  1.0
  C  C906  1  0.076900  0.640000  0.776600  1.0
  C  C907  1  0.576900  0.640000  0.723400  1.0
  C  C908  1  0.923100  0.360000  0.223400  1.0
  C  C909  1  0.545600  0.370600  0.263200  1.0
  C  C910  1  0.954400  0.629400  0.763200  1.0
  C  C911  1  0.454400  0.629400  0.736800  1.0
  C  C912  1  0.045600  0.370600  0.236800  1.0
  C  C913  1  0.475200  0.233100  0.460000  1.0
  C  C914  1  0.024800  0.766900  0.960000  1.0
  C  C915  1  0.524800  0.766900  0.540000  1.0
  C  C916  1  0.975200  0.233100  0.040000  1.0
  C  C917  1  0.434400  0.528900  0.229200  1.0
  C  C918  1  0.065600  0.471100  0.729200  1.0
  C  C919  1  0.565600  0.471100  0.770800  1.0
  C  C920  1  0.934400  0.528900  0.270800  1.0
  C  C921  1  0.658200  0.218900  0.609200  1.0
  C  C922  1  0.841800  0.781100  0.109200  1.0
  C  C923  1  0.341800  0.781100  0.390800  1.0
  C  C924  1  0.158200  0.218900  0.890800  1.0
  C  C925  1  0.595900  0.229600  0.467200  1.0
  C  C926  1  0.904100  0.770400  0.967200  1.0
  C  C927  1  0.404100  0.770400  0.532800  1.0
  C  C928  1  0.095900  0.229600  0.032800  1.0
  C  C929  1  0.487200  0.264500  0.604400  1.0
  C  C930  1  0.012800  0.735500  0.104400  1.0
  C  C931  1  0.512800  0.735500  0.395600  1.0
  C  C932  1  0.987200  0.264500  0.895600  1.0
  C  C933  1  0.594800  0.264300  0.641000  1.0
  C  C934  1  0.905200  0.735700  0.141000  1.0
  C  C935  1  0.405200  0.735700  0.359000  1.0
  C  C936  1  0.094800  0.264300  0.859000  1.0
  C  C937  1  0.356900  0.377100  0.226000  1.0
  C  C938  1  0.143100  0.622900  0.726000  1.0
  C  C939  1  0.643100  0.622900  0.774000  1.0
  C  C940  1  0.856900  0.377100  0.274000  1.0
  C  C941  1  0.314700  0.295800  0.536100  1.0
  C  C942  1  0.185300  0.704200  0.036100  1.0
  C  C943  1  0.685300  0.704200  0.463900  1.0
  C  C944  1  0.814700  0.295800  0.963900  1.0
  C  C945  1  0.711700  0.408000  0.255900  1.0
  C  C946  1  0.788300  0.592000  0.755900  1.0
  C  C947  1  0.288300  0.592000  0.744100  1.0
  C  C948  1  0.211700  0.408000  0.244100  1.0
  C  C949  1  0.714100  0.510400  0.247600  1.0
  C  C950  1  0.785900  0.489600  0.747600  1.0
  C  C951  1  0.285900  0.489600  0.752400  1.0
  C  C952  1  0.214100  0.510400  0.252400  1.0
  C  C953  1  0.353800  0.455100  0.181300  1.0
  C  C954  1  0.146200  0.544900  0.681300  1.0
  C  C955  1  0.646200  0.544900  0.818700  1.0
  C  C956  1  0.853800  0.455100  0.318700  1.0
  C  C957  1  0.350400  0.396600  0.196400  1.0
  C  C958  1  0.149600  0.603400  0.696400  1.0
  C  C959  1  0.649600  0.603400  0.803600  1.0
  C  C960  1  0.850400  0.396600  0.303600  1.0
  C  C961  1  0.308300  0.532900  0.692600  1.0
  C  C962  1  0.191700  0.467100  0.192600  1.0
  C  C963  1  0.691700  0.467100  0.307400  1.0
  C  C964  1  0.808300  0.532900  0.807400  1.0
  C  C965  1  0.353500  0.523200  0.652100  1.0
  C  C966  1  0.146500  0.476800  0.152100  1.0
  C  C967  1  0.646500  0.476800  0.347900  1.0
  C  C968  1  0.853500  0.523200  0.847900  1.0
  C  C969  1  0.668600  0.508600  0.205500  1.0
  C  C970  1  0.831400  0.491400  0.705500  1.0
  C  C971  1  0.331400  0.491400  0.794500  1.0
  C  C972  1  0.168600  0.508600  0.294500  1.0
  C  C973  1  0.655300  0.403100  0.219200  1.0
  C  C974  1  0.844700  0.596900  0.719200  1.0
  C  C975  1  0.344700  0.596900  0.780800  1.0
  C  C976  1  0.155300  0.403100  0.280800  1.0
  C  C977  1  0.678100  0.479600  0.192900  1.0
  C  C978  1  0.821900  0.520400  0.692900  1.0
  C  C979  1  0.321900  0.520400  0.807100  1.0
  C  C980  1  0.178100  0.479600  0.307100  1.0
  C  C981  1  0.299700  0.698000  0.456500  1.0
  C  C982  1  0.200300  0.302000  0.956500  1.0
  C  C983  1  0.700300  0.302000  0.543500  1.0
  C  C984  1  0.799700  0.698000  0.043500  1.0
  C  C985  1  0.609100  0.270700  0.613200  1.0
  C  C986  1  0.890900  0.729300  0.113200  1.0
  C  C987  1  0.390900  0.729300  0.386800  1.0
  C  C988  1  0.109100  0.270700  0.886800  1.0
  C  C989  1  0.670800  0.423800  0.199600  1.0
  C  C990  1  0.829200  0.576200  0.699600  1.0
  C  C991  1  0.329200  0.576200  0.800400  1.0
  C  C992  1  0.170800  0.423800  0.300400  1.0
  C  C993  1  0.297100  0.388900  0.254900  1.0
  C  C994  1  0.202900  0.611100  0.754900  1.0
  C  C995  1  0.702900  0.611100  0.745100  1.0
  C  C996  1  0.797100  0.388900  0.245100  1.0
  C  C997  1  0.347500  0.181600  0.517100  1.0
  C  C998  1  0.152500  0.818400  0.017100  1.0
  C  C999  1  0.652500  0.818400  0.482900  1.0
  C  C1000  1  0.847500  0.181600  0.982900  1.0
  C  C1001  1  0.614400  0.455100  0.197900  1.0
  C  C1002  1  0.885600  0.544900  0.697900  1.0
  C  C1003  1  0.385600  0.544900  0.802100  1.0
  C  C1004  1  0.114400  0.455100  0.302100  1.0
  C  C1005  1  0.675700  0.201700  0.508600  1.0
  C  C1006  1  0.824300  0.798300  0.008600  1.0
  C  C1007  1  0.324300  0.798300  0.491400  1.0
  C  C1008  1  0.175700  0.201700  0.991400  1.0
  C  C1009  1  0.413800  0.426000  0.204000  1.0
  C  C1010  1  0.086200  0.574000  0.704000  1.0
  C  C1011  1  0.586200  0.574000  0.796000  1.0
  C  C1012  1  0.913800  0.426000  0.296000  1.0
  C  C1013  1  0.359200  0.210900  0.593200  1.0
  C  C1014  1  0.140800  0.789100  0.093200  1.0
  C  C1015  1  0.640800  0.789100  0.406800  1.0
  C  C1016  1  0.859200  0.210900  0.906800  1.0
  C  C1017  1  0.596100  0.268200  0.506100  1.0
  C  C1018  1  0.903900  0.731800  0.006100  1.0
  C  C1019  1  0.403900  0.731800  0.493900  1.0
  C  C1020  1  0.096100  0.268200  0.993900  1.0
  C  C1021  1  0.550900  0.230300  0.473600  1.0
  C  C1022  1  0.949100  0.769700  0.973600  1.0
  C  C1023  1  0.449100  0.769700  0.526400  1.0
  C  C1024  1  0.050900  0.230300  0.026400  1.0
  C  C1025  1  0.668700  0.199600  0.589900  1.0
  C  C1026  1  0.831300  0.800400  0.089900  1.0
  C  C1027  1  0.331300  0.800400  0.410100  1.0
  C  C1028  1  0.168700  0.199600  0.910100  1.0
  C  C1029  1  0.365000  0.254700  0.479000  1.0
  C  C1030  1  0.135000  0.745300  0.979000  1.0
  C  C1031  1  0.635000  0.745300  0.521000  1.0
  C  C1032  1  0.865000  0.254700  0.021000  1.0
  C  C1033  1  0.466500  0.362500  0.273000  1.0
  C  C1034  1  0.033500  0.637500  0.773000  1.0
  C  C1035  1  0.533500  0.637500  0.727000  1.0
  C  C1036  1  0.966500  0.362500  0.227000  1.0
  C  C1037  1  0.357800  0.481100  0.191600  1.0
  C  C1038  1  0.142200  0.518900  0.691600  1.0
  C  C1039  1  0.642200  0.518900  0.808400  1.0
  C  C1040  1  0.857800  0.481100  0.308400  1.0
  C  C1041  1  0.588000  0.374200  0.269000  1.0
  C  C1042  1  0.912000  0.625800  0.769000  1.0
  C  C1043  1  0.412000  0.625800  0.731000  1.0
  C  C1044  1  0.088000  0.374200  0.231000  1.0
  C  C1045  1  0.299500  0.482600  0.220000  1.0
  C  C1046  1  0.200500  0.517400  0.720000  1.0
  C  C1047  1  0.700500  0.517400  0.780000  1.0
  C  C1048  1  0.799500  0.482600  0.280000  1.0
  C  C1049  1  0.724400  0.243700  0.506300  1.0
  C  C1050  1  0.775600  0.756300  0.006300  1.0
  C  C1051  1  0.275600  0.756300  0.493700  1.0
  C  C1052  1  0.224400  0.243700  0.993700  1.0
  C  C1053  1  0.682100  0.187400  0.535900  1.0
  C  C1054  1  0.817900  0.812600  0.035900  1.0
  C  C1055  1  0.317900  0.812600  0.464100  1.0
  C  C1056  1  0.182100  0.187400  0.964100  1.0
  C  C1057  1  0.417500  0.256900  0.625300  1.0
  C  C1058  1  0.082500  0.743100  0.125300  1.0
  C  C1059  1  0.582500  0.743100  0.374700  1.0
  C  C1060  1  0.917500  0.256900  0.874700  1.0
  C  C1061  1  0.356200  0.200700  0.491900  1.0
  C  C1062  1  0.143800  0.799300  0.991900  1.0
  C  C1063  1  0.643800  0.799300  0.508100  1.0
  C  C1064  1  0.856200  0.200700  0.008100  1.0
  C  C1065  1  0.347800  0.188200  0.570500  1.0
  C  C1066  1  0.152200  0.811800  0.070500  1.0
  C  C1067  1  0.652200  0.811800  0.429500  1.0
  C  C1068  1  0.847800  0.188200  0.929500  1.0
  C  C1069  1  0.593700  0.279000  0.584700  1.0
  C  C1070  1  0.906300  0.721000  0.084700  1.0
  C  C1071  1  0.406300  0.721000  0.415300  1.0
  C  C1072  1  0.093700  0.279000  0.915300  1.0
  C  C1073  1  0.553200  0.266400  0.632900  1.0
  C  C1074  1  0.946800  0.733600  0.132900  1.0
  C  C1075  1  0.446800  0.733600  0.367100  1.0
  C  C1076  1  0.053200  0.266400  0.867100  1.0
  C  C1077  1  0.407700  0.193000  0.542800  1.0
  C  C1078  1  0.092300  0.807000  0.042800  1.0
  C  C1079  1  0.592300  0.807000  0.457200  1.0
  C  C1080  1  0.907700  0.193000  0.957200  1.0
  C  C1081  1  0.719200  0.252900  0.600000  1.0
  C  C1082  1  0.780800  0.747100  0.100000  1.0
  C  C1083  1  0.280800  0.747100  0.400000  1.0
  C  C1084  1  0.219200  0.252900  0.900000  1.0
  C  C1085  1  0.462700  0.260100  0.627100  1.0
  C  C1086  1  0.037300  0.739900  0.127100  1.0
  C  C1087  1  0.537300  0.739900  0.372900  1.0
  C  C1088  1  0.962700  0.260100  0.872900  1.0
  C  C1089  1  0.608200  0.196200  0.554900  1.0
  C  C1090  1  0.891800  0.803800  0.054900  1.0
  C  C1091  1  0.391800  0.803800  0.445100  1.0
  C  C1092  1  0.108200  0.196200  0.945100  1.0
  N  N1093  1  0.169100  0.021800  0.528000  1
  N  N1094  1  0.330900  0.978200  0.028000  1
  N  N1095  1  0.830900  0.978200  0.472000  1
  N  N1096  1  0.669100  0.021800  0.972000  1
  N  N1097  1  0.167900  0.036700  0.463700  1
  N  N1098  1  0.332100  0.963300  0.963700  1
  N  N1099  1  0.832100  0.963300  0.536300  1
  N  N1100  1  0.667900  0.036700  0.036300  1
  N  N1101  1  0.167300  0.974450  0.453000  1
  N  N1102  1  0.332700  0.025550  0.953000  1
  N  N1103  1  0.832700  0.025550  0.547000  1
  N  N1104  1  0.667300  0.974450  0.047000  1
  N  N1105  1  0.172200  0.959800  0.512200  1
  N  N1106  1  0.327800  0.040200  0.012200  1
  N  N1107  1  0.827800  0.040200  0.487800  1
  N  N1108  1  0.672200  0.959800  0.987800  1
  N  N1109  1  0.885900  0.903600  0.792500  1
  N  N1110  1  0.614100  0.096400  0.292500  1
  N  N1111  1  0.114100  0.096400  0.207500  1
  N  N1112  1  0.385900  0.903600  0.707500  1
  N  N1113  1  0.174200  0.920000  0.746500  1
  N  N1114  1  0.325800  0.080000  0.246500  1
  N  N1115  1  0.825800  0.080000  0.253500  1
  N  N1116  1  0.674200  0.920000  0.753500  1
  N  N1117  1  0.171600  0.251700  0.586000  1
  N  N1118  1  0.328400  0.748300  0.086000  1
  N  N1119  1  0.828400  0.748300  0.414000  1
  N  N1120  1  0.671600  0.251700  0.914000  1
  N  N1121  1  0.180500  0.000400  0.749300  1
  N  N1122  1  0.319500  0.999600  0.249300  1
  N  N1123  1  0.819500  0.999600  0.250700  1
  N  N1124  1  0.680500  0.000400  0.750700  1
  N  N1125  1  0.157900  0.293300  0.550200  1
  N  N1126  1  0.342100  0.706700  0.050200  1
  N  N1127  1  0.842100  0.706700  0.449800  1
  N  N1128  1  0.657900  0.293300  0.949800  1
  N  N1129  1  0.858500  0.962800  0.775700  1
  N  N1130  1  0.641500  0.037200  0.275700  1
  N  N1131  1  0.141500  0.037200  0.224300  1
  N  N1132  1  0.358500  0.962800  0.724300  1
  N  N1133  1  0.852300  0.275800  0.534600  1
  N  N1134  1  0.647700  0.724200  0.034600  1
  N  N1135  1  0.147700  0.724200  0.465400  1
  N  N1136  1  0.352300  0.275800  0.965400  1
  N  N1137  1  0.168100  0.264200  0.503600  1
  N  N1138  1  0.331900  0.735800  0.003600  1
  N  N1139  1  0.831900  0.735800  0.496400  1
  N  N1140  1  0.668100  0.264200  0.996400  1
  N  N1141  1  0.857200  0.887800  0.742800  1
  N  N1142  1  0.642800  0.112200  0.242800  1
  N  N1143  1  0.142800  0.112200  0.257200  1
  N  N1144  1  0.357200  0.887800  0.757200  1
  N  N1145  1  0.875500  0.295700  0.590500  1
  N  N1146  1  0.624500  0.704300  0.090500  1
  N  N1147  1  0.124500  0.704300  0.409500  1
  N  N1148  1  0.375500  0.295700  0.909500  1
  N  N1149  1  0.163100  0.952300  0.787300  1
  N  N1150  1  0.336900  0.047700  0.287300  1
  N  N1151  1  0.836900  0.047700  0.212700  1
  N  N1152  1  0.663100  0.952300  0.712700  1
  N  N1153  1  0.851500  0.244700  0.613200  1
  N  N1154  1  0.648500  0.755300  0.113200  1
  N  N1155  1  0.148500  0.755300  0.386800  1
  N  N1156  1  0.351500  0.244700  0.886800  1
  N  N1157  1  0.335800  0.470890  0.528800  1.0
  N  N1158  1  0.164200  0.529110  0.028800  1.0
  N  N1159  1  0.664200  0.529110  0.471200  1.0
  N  N1160  1  0.835800  0.470890  0.971200  1.0
  N  N1161  1  0.335200  0.457680  0.469300  1.0
  N  N1162  1  0.164800  0.542320  0.969300  1.0
  N  N1163  1  0.664800  0.542320  0.530700  1.0
  N  N1164  1  0.835200  0.457680  0.030700  1.0
  N  N1165  1  0.334000  0.532500  0.518900  1.0
  N  N1166  1  0.166000  0.467500  0.018900  1.0
  N  N1167  1  0.666000  0.467500  0.481100  1.0
  N  N1168  1  0.834000  0.532500  0.981100  1.0
  N  N1169  1  0.667600  0.415600  0.251540  1.0
  N  N1170  1  0.832400  0.584400  0.751540  1.0
  N  N1171  1  0.332400  0.584400  0.748460  1.0
  N  N1172  1  0.167600  0.415600  0.248460  1.0
  N  N1173  1  0.332500  0.522060  0.457300  1.0
  N  N1174  1  0.167500  0.477940  0.957300  1.0
  N  N1175  1  0.667500  0.477940  0.542700  1.0
  N  N1176  1  0.832500  0.522060  0.042700  1.0
  N  N1177  1  0.674100  0.502600  0.241200  1.0
  N  N1178  1  0.825900  0.497400  0.741200  1.0
  N  N1179  1  0.325900  0.497400  0.758800  1.0
  N  N1180  1  0.174100  0.502600  0.258800  1.0
  N  N1181  1  0.658300  0.454000  0.207300  1.0
  N  N1182  1  0.841700  0.546000  0.707300  1.0
  N  N1183  1  0.341700  0.546000  0.792700  1.0
  N  N1184  1  0.158300  0.454000  0.292700  1.0
  N  N1185  1  0.362500  0.426300  0.200500  1.0
  N  N1186  1  0.137500  0.573700  0.700500  1.0
  N  N1187  1  0.637500  0.573700  0.799500  1.0
  N  N1188  1  0.862500  0.426300  0.299500  1.0
  N  N1189  1  0.348800  0.230400  0.498000  1.0
  N  N1190  1  0.151200  0.769600  0.998000  1.0
  N  N1191  1  0.651200  0.769600  0.502000  1.0
  N  N1192  1  0.848800  0.230400  0.002000  1.0
  N  N1193  1  0.350600  0.240100  0.590200  1.0
  N  N1194  1  0.149400  0.759900  0.090200  1.0
  N  N1195  1  0.649400  0.759900  0.409800  1.0
  N  N1196  1  0.850600  0.240100  0.909800  1.0
  N  N1197  1  0.341800  0.396100  0.248400  1.0
  N  N1198  1  0.158200  0.603900  0.748400  1.0
  N  N1199  1  0.658200  0.603900  0.751600  1.0
  N  N1200  1  0.841800  0.396100  0.251600  1.0
  N  N1201  1  0.661300  0.206100  0.555600  1.0
  N  N1202  1  0.838700  0.793900  0.055600  1.0
  N  N1203  1  0.338700  0.793900  0.444400  1.0
  N  N1204  1  0.161300  0.206100  0.944400  1.0
  N  N1205  1  0.365100  0.194400  0.540700  1.0
  N  N1206  1  0.134900  0.805600  0.040700  1.0
  N  N1207  1  0.634900  0.805600  0.459300  1.0
  N  N1208  1  0.865100  0.194400  0.959300  1.0
  N  N1209  1  0.346000  0.476500  0.224800  1.0
  N  N1210  1  0.154000  0.523500  0.724800  1.0
  N  N1211  1  0.654000  0.523500  0.775200  1.0
  N  N1212  1  0.846000  0.476500  0.275200  1.0
  N  N1213  1  0.683600  0.235100  0.512800  1.0
  N  N1214  1  0.816400  0.764900  0.012800  1.0
  N  N1215  1  0.316400  0.764900  0.487200  1.0
  N  N1216  1  0.183600  0.235100  0.987200  1.0
  N  N1217  1  0.670900  0.247100  0.590700  1.0
  N  N1218  1  0.829100  0.752900  0.090700  1.0
  N  N1219  1  0.329100  0.752900  0.409300  1.0
  N  N1220  1  0.170900  0.247100  0.909300  1.0
  O  O1221  1  0.408200  0.499100  0.492500  1
  O  O1222  1  0.091800  0.500900  0.992500  1
  O  O1223  1  0.591800  0.500900  0.507500  1
  O  O1224  1  0.908200  0.499100  0.007500  1
  O  O1225  1  0.088600  0.994300  0.491600  1
  O  O1226  1  0.411400  0.005700  0.991600  1
  O  O1227  1  0.911400  0.005700  0.508400  1
  O  O1228  1  0.588600  0.994300  0.008400  1
  O  O1229  1  0.246200  0.998900  0.482300  1
  O  O1230  1  0.253800  0.001100  0.982300  1
  O  O1231  1  0.753800  0.001100  0.517700  1
  O  O1232  1  0.746200  0.998900  0.017700  1
  O  O1233  1  0.249200  0.503200  0.494200  1
  O  O1234  1  0.250800  0.496800  0.994200  1
  O  O1235  1  0.750800  0.496800  0.505800  1
  O  O1236  1  0.749200  0.503200  0.005800  1
  O  O1237  1  0.165100  0.210550  0.541200  1
  O  O1238  1  0.334900  0.789450  0.041200  1
  O  O1239  1  0.834900  0.789450  0.458800  1
  O  O1240  1  0.665100  0.210550  0.958800  1
  O  O1241  1  0.156900  0.784810  0.440800  1
  O  O1242  1  0.343100  0.215190  0.940800  1
  O  O1243  1  0.843100  0.215190  0.559200  1
  O  O1244  1  0.656900  0.784810  0.059200  1
  O  O1245  1  0.171100  0.959150  0.703800  1
  O  O1246  1  0.328900  0.040850  0.203800  1
  O  O1247  1  0.828900  0.040850  0.296200  1
  O  O1248  1  0.671100  0.959150  0.796200  1
  O  O1249  1  0.146700  0.053400  0.277600  1
  O  O1250  1  0.353300  0.946600  0.777600  1
  O  O1251  1  0.853300  0.946600  0.722400  1
  O  O1252  1  0.646700  0.053400  0.222400  1
  O  O1253  1  0.205600  0.048500  0.280700  1
  O  O1254  1  0.294400  0.951500  0.780700  1
  O  O1255  1  0.794400  0.951500  0.719300  1
  O  O1256  1  0.705600  0.048500  0.219300  1
  O  O1257  1  0.232500  0.205000  0.543300  1
  O  O1258  1  0.267500  0.795000  0.043300  1
  O  O1259  1  0.767500  0.795000  0.456700  1
  O  O1260  1  0.732500  0.205000  0.956700  1
  O  O1261  1  0.235000  0.949500  0.694300  1
  O  O1262  1  0.265000  0.050500  0.194300  1
  O  O1263  1  0.765000  0.050500  0.305700  1
  O  O1264  1  0.735000  0.949500  0.805700  1
  O  O1265  1  0.218000  0.788420  0.439910  1
  O  O1266  1  0.282000  0.211580  0.939910  1
  O  O1267  1  0.782000  0.211580  0.560090  1
  O  O1268  1  0.718000  0.788420  0.060090  1
  O  O1269  1  0.343000  0.449740  0.282010  1.0
  O  O1270  1  0.157000  0.550260  0.782010  1.0
  O  O1271  1  0.657000  0.550260  0.717990  1.0
  O  O1272  1  0.843000  0.449740  0.217990  1.0
  O  O1273  1  0.349600  0.284100  0.536100  1.0
  O  O1274  1  0.150400  0.715900  0.036100  1.0
  O  O1275  1  0.650400  0.715900  0.463900  1.0
  O  O1276  1  0.849600  0.284100  0.963900  1.0
  O  O1277  1  0.278100  0.453500  0.283400  1.0
  O  O1278  1  0.221900  0.546500  0.783400  1.0
  O  O1279  1  0.721900  0.546500  0.716600  1.0
  O  O1280  1  0.778100  0.453500  0.216600  1.0
  O  O1281  1  0.341300  0.532780  0.708110  1.0
  O  O1282  1  0.158700  0.467220  0.208110  1.0
  O  O1283  1  0.658700  0.467220  0.291890  1.0
  O  O1284  1  0.841300  0.532780  0.791890  1.0
  O  O1285  1  0.287000  0.284200  0.540800  1.0
  O  O1286  1  0.213000  0.715800  0.040800  1.0
  O  O1287  1  0.713000  0.715800  0.459200  1.0
  O  O1288  1  0.787000  0.284200  0.959200  1.0
  O  O1289  1  0.332400  0.713200  0.455700  1.0
  O  O1290  1  0.167600  0.286800  0.955700  1.0
  O  O1291  1  0.667600  0.286800  0.544300  1.0
  O  O1292  1  0.832400  0.713200  0.044300  1.0
  O  O1293  1  0.275800  0.538600  0.698800  1.0
  O  O1294  1  0.224200  0.461400  0.198800  1.0
  O  O1295  1  0.724200  0.461400  0.301200  1.0
  O  O1296  1  0.775800  0.538600  0.801200  1.0
  O  O1297  1  0.266100  0.702400  0.450300  1.0
  O  O1298  1  0.233900  0.297600  0.950300  1.0
  O  O1299  1  0.733900  0.297600  0.549700  1.0
  O  O1300  1  0.766100  0.702400  0.049700  1.0
