
#######################################################################
#
#                 Cambridge Crystallographic Data Centre
#                                CCDC 
#
#######################################################################
#
# If this CIF has been generated from an entry in the Cambridge 
# Structural Database, then it will include bibliographic, chemical, 
# crystal, experimental, refinement or atomic coordinate data resulting 
# from the CCDC's data processing and validation procedures.
#
#######################################################################

data_HIHMAP
_chemical_formula_moiety         
'C246 H188 Cd4 N24 O18 8+,8(F6 P1 1-),14(C2 H3 N1),2(H2 O1)'
_chemical_name_systematic        
"bis(\m-4',4''-(5-methoxybenzene-1,3-diyl)bis[6,6''-bis(2,6-dimethoxyphenyl)-2,2':6',2''-terpyridine])-bis(\m-4',4''-(1,1':4',1'':4'',1'''-quaterphenyl-2,4'''-diyl)bis(2,2':6',2''-terpyridine))-tetra-cadmium(ii) octakis(hexafluorophosphate) acetonitrile solvate dihydrate"
_symmetry_cell_setting           triclinic
_symmetry_space_group_name_H-M   'P -1'
_symmetry_Int_Tables_number      2
_space_group_name_Hall           '-P 1'
loop_
_symmetry_equiv_pos_site_id
_symmetry_equiv_pos_as_xyz
1 x,y,z
2 -x,-y,-z
_cell_length_a                   13.7435(6)
_cell_length_b                   20.9738(10)
_cell_length_c                   28.0403(13)
_cell_angle_alpha                111.040(4)
_cell_angle_beta                 91.406(4)
_cell_angle_gamma                104.651(4)
_cell_volume                     7238.76
_exptl_crystal_description       column
_cell_formula_units_Z            1
_exptl_crystal_recrystallization_method 'diisopropyl ether/acetonitrile'
loop_
_atom_site_label
_atom_site_type_symbol
_atom_site_fract_x
_atom_site_fract_y
_atom_site_fract_z
Cd1 Cd 0.02339(12) 0.25712(8) -0.04677(6)
Cd2 Cd 0.29273(14) 0.33295(9) 0.65675(7)
O1 O -0.1304(13) 0.3780(11) -0.0616(8)
O2 O -0.1663(13) 0.1854(9) -0.2089(8)
O3 O -0.0410(14) 0.2063(11) 0.0821(10)
O4 O 0.0809(14) 0.0613(10) -0.0624(8)
O5 O 0.5346(11) 0.6896(9) 0.0134(6)
O6 O 0.9464(17) 0.5920(14) 0.2869(9)
O7 O 1.0224(13) 0.8257(14) 0.4037(7)
O8 O 0.5274(13) 0.7375(10) 0.4392(8)
O9 O 0.5357(15) 0.5058(10) 0.4015(7)
N1 N 0.0335(14) 0.3235(9) -0.1037(6)
N2 N 0.1839(13) 0.3314(9) -0.0351(8)
N3 N 0.1351(14) 0.2376(10) 0.0071(7)
N4 N -0.0387(16) 0.1482(10) -0.1153(8)
N5 N -0.1443(12) 0.2084(9) -0.0397(7)
N6 N -0.0282(13) 0.3294(10) 0.0188(8)
N7 N 0.8309(18) 0.7003(11) 0.2946(9)
N8 N 0.6351(19) 0.6606(10) 0.2667(7)
N9 N 0.5284(15) 0.6180(10) 0.3362(10)
N10 N 0.2556(19) 0.4256(14) 0.6537(11)
N11 N 0.2014(17) 0.3064(18) 0.5786(9)
N12 N 0.2664(15) 0.2158(11) 0.6079(8)
C1 C -0.0462(18) 0.3120(11) -0.1395(9)
C2 C -0.0284(17) 0.3409(10) -0.1771(8)
H1 H -0.0824 0.3335 -0.2021
C3 C 0.0690(19) 0.3807(11) -0.1780(9)
H2 H 0.0830 0.3978 -0.2049
C4 C 0.1469(17) 0.3954(10) -0.1384(9)
H3 H 0.2127 0.4258 -0.1361
C5 C 0.1216(18) 0.3627(11) -0.1027(9)
C6 C 0.1962(19) 0.3782(15) -0.0563(10)
C7 C 0.2758(17) 0.4448(12) -0.0373(9)
H4 H 0.2839 0.4775 -0.0542
C8 C 0.3394(17) 0.4590(12) 0.0065(10)
C9 C 0.3219(17) 0.4049(14) 0.0261(8)
H5 H 0.3666 0.4112 0.0548
C10 C 0.2464(17) 0.3453(14) 0.0069(10)
C11 C 0.2288(18) 0.2928(14) 0.0278(9)
C12 C 0.2967(17) 0.2886(12) 0.0620(9)
H6 H 0.3584 0.3258 0.0746
C13 C 0.2808(17) 0.2328(13) 0.0797(9)
H7 H 0.3300 0.2320 0.1037
C14 C 0.195(2) 0.1815(13) 0.0620(9)
H8 H 0.1828 0.1410 0.0713
C15 C 0.1196(17) 0.1886(13) 0.0272(9)
C16 C -0.149(2) 0.2813(17) -0.1336(12)
C17 C -0.196(3) 0.3159(13) -0.0959(12)
C18 C -0.295(3) 0.2948(15) -0.0920(11)
H9 H -0.3235 0.3220 -0.0640
C19 C -0.354(2) 0.2331(19) -0.1290(15)
H10 H -0.4244 0.2162 -0.1278
C20 C -0.307(3) 0.1973(17) -0.1673(15)
H11 H -0.3471 0.1540 -0.1930
C21 C -0.212(3) 0.2181(19) -0.1714(13)
C22 C -0.1717(17) 0.4309(14) -0.0293(11)
H12 H -0.1166 0.4717 -0.0070
H13 H -0.2158 0.4114 -0.0079
H14 H -0.2112 0.4462 -0.0504
C23 C -0.2222(18) 0.1226(12) -0.2554(9)
H15 H -0.1739 0.1061 -0.2787
H16 H -0.2707 0.1363 -0.2732
H17 H -0.2587 0.0843 -0.2449
C24 C 0.011(3) 0.1307(16) 0.0091(13)
C25 C -0.061(3) 0.148(2) 0.0409(16)
C26 C -0.161(4) 0.100(3) 0.0308(15)
H18 H -0.2137 0.1075 0.0516
C27 C -0.170(3) 0.044(3) -0.011(2)
H19 H -0.2367 0.0122 -0.0204
C28 C -0.099(3) 0.0185(11) -0.0467(13)
H20 H -0.1183 -0.0264 -0.0746
C29 C 0.006(2) 0.0696(14) -0.0358(12)
C30 C -0.112(2) 0.2196(18) 0.1169(14)
H21 H -0.0829 0.2660 0.1449
H22 H -0.1277 0.1823 0.1311
H23 H -0.1735 0.2199 0.0990
C31 C 0.0737(19) -0.0025(13) -0.1056(11)
H24 H 0.1377 0.0015 -0.1204
H25 H 0.0185 -0.0100 -0.1316
H26 H 0.0598 -0.0428 -0.0945
C32 C 0.4134(16) 0.5321(12) 0.0355(10)
C33 C 0.4433(16) 0.5806(12) 0.0121(9)
H27 H 0.4202 0.5681 -0.0231
C34 C 0.5089(16) 0.6494(12) 0.0414(10)
C35 C 0.5474(16) 0.6680(12) 0.0929(9)
H28 H 0.5950 0.7127 0.1119
C36 C 0.5125(19) 0.6179(14) 0.1147(10)
C37 C 0.4405(16) 0.5513(12) 0.0877(10)
H29 H 0.4118 0.5207 0.1049
C38 C 0.5949(17) 0.7582(12) 0.0416(9)
H30 H 0.6103 0.7846 0.0188
H31 H 0.6581 0.7560 0.0570
H32 H 0.5586 0.7824 0.0689
C39 C 0.931(3) 0.7259(14) 0.3082(10)
C40 C 0.998(2) 0.7764(14) 0.2915(10)
H33 H 1.0685 0.7941 0.3046
C41 C 0.9602(17) 0.7989(11) 0.2560(11)
H34 H 1.0023 0.8329 0.2448
C42 C 0.857(2) 0.7693(13) 0.2375(9)
H35 H 0.8251 0.7815 0.2128
C43 C 0.801(2) 0.7199(14) 0.2577(11)
C44 C 0.692(2) 0.6844(12) 0.2368(11)
C45 C 0.6525(19) 0.6737(11) 0.1869(9)
H36 H 0.6932 0.6940 0.1662
C46 C 0.551(2) 0.6323(12) 0.1678(10)
C47 C 0.490(2) 0.6124(12) 0.2006(12)
H37 H 0.4194 0.5913 0.1912
C48 C 0.537(3) 0.6244(14) 0.2484(12)
C49 C 0.484(2) 0.6081(14) 0.2865(17)
C50 C 0.383(3) 0.5719(15) 0.2777(10)
H38 H 0.3478 0.5609 0.2449
C51 C 0.324(2) 0.5487(15) 0.3141(14)
H39 H 0.2534 0.5246 0.3046
C52 C 0.370(2) 0.5618(15) 0.3625(11)
H40 H 0.3351 0.5469 0.3872
C53 C 0.472(3) 0.5987(17) 0.3715(11)
C54 C 0.986(2) 0.703(3) 0.3464(11)
C55 C 0.995(3) 0.636(2) 0.3316(16)
C56 C 1.048(2) 0.619(2) 0.3666(14)
H41 H 1.0520 0.5715 0.3582
C57 C 1.094(3) 0.671(2) 0.4121(18)
H42 H 1.1373 0.6599 0.4336
C58 C 1.082(2) 0.736(3) 0.4284(12)
H43 H 1.1088 0.7692 0.4624
C59 C 1.029(3) 0.7567(19) 0.3948(16)
C60 C 0.968(3) 0.5215(19) 0.2702(12)
H44 H 0.9289 0.4906 0.2364
H45 H 0.9476 0.4997 0.2953
H46 H 1.0402 0.5279 0.2678
C61 C 1.075(2) 0.8854(12) 0.4497(11)
H47 H 1.0619 0.9290 0.4492
H48 H 1.1480 0.8906 0.4511
H49 H 1.0508 0.8772 0.4802
C62 C 0.5339(13) 0.6222(13) 0.4221(5)
C63 C 0.5601(14) 0.6927(11) 0.4563(8)
C64 C 0.6119(14) 0.7120(9) 0.5048(7)
H50 H 0.6298 0.7601 0.5282
C65 C 0.6376(12) 0.6607(12) 0.5191(5)
H51 H 0.6730 0.6739 0.5522
C66 C 0.6114(14) 0.5902(10) 0.4849(8)
H52 H 0.6289 0.5552 0.4946
C67 C 0.5596(14) 0.5709(9) 0.4364(7)
C68 C 0.540(3) 0.8056(16) 0.4821(14)
H53 H 0.5161 0.8379 0.4697
H54 H 0.6115 0.8268 0.4963
H55 H 0.4999 0.7977 0.5090
C69 C 0.548(3) 0.4475(18) 0.4170(13)
H56 H 0.5268 0.4024 0.3872
H57 H 0.5056 0.4445 0.4442
H58 H 0.6190 0.4571 0.4298
C70 C 0.0172(18) 0.1209(14) -0.1513(12)
H59 H 0.0872 0.1455 -0.1463
C71 C -0.019(2) 0.0582(13) -0.1962(10)
H60 H 0.0220 0.0412 -0.2218
C72 C -0.122(2) 0.0239(13) -0.1990(10)
H61 H -0.1528 -0.0195 -0.2271
C73 C -0.1792(19) 0.0517(12) -0.1622(10)
H62 H -0.2491 0.0273 -0.1664
C74 C -0.1402(17) 0.1150(11) -0.1179(9)
C75 C -0.1937(19) 0.1465(12) -0.0762(9)
C76 C -0.296(2) 0.1123(12) -0.0755(10)
H63 H -0.3296 0.0660 -0.0996
C77 C -0.343(2) 0.1519(14) -0.0363(12)
C78 C -0.2912(19) 0.2156(13) 0.0011(9)
H64 H -0.3223 0.2410 0.0287
C79 C -0.191(2) 0.2404(12) -0.0037(10)
C80 C -0.1249(19) 0.3157(12) 0.0373(10)
C81 C -0.1633(18) 0.3563(12) 0.0788(10)
H65 H -0.2291 0.3392 0.0869
C82 C -0.1008(19) 0.4231(12) 0.1078(9)
H66 H -0.1231 0.4548 0.1362
C83 C -0.0075(19) 0.4420(13) 0.0948(13)
H67 H 0.0376 0.4871 0.1151
C84 C 0.024(2) 0.3982(15) 0.0533(11)
H68 H 0.0903 0.4167 0.0467
C85 C -0.453(2) 0.1200(12) -0.0357(11)
C86 C -0.518(2) 0.0919(12) -0.0847(10)
H69 H -0.4887 0.0864 -0.1157
C87 C -0.622(2) 0.0734(14) -0.0863(11)
H70 H -0.6638 0.0580 -0.1181
C88 C -0.662(2) 0.0767(12) -0.0455(13)
H71 H -0.7344 0.0620 -0.0481
C89 C -0.604(2) 0.1019(12) 0.0051(11)
H72 H -0.6370 0.1058 0.0350
C90 C -0.501(2) 0.1196(10) 0.0078(12)
C91 C -0.4458(19) 0.1406(19) 0.0612(12)
C92 C -0.4100(19) 0.0908(15) 0.0680(10)
H73 H -0.4238 0.0455 0.0408
C93 C -0.3486(18) 0.1044(15) 0.1171(11)
H74 H -0.3164 0.0709 0.1207
C94 C -0.3413(17) 0.1676(15) 0.1565(9)
C95 C -0.3821(18) 0.2176(13) 0.1474(11)
H75 H -0.3748 0.2621 0.1746
C96 C -0.433(2) 0.2042(16) 0.0994(13)
H76 H -0.4585 0.2395 0.0939
C97 C -0.2826(18) 0.1821(16) 0.2077(9)
C98 C -0.2774(17) 0.1254(14) 0.2211(10)
H77 H -0.3129 0.0776 0.2003
C99 C -0.216(2) 0.1436(16) 0.2679(10)
H78 H -0.2094 0.1075 0.2798
C100 C -0.164(2) 0.2150(17) 0.2966(10)
C101 C -0.171(2) 0.2679(16) 0.2827(14)
H79 H -0.1375 0.3156 0.3046
C102 C -0.225(2) 0.2546(14) 0.2380(11)
H80 H -0.2256 0.2920 0.2265
C103 C -0.095(2) 0.232(2) 0.3520(15)
C104 C -0.034(2) 0.1847(13) 0.3486(10)
H81 H -0.0362 0.1451 0.3179
C105 C 0.0291(19) 0.2008(15) 0.3938(14)
H82 H 0.0746 0.1734 0.3938
C106 C 0.026(3) 0.2560(19) 0.4381(14)
C107 C -0.036(3) 0.2974(19) 0.4387(12)
H83 H -0.0353 0.3357 0.4698
C108 C -0.097(4) 0.2862(18) 0.3969(16)
H84 H -0.1404 0.3154 0.3985
C109 C 0.287(3) 0.495(2) 0.6917(14)
H85 H 0.3193 0.4991 0.7235
C110 C 0.279(3) 0.5546(18) 0.6893(13)
H86 H 0.3080 0.5988 0.7169
C111 C 0.222(3) 0.551(2) 0.6424(14)
H87 H 0.2085 0.5901 0.6362
C112 C 0.190(2) 0.476(2) 0.6076(11)
H88 H 0.1517 0.4681 0.5763
C113 C 0.204(3) 0.422(2) 0.6105(16)
C114 C 0.176(2) 0.3554(18) 0.5727(12)
C115 C 0.122(2) 0.3452(15) 0.5261(14)
H89 H 0.1075 0.3839 0.5199
C116 C 0.089(2) 0.275(2) 0.4886(11)
C117 C 0.119(2) 0.2226(15) 0.4962(10)
H90 H 0.1020 0.1756 0.4709
C118 C 0.178(2) 0.243(2) 0.5463(15)
C119 C 0.211(2) 0.1916(16) 0.5601(11)
C120 C 0.188(2) 0.121(2) 0.5291(12)
H91 H 0.1476 0.1048 0.4969
C121 C 0.223(2) 0.0713(17) 0.5428(12)
H92 H 0.2097 0.0232 0.5196
C122 C 0.2810(19) 0.0961(17) 0.5938(11)
H93 H 0.3076 0.0663 0.6060
C123 C 0.293(2) 0.1696(16) 0.6233(11)
H94 H 0.3240 0.1872 0.6580
Cd1A Cd 0.97661(12) 0.74288(8) 1.04677(6)
Cd2A Cd 0.70727(14) 0.66705(9) 0.34325(7)
O1A O 1.1304(13) 0.6220(11) 1.0616(8)
O2A O 1.1663(13) 0.8146(9) 1.2089(8)
O3A O 1.0410(14) 0.7937(11) 0.9179(10)
O4A O 0.9191(14) 0.9387(10) 1.0624(8)
O5A O 0.4654(11) 0.3104(9) 0.9866(6)
O6A O 0.0536(17) 0.4080(14) 0.7131(9)
O7A O -0.0224(13) 0.1743(14) 0.5963(7)
O8A O 0.4726(13) 0.2625(10) 0.5608(8)
O9A O 0.4643(15) 0.4942(10) 0.5985(7)
N1A N 0.9665(14) 0.6765(9) 1.1037(6)
N2A N 0.8161(13) 0.6686(9) 1.0351(8)
N3A N 0.8649(14) 0.7624(10) 0.9929(7)
N4A N 1.0387(16) 0.8518(10) 1.1153(8)
N5A N 1.1443(12) 0.7916(9) 1.0397(7)
N6A N 1.0282(13) 0.6706(10) 0.9812(8)
N7A N 0.1691(18) 0.2997(11) 0.7054(9)
N8A N 0.3649(19) 0.3394(10) 0.7333(7)
N9A N 0.4716(15) 0.3820(10) 0.6638(10)
N10A N 0.7444(19) 0.5744(14) 0.3463(11)
N11A N 0.7986(17) 0.6936(18) 0.4214(9)
N12A N 0.7336(15) 0.7842(11) 0.3921(8)
C1A C 1.0462(18) 0.6880(11) 1.1395(9)
C2A C 1.0284(17) 0.6591(10) 1.1771(8)
H1A H 1.0824 0.6665 1.2021
C3A C 0.9310(19) 0.6193(11) 1.1780(9)
H2A H 0.9170 0.6022 1.2049
C4A C 0.8531(17) 0.6046(10) 1.1384(9)
H3A H 0.7873 0.5742 1.1361
C5A C 0.8784(18) 0.6373(11) 1.1027(9)
C6A C 0.8038(19) 0.6218(15) 1.0563(10)
C7A C 0.7242(17) 0.5552(12) 1.0373(9)
H4A H 0.7161 0.5225 1.0542
C8A C 0.6606(17) 0.5410(12) 0.9935(10)
C9A C 0.6781(17) 0.5951(14) 0.9739(8)
H5A H 0.6334 0.5888 0.9452
C10A C 0.7536(17) 0.6547(14) 0.9931(10)
C11A C 0.7712(18) 0.7072(14) 0.9722(9)
C12A C 0.7033(17) 0.7114(12) 0.9380(9)
H6A H 0.6416 0.6742 0.9254
C13A C 0.7192(17) 0.7672(13) 0.9203(9)
H7A H 0.6700 0.7680 0.8963
C14A C 0.805(2) 0.8185(13) 0.9380(9)
H8A H 0.8172 0.8590 0.9287
C15A C 0.8804(17) 0.8114(13) 0.9728(9)
C16A C 1.149(2) 0.7187(17) 1.1336(12)
C17A C 1.196(3) 0.6841(13) 1.0959(12)
C18A C 1.295(3) 0.7052(15) 1.0920(11)
H9A H 1.3235 0.6780 1.0640
C19A C 1.354(2) 0.7669(19) 1.1290(15)
H10A H 1.4244 0.7838 1.1278
C20A C 1.307(3) 0.8027(17) 1.1673(15)
H11A H 1.3471 0.8460 1.1930
C21A C 1.212(3) 0.7819(19) 1.1714(13)
C22A C 1.1717(17) 0.5691(14) 1.0293(11)
H12A H 1.1166 0.5283 1.0070
H13A H 1.2158 0.5886 1.0079
H14A H 1.2112 0.5538 1.0504
C23A C 1.2222(18) 0.8774(12) 1.2554(9)
H15A H 1.1739 0.8939 1.2787
H16A H 1.2707 0.8637 1.2732
H17A H 1.2587 0.9157 1.2449
C24A C 0.989(3) 0.8693(16) 0.9909(13)
C25A C 1.061(3) 0.852(2) 0.9591(16)
C26A C 1.161(4) 0.900(3) 0.9692(15)
H18A H 1.2137 0.8925 0.9484
C27A C 1.170(3) 0.956(3) 1.011(2)
H19A H 1.2367 0.9878 1.0204
C28A C 1.099(3) 0.9815(11) 1.0467(13)
H20A H 1.1183 1.0264 1.0746
C29A C 0.994(2) 0.9304(14) 1.0358(12)
C30A C 1.112(2) 0.7804(18) 0.8831(14)
H21A H 1.0829 0.7340 0.8551
H22A H 1.1277 0.8177 0.8689
H23A H 1.1735 0.7801 0.9010
C31A C 0.9263(19) 1.0025(13) 1.1056(11)
H24A H 0.8623 0.9985 1.1204
H25A H 0.9815 1.0100 1.1316
H26A H 0.9402 1.0428 1.0945
C32A C 0.5866(16) 0.4679(12) 0.9645(10)
C33A C 0.5567(16) 0.4194(12) 0.9879(9)
H27A H 0.5798 0.4319 1.0231
C34A C 0.4911(16) 0.3506(12) 0.9586(10)
C35A C 0.4526(16) 0.3320(12) 0.9071(9)
H28A H 0.4050 0.2873 0.8881
C36A C 0.4875(19) 0.3821(14) 0.8853(10)
C37A C 0.5595(16) 0.4487(12) 0.9123(10)
H29A H 0.5882 0.4793 0.8951
C38A C 0.4051(17) 0.2418(12) 0.9584(9)
H30A H 0.3897 0.2154 0.9812
H31A H 0.3419 0.2440 0.9430
H32A H 0.4414 0.2176 0.9311
C39A C 0.069(3) 0.2741(14) 0.6918(10)
C40A C 0.002(2) 0.2236(14) 0.7085(10)
H33A H -0.0685 0.2059 0.6954
C41A C 0.0398(17) 0.2011(11) 0.7440(11)
H34A H -0.0023 0.1671 0.7552
C42A C 0.143(2) 0.2307(13) 0.7625(9)
H35A H 0.1749 0.2185 0.7872
C43A C 0.199(2) 0.2801(14) 0.7423(11)
C44A C 0.308(2) 0.3156(12) 0.7632(11)
C45A C 0.3475(19) 0.3263(11) 0.8131(9)
H36A H 0.3068 0.3060 0.8338
C46A C 0.449(2) 0.3677(12) 0.8322(10)
C47A C 0.510(2) 0.3876(12) 0.7994(12)
H37A H 0.5806 0.4087 0.8088
C48A C 0.463(3) 0.3756(14) 0.7516(12)
C49A C 0.516(2) 0.3919(14) 0.7135(17)
C50A C 0.617(3) 0.4281(15) 0.7223(10)
H38A H 0.6522 0.4391 0.7551
C51A C 0.676(2) 0.4513(15) 0.6859(14)
H39A H 0.7466 0.4754 0.6954
C52A C 0.630(2) 0.4382(15) 0.6375(11)
H40A H 0.6649 0.4531 0.6128
C53A C 0.528(3) 0.4013(17) 0.6285(11)
C54A C 0.014(2) 0.297(3) 0.6536(11)
C55A C 0.005(3) 0.364(2) 0.6684(16)
C56A C -0.048(2) 0.381(2) 0.6334(14)
H41A H -0.0520 0.4285 0.6418
C57A C -0.094(3) 0.329(2) 0.5879(18)
H42A H -0.1373 0.3401 0.5664
C58A C -0.082(2) 0.264(3) 0.5716(12)
H43A H -0.1088 0.2308 0.5376
C59A C -0.029(3) 0.2433(19) 0.6052(16)
C60A C 0.032(3) 0.4785(19) 0.7298(12)
H44A H 0.0711 0.5094 0.7636
H45A H 0.0524 0.5003 0.7047
H46A H -0.0402 0.4721 0.7322
C61A C -0.075(2) 0.1146(12) 0.5503(11)
H47A H -0.0619 0.0710 0.5508
H48A H -0.1480 0.1094 0.5489
H49A H -0.0508 0.1228 0.5198
C62A C 0.4661(13) 0.3778(13) 0.5779(5)
C63A C 0.4399(14) 0.3073(11) 0.5437(8)
C64A C 0.3881(14) 0.2880(9) 0.4952(7)
H50A H 0.3702 0.2399 0.4718
C65A C 0.3624(12) 0.3393(12) 0.4809(5)
H51A H 0.3270 0.3261 0.4478
C66A C 0.3886(14) 0.4098(10) 0.5151(8)
H52A H 0.3711 0.4448 0.5054
C67A C 0.4404(14) 0.4291(9) 0.5636(7)
C68A C 0.460(3) 0.1944(16) 0.5179(14)
H53A H 0.4839 0.1621 0.5303
H54A H 0.3885 0.1732 0.5037
H55A H 0.5001 0.2023 0.4910
C69A C 0.452(3) 0.5525(18) 0.5830(13)
H56A H 0.4732 0.5976 0.6128
H57A H 0.4944 0.5555 0.5558
H58A H 0.3810 0.5429 0.5702
C70A C 0.9828(18) 0.8791(14) 1.1513(12)
H59A H 0.9128 0.8545 1.1463
C71A C 1.019(2) 0.9418(13) 1.1962(10)
H60A H 0.9780 0.9588 1.2218
C72A C 1.122(2) 0.9761(13) 1.1990(10)
H61A H 1.1528 1.0195 1.2271
C73A C 1.1792(19) 0.9483(12) 1.1622(10)
H62A H 1.2491 0.9727 1.1664
C74A C 1.1402(17) 0.8850(11) 1.1179(9)
C75A C 1.1937(19) 0.8535(12) 1.0762(9)
C76A C 1.296(2) 0.8877(12) 1.0755(10)
H63A H 1.3296 0.9340 1.0996
C77A C 1.343(2) 0.8481(14) 1.0363(12)
C78A C 1.2912(19) 0.7844(13) 0.9989(9)
H64A H 1.3223 0.7590 0.9713
C79A C 1.191(2) 0.7596(12) 1.0037(10)
C80A C 1.1249(19) 0.6843(12) 0.9627(10)
C81A C 1.1633(18) 0.6437(12) 0.9212(10)
H65A H 1.2291 0.6608 0.9131
C82A C 1.1008(19) 0.5769(12) 0.8922(9)
H66A H 1.1231 0.5452 0.8638
C83A C 1.0075(19) 0.5580(13) 0.9052(13)
H67A H 0.9624 0.5129 0.8849
C84A C 0.976(2) 0.6018(15) 0.9467(11)
H68A H 0.9097 0.5833 0.9533
C85A C 1.453(2) 0.8800(12) 1.0357(11)
C86A C 1.518(2) 0.9081(12) 1.0847(10)
H69A H 1.4887 0.9136 1.1157
C87A C 1.622(2) 0.9266(14) 1.0863(11)
H70A H 1.6638 0.9420 1.1181
C88A C 1.662(2) 0.9233(12) 1.0455(13)
H71A H 1.7344 0.9380 1.0481
C89A C 1.604(2) 0.8981(12) 0.9949(11)
H72A H 1.6370 0.8942 0.9650
C90A C 1.501(2) 0.8804(10) 0.9922(12)
C91A C 1.4458(19) 0.8594(19) 0.9388(12)
C92A C 1.4100(19) 0.9092(15) 0.9320(10)
H73A H 1.4238 0.9545 0.9592
C93A C 1.3486(18) 0.8956(15) 0.8829(11)
H74A H 1.3164 0.9291 0.8793
C94A C 1.3413(17) 0.8324(15) 0.8435(9)
C95A C 1.3821(18) 0.7824(13) 0.8526(11)
H75A H 1.3748 0.7379 0.8254
C96A C 1.433(2) 0.7958(16) 0.9006(13)
H76A H 1.4585 0.7605 0.9061
C97A C 1.2826(18) 0.8179(16) 0.7923(9)
C98A C 1.2774(17) 0.8746(14) 0.7789(10)
H77A H 1.3129 0.9224 0.7997
C99A C 1.216(2) 0.8564(16) 0.7321(10)
H78A H 1.2094 0.8925 0.7202
C100A C 1.164(2) 0.7850(17) 0.7034(10)
C101A C 1.171(2) 0.7321(16) 0.7173(14)
H79A H 1.1375 0.6844 0.6954
C102A C 1.225(2) 0.7454(14) 0.7620(11)
H80A H 1.2256 0.7080 0.7735
C103A C 1.095(2) 0.768(2) 0.6480(15)
C104A C 1.034(2) 0.8153(13) 0.6514(10)
H81A H 1.0362 0.8549 0.6821
C105A C 0.9709(19) 0.7992(15) 0.6062(14)
H82A H 0.9254 0.8266 0.6062
C106A C 0.974(3) 0.7440(19) 0.5619(14)
C107A C 1.036(3) 0.7026(19) 0.5613(12)
H83A H 1.0353 0.6643 0.5302
C108A C 1.097(4) 0.7138(18) 0.6031(16)
H84A H 1.1404 0.6846 0.6015
C109A C 0.713(3) 0.505(2) 0.3083(14)
H85A H 0.6807 0.5009 0.2765
C110A C 0.721(3) 0.4454(18) 0.3107(13)
H86A H 0.6920 0.4012 0.2831
C111A C 0.778(3) 0.449(2) 0.3576(14)
H87A H 0.7915 0.4099 0.3638
C112A C 0.810(2) 0.524(2) 0.3924(11)
H88A H 0.8483 0.5319 0.4237
C113A C 0.796(3) 0.578(2) 0.3895(16)
C114A C 0.824(2) 0.6446(18) 0.4273(12)
C115A C 0.878(2) 0.6548(15) 0.4739(14)
H89A H 0.8925 0.6161 0.4801
C116A C 0.911(2) 0.725(2) 0.5114(11)
C117A C 0.881(2) 0.7774(15) 0.5038(10)
H90A H 0.8980 0.8244 0.5291
C118A C 0.822(2) 0.757(2) 0.4537(15)
C119A C 0.789(2) 0.8084(16) 0.4399(11)
C120A C 0.812(2) 0.879(2) 0.4709(12)
H91A H 0.8524 0.8952 0.5031
C121A C 0.777(2) 0.9287(17) 0.4572(12)
H92A H 0.7903 0.9768 0.4804
C122A C 0.7190(19) 0.9039(17) 0.4062(11)
H93A H 0.6924 0.9337 0.3940
C123A C 0.707(2) 0.8304(16) 0.3767(11)
H94A H 0.6760 0.8128 0.3420
P1 P 0.7046(7) 0.9015(5) 0.2244(4)
F1 F 0.7407(12) 0.9578(7) 0.2001(6)
F2 F 0.6709(11) 0.8456(7) 0.2509(6)
F3 F 0.6929(12) 0.9627(8) 0.2752(7)
F4 F 0.5942(12) 0.8892(8) 0.2046(7)
F5 F 0.7158(12) 0.8378(8) 0.1720(6)
F6 F 0.8215(11) 0.9135(7) 0.2454(6)
P2 P 0.6046(7) 0.4316(5) 0.1501(4)
F7 F 0.6085(14) 0.4967(9) 0.1981(7)
F8 F 0.5906(14) 0.3607(9) 0.0999(7)
F9 F 0.6467(14) 0.4733(9) 0.1201(7)
F10 F 0.4986(13) 0.4265(9) 0.1272(7)
F11 F 0.5516(16) 0.3877(10) 0.1783(7)
F12 F 0.6924(15) 0.4152(9) 0.1724(7)
P3 P 0.2617(7) 0.0985(6) 0.3555(4)
F13 F 0.1512(12) 0.0821(8) 0.3270(6)
F14 F 0.3758(12) 0.1197(9) 0.3869(6)
F15 F 0.2131(13) 0.1081(9) 0.4070(7)
F16 F 0.2757(13) 0.1790(10) 0.3639(7)
F17 F 0.3033(13) 0.0905(9) 0.3031(7)
F18 F 0.2474(13) 0.0193(10) 0.3473(7)
P4 P 0.2159(17) 0.5739(10) 0.4912(6)
F19 F 0.249(2) 0.6511(14) 0.4935(9)
F20 F 0.202(2) 0.4894(14) 0.4841(9)
F21 F 0.233(2) 0.5986(13) 0.5527(10)
F22 F 0.089(2) 0.5635(14) 0.4854(10)
F23 F 0.196(2) 0.5438(13) 0.4285(9)
F24 F 0.330(3) 0.5700(15) 0.4866(10)
N13 N 0.4377(17) 0.0009(12) 0.1963(10)
C124 C 0.526(2) 0.0427(16) 0.2919(14)
C125 C 0.470(2) 0.0145(16) 0.2359(15)
N14 N 0.2548(19) 0.4676(14) 0.1479(10)
C126 C 0.132(2) 0.3534(17) 0.1674(13)
C127 C 0.207(3) 0.417(2) 0.1576(15)
N15 N 0.665(2) 0.0970(15) 0.4801(14)
C128 C 0.754(3) 0.105(2) 0.3987(18)
C129 C 0.702(3) 0.1029(18) 0.4417(18)
N16 N 0.405(2) 0.1628(15) 0.2166(13)
C130 C 0.305(2) 0.1009(14) 0.1275(12)
C131 C 0.354(3) 0.1270(17) 0.1623(15)
C132 C 0.980(2) -0.0497(17) 0.3462(14)
C133 C 0.969(2) 0.0083(18) 0.3897(15)
N17 N 0.9586(17) 0.0505(13) 0.4275(11)
O10 O 0.242(5) 0.284(3) 0.255(2)
loop_
_geom_bond_atom_site_label_1
_geom_bond_atom_site_label_2
_geom_bond_site_symmetry_1
_geom_bond_site_symmetry_2
Cd1 N1 1_555 1_555
Cd2 N10 1_555 1_555
O1 C17 1_555 1_555
O2 C21 1_555 1_555
O3 C25 1_555 1_555
O4 C29 1_555 1_555
O5 C34 1_555 1_555
O6 C55 1_555 1_555
O7 C59 1_555 1_555
O8 C63 1_555 1_555
O9 C67 1_555 1_555
N1 C1 1_555 1_555
N2 Cd1 1_555 1_555
N3 Cd1 1_555 1_555
N4 Cd1 1_555 1_555
N5 Cd1 1_555 1_555
N6 Cd1 1_555 1_555
N7 C39 1_555 1_555
N8 C44 1_555 1_555
N9 C49 1_555 1_555
N10 C109 1_555 1_555
N11 Cd2 1_555 1_555
N12 Cd2 1_555 1_555
C1 C2 1_555 1_555
C2 H1 1_555 1_555
C3 C2 1_555 1_555
H2 C3 1_555 1_555
C4 C3 1_555 1_555
H3 C4 1_555 1_555
C5 N1 1_555 1_555
C6 N2 1_555 1_555
C7 C6 1_555 1_555
H4 C7 1_555 1_555
C8 C7 1_555 1_555
C9 C8 1_555 1_555
H5 C9 1_555 1_555
C10 N2 1_555 1_555
C11 N3 1_555 1_555
C12 C11 1_555 1_555
H6 C12 1_555 1_555
C13 C12 1_555 1_555
H7 C13 1_555 1_555
C14 C13 1_555 1_555
H8 C14 1_555 1_555
C15 N3 1_555 1_555
C16 C1 1_555 1_555
C17 C16 1_555 1_555
C18 C17 1_555 1_555
H9 C18 1_555 1_555
C19 C18 1_555 1_555
H10 C19 1_555 1_555
C20 C19 1_555 1_555
H11 C20 1_555 1_555
C21 C16 1_555 1_555
C22 O1 1_555 1_555
H12 C22 1_555 1_555
H13 C22 1_555 1_555
H14 C22 1_555 1_555
C23 O2 1_555 1_555
H15 C23 1_555 1_555
H16 C23 1_555 1_555
H17 C23 1_555 1_555
C24 C15 1_555 1_555
C25 C24 1_555 1_555
C26 C25 1_555 1_555
H18 C26 1_555 1_555
C27 C26 1_555 1_555
H19 C27 1_555 1_555
C28 C27 1_555 1_555
H20 C28 1_555 1_555
C29 C24 1_555 1_555
C30 O3 1_555 1_555
H21 C30 1_555 1_555
H22 C30 1_555 1_555
H23 C30 1_555 1_555
C31 O4 1_555 1_555
H24 C31 1_555 1_555
H25 C31 1_555 1_555
H26 C31 1_555 1_555
C32 C8 1_555 1_555
C33 C32 1_555 1_555
H27 C33 1_555 1_555
C34 C33 1_555 1_555
C35 C34 1_555 1_555
H28 C35 1_555 1_555
C36 C35 1_555 1_555
C37 C32 1_555 1_555
H29 C37 1_555 1_555
C38 O5 1_555 1_555
H30 C38 1_555 1_555
H31 C38 1_555 1_555
H32 C38 1_555 1_555
C39 C40 1_555 1_555
C40 H33 1_555 1_555
C41 C40 1_555 1_555
H34 C41 1_555 1_555
C42 C41 1_555 1_555
H35 C42 1_555 1_555
C43 N7 1_555 1_555
C44 C43 1_555 1_555
C45 C44 1_555 1_555
H36 C45 1_555 1_555
C46 C36 1_555 1_555
C47 C46 1_555 1_555
H37 C47 1_555 1_555
C48 N8 1_555 1_555
C49 C48 1_555 1_555
C50 C49 1_555 1_555
H38 C50 1_555 1_555
C51 C50 1_555 1_555
H39 C51 1_555 1_555
C52 C51 1_555 1_555
H40 C52 1_555 1_555
C53 N9 1_555 1_555
C54 C39 1_555 1_555
C55 C54 1_555 1_555
C56 C55 1_555 1_555
H41 C56 1_555 1_555
C57 C56 1_555 1_555
H42 C57 1_555 1_555
C58 C57 1_555 1_555
H43 C58 1_555 1_555
C59 C54 1_555 1_555
C60 O6 1_555 1_555
H44 C60 1_555 1_555
H45 C60 1_555 1_555
H46 C60 1_555 1_555
C61 O7 1_555 1_555
H47 C61 1_555 1_555
H48 C61 1_555 1_555
H49 C61 1_555 1_555
C62 C53 1_555 1_555
C63 C62 1_555 1_555
C64 C63 1_555 1_555
H50 C64 1_555 1_555
C65 C64 1_555 1_555
H51 C65 1_555 1_555
C66 C65 1_555 1_555
H52 C66 1_555 1_555
C67 C62 1_555 1_555
C68 O8 1_555 1_555
H53 C68 1_555 1_555
H54 C68 1_555 1_555
H55 C68 1_555 1_555
C69 O9 1_555 1_555
H56 C69 1_555 1_555
H57 C69 1_555 1_555
H58 C69 1_555 1_555
C70 N4 1_555 1_555
H59 C70 1_555 1_555
C71 C70 1_555 1_555
H60 C71 1_555 1_555
C72 C71 1_555 1_555
H61 C72 1_555 1_555
C73 C72 1_555 1_555
H62 C73 1_555 1_555
C74 N4 1_555 1_555
C75 N5 1_555 1_555
C76 C75 1_555 1_555
H63 C76 1_555 1_555
C77 C76 1_555 1_555
C78 C77 1_555 1_555
H64 C78 1_555 1_555
C79 N5 1_555 1_555
C80 N6 1_555 1_555
C81 C80 1_555 1_555
H65 C81 1_555 1_555
C82 C81 1_555 1_555
H66 C82 1_555 1_555
C83 C82 1_555 1_555
H67 C83 1_555 1_555
C84 N6 1_555 1_555
H68 C84 1_555 1_555
C85 C77 1_555 1_555
C86 C85 1_555 1_555
H69 C86 1_555 1_555
C87 C86 1_555 1_555
H70 C87 1_555 1_555
C88 C87 1_555 1_555
H71 C88 1_555 1_555
C89 C88 1_555 1_555
H72 C89 1_555 1_555
C90 C85 1_555 1_555
C91 C90 1_555 1_555
C92 C91 1_555 1_555
H73 C92 1_555 1_555
C93 C92 1_555 1_555
H74 C93 1_555 1_555
C94 C93 1_555 1_555
C95 C94 1_555 1_555
H75 C95 1_555 1_555
C96 C91 1_555 1_555
H76 C96 1_555 1_555
C97 C94 1_555 1_555
C98 C97 1_555 1_555
H77 C98 1_555 1_555
C99 C98 1_555 1_555
H78 C99 1_555 1_555
C100 C99 1_555 1_555
C101 C100 1_555 1_555
H79 C101 1_555 1_555
C102 C97 1_555 1_555
H80 C102 1_555 1_555
C103 C100 1_555 1_555
C104 C103 1_555 1_555
H81 C104 1_555 1_555
C105 C104 1_555 1_555
H82 C105 1_555 1_555
C106 C105 1_555 1_555
C107 C106 1_555 1_555
H83 C107 1_555 1_555
C108 C103 1_555 1_555
H84 C108 1_555 1_555
C109 H85 1_555 1_555
C110 C109 1_555 1_555
H86 C110 1_555 1_555
C111 C110 1_555 1_555
H87 C111 1_555 1_555
C112 C111 1_555 1_555
H88 C112 1_555 1_555
C113 N10 1_555 1_555
C114 N11 1_555 1_555
C115 C114 1_555 1_555
H89 C115 1_555 1_555
C116 C106 1_555 1_555
C117 C116 1_555 1_555
H90 C117 1_555 1_555
C118 N11 1_555 1_555
C119 N12 1_555 1_555
C120 C119 1_555 1_555
H91 C120 1_555 1_555
C121 C120 1_555 1_555
H92 C121 1_555 1_555
C122 C121 1_555 1_555
H93 C122 1_555 1_555
C123 N12 1_555 1_555
H94 C123 1_555 1_555
P1 F1 1_555 1_555
F2 P1 1_555 1_555
F3 P1 1_555 1_555
F4 P1 1_555 1_555
F5 P1 1_555 1_555
F6 P1 1_555 1_555
P2 F7 1_555 1_555
F8 P2 1_555 1_555
F9 P2 1_555 1_555
F10 P2 1_555 1_555
F11 P2 1_555 1_555
F12 P2 1_555 1_555
P3 F13 1_555 1_555
F14 P3 1_555 1_555
F15 P3 1_555 1_555
F16 P3 1_555 1_555
F17 P3 1_555 1_555
F18 P3 1_555 1_555
P4 F19 1_555 1_555
F20 P4 1_555 1_555
F21 P4 1_555 1_555
F22 P4 1_555 1_555
F23 P4 1_555 1_555
F24 P4 1_555 1_555
N13 C125 1_555 1_555
C124 C125 1_555 1_555
N14 C127 1_555 1_555
C126 C127 1_555 1_555
N15 C129 1_555 1_555
C128 C129 1_555 1_555
N16 C131 1_555 1_555
C130 C131 1_555 1_555
C132 C133 1_555 1_555
C133 N17 1_555 1_555
Cd1A N1A 1_555 1_555
Cd2A N7 1_555 1_555
O1A C17A 1_555 1_555
O2A C21A 1_555 1_555
O3A C25A 1_555 1_555
O4A C29A 1_555 1_555
O5A C34A 1_555 1_555
O6A C55A 1_555 1_555
O7A C59A 1_555 1_555
O8A C63A 1_555 1_555
O9A C67A 1_555 1_555
N1A C1A 1_555 1_555
N2A Cd1A 1_555 1_555
N3A Cd1A 1_555 1_555
N4A Cd1A 1_555 1_555
N5A Cd1A 1_555 1_555
N6A Cd1A 1_555 1_555
N7A Cd2 1_555 1_555
N8A Cd2 1_555 1_555
N9A Cd2 1_555 1_555
N10A Cd2A 1_555 1_555
N11A Cd2A 1_555 1_555
N12A Cd2A 1_555 1_555
C1A C2A 1_555 1_555
C2A H1A 1_555 1_555
C3A C2A 1_555 1_555
H2A C3A 1_555 1_555
C4A C3A 1_555 1_555
H3A C4A 1_555 1_555
C5A N1A 1_555 1_555
C6A N2A 1_555 1_555
C7A C6A 1_555 1_555
H4A C7A 1_555 1_555
C8A C7A 1_555 1_555
C9A C8A 1_555 1_555
H5A C9A 1_555 1_555
C10A N2A 1_555 1_555
C11A N3A 1_555 1_555
C12A C11A 1_555 1_555
H6A C12A 1_555 1_555
C13A C12A 1_555 1_555
H7A C13A 1_555 1_555
C14A C13A 1_555 1_555
H8A C14A 1_555 1_555
C15A N3A 1_555 1_555
C16A C1A 1_555 1_555
C17A C16A 1_555 1_555
C18A C17A 1_555 1_555
H9A C18A 1_555 1_555
C19A C18A 1_555 1_555
H10A C19A 1_555 1_555
C20A C19A 1_555 1_555
H11A C20A 1_555 1_555
C21A C16A 1_555 1_555
C22A O1A 1_555 1_555
H12A C22A 1_555 1_555
H13A C22A 1_555 1_555
H14A C22A 1_555 1_555
C23A O2A 1_555 1_555
H15A C23A 1_555 1_555
H16A C23A 1_555 1_555
H17A C23A 1_555 1_555
C24A C15A 1_555 1_555
C25A C24A 1_555 1_555
C26A C25A 1_555 1_555
H18A C26A 1_555 1_555
C27A C26A 1_555 1_555
H19A C27A 1_555 1_555
C28A C27A 1_555 1_555
H20A C28A 1_555 1_555
C29A C24A 1_555 1_555
C30A O3A 1_555 1_555
H21A C30A 1_555 1_555
H22A C30A 1_555 1_555
H23A C30A 1_555 1_555
C31A O4A 1_555 1_555
H24A C31A 1_555 1_555
H25A C31A 1_555 1_555
H26A C31A 1_555 1_555
C32A C8A 1_555 1_555
C33A C32A 1_555 1_555
H27A C33A 1_555 1_555
C34A C33A 1_555 1_555
C35A C34A 1_555 1_555
H28A C35A 1_555 1_555
C36A C35A 1_555 1_555
C37A C32A 1_555 1_555
H29A C37A 1_555 1_555
C38A O5A 1_555 1_555
H30A C38A 1_555 1_555
H31A C38A 1_555 1_555
H32A C38A 1_555 1_555
C39A N7A 1_555 1_555
C40A C39A 1_555 1_555
H33A C40A 1_555 1_555
C41A C40A 1_555 1_555
H34A C41A 1_555 1_555
C42A C41A 1_555 1_555
H35A C42A 1_555 1_555
C43A N7A 1_555 1_555
C44A N8A 1_555 1_555
C45A C44A 1_555 1_555
H36A C45A 1_555 1_555
C46A C36A 1_555 1_555
C47A C46A 1_555 1_555
H37A C47A 1_555 1_555
C48A N8A 1_555 1_555
C49A N9A 1_555 1_555
C50A C49A 1_555 1_555
H38A C50A 1_555 1_555
C51A C50A 1_555 1_555
H39A C51A 1_555 1_555
C52A C51A 1_555 1_555
H40A C52A 1_555 1_555
C53A N9A 1_555 1_555
C54A C39A 1_555 1_555
C55A C54A 1_555 1_555
C56A C55A 1_555 1_555
H41A C56A 1_555 1_555
C57A C56A 1_555 1_555
H42A C57A 1_555 1_555
C58A C57A 1_555 1_555
H43A C58A 1_555 1_555
C59A C54A 1_555 1_555
C60A O6A 1_555 1_555
H44A C60A 1_555 1_555
H45A C60A 1_555 1_555
H46A C60A 1_555 1_555
C61A O7A 1_555 1_555
H47A C61A 1_555 1_555
H48A C61A 1_555 1_555
H49A C61A 1_555 1_555
C62A C53A 1_555 1_555
C63A C62A 1_555 1_555
C64A C63A 1_555 1_555
H50A C64A 1_555 1_555
C65A C64A 1_555 1_555
H51A C65A 1_555 1_555
C66A C65A 1_555 1_555
H52A C66A 1_555 1_555
C67A C62A 1_555 1_555
C68A O8A 1_555 1_555
H53A C68A 1_555 1_555
H54A C68A 1_555 1_555
H55A C68A 1_555 1_555
C69A O9A 1_555 1_555
H56A C69A 1_555 1_555
H57A C69A 1_555 1_555
H58A C69A 1_555 1_555
C70A N4A 1_555 1_555
H59A C70A 1_555 1_555
C71A C70A 1_555 1_555
H60A C71A 1_555 1_555
C72A C71A 1_555 1_555
H61A C72A 1_555 1_555
C73A C72A 1_555 1_555
H62A C73A 1_555 1_555
C74A N4A 1_555 1_555
C75A N5A 1_555 1_555
C76A C75A 1_555 1_555
H63A C76A 1_555 1_555
C77A C76A 1_555 1_555
C78A C77A 1_555 1_555
H64A C78A 1_555 1_555
C79A N5A 1_555 1_555
C80A N6A 1_555 1_555
C81A C80A 1_555 1_555
H65A C81A 1_555 1_555
C82A C81A 1_555 1_555
H66A C82A 1_555 1_555
C83A C82A 1_555 1_555
H67A C83A 1_555 1_555
C84A N6A 1_555 1_555
H68A C84A 1_555 1_555
C85A C77A 1_555 1_555
C86A C85A 1_555 1_555
H69A C86A 1_555 1_555
C87A C86A 1_555 1_555
H70A C87A 1_555 1_555
C88A C87A 1_555 1_555
H71A C88A 1_555 1_555
C89A C88A 1_555 1_555
H72A C89A 1_555 1_555
C90A C85A 1_555 1_555
C91A C90A 1_555 1_555
C92A C91A 1_555 1_555
H73A C92A 1_555 1_555
C93A C92A 1_555 1_555
H74A C93A 1_555 1_555
C94A C93A 1_555 1_555
C95A C94A 1_555 1_555
H75A C95A 1_555 1_555
C96A C91A 1_555 1_555
H76A C96A 1_555 1_555
C97A C94A 1_555 1_555
C98A C97A 1_555 1_555
H77A C98A 1_555 1_555
C99A C98A 1_555 1_555
H78A C99A 1_555 1_555
C100A C99A 1_555 1_555
C101A C100A 1_555 1_555
H79A C101A 1_555 1_555
C102A C97A 1_555 1_555
H80A C102A 1_555 1_555
C103A C100A 1_555 1_555
C104A C103A 1_555 1_555
H81A C104A 1_555 1_555
C105A C104A 1_555 1_555
H82A C105A 1_555 1_555
C106A C105A 1_555 1_555
C107A C106A 1_555 1_555
H83A C107A 1_555 1_555
C108A C103A 1_555 1_555
H84A C108A 1_555 1_555
C109A N10A 1_555 1_555
H85A C109A 1_555 1_555
C110A C109A 1_555 1_555
H86A C110A 1_555 1_555
C111A C110A 1_555 1_555
H87A C111A 1_555 1_555
C112A C111A 1_555 1_555
H88A C112A 1_555 1_555
C113A N10A 1_555 1_555
C114A N11A 1_555 1_555
C115A C114A 1_555 1_555
H89A C115A 1_555 1_555
C116A C106A 1_555 1_555
C117A C116A 1_555 1_555
H90A C117A 1_555 1_555
C118A N11A 1_555 1_555
C119A N12A 1_555 1_555
C120A C119A 1_555 1_555
H91A C120A 1_555 1_555
C121A C120A 1_555 1_555
H92A C121A 1_555 1_555
C122A C121A 1_555 1_555
H93A C122A 1_555 1_555
C123A N12A 1_555 1_555
H94A C123A 1_555 1_555
N8 Cd2A 1_555 1_555
N9 Cd2A 1_555 1_555
C4 C5 1_555 1_555
C5 C6 1_555 1_555
C9 C10 1_555 1_555
C10 C11 1_555 1_555
C14 C15 1_555 1_555
C20 C21 1_555 1_555
C28 C29 1_555 1_555
C36 C37 1_555 1_555
C42 C43 1_555 1_555
C45 C46 1_555 1_555
C47 C48 1_555 1_555
C52 C53 1_555 1_555
C58 C59 1_555 1_555
C66 C67 1_555 1_555
C73 C74 1_555 1_555
C74 C75 1_555 1_555
C78 C79 1_555 1_555
C79 C80 1_555 1_555
C83 C84 1_555 1_555
C89 C90 1_555 1_555
C95 C96 1_555 1_555
C101 C102 1_555 1_555
C107 C108 1_555 1_555
C112 C113 1_555 1_555
C113 C114 1_555 1_555
C115 C116 1_555 1_555
C117 C118 1_555 1_555
C118 C119 1_555 1_555
C122 C123 1_555 1_555
C4A C5A 1_555 1_555
C5A C6A 1_555 1_555
C9A C10A 1_555 1_555
C10A C11A 1_555 1_555
C14A C15A 1_555 1_555
C20A C21A 1_555 1_555
C28A C29A 1_555 1_555
C36A C37A 1_555 1_555
C42A C43A 1_555 1_555
C43A C44A 1_555 1_555
C45A C46A 1_555 1_555
C47A C48A 1_555 1_555
C48A C49A 1_555 1_555
C52A C53A 1_555 1_555
C58A C59A 1_555 1_555
C66A C67A 1_555 1_555
C73A C74A 1_555 1_555
C74A C75A 1_555 1_555
C78A C79A 1_555 1_555
C79A C80A 1_555 1_555
C83A C84A 1_555 1_555
C89A C90A 1_555 1_555
C95A C96A 1_555 1_555
C101A C102A 1_555 1_555
C107A C108A 1_555 1_555
C112A C113A 1_555 1_555
C113A C114A 1_555 1_555
C115A C116A 1_555 1_555
C117A C118A 1_555 1_555
C118A C119A 1_555 1_555
C122A C123A 1_555 1_555

#END
