
#######################################################################
#
#                 Cambridge Crystallographic Data Centre
#                                CCDC 
#
#######################################################################
#
# If this CIF has been generated from an entry in the Cambridge 
# Structural Database, then it will include bibliographic, chemical, 
# crystal, experimental, refinement or atomic coordinate data resulting 
# from the CCDC's data processing and validation procedures.
#
#######################################################################

data_HIHMET
_chemical_formula_moiety         
'C256 H192 Cd4 N24 O16 8+,4(C2 H3 N1),8(N1 O3 1-)'
_chemical_name_systematic        
"bis(\m-4',4''-(1,1':2',1''-terphenyl-4,4''-diyl)bis(2,2':6',2''-terpyridine))-bis(\m-4',4''-(1,1':2',1''-terphenyl-4,4''-diyl)bis[6,6''-bis(2,6-dimethoxyphenyl)-2,2':6',2''-terpyridine])-tetra-cadmium(ii) octanitrate acetonitrile solvate"
_symmetry_cell_setting           triclinic
_symmetry_space_group_name_H-M   'P -1'
_symmetry_Int_Tables_number      2
_space_group_name_Hall           '-P 1'
loop_
_symmetry_equiv_pos_site_id
_symmetry_equiv_pos_as_xyz
1 x,y,z
2 -x,-y,-z
_cell_length_a                   15.8996(10)
_cell_length_b                   18.0332(14)
_cell_length_c                   25.8678(14)
_cell_angle_alpha                75.343(6)
_cell_angle_beta                 74.137(5)
_cell_angle_gamma                83.829(6)
_cell_volume                     6896.36
_exptl_crystal_description       column
_cell_formula_units_Z            1
_exptl_crystal_recrystallization_method acetonitrile/water
loop_
_atom_site_label
_atom_site_type_symbol
_atom_site_fract_x
_atom_site_fract_y
_atom_site_fract_z
Cd1 Cd 0.38383(7) 0.99523(5) 0.86683(4)
Cd2 Cd 0.22368(8) 0.43269(6) 0.58143(3)
O1 O 0.4766(8) 0.4531(6) 0.5725(4)
O2 O 0.3327(7) 0.2345(5) 0.6870(3)
O3 O 0.1059(9) 0.6767(6) 0.6031(4)
O4 O -0.0264(7) 0.4372(5) 0.6560(3)
O5 O 0.8716(7) 1.0255(5) 0.0276(4)
O6 O 0.8235(7) 0.9669(6) 0.2186(4)
O7 O 0.4737(7) 1.1494(5) 0.0616(4)
O8 O 0.4191(8) 1.1509(6) 0.2491(5)
N1 N 0.3585(7) 0.9685(6) 0.9657(4)
N2 N 0.3212(7) 0.8812(5) 0.9045(4)
N3 N 0.3731(8) 0.9447(6) 0.7959(4)
N4 N 0.2784(8) 0.5431(6) 0.5891(4)
N5 N 0.2068(8) 0.4249(6) 0.6747(4)
N6 N 0.1537(8) 0.3202(6) 0.6337(4)
N7 N 0.3497(8) 0.3541(6) 0.5520(4)
N8 N 0.2348(8) 0.4245(6) 0.4930(4)
N9 N 0.1129(8) 0.5138(6) 0.5457(4)
N10 N 0.4602(7) 1.0116(6) 0.1605(4)
N11 N 0.5638(7) 0.8851(5) 0.1483(4)
N12 N 0.7377(7) 0.9111(5) 0.1268(4)
C1 C 0.3786(9) 1.0137(7) 0.9941(6)
H1 H 0.411511 1.057564 0.974008
C2 C 0.3559(11) 1.0009(7) 1.0469(6)
H2 H 0.373343 1.033863 1.065163
C3 C 0.3051(11) 0.9378(9) 1.0774(6)
H3 H 0.285669 0.928626 1.116537
C4 C 0.2835(10) 0.8891(8) 1.0500(6)
H4 H 0.248985 0.845974 1.069502
C5 C 0.3140(8) 0.9052(6) 0.9930(5)
C6 C 0.2983(8) 0.8548(7) 0.9605(5)
C7 C 0.2622(9) 0.7816(7) 0.9856(5)
H5 H 0.247981 0.762439 1.024568
C8 C 0.2478(9) 0.7373(7) 0.9494(5)
C9 C 0.2738(8) 0.7683(6) 0.8929(5)
H6 H 0.266225 0.740128 0.868157
C10 C 0.3102(9) 0.8386(7) 0.8719(5)
C11 C 0.3394(10) 0.8751(8) 0.8114(5)
C12 C 0.3360(11) 0.8343(8) 0.7727(5)
H7 H 0.314516 0.783945 0.784729
C13 C 0.3644(12) 0.8680(10) 0.7164(6)
H8 H 0.363956 0.840868 0.689412
C14 C 0.3945(12) 0.9454(10) 0.7002(6)
H9 H 0.408989 0.972835 0.662584
C15 C 0.4013(11) 0.9785(8) 0.7429(6)
H10 H 0.427113 1.026859 0.733192
C16 C 0.2125(8) 0.6606(7) 0.9750(5)
C17 C 0.2258(9) 0.6175(7) 1.0242(5)
H11 H 0.259395 0.637655 1.042337
C18 C 0.1928(8) 0.5471(6) 1.0480(5)
H12 H 0.204927 0.517991 1.081433
C19 C 0.1401(9) 0.5174(6) 1.0225(4)
C20 C 0.1202(10) 0.5618(7) 0.9743(5)
H13 H 0.080894 0.544647 0.958407
C21 C 0.1605(10) 0.6335(7) 0.9497(5)
H14 H 0.151461 0.662904 0.915413
C22 C 0.1077(9) 0.4384(7) 1.0496(5)
C23 C 0.0809(9) 0.4188(7) 1.1074(4)
H15 H 0.080787 0.456612 1.127152
C24 C 0.0547(10) 0.3462(9) 1.1365(5)
H16 H 0.037260 0.334656 1.175788
C25 C 0.0536(9) 0.2893(7) 1.1084(5)
H17 H 0.040257 0.237986 1.127970
C26 C 0.0721(10) 0.3099(7) 1.0528(5)
H18 H 0.062620 0.274024 1.033865
C27 C 0.1047(9) 0.3814(6) 1.0212(4)
C28 C 0.1265(9) 0.3972(6) 0.9586(5)
C29 C 0.0624(10) 0.3831(6) 0.9349(4)
H19 H 0.006071 0.367846 0.957335
C30 C 0.0820(10) 0.3917(7) 0.8791(5)
H20 H 0.039500 0.379633 0.863217
C31 C 0.1624(9) 0.4177(7) 0.8446(5)
C32 C 0.2257(10) 0.4335(6) 0.8673(5)
H21 H 0.281441 0.450680 0.845088
C33 C 0.2033(10) 0.4230(7) 0.9248(5)
H22 H 0.245367 0.434855 0.941117
C34 C 0.3113(12) 0.5992(9) 0.5468(6)
H23 H 0.322059 0.591751 0.510440
C35 C 0.3313(13) 0.6708(10) 0.5537(6)
H24 H 0.353739 0.710864 0.522486
C36 C 0.3173(16) 0.6806(10) 0.6067(7)
H25 H 0.321546 0.729237 0.613568
C37 C 0.2962(16) 0.6138(11) 0.6507(6)
H26 H 0.299529 0.614696 0.686615
C38 C 0.2715(11) 0.5493(8) 0.6420(5)
C39 C 0.2303(9) 0.4843(7) 0.6883(4)
C40 C 0.2237(10) 0.4814(7) 0.7435(5)
H27 H 0.248281 0.520515 0.752734
C41 C 0.1823(9) 0.4229(7) 0.7847(5)
C42 C 0.1497(9) 0.3640(7) 0.7670(5)
H28 H 0.117722 0.323088 0.793199
C43 C 0.1663(9) 0.3689(7) 0.7108(4)
C44 C 0.1331(9) 0.3090(7) 0.6897(5)
C45 C 0.0856(10) 0.2458(7) 0.7243(5)
H29 H 0.072451 0.238513 0.763309
C46 C 0.0579(11) 0.1945(8) 0.7017(6)
H30 H 0.022254 0.153366 0.724280
C47 C 0.0823(12) 0.2043(9) 0.6486(6)
H31 H 0.070464 0.165853 0.632608
C48 C 0.1270(10) 0.2716(8) 0.6126(5)
H32 H 0.136704 0.280258 0.573652
C49 C 0.0644(13) 0.6184(9) 0.6472(6)
C50 C 0.0472(13) 0.6130(11) 0.7064(7)
H33 H 0.059717 0.655563 0.717998
C51 C 0.0168(12) 0.5553(9) 0.7427(6)
H34 H 0.012840 0.553662 0.780248
C52 C -0.0108(10) 0.4948(9) 0.7300(5)
H35 H -0.038655 0.453659 0.758420
C53 C 0.0029(10) 0.4943(8) 0.6731(5)
C54 C 0.0444(11) 0.5547(8) 0.6318(5)
C55 C 0.0526(12) 0.5617(8) 0.5715(5)
C56 C 0.0006(11) 0.6170(8) 0.5438(5)
H36 H -0.043048 0.646840 0.563761
C57 C 0.0137(13) 0.6281(9) 0.4865(6)
H37 H -0.017566 0.666869 0.465775
C58 C 0.0751(11) 0.5785(9) 0.4624(5)
H38 H 0.087135 0.584828 0.423516
C59 C 0.1203(11) 0.5204(8) 0.4911(5)
C60 C 0.1834(11) 0.4662(8) 0.4636(5)
C61 C 0.1929(10) 0.4643(8) 0.4095(5)
H39 H 0.152474 0.492689 0.390087
C62 C 0.2592(11) 0.4224(8) 0.3838(5)
C63 C 0.3114(10) 0.3751(8) 0.4148(5)
H40 H 0.355901 0.341873 0.398930
C64 C 0.2961(10) 0.3778(8) 0.4706(5)
C65 C 0.3515(11) 0.3326(10) 0.5053(6)
C66 C 0.4043(12) 0.2690(10) 0.4896(7)
H41 H 0.401492 0.251107 0.458623
C67 C 0.4591(13) 0.2354(11) 0.5221(7)
H42 H 0.499379 0.195765 0.511506
C68 C 0.4582(11) 0.2570(10) 0.5700(6)
H43 H 0.492953 0.229688 0.593835
C69 C 0.4066(10) 0.3178(9) 0.5817(5)
C70 C 0.4092(9) 0.3443(8) 0.6320(5)
C71 C 0.4448(10) 0.4145(10) 0.6264(5)
C72 C 0.4563(12) 0.4371(9) 0.6694(6)
H44 H 0.485536 0.482733 0.664136
C73 C 0.4224(11) 0.3888(10) 0.7252(6)
H45 H 0.430173 0.402904 0.756539
C74 C 0.3793(12) 0.3235(9) 0.7320(5)
H46 H 0.353168 0.294150 0.767860
C75 C 0.3751(11) 0.3014(9) 0.6848(5)
C76 C 0.5210(13) 0.5195(10) 0.5667(6)
H47 H 0.541904 0.544081 0.527368
H48 H 0.481010 0.555195 0.585611
H49 H 0.570940 0.505269 0.583044
C77 C 0.3026(10) 0.1853(8) 0.7406(5)
H50 H 0.274691 0.141318 0.737362
H51 H 0.352341 0.166960 0.756606
H52 H 0.260114 0.213738 0.764481
C78 C 0.1205(16) 0.7443(10) 0.6153(7)
H53 H 0.149591 0.779994 0.581170
H54 H 0.064421 0.767573 0.632119
H55 H 0.157729 0.732938 0.641109
C79 C -0.0829(11) 0.3868(8) 0.6958(5)
H56 H -0.099112 0.349205 0.679030
H57 H -0.054336 0.360129 0.724863
H58 H -0.135670 0.415068 0.711843
C80 C 0.2762(11) 0.4223(8) 0.3232(5)
C81 C 0.3607(10) 0.4276(7) 0.2897(5)
H59 H 0.407892 0.430087 0.305071
C82 C 0.3775(9) 0.4295(7) 0.2321(4)
H60 H 0.435470 0.433517 0.208998
C83 C 0.3068(10) 0.4252(7) 0.2105(5)
C84 C 0.2214(10) 0.4173(8) 0.2457(5)
H61 H 0.174436 0.412185 0.230796
C85 C 0.2035(10) 0.4166(8) 0.3025(5)
H62 H 0.145690 0.412536 0.325755
C86 C 0.3242(9) 0.4253(7) 0.1511(4)
C87 C 0.2916(9) 0.3652(7) 0.1389(5)
H63 H 0.257161 0.328313 0.167714
C88 C 0.3094(8) 0.3589(7) 0.0840(5)
H64 H 0.284740 0.319001 0.075714
C89 C 0.3609(9) 0.4084(8) 0.0432(5)
H65 H 0.376070 0.401023 0.006609
C90 C 0.3928(9) 0.4715(7) 0.0538(5)
H66 H 0.426805 0.507825 0.024311
C91 C 0.3741(8) 0.4803(7) 0.1082(4)
C92 C 0.4073(8) 0.5485(6) 0.1182(4)
C93 C 0.4961(10) 0.5613(7) 0.1026(5)
H67 H 0.536707 0.525932 0.086141
C94 C 0.5259(9) 0.6266(8) 0.1110(5)
H68 H 0.587083 0.633286 0.101962
C95 C 0.4692(9) 0.6811(7) 0.1321(4)
C96 C 0.3834(10) 0.6670(8) 0.1451(5)
H69 H 0.343540 0.705501 0.158143
C97 C 0.3476(9) 0.6036(7) 0.1417(5)
H70 H 0.286375 0.596414 0.154281
C98 C 0.4086(10) 1.0749(8) 0.1713(5)
C99 C 0.3185(11) 1.0723(8) 0.1986(6)
H71 H 0.284620 1.117054 0.205586
C100 C 0.2801(9) 0.9968(8) 0.2154(6)
H72 H 0.219577 0.990942 0.233086
C101 C 0.3367(9) 0.9320(8) 0.2042(5)
H73 H 0.314721 0.881827 0.216514
C102 C 0.4224(9) 0.9426(7) 0.1759(5)
C103 C 0.4816(9) 0.8776(6) 0.1597(4)
C104 C 0.4458(8) 0.8109(7) 0.1541(5)
H74 H 0.384331 0.807765 0.160814
C105 C 0.5013(9) 0.7518(6) 0.1391(4)
C106 C 0.5931(9) 0.7615(7) 0.1282(5)
H75 H 0.633953 0.722146 0.117630
C107 C 0.6221(9) 0.8282(7) 0.1331(4)
C108 C 0.7182(9) 0.8390(7) 0.1243(4)
C109 C 0.7810(10) 0.7835(7) 0.1163(5)
H76 H 0.766192 0.736242 0.111861
C110 C 0.8650(9) 0.7941(7) 0.1145(5)
H77 H 0.907864 0.753587 0.110556
C111 C 0.8886(9) 0.8646(7) 0.1183(5)
H78 H 0.947127 0.873684 0.116752
C112 C 0.8220(10) 0.9206(7) 0.1246(5)
C113 C 0.8452(9) 1.0004(7) 0.1233(6)
C114 C 0.8763(9) 1.0497(8) 0.0710(7)
C115 C 0.9103(10) 1.1211(9) 0.0670(9)
H79 H 0.932032 1.154609 0.031945
C116 C 0.9112(12) 1.1401(9) 0.1126(9)
H80 H 0.932848 1.188714 0.109148
C117 C 0.8815(12) 1.0924(10) 0.1679(10)
H81 H 0.881603 1.109026 0.199970
C118 C 0.8517(10) 1.0181(8) 0.1712(6)
C119 C 0.9171(10) 1.0682(10) -0.0269(6)
H82 H 0.908441 1.044477 -0.055147
H83 H 0.893873 1.121337 -0.033049
H84 H 0.979790 1.067392 -0.029280
C120 C 0.8324(11) 0.9821(9) 0.2694(6)
H85 H 0.808909 0.939721 0.300606
H86 H 0.894352 0.986964 0.266622
H87 H 0.799878 1.029956 0.275163
C121 C 0.4497(10) 1.1500(8) 0.1548(6)
C122 C 0.4789(10) 1.1863(8) 0.1003(6)
C123 C 0.5112(10) 1.2637(8) 0.0855(7)
H88 H 0.529822 1.289922 0.047739
C124 C 0.5145(11) 1.2986(9) 0.1268(9)
H89 H 0.537271 1.348225 0.116956
C125 C 0.4857(11) 1.2631(9) 0.1811(8)
H90 H 0.489782 1.287026 0.209035
C126 C 0.4487(11) 1.1884(9) 0.1957(6)
C127 C 0.4872(10) 1.1907(9) 0.0075(6)
H91 H 0.481495 1.157171 -0.015773
H92 H 0.443572 1.233336 0.005106
H93 H 0.545980 1.210906 -0.005320
C128 C 0.4034(14) 1.1976(12) 0.2877(8)
H94 H 0.382168 1.166171 0.325178
H95 H 0.457848 1.220976 0.284831
H96 H 0.359231 1.238090 0.279673
Cd1A Cd 0.61617(7) 1.00477(5) 0.13317(4)
Cd2A Cd 0.77632(8) 1.56731(6) 0.41857(3)
O1A O 0.5234(8) 1.5469(6) 0.4275(4)
O2A O 0.6673(7) 1.7655(5) 0.3130(3)
O3A O 0.8941(9) 1.3233(6) 0.3969(4)
O4A O 1.0264(7) 1.5628(5) 0.3440(3)
O5A O 0.1284(7) 0.9745(5) 0.9724(4)
O6A O 0.1765(7) 1.0331(6) 0.7814(4)
O7A O 0.5263(7) 0.8506(5) 0.9384(4)
O8A O 0.5809(8) 0.8491(6) 0.7509(5)
N1A N 0.6415(7) 1.0315(6) 0.0343(4)
N2A N 0.6788(7) 1.1188(5) 0.0955(4)
N3A N 0.6269(8) 1.0553(6) 0.2041(4)
N4A N 0.7216(8) 1.4569(6) 0.4109(4)
N5A N 0.7932(8) 1.5751(6) 0.3253(4)
N6A N 0.8463(8) 1.6798(6) 0.3663(4)
N7A N 0.6503(8) 1.6459(6) 0.4480(4)
N8A N 0.7652(8) 1.5755(6) 0.5070(4)
N9A N 0.8871(8) 1.4862(6) 0.4543(4)
N10A N 0.5398(7) 0.9884(6) 0.8395(4)
N11A N 0.4362(7) 1.1149(5) 0.8517(4)
N12A N 0.2623(7) 1.0889(5) 0.8732(4)
C1A C 0.6214(9) 0.9863(7) 0.0059(6)
H1A H 0.588489 0.942436 0.025992
C2A C 0.6441(11) 0.9991(7) -0.0469(6)
H2A H 0.626657 0.966137 -0.065163
C3A C 0.6949(11) 1.0622(9) -0.0774(6)
H3A H 0.714331 1.071374 -0.116537
C4A C 0.7165(10) 1.1109(8) -0.0500(6)
H4A H 0.751015 1.154026 -0.069502
C5A C 0.6860(8) 1.0948(6) 0.0070(5)
C6A C 0.7017(8) 1.1452(7) 0.0395(5)
C7A C 0.7378(9) 1.2184(7) 0.0144(5)
H5A H 0.752019 1.237561 -0.024568
C8A C 0.7522(9) 1.2627(7) 0.0506(5)
C9A C 0.7262(8) 1.2317(6) 0.1071(5)
H6A H 0.733775 1.259872 0.131843
C10A C 0.6898(9) 1.1614(7) 0.1281(5)
C11A C 0.6606(10) 1.1249(8) 0.1886(5)
C12A C 0.6640(11) 1.1657(8) 0.2273(5)
H7A H 0.685484 1.216055 0.215271
C13A C 0.6356(12) 1.1320(10) 0.2836(6)
H8A H 0.636044 1.159132 0.310588
C14A C 0.6055(12) 1.0546(10) 0.2998(6)
H9A H 0.591011 1.027165 0.337416
C15A C 0.5987(11) 1.0215(8) 0.2571(6)
H10A H 0.572887 0.973141 0.266808
C16A C 0.7875(8) 1.3394(7) 0.0250(5)
C17A C 0.7742(9) 1.3825(7) -0.0242(5)
H11A H 0.740605 1.362345 -0.042337
C18A C 0.8072(8) 1.4529(6) -0.0480(5)
H12A H 0.795073 1.482009 -0.081433
C19A C 0.8599(9) 1.4826(6) -0.0225(4)
C20A C 0.8798(10) 1.4382(7) 0.0257(5)
H13A H 0.919106 1.455353 0.041593
C21A C 0.8395(10) 1.3665(7) 0.0503(5)
H14A H 0.848539 1.337096 0.084587
C22A C 0.8923(9) 1.5616(7) -0.0496(5)
C23A C 0.9191(9) 1.5812(7) -0.1074(4)
H15A H 0.919213 1.543388 -0.127152
C24A C 0.9453(10) 1.6538(9) -0.1365(5)
H16A H 0.962740 1.665344 -0.175788
C25A C 0.9464(9) 1.7107(7) -0.1084(5)
H17A H 0.959743 1.762014 -0.127970
C26A C 0.9279(10) 1.6901(7) -0.0528(5)
H18A H 0.937380 1.725976 -0.033865
C27A C 0.8953(9) 1.6186(6) -0.0212(4)
C28A C 0.8735(9) 1.6028(6) 0.0414(5)
C29A C 0.9376(10) 1.6169(6) 0.0651(4)
H19A H 0.993929 1.632154 0.042665
C30A C 0.9180(10) 1.6083(7) 0.1209(5)
H20A H 0.960500 1.620367 0.136783
C31A C 0.8376(9) 1.5823(7) 0.1554(5)
C32A C 0.7743(10) 1.5665(6) 0.1327(5)
H21A H 0.718559 1.549320 0.154912
C33A C 0.7967(10) 1.5770(7) 0.0752(5)
H22A H 0.754633 1.565145 0.058883
C34A C 0.6887(12) 1.4008(9) 0.4532(6)
H23A H 0.677941 1.408249 0.489560
C35A C 0.6687(13) 1.3292(10) 0.4463(6)
H24A H 0.646261 1.289136 0.477514
C36A C 0.6827(16) 1.3194(10) 0.3933(7)
H25A H 0.678454 1.270763 0.386432
C37A C 0.7038(16) 1.3862(11) 0.3493(6)
H26A H 0.700471 1.385304 0.313385
C38A C 0.7285(11) 1.4507(8) 0.3580(5)
C39A C 0.7697(9) 1.5157(7) 0.3117(4)
C40A C 0.7763(10) 1.5186(7) 0.2565(5)
H27A H 0.751719 1.479485 0.247266
C41A C 0.8177(9) 1.5771(7) 0.2153(5)
C42A C 0.8503(9) 1.6360(7) 0.2330(5)
H28A H 0.882278 1.676912 0.206801
C43A C 0.8337(9) 1.6311(7) 0.2892(4)
C44A C 0.8669(9) 1.6910(7) 0.3103(5)
C45A C 0.9144(10) 1.7542(7) 0.2757(5)
H29A H 0.927549 1.761487 0.236691
C46A C 0.9421(11) 1.8055(8) 0.2983(6)
H30A H 0.977746 1.846634 0.275720
C47A C 0.9177(12) 1.7957(9) 0.3514(6)
H31A H 0.929536 1.834147 0.367392
C48A C 0.8730(10) 1.7284(8) 0.3874(5)
H32A H 0.863296 1.719742 0.426348
C49A C 0.9356(13) 1.3816(9) 0.3528(6)
C50A C 0.9528(13) 1.3870(11) 0.2936(7)
H33A H 0.940283 1.344437 0.282002
C51A C 0.9832(12) 1.4447(9) 0.2573(6)
H34A H 0.987160 1.446338 0.219752
C52A C 1.0108(10) 1.5052(9) 0.2700(5)
H35A H 1.038655 1.546341 0.241580
C53A C 0.9971(10) 1.5057(8) 0.3269(5)
C54A C 0.9556(11) 1.4453(8) 0.3682(5)
C55A C 0.9474(12) 1.4383(8) 0.4285(5)
C56A C 0.9994(11) 1.3830(8) 0.4562(5)
H36A H 1.043048 1.353160 0.436239
C57A C 0.9863(13) 1.3719(9) 0.5135(6)
H37A H 1.017566 1.333131 0.534225
C58A C 0.9249(11) 1.4215(9) 0.5376(5)
H38A H 0.912865 1.415172 0.576484
C59A C 0.8797(11) 1.4796(8) 0.5089(5)
C60A C 0.8166(11) 1.5338(8) 0.5364(5)
C61A C 0.8071(10) 1.5357(8) 0.5905(5)
H39A H 0.847526 1.507311 0.609913
C62A C 0.7408(11) 1.5776(8) 0.6162(5)
C63A C 0.6886(10) 1.6249(8) 0.5852(5)
H40A H 0.644099 1.658127 0.601070
C64A C 0.7039(10) 1.6222(8) 0.5294(5)
C65A C 0.6485(11) 1.6674(10) 0.4947(6)
C66A C 0.5957(12) 1.7310(10) 0.5104(7)
H41A H 0.598508 1.748893 0.541377
C67A C 0.5409(13) 1.7646(11) 0.4779(7)
H42A H 0.500621 1.804235 0.488494
C68A C 0.5418(11) 1.7430(10) 0.4300(6)
H43A H 0.507047 1.770312 0.406165
C69A C 0.5934(10) 1.6822(9) 0.4183(5)
C70A C 0.5908(9) 1.6557(8) 0.3680(5)
C71A C 0.5552(10) 1.5855(10) 0.3736(5)
C72A C 0.5437(12) 1.5629(9) 0.3306(6)
H44A H 0.514464 1.517267 0.335864
C73A C 0.5776(11) 1.6112(10) 0.2748(6)
H45A H 0.569827 1.597096 0.243461
C74A C 0.6207(12) 1.6765(9) 0.2680(5)
H46A H 0.646832 1.705850 0.232140
C75A C 0.6249(11) 1.6986(9) 0.3152(5)
C76A C 0.4790(13) 1.4805(10) 0.4333(6)
H47A H 0.458096 1.455919 0.472632
H48A H 0.518990 1.444805 0.414389
H49A H 0.429060 1.494731 0.416956
C77A C 0.6974(10) 1.8147(8) 0.2594(5)
H50A H 0.725309 1.858682 0.262638
H51A H 0.647659 1.833040 0.243394
H52A H 0.739886 1.786262 0.235519
C78A C 0.8795(16) 1.2557(10) 0.3847(7)
H53A H 0.850409 1.220006 0.418830
H54A H 0.935579 1.232427 0.367881
H55A H 0.842271 1.267062 0.358891
C79A C 1.0829(11) 1.6132(8) 0.3042(5)
H56A H 1.099112 1.650795 0.320970
H57A H 1.054336 1.639871 0.275137
H58A H 1.135670 1.584932 0.288157
C80A C 0.7238(11) 1.5777(8) 0.6768(5)
C81A C 0.6393(10) 1.5724(7) 0.7103(5)
H59A H 0.592108 1.569913 0.694929
C82A C 0.6225(9) 1.5705(7) 0.7679(4)
H60A H 0.564530 1.566483 0.791002
C83A C 0.6932(10) 1.5748(7) 0.7895(5)
C84A C 0.7786(10) 1.5827(8) 0.7543(5)
H61A H 0.825564 1.587815 0.769204
C85A C 0.7965(10) 1.5834(8) 0.6975(5)
H62A H 0.854310 1.587464 0.674245
C86A C 0.6758(9) 1.5747(7) 0.8489(4)
C87A C 0.7084(9) 1.6348(7) 0.8611(5)
H63A H 0.742839 1.671687 0.832286
C88A C 0.6906(8) 1.6411(7) 0.9160(5)
H64A H 0.715260 1.680999 0.924286
C89A C 0.6391(9) 1.5916(8) 0.9568(5)
H65A H 0.623930 1.598977 0.993391
C90A C 0.6072(9) 1.5285(7) 0.9462(5)
H66A H 0.573195 1.492175 0.975689
C91A C 0.6259(8) 1.5197(7) 0.8918(4)
C92A C 0.5927(8) 1.4515(6) 0.8818(4)
C93A C 0.5039(10) 1.4387(7) 0.8974(5)
H67A H 0.463293 1.474068 0.913859
C94A C 0.4741(9) 1.3734(8) 0.8890(5)
H68A H 0.412917 1.366714 0.898038
C95A C 0.5308(9) 1.3189(7) 0.8679(4)
C96A C 0.6166(10) 1.3330(8) 0.8549(5)
H69A H 0.656460 1.294499 0.841857
C97A C 0.6524(9) 1.3964(7) 0.8583(5)
H70A H 0.713625 1.403586 0.845719
C98A C 0.5914(10) 0.9251(8) 0.8287(5)
C99A C 0.6815(11) 0.9277(8) 0.8014(6)
H71A H 0.715380 0.882946 0.794414
C100A C 0.7199(9) 1.0032(8) 0.7846(6)
H72A H 0.780423 1.009058 0.766914
C101A C 0.6633(9) 1.0680(8) 0.7958(5)
H73A H 0.685279 1.118173 0.783486
C102A C 0.5776(9) 1.0574(7) 0.8241(5)
C103A C 0.5184(9) 1.1224(6) 0.8403(4)
C104A C 0.5542(8) 1.1891(7) 0.8459(5)
H74A H 0.615669 1.192235 0.839186
C105A C 0.4987(9) 1.2482(6) 0.8609(4)
C106A C 0.4069(9) 1.2385(7) 0.8718(5)
H75A H 0.366047 1.277854 0.882370
C107A C 0.3779(9) 1.1718(7) 0.8669(4)
C108A C 0.2818(9) 1.1610(7) 0.8757(4)
C109A C 0.2190(10) 1.2165(7) 0.8837(5)
H76A H 0.233808 1.263758 0.888139
C110A C 0.1350(9) 1.2059(7) 0.8855(5)
H77A H 0.092136 1.246413 0.889444
C111A C 0.1114(9) 1.1354(7) 0.8817(5)
H78A H 0.052873 1.126316 0.883248
C112A C 0.1780(10) 1.0794(7) 0.8754(5)
C113A C 0.1548(9) 0.9996(7) 0.8767(6)
C114A C 0.1237(9) 0.9503(8) 0.9290(7)
C115A C 0.0897(10) 0.8789(9) 0.9330(9)
H79A H 0.067968 0.845391 0.968055
C116A C 0.0888(12) 0.8599(9) 0.8874(9)
H80A H 0.067152 0.811286 0.890852
C117A C 0.1185(12) 0.9076(10) 0.8321(10)
H81A H 0.118397 0.890974 0.800030
C118A C 0.1483(10) 0.9819(8) 0.8288(6)
C119A C 0.0829(10) 0.9318(10) 1.0269(6)
H82A H 0.091559 0.955523 1.055147
H83A H 0.106127 0.878663 1.033049
H84A H 0.020210 0.932608 1.029280
C120A C 0.1676(11) 1.0179(9) 0.7306(6)
H85A H 0.191091 1.060279 0.699394
H86A H 0.105648 1.013036 0.733378
H87A H 0.200122 0.970044 0.724837
C121A C 0.5503(10) 0.8500(8) 0.8452(6)
C122A C 0.5211(10) 0.8137(8) 0.8997(6)
C123A C 0.4888(10) 0.7363(8) 0.9145(7)
H88A H 0.470178 0.710078 0.952261
C124A C 0.4855(11) 0.7014(9) 0.8732(9)
H89A H 0.462729 0.651775 0.883044
C125A C 0.5143(11) 0.7369(9) 0.8189(8)
H90A H 0.510218 0.712974 0.790965
C126A C 0.5513(11) 0.8116(9) 0.8043(6)
C127A C 0.5128(10) 0.8093(9) 0.9925(6)
H91A H 0.518505 0.842829 1.015773
H92A H 0.556428 0.766664 0.994894
H93A H 0.454020 0.789094 1.005320
C128A C 0.5966(14) 0.8024(12) 0.7123(8)
H94A H 0.617832 0.833829 0.674822
H95A H 0.542152 0.779024 0.715169
H96A H 0.640769 0.761910 0.720327
O9 O 0.4367(16) 0.5765(12) 0.7385(10)
O10 O 0.3897(15) 0.6991(12) 0.7206(10)
O11 O 0.4906(16) 0.6600(12) 0.6569(9)
N13 N 0.4416(19) 0.6423(15) 0.7068(11)
O12 O 0.0487(7) 0.6935(7) 0.1717(4)
O13 O 0.0762(7) 0.7445(7) 0.0837(4)
O14 O 0.1792(8) 0.7286(7) 0.1256(4)
N14 N 0.1001(10) 0.7249(8) 0.1288(5)
O15 O 0.052(2) 0.8985(17) 0.1626(11)
O16 O 0.093(2) 1.0151(17) 0.1564(11)
O17 O 0.0972(19) 0.9219(18) 0.2276(10)
N15 N 0.091(2) 0.9416(18) 0.1768(13)
O18 O 0.168(3) 0.8788(17) 0.6729(15)
O19 O 0.237(2) 0.7628(18) 0.6983(17)
O20 O 0.100(2) 0.7892(18) 0.7492(14)
N16 N 0.1679(18) 0.8107(14) 0.7069(12)
N17 N 0.295(3) 0.606(3) 0.4050(12)
C129 C 0.3190(18) 0.6386(18) 0.370(2)
C130 C 0.352(2) 0.6716(19) 0.2957(9)
N18 N 0.7170(14) 0.7843(13) -0.0048(9)
C131 C 0.773(2) 0.833(2) -0.0156(10)
C132 C 0.8360(15) 0.8857(18) -0.030(2)
loop_
_geom_bond_atom_site_label_1
_geom_bond_atom_site_label_2
_geom_bond_site_symmetry_1
_geom_bond_site_symmetry_2
Cd1 N1 1_555 1_555
Cd2 N4 1_555 1_555
O1 C71 1_555 1_555
O2 C75 1_555 1_555
O3 C49 1_555 1_555
O4 C53 1_555 1_555
O5 C114 1_555 1_555
O6 C118 1_555 1_555
O7 C122 1_555 1_555
O8 C126 1_555 1_555
N1 C1 1_555 1_555
N2 Cd1 1_555 1_555
N3 Cd1 1_555 1_555
N4 C34 1_555 1_555
N5 Cd2 1_555 1_555
N6 Cd2 1_555 1_555
N7 Cd2 1_555 1_555
N8 Cd2 1_555 1_555
N9 Cd2 1_555 1_555
N10 C98 1_555 1_555
N11 C103 1_555 1_555
N12 C108 1_555 1_555
C1 H1 1_555 1_555
C2 C1 1_555 1_555
H2 C2 1_555 1_555
C3 C2 1_555 1_555
H3 C3 1_555 1_555
C4 C3 1_555 1_555
H4 C4 1_555 1_555
C5 N1 1_555 1_555
C6 N2 1_555 1_555
C7 C6 1_555 1_555
H5 C7 1_555 1_555
C8 C7 1_555 1_555
C9 C8 1_555 1_555
H6 C9 1_555 1_555
C10 N2 1_555 1_555
C11 N3 1_555 1_555
C12 C11 1_555 1_555
H7 C12 1_555 1_555
C13 C12 1_555 1_555
H8 C13 1_555 1_555
C14 C13 1_555 1_555
H9 C14 1_555 1_555
C15 N3 1_555 1_555
H10 C15 1_555 1_555
C16 C8 1_555 1_555
C17 C16 1_555 1_555
H11 C17 1_555 1_555
C18 C17 1_555 1_555
H12 C18 1_555 1_555
C19 C18 1_555 1_555
C20 C19 1_555 1_555
H13 C20 1_555 1_555
C21 C16 1_555 1_555
H14 C21 1_555 1_555
C22 C19 1_555 1_555
C23 C22 1_555 1_555
H15 C23 1_555 1_555
C24 C23 1_555 1_555
H16 C24 1_555 1_555
C25 C24 1_555 1_555
H17 C25 1_555 1_555
C26 C25 1_555 1_555
H18 C26 1_555 1_555
C27 C22 1_555 1_555
C28 C27 1_555 1_555
C29 C28 1_555 1_555
H19 C29 1_555 1_555
C30 C29 1_555 1_555
H20 C30 1_555 1_555
C31 C30 1_555 1_555
C32 C31 1_555 1_555
H21 C32 1_555 1_555
C33 C28 1_555 1_555
H22 C33 1_555 1_555
C34 H23 1_555 1_555
C35 C34 1_555 1_555
H24 C35 1_555 1_555
C36 C35 1_555 1_555
H25 C36 1_555 1_555
C37 C36 1_555 1_555
H26 C37 1_555 1_555
C38 N4 1_555 1_555
C39 N5 1_555 1_555
C40 C39 1_555 1_555
H27 C40 1_555 1_555
C41 C31 1_555 1_555
C42 C41 1_555 1_555
H28 C42 1_555 1_555
C43 N5 1_555 1_555
C44 N6 1_555 1_555
C45 C44 1_555 1_555
H29 C45 1_555 1_555
C46 C45 1_555 1_555
H30 C46 1_555 1_555
C47 C46 1_555 1_555
H31 C47 1_555 1_555
C48 N6 1_555 1_555
H32 C48 1_555 1_555
C49 C50 1_555 1_555
C50 H33 1_555 1_555
C51 C50 1_555 1_555
H34 C51 1_555 1_555
C52 C51 1_555 1_555
H35 C52 1_555 1_555
C53 C52 1_555 1_555
C54 C49 1_555 1_555
C55 N9 1_555 1_555
C56 C55 1_555 1_555
H36 C56 1_555 1_555
C57 C56 1_555 1_555
H37 C57 1_555 1_555
C58 C57 1_555 1_555
H38 C58 1_555 1_555
C59 N9 1_555 1_555
C60 N8 1_555 1_555
C61 C60 1_555 1_555
H39 C61 1_555 1_555
C62 C61 1_555 1_555
C63 C62 1_555 1_555
H40 C63 1_555 1_555
C64 N8 1_555 1_555
C65 N7 1_555 1_555
C66 C65 1_555 1_555
H41 C66 1_555 1_555
C67 C66 1_555 1_555
H42 C67 1_555 1_555
C68 C67 1_555 1_555
H43 C68 1_555 1_555
C69 N7 1_555 1_555
C70 C69 1_555 1_555
C71 C70 1_555 1_555
C72 C71 1_555 1_555
H44 C72 1_555 1_555
C73 C72 1_555 1_555
H45 C73 1_555 1_555
C74 C73 1_555 1_555
H46 C74 1_555 1_555
C75 C70 1_555 1_555
C76 O1 1_555 1_555
H47 C76 1_555 1_555
H48 C76 1_555 1_555
H49 C76 1_555 1_555
C77 O2 1_555 1_555
H50 C77 1_555 1_555
H51 C77 1_555 1_555
H52 C77 1_555 1_555
C78 O3 1_555 1_555
H53 C78 1_555 1_555
H54 C78 1_555 1_555
H55 C78 1_555 1_555
C79 O4 1_555 1_555
H56 C79 1_555 1_555
H57 C79 1_555 1_555
H58 C79 1_555 1_555
C80 C62 1_555 1_555
C81 C80 1_555 1_555
H59 C81 1_555 1_555
C82 C81 1_555 1_555
H60 C82 1_555 1_555
C83 C82 1_555 1_555
C84 C83 1_555 1_555
H61 C84 1_555 1_555
C85 C80 1_555 1_555
H62 C85 1_555 1_555
C86 C83 1_555 1_555
C87 C86 1_555 1_555
H63 C87 1_555 1_555
C88 C87 1_555 1_555
H64 C88 1_555 1_555
C89 C88 1_555 1_555
H65 C89 1_555 1_555
C90 C89 1_555 1_555
H66 C90 1_555 1_555
C91 C86 1_555 1_555
C92 C91 1_555 1_555
C93 C92 1_555 1_555
H67 C93 1_555 1_555
C94 C93 1_555 1_555
H68 C94 1_555 1_555
C95 C94 1_555 1_555
C96 C95 1_555 1_555
H69 C96 1_555 1_555
C97 C92 1_555 1_555
H70 C97 1_555 1_555
C98 C99 1_555 1_555
C99 H71 1_555 1_555
C100 C99 1_555 1_555
H72 C100 1_555 1_555
C101 C100 1_555 1_555
H73 C101 1_555 1_555
C102 N10 1_555 1_555
C103 C102 1_555 1_555
C104 C103 1_555 1_555
H74 C104 1_555 1_555
C105 C95 1_555 1_555
C106 C105 1_555 1_555
H75 C106 1_555 1_555
C107 N11 1_555 1_555
C108 C107 1_555 1_555
C109 C108 1_555 1_555
H76 C109 1_555 1_555
C110 C109 1_555 1_555
H77 C110 1_555 1_555
C111 C110 1_555 1_555
H78 C111 1_555 1_555
C112 N12 1_555 1_555
C113 C112 1_555 1_555
C114 C113 1_555 1_555
C115 C114 1_555 1_555
H79 C115 1_555 1_555
C116 C115 1_555 1_555
H80 C116 1_555 1_555
C117 C116 1_555 1_555
H81 C117 1_555 1_555
C118 C113 1_555 1_555
C119 O5 1_555 1_555
H82 C119 1_555 1_555
H83 C119 1_555 1_555
H84 C119 1_555 1_555
C120 O6 1_555 1_555
H85 C120 1_555 1_555
H86 C120 1_555 1_555
H87 C120 1_555 1_555
C121 C98 1_555 1_555
C122 C121 1_555 1_555
C123 C122 1_555 1_555
H88 C123 1_555 1_555
C124 C123 1_555 1_555
H89 C124 1_555 1_555
C125 C124 1_555 1_555
H90 C125 1_555 1_555
C126 C121 1_555 1_555
C127 O7 1_555 1_555
H91 C127 1_555 1_555
H92 C127 1_555 1_555
H93 C127 1_555 1_555
C128 O8 1_555 1_555
H94 C128 1_555 1_555
H95 C128 1_555 1_555
H96 C128 1_555 1_555
O9 N13 1_555 1_555
O10 N13 1_555 1_555
O11 N13 1_555 1_555
O12 N14 1_555 1_555
O13 N14 1_555 1_555
O14 N14 1_555 1_555
O15 N15 1_555 1_555
O16 N15 1_555 1_555
O17 N15 1_555 1_555
O18 N16 1_555 1_555
O19 N16 1_555 1_555
O20 N16 1_555 1_555
N17 C129 1_555 1_555
C129 C130 1_555 1_555
N18 C131 1_555 1_555
C131 C132 1_555 1_555
Cd1A N10 1_555 1_555
Cd2A N4A 1_555 1_555
O1A C71A 1_555 1_555
O2A C75A 1_555 1_555
O3A C49A 1_555 1_555
O4A C53A 1_555 1_555
O5A C114A 1_555 1_555
O6A C118A 1_555 1_555
O7A C122A 1_555 1_555
O8A C126A 1_555 1_555
N1A Cd1A 1_555 1_555
N2A Cd1A 1_555 1_555
N3A Cd1A 1_555 1_555
N4A C34A 1_555 1_555
N5A Cd2A 1_555 1_555
N6A Cd2A 1_555 1_555
N7A Cd2A 1_555 1_555
N8A Cd2A 1_555 1_555
N9A Cd2A 1_555 1_555
N10A Cd1 1_555 1_555
N11A Cd1 1_555 1_555
N12A Cd1 1_555 1_555
C1A N1A 1_555 1_555
H1A C1A 1_555 1_555
C2A C1A 1_555 1_555
H2A C2A 1_555 1_555
C3A C2A 1_555 1_555
H3A C3A 1_555 1_555
C4A C3A 1_555 1_555
H4A C4A 1_555 1_555
C5A N1A 1_555 1_555
C6A N2A 1_555 1_555
C7A C6A 1_555 1_555
H5A C7A 1_555 1_555
C8A C7A 1_555 1_555
C9A C8A 1_555 1_555
H6A C9A 1_555 1_555
C10A N2A 1_555 1_555
C11A N3A 1_555 1_555
C12A C11A 1_555 1_555
H7A C12A 1_555 1_555
C13A C12A 1_555 1_555
H8A C13A 1_555 1_555
C14A C13A 1_555 1_555
H9A C14A 1_555 1_555
C15A N3A 1_555 1_555
H10A C15A 1_555 1_555
C16A C8A 1_555 1_555
C17A C16A 1_555 1_555
H11A C17A 1_555 1_555
C18A C17A 1_555 1_555
H12A C18A 1_555 1_555
C19A C18A 1_555 1_555
C20A C19A 1_555 1_555
H13A C20A 1_555 1_555
C21A C16A 1_555 1_555
H14A C21A 1_555 1_555
C22A C19A 1_555 1_555
C23A C22A 1_555 1_555
H15A C23A 1_555 1_555
C24A C23A 1_555 1_555
H16A C24A 1_555 1_555
C25A C24A 1_555 1_555
H17A C25A 1_555 1_555
C26A C25A 1_555 1_555
H18A C26A 1_555 1_555
C27A C22A 1_555 1_555
C28A C27A 1_555 1_555
C29A C28A 1_555 1_555
H19A C29A 1_555 1_555
C30A C29A 1_555 1_555
H20A C30A 1_555 1_555
C31A C30A 1_555 1_555
C32A C31A 1_555 1_555
H21A C32A 1_555 1_555
C33A C28A 1_555 1_555
H22A C33A 1_555 1_555
C34A H23A 1_555 1_555
C35A C34A 1_555 1_555
H24A C35A 1_555 1_555
C36A C35A 1_555 1_555
H25A C36A 1_555 1_555
C37A C36A 1_555 1_555
H26A C37A 1_555 1_555
C38A N4A 1_555 1_555
C39A N5A 1_555 1_555
C40A C39A 1_555 1_555
H27A C40A 1_555 1_555
C41A C31A 1_555 1_555
C42A C41A 1_555 1_555
H28A C42A 1_555 1_555
C43A N5A 1_555 1_555
C44A N6A 1_555 1_555
C45A C44A 1_555 1_555
H29A C45A 1_555 1_555
C46A C45A 1_555 1_555
H30A C46A 1_555 1_555
C47A C46A 1_555 1_555
H31A C47A 1_555 1_555
C48A N6A 1_555 1_555
H32A C48A 1_555 1_555
C49A C50A 1_555 1_555
C50A H33A 1_555 1_555
C51A C50A 1_555 1_555
H34A C51A 1_555 1_555
C52A C51A 1_555 1_555
H35A C52A 1_555 1_555
C53A C52A 1_555 1_555
C54A C49A 1_555 1_555
C55A N9A 1_555 1_555
C56A C55A 1_555 1_555
H36A C56A 1_555 1_555
C57A C56A 1_555 1_555
H37A C57A 1_555 1_555
C58A C57A 1_555 1_555
H38A C58A 1_555 1_555
C59A N9A 1_555 1_555
C60A N8A 1_555 1_555
C61A C60A 1_555 1_555
H39A C61A 1_555 1_555
C62A C61A 1_555 1_555
C63A C62A 1_555 1_555
H40A C63A 1_555 1_555
C64A N8A 1_555 1_555
C65A N7A 1_555 1_555
C66A C65A 1_555 1_555
H41A C66A 1_555 1_555
C67A C66A 1_555 1_555
H42A C67A 1_555 1_555
C68A C67A 1_555 1_555
H43A C68A 1_555 1_555
C69A N7A 1_555 1_555
C70A C69A 1_555 1_555
C71A C70A 1_555 1_555
C72A C71A 1_555 1_555
H44A C72A 1_555 1_555
C73A C72A 1_555 1_555
H45A C73A 1_555 1_555
C74A C73A 1_555 1_555
H46A C74A 1_555 1_555
C75A C70A 1_555 1_555
C76A O1A 1_555 1_555
H47A C76A 1_555 1_555
H48A C76A 1_555 1_555
H49A C76A 1_555 1_555
C77A O2A 1_555 1_555
H50A C77A 1_555 1_555
H51A C77A 1_555 1_555
H52A C77A 1_555 1_555
C78A O3A 1_555 1_555
H53A C78A 1_555 1_555
H54A C78A 1_555 1_555
H55A C78A 1_555 1_555
C79A O4A 1_555 1_555
H56A C79A 1_555 1_555
H57A C79A 1_555 1_555
H58A C79A 1_555 1_555
C80A C62A 1_555 1_555
C81A C80A 1_555 1_555
H59A C81A 1_555 1_555
C82A C81A 1_555 1_555
H60A C82A 1_555 1_555
C83A C82A 1_555 1_555
C84A C83A 1_555 1_555
H61A C84A 1_555 1_555
C85A C80A 1_555 1_555
H62A C85A 1_555 1_555
C86A C83A 1_555 1_555
C87A C86A 1_555 1_555
H63A C87A 1_555 1_555
C88A C87A 1_555 1_555
H64A C88A 1_555 1_555
C89A C88A 1_555 1_555
H65A C89A 1_555 1_555
C90A C89A 1_555 1_555
H66A C90A 1_555 1_555
C91A C86A 1_555 1_555
C92A C91A 1_555 1_555
C93A C92A 1_555 1_555
H67A C93A 1_555 1_555
C94A C93A 1_555 1_555
H68A C94A 1_555 1_555
C95A C94A 1_555 1_555
C96A C95A 1_555 1_555
H69A C96A 1_555 1_555
C97A C92A 1_555 1_555
H70A C97A 1_555 1_555
C98A N10A 1_555 1_555
C99A C98A 1_555 1_555
H71A C99A 1_555 1_555
C100A C99A 1_555 1_555
H72A C100A 1_555 1_555
C101A C100A 1_555 1_555
H73A C101A 1_555 1_555
C102A N10A 1_555 1_555
C103A N11A 1_555 1_555
C104A C103A 1_555 1_555
H74A C104A 1_555 1_555
C105A C95A 1_555 1_555
C106A C105A 1_555 1_555
H75A C106A 1_555 1_555
C107A N11A 1_555 1_555
C108A N12A 1_555 1_555
C109A C108A 1_555 1_555
H76A C109A 1_555 1_555
C110A C109A 1_555 1_555
H77A C110A 1_555 1_555
C111A C110A 1_555 1_555
H78A C111A 1_555 1_555
C112A N12A 1_555 1_555
C113A C112A 1_555 1_555
C114A C113A 1_555 1_555
C115A C114A 1_555 1_555
H79A C115A 1_555 1_555
C116A C115A 1_555 1_555
H80A C116A 1_555 1_555
C117A C116A 1_555 1_555
H81A C117A 1_555 1_555
C118A C113A 1_555 1_555
C119A O5A 1_555 1_555
H82A C119A 1_555 1_555
H83A C119A 1_555 1_555
H84A C119A 1_555 1_555
C120A O6A 1_555 1_555
H85A C120A 1_555 1_555
H86A C120A 1_555 1_555
H87A C120A 1_555 1_555
C121A C98A 1_555 1_555
C122A C121A 1_555 1_555
C123A C122A 1_555 1_555
H88A C123A 1_555 1_555
C124A C123A 1_555 1_555
H89A C124A 1_555 1_555
C125A C124A 1_555 1_555
H90A C125A 1_555 1_555
C126A C121A 1_555 1_555
C127A O7A 1_555 1_555
H91A C127A 1_555 1_555
H92A C127A 1_555 1_555
H93A C127A 1_555 1_555
C128A O8A 1_555 1_555
H94A C128A 1_555 1_555
H95A C128A 1_555 1_555
H96A C128A 1_555 1_555
N11 Cd1A 1_555 1_555
N12 Cd1A 1_555 1_555
C4 C5 1_555 1_555
C5 C6 1_555 1_555
C9 C10 1_555 1_555
C10 C11 1_555 1_555
C14 C15 1_555 1_555
C20 C21 1_555 1_555
C26 C27 1_555 1_555
C32 C33 1_555 1_555
C37 C38 1_555 1_555
C38 C39 1_555 1_555
C40 C41 1_555 1_555
C42 C43 1_555 1_555
C43 C44 1_555 1_555
C47 C48 1_555 1_555
C53 C54 1_555 1_555
C54 C55 1_555 1_555
C58 C59 1_555 1_555
C59 C60 1_555 1_555
C63 C64 1_555 1_555
C64 C65 1_555 1_555
C68 C69 1_555 1_555
C74 C75 1_555 1_555
C84 C85 1_555 1_555
C90 C91 1_555 1_555
C96 C97 1_555 1_555
C101 C102 1_555 1_555
C104 C105 1_555 1_555
C106 C107 1_555 1_555
C111 C112 1_555 1_555
C117 C118 1_555 1_555
C125 C126 1_555 1_555
C4A C5A 1_555 1_555
C5A C6A 1_555 1_555
C9A C10A 1_555 1_555
C10A C11A 1_555 1_555
C14A C15A 1_555 1_555
C20A C21A 1_555 1_555
C26A C27A 1_555 1_555
C32A C33A 1_555 1_555
C37A C38A 1_555 1_555
C38A C39A 1_555 1_555
C40A C41A 1_555 1_555
C42A C43A 1_555 1_555
C43A C44A 1_555 1_555
C47A C48A 1_555 1_555
C53A C54A 1_555 1_555
C54A C55A 1_555 1_555
C58A C59A 1_555 1_555
C59A C60A 1_555 1_555
C63A C64A 1_555 1_555
C64A C65A 1_555 1_555
C68A C69A 1_555 1_555
C74A C75A 1_555 1_555
C84A C85A 1_555 1_555
C90A C91A 1_555 1_555
C96A C97A 1_555 1_555
C101A C102A 1_555 1_555
C102A C103A 1_555 1_555
C104A C105A 1_555 1_555
C106A C107A 1_555 1_555
C107A C108A 1_555 1_555
C111A C112A 1_555 1_555
C117A C118A 1_555 1_555
C125A C126A 1_555 1_555

#END
