# generated using pymatgen
data_Fe8Mo12H252C313SN60(O17F)3
_symmetry_space_group_name_H-M   'P 1'
_cell_length_a   28.39420000
_cell_length_b   28.84050000
_cell_length_c   38.16960000
_cell_angle_alpha   72.11400000
_cell_angle_beta   72.06300000
_cell_angle_gamma   66.16100000
_symmetry_Int_Tables_number   1
_chemical_formula_structural   Fe8Mo12H252C313SN60(O17F)3
_chemical_formula_sum   'Fe16 Mo24 H504 C626 S2 N120 O102 F6'
_cell_volume   26594.96302981
_cell_formula_units_Z   2
loop_
 _symmetry_equiv_pos_site_id
 _symmetry_equiv_pos_as_xyz
  1  'x, y, z'
loop_
 _atom_site_type_symbol
 _atom_site_label
 _atom_site_symmetry_multiplicity
 _atom_site_fract_x
 _atom_site_fract_y
 _atom_site_fract_z
 _atom_site_occupancy
  Fe  Fe1  1  0.448850  0.801340  0.330230  1
  Fe  Fe2  1  0.551150  0.198660  0.669770  1
  Fe  Fe3  1  0.692910  0.122000  0.105340  1
  Fe  Fe4  1  0.307090  0.878000  0.894660  1
  Fe  Fe5  1  0.436620  0.461760  0.351400  1
  Fe  Fe6  1  0.563380  0.538240  0.648600  1
  Fe  Fe7  1  0.043970  0.700400  0.148840  1
  Fe  Fe8  1  0.956030  0.299600  0.851160  1
  Fe  Fe9  1  0.787320  0.369080  0.386940  1
  Fe  Fe10  1  0.212680  0.630920  0.613060  1
  Fe  Fe11  1  0.291370  0.376510  0.917430  1
  Fe  Fe12  1  0.708630  0.623490  0.082570  1
  Fe  Fe13  1  0.193570  0.143580  0.579950  1
  Fe  Fe14  1  0.806430  0.856420  0.420050  1
  Fe  Fe15  1  0.032090  0.038220  0.161090  1
  Fe  Fe16  1  0.967910  0.961780  0.838910  1
  Mo  Mo17  1  0.382220  0.057630  0.102740  1
  Mo  Mo18  1  0.617780  0.942370  0.897260  1
  Mo  Mo19  1  0.345110  0.109230  0.140170  1
  Mo  Mo20  1  0.654890  0.890770  0.859830  1
  Mo  Mo21  1  0.477090  0.110460  0.357680  1
  Mo  Mo22  1  0.522910  0.889540  0.642320  1
  Mo  Mo23  1  0.414520  0.147820  0.329190  1
  Mo  Mo24  1  0.585480  0.852180  0.670810  1
  Mo  Mo25  1  0.392650  0.442030  0.112830  1
  Mo  Mo26  1  0.607350  0.557970  0.887170  1
  Mo  Mo27  1  0.353930  0.390880  0.148450  1
  Mo  Mo28  1  0.646070  0.609120  0.851550  1
  Mo  Mo29  1  0.067370  0.352570  0.167200  1
  Mo  Mo30  1  0.932630  0.647430  0.832800  1
  Mo  Mo31  1  0.004920  0.389900  0.137860  1
  Mo  Mo32  1  0.995080  0.610100  0.862140  1
  Mo  Mo33  1  0.134890  0.106750  0.355960  1
  Mo  Mo34  1  0.865110  0.893250  0.644040  1
  Mo  Mo35  1  0.097610  0.054440  0.392090  1
  Mo  Mo36  1  0.902390  0.945560  0.607910  1
  Mo  Mo37  1  0.129620  0.396600  0.349740  1
  Mo  Mo38  1  0.870380  0.603400  0.650260  1
  Mo  Mo39  1  0.090290  0.449170  0.385760  1
  Mo  Mo40  1  0.909710  0.550830  0.614240  1
  H  H41  1  0.172000  0.182100  0.289400  1
  H  H42  1  0.828000  0.817900  0.710600  1
  H  H43  1  0.167700  0.201200  0.322200  1
  H  H44  1  0.832300  0.798800  0.677800  1
  H  H45  1  0.214500  0.158000  0.310400  1
  H  H46  1  0.785500  0.842000  0.689600  1
  H  H47  1  0.500000  0.944600  0.371100  1
  H  H48  1  0.500000  0.055400  0.628900  1
  H  H49  1  0.494500  0.863400  0.378100  1
  H  H50  1  0.505500  0.136600  0.621900  1
  H  H51  1  0.345400  0.932900  0.360600  1
  H  H52  1  0.654600  0.067100  0.639400  1
  H  H53  1  0.351000  0.014200  0.353700  1
  H  H54  1  0.649000  0.985800  0.646300  1
  H  H55  1  0.371000  0.846200  0.418800  1
  H  H56  1  0.629000  0.153800  0.581200  1
  H  H57  1  0.341200  0.761200  0.452100  1
  H  H58  1  0.658800  0.238800  0.547900  1
  H  H59  1  0.346000  0.679000  0.450300  1
  H  H60  1  0.654000  0.321000  0.549700  1
  H  H61  1  0.393600  0.644400  0.396700  1
  H  H62  1  0.606400  0.355600  0.603300  1
  H  H63  1  0.436400  0.691900  0.344800  1
  H  H64  1  0.563600  0.308100  0.655200  1
  H  H65  1  0.450400  0.907800  0.182600  1
  H  H66  1  0.549600  0.092200  0.817400  1
  H  H67  1  0.483100  0.842500  0.232300  1
  H  H68  1  0.516900  0.157500  0.767700  1
  H  H69  1  0.446700  0.950800  0.292400  1
  H  H70  1  0.553300  0.049200  0.707600  1
  H  H71  1  0.414100  0.016100  0.242700  1
  H  H72  1  0.585900  0.983900  0.757300  1
  H  H73  1  0.554700  0.859200  0.287400  1
  H  H74  1  0.445300  0.140800  0.712600  1
  H  H75  1  0.622200  0.797000  0.321700  1
  H  H76  1  0.377800  0.203000  0.678300  1
  H  H77  1  0.647000  0.726100  0.370700  1
  H  H78  1  0.353000  0.273900  0.629300  1
  H  H79  1  0.588300  0.682300  0.406500  1
  H  H80  1  0.411700  0.317700  0.593500  1
  H  H81  1  0.504900  0.709400  0.393200  1
  H  H82  1  0.495100  0.290600  0.606800  1
  H  H83  1  0.230500  0.897900  0.384300  1
  H  H84  1  0.769500  0.102100  0.615700  1
  H  H85  1  0.306100  0.829400  0.366400  1
  H  H86  1  0.693900  0.170600  0.633600  1
  H  H87  1  0.354900  0.928800  0.274900  1
  H  H88  1  0.645100  0.071200  0.725100  1
  H  H89  1  0.279300  0.997300  0.292800  1
  H  H90  1  0.720700  0.002700  0.707200  1
  H  H91  1  0.364600  0.828700  0.265200  1
  H  H92  1  0.635400  0.171300  0.734800  1
  H  H93  1  0.425500  0.756900  0.224500  1
  H  H94  1  0.574500  0.243100  0.775500  1
  H  H95  1  0.508700  0.693600  0.213100  1
  H  H96  1  0.491300  0.306400  0.786900  1
  H  H97  1  0.568300  0.672700  0.251000  1
  H  H98  1  0.431700  0.327300  0.749000  1
  H  H99  1  0.544700  0.715100  0.300400  1
  H  H100  1  0.455300  0.284900  0.699600  1
  H  H101  1  0.497100  0.113200  0.214800  1
  H  H102  1  0.502900  0.886800  0.785200  1
  H  H103  1  0.555400  0.099100  0.157400  1
  H  H104  1  0.444600  0.900900  0.842600  1
  H  H105  1  0.678900  0.057000  0.206200  1
  H  H106  1  0.321100  0.943000  0.793800  1
  H  H107  1  0.620600  0.071100  0.263600  1
  H  H108  1  0.379400  0.928900  0.736400  1
  H  H109  1  0.665600  0.997900  0.153700  1
  H  H110  1  0.334400  0.002100  0.846300  1
  H  H111  1  0.720700  0.947900  0.098400  1
  H  H112  1  0.279300  0.052100  0.901600  1
  H  H113  1  0.776700  0.946600  0.038800  1
  H  H114  1  0.223300  0.053400  0.961200  1
  H  H115  1  0.801300  0.018900  0.004900  1
  H  H116  1  0.198700  0.981100  0.995100  1
  H  H117  1  0.769800  0.092600  0.030600  1
  H  H118  1  0.230200  0.907400  0.969400  1
  H  H119  1  0.559400  0.333700  0.089500  1
  H  H120  1  0.440600  0.666300  0.910500  1
  H  H121  1  0.640800  0.266400  0.089100  1
  H  H122  1  0.359200  0.733600  0.910900  1
  H  H123  1  0.575900  0.182300  0.183500  1
  H  H124  1  0.424100  0.817700  0.816500  1
  H  H125  1  0.494500  0.249500  0.183900  1
  H  H126  1  0.505500  0.750500  0.816100  1
  H  H127  1  0.677800  0.189800  0.179800  1
  H  H128  1  0.322200  0.810200  0.820200  1
  H  H129  1  0.758000  0.130900  0.206200  1
  H  H130  1  0.242000  0.869100  0.793800  1
  H  H131  1  0.831400  0.054600  0.206900  1
  H  H132  1  0.168600  0.945400  0.793100  1
  H  H133  1  0.853200  0.003600  0.163200  1
  H  H134  1  0.146800  0.996400  0.836800  1
  H  H135  1  0.801700  0.028800  0.118700  1
  H  H136  1  0.198300  0.971200  0.881300  1
  H  H137  1  0.548700  0.060300  0.071500  1
  H  H138  1  0.451300  0.939700  0.928500  1
  H  H139  1  0.626200  0.077800  0.060500  1
  H  H140  1  0.373800  0.922200  0.939500  1
  H  H141  1  0.542300  0.208900  0.101100  1
  H  H142  1  0.457700  0.791100  0.898900  1
  H  H143  1  0.464800  0.191400  0.112200  1
  H  H144  1  0.535200  0.808600  0.887800  1
  H  H145  1  0.622500  0.200400  0.031100  1
  H  H146  1  0.377500  0.799600  0.968900  1
  H  H147  1  0.691600  0.262100  0.991900  1
  H  H148  1  0.308400  0.737900  0.008100  1
  H  H149  1  0.774200  0.266500  0.986300  1
  H  H150  1  0.225800  0.733500  0.013700  1
  H  H151  1  0.826600  0.210200  0.029500  1
  H  H152  1  0.173400  0.789800  0.970500  1
  H  H153  1  0.796400  0.149600  0.078200  1
  H  H154  1  0.203600  0.850400  0.921800  1
  H  H155  1  0.224900  0.480300  0.402500  1
  H  H156  1  0.775100  0.519700  0.597500  1
  H  H157  1  0.306000  0.478200  0.407200  1
  H  H158  1  0.694000  0.521800  0.592800  1
  H  H159  1  0.380000  0.349500  0.362900  1
  H  H160  1  0.620000  0.650500  0.637100  1
  H  H161  1  0.298900  0.351500  0.358200  1
  H  H162  1  0.701100  0.648500  0.641800  1
  H  H163  1  0.408000  0.357700  0.431200  1
  H  H164  1  0.592000  0.642300  0.568800  1
  H  H165  1  0.494800  0.325400  0.454100  1
  H  H166  1  0.505200  0.674600  0.545900  1
  H  H167  1  0.569100  0.341100  0.455100  1
  H  H168  1  0.430900  0.658900  0.544900  1
  H  H169  1  0.591700  0.410200  0.411800  1
  H  H170  1  0.408300  0.589800  0.588200  1
  H  H171  1  0.540000  0.463700  0.367600  1
  H  H172  1  0.460000  0.536300  0.632400  1
  H  H173  1  0.427300  0.312100  0.282600  1
  H  H174  1  0.572700  0.687900  0.717400  1
  H  H175  1  0.437200  0.390800  0.277500  1
  H  H176  1  0.562800  0.609200  0.722500  1
  H  H177  1  0.521000  0.322800  0.359700  1
  H  H178  1  0.479000  0.677200  0.640300  1
  H  H179  1  0.511200  0.244100  0.364900  1
  H  H180  1  0.488800  0.755900  0.635100  1
  H  H181  1  0.545100  0.404200  0.278700  1
  H  H182  1  0.454900  0.595800  0.721300  1
  H  H183  1  0.580000  0.482400  0.247100  1
  H  H184  1  0.420000  0.517600  0.752900  1
  H  H185  1  0.573300  0.565700  0.247800  1
  H  H186  1  0.426700  0.434300  0.752200  1
  H  H187  1  0.507900  0.610200  0.292600  1
  H  H188  1  0.492100  0.389800  0.707400  1
  H  H189  1  0.449400  0.571300  0.336600  1
  H  H190  1  0.550600  0.428700  0.663400  1
  H  H191  1  0.312800  0.442000  0.261200  1
  H  H192  1  0.687200  0.558000  0.738800  1
  H  H193  1  0.317900  0.462800  0.314300  1
  H  H194  1  0.682100  0.537200  0.685700  1
  H  H195  1  0.436700  0.516200  0.251700  1
  H  H196  1  0.563300  0.483800  0.748300  1
  H  H197  1  0.431600  0.495300  0.198700  1
  H  H198  1  0.568400  0.504700  0.801300  1
  H  H199  1  0.316500  0.564700  0.320000  1
  H  H200  1  0.683500  0.435300  0.680000  1
  H  H201  1  0.284200  0.613500  0.371000  1
  H  H202  1  0.715800  0.386500  0.629000  1
  H  H203  1  0.290900  0.622700  0.427900  1
  H  H204  1  0.709100  0.377300  0.572100  1
  H  H205  1  0.361300  0.564800  0.456100  1
  H  H206  1  0.638700  0.435200  0.543900  1
  H  H207  1  0.425100  0.497600  0.427400  1
  H  H208  1  0.574900  0.502400  0.572600  1
  H  H209  1  0.972400  0.557200  0.132700  1
  H  H210  1  0.027600  0.442800  0.867300  1
  H  H211  1  0.965400  0.638100  0.138900  1
  H  H212  1  0.034600  0.361900  0.861100  1
  H  H213  1  0.043700  0.567800  0.224200  1
  H  H214  1  0.956300  0.432200  0.775800  1
  H  H215  1  0.050700  0.486800  0.218000  1
  H  H216  1  0.949300  0.513200  0.782000  1
  H  H217  1  0.937400  0.669000  0.224900  1
  H  H218  1  0.062600  0.331000  0.775100  1
  H  H219  1  0.898600  0.751000  0.251200  1
  H  H220  1  0.101400  0.249000  0.748800  1
  H  H221  1  0.901000  0.832800  0.246900  1
  H  H222  1  0.099000  0.167200  0.753100  1
  H  H223  1  0.966200  0.861600  0.202000  1
  H  H224  1  0.033800  0.138400  0.798000  1
  H  H225  1  0.029100  0.808600  0.161300  1
  H  H226  1  0.970900  0.191400  0.838700  1
  H  H227  1  0.047400  0.604800  0.300000  1
  H  H228  1  0.952600  0.395200  0.700000  1
  H  H229  1  0.045400  0.671800  0.246300  1
  H  H230  1  0.954600  0.328200  0.753700  1
  H  H231  1  0.167900  0.572900  0.187200  1
  H  H232  1  0.832100  0.427100  0.812800  1
  H  H233  1  0.169900  0.506000  0.240800  1
  H  H234  1  0.830100  0.494000  0.759200  1
  H  H235  1  0.167300  0.675300  0.178000  1
  H  H236  1  0.832700  0.324700  0.822000  1
  H  H237  1  0.197300  0.745200  0.126200  1
  H  H238  1  0.802700  0.254800  0.873800  1
  H  H239  1  0.191000  0.805600  0.069000  1
  H  H240  1  0.809000  0.194400  0.931000  1
  H  H241  1  0.119200  0.828500  0.041700  1
  H  H242  1  0.880800  0.171500  0.958300  1
  H  H243  1  0.053700  0.791100  0.071500  1
  H  H244  1  0.946300  0.208900  0.928500  1
  H  H245  1  0.182000  0.486700  0.142700  1
  H  H246  1  0.818000  0.513300  0.857300  1
  H  H247  1  0.100900  0.552700  0.137300  1
  H  H248  1  0.899100  0.447300  0.862700  1
  H  H249  1  0.175100  0.658200  0.090300  1
  H  H250  1  0.824900  0.341800  0.909700  1
  H  H251  1  0.256200  0.592200  0.095700  1
  H  H252  1  0.743800  0.407800  0.904300  1
  H  H253  1  0.069700  0.628900  0.075400  1
  H  H254  1  0.930300  0.371100  0.924600  1
  H  H255  1  0.985000  0.688500  0.048500  1
  H  H256  1  0.015000  0.311500  0.951500  1
  H  H257  1  0.901400  0.752600  0.054000  1
  H  H258  1  0.098600  0.247400  0.946000  1
  H  H259  1  0.873900  0.804800  0.097900  1
  H  H260  1  0.126100  0.195200  0.902100  1
  H  H261  1  0.930000  0.793000  0.136200  1
  H  H262  1  0.070000  0.207000  0.863800  1
  H  H263  1  0.991800  0.391800  0.314600  1
  H  H264  1  0.008200  0.608200  0.685400  1
  H  H265  1  0.910900  0.389900  0.312900  1
  H  H266  1  0.089100  0.610100  0.687100  1
  H  H267  1  0.839500  0.462300  0.400900  1
  H  H268  1  0.160500  0.537700  0.599100  1
  H  H269  1  0.920300  0.464200  0.402600  1
  H  H270  1  0.079700  0.535800  0.597400  1
  H  H271  1  0.798300  0.491800  0.322800  1
  H  H272  1  0.201700  0.508200  0.677200  1
  H  H273  1  0.717900  0.515600  0.285900  1
  H  H274  1  0.282100  0.484400  0.714100  1
  H  H275  1  0.647000  0.494000  0.285500  1
  H  H276  1  0.353000  0.506000  0.714500  1
  H  H277  1  0.630800  0.421200  0.327900  1
  H  H278  1  0.369200  0.578800  0.672100  1
  H  H279  1  0.685400  0.370000  0.370700  1
  H  H280  1  0.314600  0.630000  0.629300  1
  H  H281  1  0.014800  0.259500  0.384900  1
  H  H282  1  0.985200  0.740500  0.615100  1
  H  H283  1  0.937600  0.329900  0.396300  1
  H  H284  1  0.062400  0.670100  0.603700  1
  H  H285  1  0.852400  0.233800  0.434100  1
  H  H286  1  0.147600  0.766200  0.565900  1
  H  H287  1  0.929600  0.163400  0.422700  1
  H  H288  1  0.070400  0.836600  0.577300  1
  H  H289  1  0.852700  0.337000  0.466500  1
  H  H290  1  0.147300  0.663000  0.533500  1
  H  H291  1  0.790900  0.410800  0.497400  1
  H  H292  1  0.209100  0.589200  0.502600  1
  H  H293  1  0.716400  0.485900  0.499900  1
  H  H294  1  0.283600  0.514100  0.500100  1
  H  H295  1  0.665200  0.516100  0.454600  1
  H  H296  1  0.334800  0.483900  0.545400  1
  H  H297  1  0.688400  0.471200  0.406700  1
  H  H298  1  0.311600  0.528800  0.593300  1
  H  H299  1  0.984000  0.280200  0.281100  1
  H  H300  1  0.016000  0.719800  0.718900  1
  H  H301  1  0.923400  0.268100  0.337700  1
  H  H302  1  0.076600  0.731900  0.662300  1
  H  H303  1  0.805000  0.378800  0.289400  1
  H  H304  1  0.195000  0.621200  0.710600  1
  H  H305  1  0.865500  0.390900  0.232800  1
  H  H306  1  0.134500  0.609100  0.767200  1
  H  H307  1  0.810000  0.260100  0.347200  1
  H  H308  1  0.190000  0.739900  0.652800  1
  H  H309  1  0.757100  0.211600  0.403100  1
  H  H310  1  0.242900  0.788400  0.596900  1
  H  H311  1  0.688800  0.217600  0.456700  1
  H  H312  1  0.311200  0.782400  0.543300  1
  H  H313  1  0.657500  0.289200  0.484700  1
  H  H314  1  0.342500  0.710800  0.515300  1
  H  H315  1  0.694500  0.354800  0.459000  1
  H  H316  1  0.305500  0.645200  0.541000  1
  H  H317  1  0.092900  0.420000  0.018600  1
  H  H318  1  0.907100  0.580000  0.981400  1
  H  H319  1  0.152900  0.434300  0.962100  1
  H  H320  1  0.847100  0.565700  0.037900  1
  H  H321  1  0.263300  0.402300  0.020800  1
  H  H322  1  0.736700  0.597700  0.979200  1
  H  H323  1  0.203400  0.387900  0.077300  1
  H  H324  1  0.796600  0.612100  0.922700  1
  H  H325  1  0.240800  0.497900  0.953600  1
  H  H326  1  0.759200  0.502100  0.046400  1
  H  H327  1  0.301600  0.549300  0.898300  1
  H  H328  1  0.698400  0.450700  0.101700  1
  H  H329  1  0.367800  0.544500  0.843500  1
  H  H330  1  0.632200  0.455500  0.156500  1
  H  H331  1  0.403400  0.470200  0.818100  1
  H  H332  1  0.596600  0.529800  0.181900  1
  H  H333  1  0.372800  0.400600  0.847600  1
  H  H334  1  0.627200  0.599400  0.152400  1
  H  H335  1  0.355200  0.167300  0.990000  1
  H  H336  1  0.644800  0.832700  0.010000  1
  H  H337  1  0.326000  0.235900  0.940800  1
  H  H338  1  0.674000  0.764100  0.059200  1
  H  H339  1  0.216300  0.318000  0.016800  1
  H  H340  1  0.783700  0.682000  0.983200  1
  H  H341  1  0.245500  0.249400  0.066000  1
  H  H342  1  0.754500  0.750600  0.934000  1
  H  H343  1  0.194300  0.310300  0.943700  1
  H  H344  1  0.805700  0.689700  0.056300  1
  H  H345  1  0.134700  0.366400  0.898100  1
  H  H346  1  0.865300  0.633600  0.101900  1
  H  H347  1  0.113900  0.444000  0.853500  1
  H  H348  1  0.886100  0.556000  0.146500  1
  H  H349  1  0.167200  0.495300  0.834500  1
  H  H350  1  0.832800  0.504700  0.165500  1
  H  H351  1  0.241200  0.469000  0.860200  1
  H  H352  1  0.758800  0.531000  0.139800  1
  H  H353  1  0.384500  0.435400  0.998900  1
  H  H354  1  0.615500  0.564600  0.001100  1
  H  H355  1  0.382400  0.413400  0.945400  1
  H  H356  1  0.617600  0.586600  0.054600  1
  H  H357  1  0.346800  0.286800  0.011000  1
  H  H358  1  0.653200  0.713200  0.989000  1
  H  H359  1  0.349000  0.308700  0.064500  1
  H  H360  1  0.651000  0.691300  0.935500  1
  H  H361  1  0.422900  0.286400  0.937900  1
  H  H362  1  0.577100  0.713600  0.062100  1
  H  H363  1  0.450300  0.238600  0.884600  1
  H  H364  1  0.549700  0.761400  0.115400  1
  H  H365  1  0.429700  0.223500  0.835300  1
  H  H366  1  0.570300  0.776500  0.164700  1
  H  H367  1  0.350500  0.276100  0.816000  1
  H  H368  1  0.649500  0.723900  0.184000  1
  H  H369  1  0.292000  0.343900  0.846000  1
  H  H370  1  0.708000  0.656100  0.154000  1
  H  H371  1  0.389900  0.112300  0.479300  1
  H  H372  1  0.610100  0.887700  0.520700  1
  H  H373  1  0.329500  0.129300  0.535400  1
  H  H374  1  0.670500  0.870700  0.464600  1
  H  H375  1  0.220500  0.233600  0.475700  1
  H  H376  1  0.779500  0.766400  0.524300  1
  H  H377  1  0.280900  0.216700  0.419600  1
  H  H378  1  0.719100  0.783300  0.580400  1
  H  H379  1  0.240700  0.257900  0.546100  1
  H  H380  1  0.759300  0.742100  0.453900  1
  H  H381  1  0.185200  0.306000  0.594600  1
  H  H382  1  0.814800  0.694000  0.405400  1
  H  H383  1  0.119800  0.313200  0.649800  1
  H  H384  1  0.880200  0.686800  0.350200  1
  H  H385  1  0.083900  0.247200  0.679100  1
  H  H386  1  0.916100  0.752800  0.320900  1
  H  H387  1  0.113400  0.173900  0.653400  1
  H  H388  1  0.886600  0.826100  0.346600  1
  H  H389  1  0.097700  0.344300  0.500200  1
  H  H390  1  0.902300  0.655700  0.499800  1
  H  H391  1  0.103700  0.276600  0.553400  1
  H  H392  1  0.896300  0.723400  0.446600  1
  H  H393  1  0.134400  0.175600  0.488500  1
  H  H394  1  0.865600  0.824400  0.511500  1
  H  H395  1  0.128500  0.243300  0.435300  1
  H  H396  1  0.871500  0.756700  0.564700  1
  H  H397  1  0.055100  0.180500  0.572500  1
  H  H398  1  0.944900  0.819500  0.427500  1
  H  H399  1  0.033500  0.112000  0.619300  1
  H  H400  1  0.966500  0.888000  0.380700  1
  H  H401  1  0.051300  0.042000  0.670300  1
  H  H402  1  0.948700  0.958000  0.329700  1
  H  H403  1  0.133200  0.009800  0.686900  1
  H  H404  1  0.866800  0.990200  0.313100  1
  H  H405  1  0.197400  0.047500  0.652600  1
  H  H406  1  0.802600  0.952500  0.347400  1
  H  H407  1  0.235900  0.102000  0.429700  1
  H  H408  1  0.764100  0.898000  0.570300  1
  H  H409  1  0.266900  0.106100  0.478500  1
  H  H410  1  0.733100  0.893900  0.521500  1
  H  H411  1  0.156500  0.051300  0.555300  1
  H  H412  1  0.843500  0.948700  0.444700  1
  H  H413  1  0.125500  0.047100  0.506600  1
  H  H414  1  0.874500  0.952900  0.493400  1
  H  H415  1  0.288700  0.022000  0.552400  1
  H  H416  1  0.711300  0.978000  0.447600  1
  H  H417  1  0.357900  0.002100  0.589200  1
  H  H418  1  0.642100  0.997900  0.410800  1
  H  H419  1  0.381200  0.025200  0.633600  1
  H  H420  1  0.618800  0.974800  0.366400  1
  H  H421  1  0.323800  0.096900  0.659700  1
  H  H422  1  0.676200  0.903100  0.340300  1
  H  H423  1  0.243100  0.145500  0.641600  1
  H  H424  1  0.756900  0.854500  0.358400  1
  H  H425  1  0.248500  0.003200  0.109400  1
  H  H426  1  0.751500  0.996800  0.890600  1
  H  H427  1  0.172800  0.980900  0.126000  1
  H  H428  1  0.827200  0.019100  0.874000  1
  H  H429  1  0.127400  0.034200  0.222100  1
  H  H430  1  0.872600  0.965800  0.777900  1
  H  H431  1  0.203100  0.056500  0.205500  1
  H  H432  1  0.796900  0.943500  0.794500  1
  H  H433  1  0.116800  0.935400  0.224700  1
  H  H434  1  0.883200  0.064600  0.775300  1
  H  H435  1  0.044800  0.886600  0.265500  1
  H  H436  1  0.955200  0.113400  0.734500  1
  H  H437  1  0.960600  0.883500  0.274600  1
  H  H438  1  0.039400  0.116500  0.725400  1
  H  H439  1  0.903100  0.944300  0.236100  1
  H  H440  1  0.096900  0.055700  0.763900  1
  H  H441  1  0.929700  0.008100  0.188600  1
  H  H442  1  0.070300  0.991900  0.811400  1
  H  H443  1  0.032300  0.023200  0.312200  1
  H  H444  1  0.967700  0.976800  0.687800  1
  H  H445  1  0.001000  0.020700  0.263100  1
  H  H446  1  0.999000  0.979300  0.736900  1
  H  H447  1  0.033900  0.150000  0.200800  1
  H  H448  1  0.966100  0.850000  0.799200  1
  H  H449  1  0.065200  0.152500  0.250000  1
  H  H450  1  0.934800  0.847500  0.750000  1
  H  H451  1  0.933900  0.148200  0.203000  1
  H  H452  1  0.066100  0.851800  0.797000  1
  H  H453  1  0.863200  0.180700  0.161900  1
  H  H454  1  0.136800  0.819300  0.838100  1
  H  H455  1  0.842400  0.173700  0.109400  1
  H  H456  1  0.157600  0.826300  0.890600  1
  H  H457  1  0.898000  0.107000  0.077400  1
  H  H458  1  0.102000  0.893000  0.922600  1
  H  H459  1  0.974300  0.047300  0.098000  1
  H  H460  1  0.025700  0.952700  0.902000  1
  H  H461  1  0.989300  0.256600  0.113900  1
  H  H462  1  0.010700  0.743400  0.886100  1
  H  H463  1  0.993600  0.177200  0.106700  1
  H  H464  1  0.006400  0.822800  0.893300  1
  H  H465  1  0.132000  0.106600  0.141500  1
  H  H466  1  0.868000  0.893400  0.858500  1
  H  H467  1  0.127700  0.186100  0.148600  1
  H  H468  1  0.872300  0.813900  0.851400  1
  H  H469  1  0.087100  0.098100  0.066700  1
  H  H470  1  0.912900  0.901900  0.933300  1
  H  H471  1  0.123200  0.019100  0.036000  1
  H  H472  1  0.876800  0.980900  0.964000  1
  H  H473  1  0.122100  0.937300  0.038700  1
  H  H474  1  0.877900  0.062700  0.961300  1
  H  H475  1  0.084000  0.892000  0.094800  1
  H  H476  1  0.916000  0.108000  0.905200  1
  H  H477  1  0.046900  0.928300  0.148300  1
  H  H478  1  0.953100  0.071700  0.851700  1
  H  H479  1  0.265600  0.168300  0.198100  1
  H  H480  1  0.734400  0.831700  0.801900  1
  H  H481  1  0.316300  0.164300  0.203400  1
  H  H482  1  0.683700  0.835700  0.796600  1
  H  H483  1  0.292400  0.204400  0.173100  1
  H  H484  1  0.707600  0.795600  0.826900  1
  H  H485  1  0.534900  0.073400  0.418500  1
  H  H486  1  0.465100  0.926600  0.581500  1
  H  H487  1  0.572900  0.087700  0.384100  1
  H  H488  1  0.427100  0.912300  0.615900  1
  H  H489  1  0.566000  0.036700  0.392800  1
  H  H490  1  0.434000  0.963300  0.607200  1
  H  H491  1  0.334100  0.226400  0.285400  1
  H  H492  1  0.665900  0.773600  0.714600  1
  H  H493  1  0.346500  0.177700  0.274100  1
  H  H494  1  0.653500  0.822300  0.725900  1
  H  H495  1  0.308700  0.188600  0.309400  1
  H  H496  1  0.691300  0.811400  0.690600  1
  H  H497  1  0.450600  0.500000  0.045600  1
  H  H498  1  0.549400  0.500000  0.954400  1
  H  H499  1  0.427100  0.533700  0.073100  1
  H  H500  1  0.572900  0.466300  0.926900  1
  H  H501  1  0.476400  0.489800  0.076400  1
  H  H502  1  0.523600  0.510200  0.923600  1
  H  H503  1  0.006800  0.517400  0.436900  1
  H  H504  1  0.993200  0.482600  0.563100  1
  H  H505  1  0.051600  0.493800  0.455700  1
  H  H506  1  0.948400  0.506200  0.544300  1
  H  H507  1  0.049600  0.538800  0.424200  1
  H  H508  1  0.950400  0.461200  0.575800  1
  H  H509  1  0.133400  0.295200  0.226400  1
  H  H510  1  0.866600  0.704800  0.773600  1
  H  H511  1  0.169500  0.281500  0.191300  1
  H  H512  1  0.830500  0.718500  0.808700  1
  H  H513  1  0.160100  0.330900  0.200400  1
  H  H514  1  0.839900  0.669100  0.799600  1
  H  H515  1  0.410100  0.976600  0.053900  1
  H  H516  1  0.589900  0.023400  0.946100  1
  H  H517  1  0.441200  0.009900  0.031100  1
  H  H518  1  0.558800  0.990100  0.968900  1
  H  H519  1  0.461100  0.967400  0.061800  1
  H  H520  1  0.538900  0.032600  0.938200  1
  H  H521  1  0.298700  0.309000  0.175400  1
  H  H522  1  0.701300  0.691000  0.824600  1
  H  H523  1  0.321200  0.301400  0.207500  1
  H  H524  1  0.678800  0.698600  0.792500  1
  H  H525  1  0.270900  0.343200  0.202600  1
  H  H526  1  0.729100  0.656800  0.797400  1
  H  H527  1  0.911200  0.464200  0.096800  1
  H  H528  1  0.088800  0.535800  0.903200  1
  H  H529  1  0.939800  0.423900  0.074500  1
  H  H530  1  0.060200  0.576100  0.925500  1
  H  H531  1  0.902300  0.414300  0.109900  1
  H  H532  1  0.097700  0.585700  0.890100  1
  H  H533  1  0.033400  0.975500  0.432400  1
  H  H534  1  0.966600  0.024500  0.567600  1
  H  H535  1  0.076700  0.955500  0.452300  1
  H  H536  1  0.923300  0.044500  0.547700  1
  H  H537  1  0.029100  0.998700  0.463000  1
  H  H538  1  0.970900  0.001300  0.537000  1
  H  H539  1  0.214700  0.325500  0.300200  1
  H  H540  1  0.785300  0.674500  0.699800  1
  H  H541  1  0.170800  0.305300  0.312700  1
  H  H542  1  0.829200  0.694700  0.687300  1
  H  H543  1  0.170600  0.349500  0.280600  1
  H  H544  1  0.829400  0.650500  0.719400  1
  C  C545  1  0.431300  0.041100  0.354000  1
  C  C546  1  0.568700  0.958900  0.646000  1
  C  C547  1  0.426000  0.987000  0.361700  1
  C  C548  1  0.574000  0.013000  0.638300  1
  C  C549  1  0.468600  0.942300  0.369000  1
  C  C550  1  0.531400  0.057700  0.631000  1
  C  C551  1  0.465300  0.894000  0.373100  1
  C  C552  1  0.534700  0.106000  0.626900  1
  C  C553  1  0.419400  0.890500  0.370000  1
  C  C554  1  0.580600  0.109500  0.630000  1
  C  C555  1  0.376800  0.935300  0.362700  1
  C  C556  1  0.623200  0.064700  0.637300  1
  C  C557  1  0.380100  0.983600  0.358600  1
  C  C558  1  0.619900  0.016400  0.641400  1
  C  C559  1  0.388500  0.827300  0.399200  1
  C  C560  1  0.611500  0.172700  0.600800  1
  C  C561  1  0.385900  0.775400  0.399500  1
  C  C562  1  0.614100  0.224600  0.600500  1
  C  C563  1  0.360500  0.747100  0.430300  1
  C  C564  1  0.639500  0.252900  0.569700  1
  C  C565  1  0.363400  0.698300  0.429200  1
  C  C566  1  0.636600  0.301700  0.570800  1
  C  C567  1  0.391600  0.677700  0.397400  1
  C  C568  1  0.608400  0.322300  0.602600  1
  C  C569  1  0.417100  0.706000  0.366600  1
  C  C570  1  0.582900  0.294000  0.633400  1
  C  C571  1  0.404600  0.006800  0.179500  1
  C  C572  1  0.595400  0.993200  0.820500  1
  C  C573  1  0.429200  0.968100  0.208000  1
  C  C574  1  0.570800  0.031900  0.792000  1
  C  C575  1  0.449700  0.916500  0.204900  1
  C  C576  1  0.550300  0.083500  0.795100  1
  C  C577  1  0.469100  0.877700  0.234400  1
  C  C578  1  0.530900  0.122300  0.765600  1
  C  C579  1  0.468000  0.890500  0.267000  1
  C  C580  1  0.532000  0.109500  0.733000  1
  C  C581  1  0.447500  0.942100  0.270100  1
  C  C582  1  0.552500  0.057900  0.729900  1
  C  C583  1  0.428100  0.980900  0.240600  1
  C  C584  1  0.571900  0.019100  0.759400  1
  C  C585  1  0.533500  0.838300  0.300900  1
  C  C586  1  0.466500  0.161700  0.699100  1
  C  C587  1  0.548800  0.795400  0.328400  1
  C  C588  1  0.451200  0.204600  0.671600  1
  C  C589  1  0.598400  0.779200  0.336200  1
  C  C590  1  0.401600  0.220800  0.663800  1
  C  C591  1  0.613100  0.737100  0.365300  1
  C  C592  1  0.386900  0.262900  0.634700  1
  C  C593  1  0.578300  0.711100  0.386600  1
  C  C594  1  0.421700  0.288900  0.613400  1
  C  C595  1  0.528700  0.727200  0.378700  1
  C  C596  1  0.471300  0.272800  0.621300  1
  C  C597  1  0.204500  0.996500  0.353200  1
  C  C598  1  0.795500  0.003500  0.646800  1
  C  C599  1  0.247800  0.954000  0.340200  1
  C  C600  1  0.752200  0.046000  0.659800  1
  C  C601  1  0.255800  0.904100  0.362100  1
  C  C602  1  0.744200  0.095900  0.637900  1
  C  C603  1  0.300700  0.863500  0.351500  1
  C  C604  1  0.699300  0.136500  0.648500  1
  C  C605  1  0.337600  0.872600  0.319000  1
  C  C606  1  0.662400  0.127400  0.681000  1
  C  C607  1  0.329700  0.922500  0.297100  1
  C  C608  1  0.670300  0.077500  0.702900  1
  C  C609  1  0.284800  0.963200  0.307700  1
  C  C610  1  0.715200  0.036800  0.692300  1
  C  C611  1  0.392100  0.813300  0.278800  1
  C  C612  1  0.607900  0.186700  0.721200  1
  C  C613  1  0.435700  0.773600  0.269300  1
  C  C614  1  0.564300  0.226400  0.730700  1
  C  C615  1  0.449700  0.748400  0.239900  1
  C  C616  1  0.550300  0.251600  0.760100  1
  C  C617  1  0.499100  0.710800  0.233100  1
  C  C618  1  0.500900  0.289200  0.766900  1
  C  C619  1  0.534500  0.698400  0.255700  1
  C  C620  1  0.465500  0.301600  0.744300  1
  C  C621  1  0.520500  0.723600  0.285000  1
  C  C622  1  0.479500  0.276400  0.715000  1
  C  C623  1  0.517600  0.105500  0.278900  1
  C  C624  1  0.482400  0.894500  0.721100  1
  C  C625  1  0.553300  0.093500  0.244600  1
  C  C626  1  0.446700  0.906500  0.755400  1
  C  C627  1  0.534000  0.101800  0.213100  1
  C  C628  1  0.466000  0.898200  0.786900  1
  C  C629  1  0.568600  0.093400  0.179000  1
  C  C630  1  0.431400  0.906600  0.821000  1
  C  C631  1  0.622600  0.076700  0.176400  1
  C  C632  1  0.377400  0.923300  0.823600  1
  C  C633  1  0.642000  0.068400  0.207900  1
  C  C634  1  0.358000  0.931600  0.792100  1
  C  C635  1  0.607400  0.076800  0.242000  1
  C  C636  1  0.392600  0.923200  0.758000  1
  C  C637  1  0.675900  0.024900  0.135400  1
  C  C638  1  0.324100  0.975100  0.864600  1
  C  C639  1  0.712000  0.021100  0.099900  1
  C  C640  1  0.288000  0.978900  0.900100  1
  C  C641  1  0.730700  0.977300  0.084600  1
  C  C642  1  0.269300  0.022700  0.915400  1
  C  C643  1  0.764000  0.976500  0.049300  1
  C  C644  1  0.236000  0.023500  0.950700  1
  C  C645  1  0.778500  0.019500  0.029100  1
  C  C646  1  0.221500  0.980500  0.970900  1
  C  C647  1  0.759800  0.063300  0.044300  1
  C  C648  1  0.240200  0.936700  0.955700  1
  C  C649  1  0.468700  0.337700  0.135500  1
  C  C650  1  0.531300  0.662300  0.864500  1
  C  C651  1  0.519300  0.297900  0.136800  1
  C  C652  1  0.480700  0.702100  0.863200  1
  C  C653  1  0.562800  0.302900  0.108600  1
  C  C654  1  0.437200  0.697100  0.891400  1
  C  C655  1  0.611100  0.263000  0.108300  1
  C  C656  1  0.388900  0.737000  0.891700  1
  C  C657  1  0.616000  0.218000  0.136200  1
  C  C658  1  0.384000  0.782000  0.863800  1
  C  C659  1  0.572500  0.213000  0.164400  1
  C  C660  1  0.427500  0.787000  0.835600  1
  C  C661  1  0.524200  0.253000  0.164700  1
  C  C662  1  0.475800  0.747000  0.835300  1
  C  C663  1  0.689600  0.167700  0.162500  1
  C  C664  1  0.310400  0.832300  0.837500  1
  C  C665  1  0.736200  0.125200  0.162000  1
  C  C666  1  0.263800  0.874800  0.838000  1
  C  C667  1  0.766900  0.110200  0.188400  1
  C  C668  1  0.233100  0.889800  0.811600  1
  C  C669  1  0.810500  0.064900  0.188900  1
  C  C670  1  0.189500  0.935100  0.811100  1
  C  C671  1  0.823400  0.034600  0.162900  1
  C  C672  1  0.176600  0.965400  0.837100  1
  C  C673  1  0.792800  0.049500  0.136400  1
  C  C674  1  0.207200  0.950500  0.863600  1
  C  C675  1  0.449600  0.111300  0.101700  1
  C  C676  1  0.550400  0.888700  0.898300  1
  C  C677  1  0.499400  0.124200  0.092900  1
  C  C678  1  0.500600  0.875800  0.907100  1
  C  C679  1  0.547400  0.090500  0.077600  1
  C  C680  1  0.452600  0.909500  0.922400  1
  C  C681  1  0.593400  0.100900  0.071000  1
  C  C682  1  0.406600  0.899100  0.929000  1
  C  C683  1  0.591500  0.145000  0.079800  1
  C  C684  1  0.408500  0.855000  0.920200  1
  C  C685  1  0.543600  0.178800  0.095100  1
  C  C686  1  0.456400  0.821200  0.904900  1
  C  C687  1  0.497500  0.168400  0.101700  1
  C  C688  1  0.502500  0.831600  0.898300  1
  C  C689  1  0.646800  0.187000  0.047200  1
  C  C690  1  0.353200  0.813000  0.952800  1
  C  C691  1  0.695000  0.203300  0.038300  1
  C  C692  1  0.305000  0.796700  0.961700  1
  C  C693  1  0.712900  0.239300  0.009400  1
  C  C694  1  0.287100  0.760700  0.990600  1
  C  C695  1  0.762000  0.241900  0.006100  1
  C  C696  1  0.238000  0.758100  0.993900  1
  C  C697  1  0.793100  0.208500  0.031700  1
  C  C698  1  0.206900  0.791500  0.968300  1
  C  C699  1  0.775100  0.172500  0.060600  1
  C  C700  1  0.224900  0.827500  0.939400  1
  C  C701  1  0.202500  0.420400  0.373800  1
  C  C702  1  0.797500  0.579600  0.626200  1
  C  C703  1  0.254300  0.416100  0.379900  1
  C  C704  1  0.745700  0.583900  0.620100  1
  C  C705  1  0.256400  0.453800  0.394500  1
  C  C706  1  0.743600  0.546200  0.605500  1
  C  C707  1  0.304500  0.452500  0.397300  1
  C  C708  1  0.695500  0.547500  0.602700  1
  C  C709  1  0.350600  0.413700  0.385500  1
  C  C710  1  0.649400  0.586300  0.614500  1
  C  C711  1  0.348500  0.376000  0.370900  1
  C  C712  1  0.651500  0.624000  0.629100  1
  C  C713  1  0.300400  0.377300  0.368200  1
  C  C714  1  0.699600  0.622700  0.631800  1
  C  C715  1  0.422200  0.381900  0.412600  1
  C  C716  1  0.577800  0.618100  0.587400  1
  C  C717  1  0.473300  0.385200  0.410300  1
  C  C718  1  0.526700  0.614800  0.589700  1
  C  C719  1  0.504000  0.353500  0.436500  1
  C  C720  1  0.496000  0.646500  0.563500  1
  C  C721  1  0.548100  0.362800  0.437100  1
  C  C722  1  0.451900  0.637200  0.562900  1
  C  C723  1  0.561500  0.403800  0.411400  1
  C  C724  1  0.438500  0.596200  0.588600  1
  C  C725  1  0.530900  0.435600  0.385100  1
  C  C726  1  0.469100  0.564400  0.614900  1
  C  C727  1  0.459800  0.220100  0.329300  1
  C  C728  1  0.540200  0.779900  0.670700  1
  C  C729  1  0.468300  0.270700  0.324200  1
  C  C730  1  0.531700  0.729300  0.675800  1
  C  C731  1  0.446300  0.314200  0.298300  1
  C  C732  1  0.553700  0.685800  0.701700  1
  C  C733  1  0.452200  0.361000  0.295200  1
  C  C734  1  0.547800  0.639000  0.704800  1
  C  C735  1  0.480000  0.364200  0.318100  1
  C  C736  1  0.520000  0.635800  0.681900  1
  C  C737  1  0.502000  0.320600  0.344100  1
  C  C738  1  0.498000  0.679400  0.655900  1
  C  C739  1  0.496200  0.273900  0.347100  1
  C  C740  1  0.503800  0.726100  0.652900  1
  C  C741  1  0.518500  0.427200  0.293700  1
  C  C742  1  0.481500  0.572800  0.706300  1
  C  C743  1  0.518700  0.477400  0.291400  1
  C  C744  1  0.481300  0.522600  0.708600  1
  C  C745  1  0.553500  0.500500  0.265300  1
  C  C746  1  0.446500  0.499500  0.734700  1
  C  C747  1  0.549500  0.550000  0.265700  1
  C  C748  1  0.450500  0.450000  0.734300  1
  C  C749  1  0.510700  0.576400  0.292300  1
  C  C750  1  0.489300  0.423600  0.707700  1
  C  C751  1  0.475900  0.553300  0.318500  1
  C  C752  1  0.524100  0.446700  0.681500  1
  C  C753  1  0.372100  0.448100  0.192000  1
  C  C754  1  0.627900  0.551900  0.808000  1
  C  C755  1  0.371700  0.466700  0.225000  1
  C  C756  1  0.628300  0.533300  0.775000  1
  C  C757  1  0.337900  0.457000  0.259300  1
  C  C758  1  0.662100  0.543000  0.740700  1
  C  C759  1  0.341000  0.469400  0.290800  1
  C  C760  1  0.659000  0.530600  0.709200  1
  C  C761  1  0.377700  0.491400  0.288000  1
  C  C762  1  0.622300  0.508600  0.712000  1
  C  C763  1  0.411500  0.501100  0.253600  1
  C  C764  1  0.588500  0.498900  0.746400  1
  C  C765  1  0.408500  0.488700  0.222100  1
  C  C766  1  0.591500  0.511300  0.777900  1
  C  C767  1  0.344200  0.542900  0.332800  1
  C  C768  1  0.655800  0.457100  0.667200  1
  C  C769  1  0.350600  0.550100  0.365400  1
  C  C770  1  0.649400  0.449900  0.634600  1
  C  C771  1  0.312800  0.590000  0.382400  1
  C  C772  1  0.687200  0.410000  0.617600  1
  C  C773  1  0.316800  0.595500  0.416200  1
  C  C774  1  0.683200  0.404500  0.583800  1
  C  C775  1  0.358600  0.561000  0.433000  1
  C  C776  1  0.641400  0.439000  0.567000  1
  C  C777  1  0.396500  0.521100  0.415900  1
  C  C778  1  0.603500  0.478900  0.584100  1
  C  C779  1  0.022700  0.461700  0.168100  1
  C  C780  1  0.977300  0.538300  0.831900  1
  C  C781  1  0.012200  0.514400  0.174800  1
  C  C782  1  0.987800  0.485600  0.825200  1
  C  C783  1  0.986900  0.559300  0.151300  1
  C  C784  1  0.013100  0.440700  0.848700  1
  C  C785  1  0.982700  0.607400  0.154900  1
  C  C786  1  0.017300  0.392600  0.845100  1
  C  C787  1  0.003900  0.610600  0.182100  1
  C  C788  1  0.996100  0.389400  0.817900  1
  C  C789  1  0.029200  0.565600  0.205600  1
  C  C790  1  0.970800  0.434400  0.794400  1
  C  C791  1  0.033400  0.517600  0.202000  1
  C  C792  1  0.966600  0.482400  0.798000  1
  C  C793  1  0.962600  0.684000  0.208300  1
  C  C794  1  0.037400  0.316000  0.791700  1
  C  C795  1  0.962500  0.731200  0.208800  1
  C  C796  1  0.037500  0.268800  0.791200  1
  C  C797  1  0.925100  0.762700  0.233000  1
  C  C798  1  0.074900  0.237300  0.767000  1
  C  C799  1  0.926500  0.811300  0.230400  1
  C  C800  1  0.073500  0.188700  0.769600  1
  C  C801  1  0.965200  0.828400  0.203700  1
  C  C802  1  0.034800  0.171600  0.796300  1
  C  C803  1  0.002600  0.796900  0.179600  1
  C  C804  1  0.997400  0.203100  0.820400  1
  C  C805  1  0.105500  0.504400  0.308800  1
  C  C806  1  0.894500  0.495600  0.691200  1
  C  C807  1  0.108900  0.549100  0.275400  1
  C  C808  1  0.891100  0.450900  0.724600  1
  C  C809  1  0.071900  0.598300  0.277100  1
  C  C810  1  0.928100  0.401700  0.722900  1
  C  C811  1  0.070700  0.638100  0.245200  1
  C  C812  1  0.929300  0.361900  0.754800  1
  C  C813  1  0.106500  0.628600  0.211700  1
  C  C814  1  0.893500  0.371400  0.788300  1
  C  C815  1  0.143500  0.579400  0.210100  1
  C  C816  1  0.856500  0.420600  0.789900  1
  C  C817  1  0.144700  0.539600  0.241900  1
  C  C818  1  0.855300  0.460400  0.758100  1
  C  C819  1  0.138000  0.688500  0.166300  1
  C  C820  1  0.862000  0.311500  0.833700  1
  C  C821  1  0.129300  0.732300  0.132800  1
  C  C822  1  0.870700  0.267700  0.867200  1
  C  C823  1  0.168100  0.754500  0.115100  1
  C  C824  1  0.831900  0.245500  0.884900  1
  C  C825  1  0.164400  0.790400  0.081100  1
  C  C826  1  0.835600  0.209600  0.918900  1
  C  C827  1  0.121700  0.804000  0.064900  1
  C  C828  1  0.878300  0.196000  0.935100  1
  C  C829  1  0.082900  0.781800  0.082600  1
  C  C830  1  0.917100  0.218200  0.917400  1
  C  C831  1  0.278900  0.489500  0.124300  1
  C  C832  1  0.721100  0.510500  0.875700  1
  C  C833  1  0.226700  0.533200  0.119700  1
  C  C834  1  0.773300  0.466800  0.880300  1
  C  C835  1  0.180600  0.521500  0.132100  1
  C  C836  1  0.819400  0.478500  0.867900  1
  C  C837  1  0.132400  0.560700  0.128900  1
  C  C838  1  0.867600  0.439300  0.871100  1
  C  C839  1  0.130400  0.611700  0.113300  1
  C  C840  1  0.869600  0.388300  0.886700  1
  C  C841  1  0.176500  0.623400  0.100900  1
  C  C842  1  0.823500  0.376600  0.899100  1
  C  C843  1  0.224700  0.584200  0.104200  1
  C  C844  1  0.775300  0.415800  0.895800  1
  C  C845  1  0.057300  0.654300  0.090300  1
  C  C846  1  0.942700  0.345700  0.909700  1
  C  C847  1  0.007100  0.702700  0.089000  1
  C  C848  1  0.992900  0.297300  0.911000  1
  C  C849  1  0.973800  0.709700  0.066300  1
  C  C850  1  0.026200  0.290300  0.933700  1
  C  C851  1  0.924200  0.747800  0.069600  1
  C  C852  1  0.075800  0.252200  0.930400  1
  C  C853  1  0.907800  0.778800  0.095600  1
  C  C854  1  0.092200  0.221200  0.904400  1
  C  C855  1  0.941100  0.771800  0.118400  1
  C  C856  1  0.058900  0.228200  0.881600  1
  C  C857  1  0.016400  0.426400  0.361600  1
  C  C858  1  0.983600  0.573600  0.638400  1
  C  C859  1  0.963600  0.428200  0.358800  1
  C  C860  1  0.036400  0.571800  0.641200  1
  C  C861  1  0.960900  0.406100  0.332100  1
  C  C862  1  0.039100  0.593900  0.667900  1
  C  C863  1  0.912800  0.404900  0.331100  1
  C  C864  1  0.087200  0.595100  0.668900  1
  C  C865  1  0.867600  0.425900  0.356700  1
  C  C866  1  0.132400  0.574100  0.643300  1
  C  C867  1  0.870400  0.448000  0.383400  1
  C  C868  1  0.129600  0.552000  0.616600  1
  C  C869  1  0.918400  0.449100  0.384400  1
  C  C870  1  0.081600  0.550900  0.615600  1
  C  C871  1  0.790300  0.460800  0.333400  1
  C  C872  1  0.209700  0.539200  0.666600  1
  C  C873  1  0.743800  0.455600  0.328500  1
  C  C874  1  0.256200  0.544400  0.671500  1
  C  C875  1  0.711300  0.486000  0.303100  1
  C  C876  1  0.288700  0.514000  0.696900  1
  C  C877  1  0.669200  0.473200  0.302900  1
  C  C878  1  0.330800  0.526800  0.697100  1
  C  C879  1  0.659600  0.429900  0.328000  1
  C  C880  1  0.340400  0.570100  0.672000  1
  C  C881  1  0.692000  0.399600  0.353400  1
  C  C882  1  0.308000  0.600400  0.646600  1
  C  C883  1  0.029300  0.159300  0.393800  1
  C  C884  1  0.970700  0.840700  0.606200  1
  C  C885  1  0.979400  0.204800  0.402700  1
  C  C886  1  0.020600  0.795200  0.597300  1
  C  C887  1  0.981800  0.254300  0.394900  1
  C  C888  1  0.018200  0.745700  0.605100  1
  C  C889  1  0.936000  0.296100  0.401700  1
  C  C890  1  0.064000  0.703900  0.598300  1
  C  C891  1  0.887800  0.288500  0.416300  1
  C  C892  1  0.112200  0.711500  0.583700  1
  C  C893  1  0.885400  0.239000  0.424100  1
  C  C894  1  0.114600  0.761000  0.575900  1
  C  C895  1  0.931200  0.197200  0.417300  1
  C  C896  1  0.068800  0.802800  0.582700  1
  C  C897  1  0.831500  0.352400  0.448200  1
  C  C898  1  0.168500  0.647600  0.551800  1
  C  C899  1  0.783900  0.396400  0.450500  1
  C  C900  1  0.216100  0.603600  0.549500  1
  C  C901  1  0.770100  0.423000  0.479000  1
  C  C902  1  0.229900  0.577000  0.521000  1
  C  C903  1  0.725900  0.467700  0.480500  1
  C  C904  1  0.274100  0.532300  0.519500  1
  C  C905  1  0.695400  0.485600  0.453500  1
  C  C906  1  0.304600  0.514400  0.546500  1
  C  C907  1  0.709200  0.458900  0.425100  1
  C  C908  1  0.290800  0.541100  0.574900  1
  C  C909  1  0.969800  0.350700  0.217400  1
  C  C910  1  0.030200  0.649300  0.782600  1
  C  C911  1  0.930400  0.336700  0.251600  1
  C  C912  1  0.069600  0.663300  0.748400  1
  C  C913  1  0.947700  0.300200  0.282800  1
  C  C914  1  0.052300  0.699800  0.717200  1
  C  C915  1  0.911700  0.293000  0.316400  1
  C  C916  1  0.088300  0.707000  0.683600  1
  C  C917  1  0.858500  0.322300  0.318900  1
  C  C918  1  0.141500  0.677700  0.681100  1
  C  C919  1  0.841300  0.358800  0.287700  1
  C  C920  1  0.158700  0.641200  0.712300  1
  C  C921  1  0.877300  0.365900  0.254100  1
  C  C922  1  0.122700  0.634100  0.745900  1
  C  C923  1  0.799800  0.283600  0.363200  1
  C  C924  1  0.200200  0.716400  0.636800  1
  C  C925  1  0.766300  0.279600  0.399200  1
  C  C926  1  0.233700  0.720400  0.600800  1
  C  C927  1  0.744400  0.240600  0.414500  1
  C  C928  1  0.255600  0.759400  0.585500  1
  C  C929  1  0.703800  0.244200  0.446300  1
  C  C930  1  0.296200  0.755800  0.553700  1
  C  C931  1  0.685200  0.286700  0.462900  1
  C  C932  1  0.314800  0.713300  0.537100  1
  C  C933  1  0.707200  0.325700  0.447700  1
  C  C934  1  0.292800  0.674300  0.552300  1
  C  C935  1  0.104900  0.389200  0.090100  1
  C  C936  1  0.895100  0.610800  0.909900  1
  C  C937  1  0.142500  0.402600  0.053200  1
  C  C938  1  0.857500  0.597400  0.946800  1
  C  C939  1  0.127500  0.416400  0.019000  1
  C  C940  1  0.872500  0.583600  0.981000  1
  C  C941  1  0.163100  0.424900  0.985500  1
  C  C942  1  0.836900  0.575100  0.014500  1
  C  C943  1  0.213700  0.419600  0.986100  1
  C  C944  1  0.786300  0.580400  0.013900  1
  C  C945  1  0.228700  0.405900  0.020300  1
  C  C946  1  0.771300  0.594100  0.979700  1
  C  C947  1  0.193200  0.397300  0.053900  1
  C  C948  1  0.806800  0.602700  0.946100  1
  C  C949  1  0.259800  0.471500  0.939500  1
  C  C950  1  0.740200  0.528500  0.060500  1
  C  C951  1  0.297800  0.477700  0.905500  1
  C  C952  1  0.702200  0.522300  0.094500  1
  C  C953  1  0.316000  0.519100  0.888000  1
  C  C954  1  0.684000  0.480900  0.112000  1
  C  C955  1  0.355400  0.516300  0.855400  1
  C  C956  1  0.644600  0.483700  0.144600  1
  C  C957  1  0.376500  0.472100  0.840400  1
  C  C958  1  0.623500  0.527900  0.159600  1
  C  C959  1  0.358300  0.430800  0.857900  1
  C  C960  1  0.641700  0.569200  0.142100  1
  C  C961  1  0.325000  0.162300  0.062800  1
  C  C962  1  0.675000  0.837700  0.937200  1
  C  C963  1  0.303100  0.201900  0.032600  1
  C  C964  1  0.696900  0.798100  0.967400  1
  C  C965  1  0.327000  0.197900  0.995400  1
  C  C966  1  0.673000  0.802100  0.004600  1
  C  C967  1  0.309700  0.238600  0.966200  1
  C  C968  1  0.690300  0.761400  0.033800  1
  C  C969  1  0.268400  0.283400  0.974200  1
  C  C970  1  0.731600  0.716600  0.025800  1
  C  C971  1  0.244500  0.287400  0.011300  1
  C  C972  1  0.755500  0.712600  0.988700  1
  C  C973  1  0.261800  0.246700  0.040600  1
  C  C974  1  0.738200  0.753300  0.959400  1
  C  C975  1  0.214000  0.333100  0.932800  1
  C  C976  1  0.786000  0.666900  0.067200  1
  C  C977  1  0.200300  0.371500  0.905700  1
  C  C978  1  0.799700  0.628500  0.094300  1
  C  C979  1  0.156300  0.387200  0.890400  1
  C  C980  1  0.843700  0.612800  0.109600  1
  C  C981  1  0.144000  0.433300  0.863900  1
  C  C982  1  0.856000  0.566700  0.136100  1
  C  C983  1  0.175600  0.463800  0.852600  1
  C  C984  1  0.824400  0.536200  0.147400  1
  C  C985  1  0.219600  0.448200  0.867900  1
  C  C986  1  0.780400  0.551800  0.132100  1
  C  C987  1  0.371500  0.386300  0.069600  1
  C  C988  1  0.628500  0.613700  0.930400  1
  C  C989  1  0.367000  0.374100  0.036700  1
  C  C990  1  0.633000  0.625900  0.963300  1
  C  C991  1  0.376900  0.405200  0.001300  1
  C  C992  1  0.623100  0.594800  0.998700  1
  C  C993  1  0.375600  0.392200  0.969600  1
  C  C994  1  0.624400  0.607800  0.030400  1
  C  C995  1  0.364400  0.348100  0.973200  1
  C  C996  1  0.635600  0.651900  0.026800  1
  C  C997  1  0.354500  0.317000  0.008500  1
  C  C998  1  0.645500  0.683000  0.991500  1
  C  C999  1  0.355800  0.330000  0.040300  1
  C  C1000  1  0.644200  0.670000  0.959700  1
  C  C1001  1  0.392800  0.305900  0.927100  1
  C  C1002  1  0.607200  0.694100  0.072900  1
  C  C1003  1  0.383400  0.300300  0.894600  1
  C  C1004  1  0.616600  0.699700  0.105400  1
  C  C1005  1  0.418200  0.260000  0.876800  1
  C  C1006  1  0.581800  0.740000  0.123200  1
  C  C1007  1  0.405900  0.251000  0.847500  1
  C  C1008  1  0.594100  0.749000  0.152500  1
  C  C1009  1  0.358900  0.282300  0.836000  1
  C  C1010  1  0.641100  0.717700  0.164000  1
  C  C1011  1  0.324100  0.322500  0.853900  1
  C  C1012  1  0.675900  0.677500  0.146100  1
  C  C1013  1  0.377200  0.148600  0.409800  1
  C  C1014  1  0.622800  0.851400  0.590200  1
  C  C1015  1  0.341100  0.162900  0.444200  1
  C  C1016  1  0.658900  0.837100  0.555800  1
  C  C1017  1  0.355500  0.136900  0.478600  1
  C  C1018  1  0.644500  0.863100  0.521400  1
  C  C1019  1  0.319600  0.147000  0.511900  1
  C  C1020  1  0.680400  0.853000  0.488100  1
  C  C1021  1  0.269300  0.183000  0.510900  1
  C  C1022  1  0.730700  0.817000  0.489100  1
  C  C1023  1  0.254900  0.209000  0.476500  1
  C  C1024  1  0.745100  0.791000  0.523500  1
  C  C1025  1  0.290800  0.198900  0.443100  1
  C  C1026  1  0.709200  0.801100  0.556900  1
  C  C1027  1  0.223600  0.233200  0.558800  1
  C  C1028  1  0.776400  0.766800  0.441200  1
  C  C1029  1  0.188200  0.235600  0.591200  1
  C  C1030  1  0.811800  0.764400  0.408800  1
  C  C1031  1  0.170700  0.279100  0.606500  1
  C  C1032  1  0.829300  0.720900  0.393500  1
  C  C1033  1  0.131800  0.283500  0.639300  1
  C  C1034  1  0.868200  0.716500  0.360700  1
  C  C1035  1  0.110500  0.244300  0.656700  1
  C  C1036  1  0.889500  0.755700  0.343300  1
  C  C1037  1  0.128000  0.200700  0.641400  1
  C  C1038  1  0.872000  0.799300  0.358600  1
  C  C1039  1  0.111700  0.343300  0.427600  1
  C  C1040  1  0.888300  0.656700  0.572400  1
  C  C1041  1  0.112500  0.300200  0.462800  1
  C  C1042  1  0.887500  0.699800  0.537200  1
  C  C1043  1  0.105200  0.310100  0.497900  1
  C  C1044  1  0.894800  0.689900  0.502100  1
  C  C1045  1  0.108700  0.269900  0.529500  1
  C  C1046  1  0.891300  0.730100  0.470500  1
  C  C1047  1  0.119600  0.219800  0.526000  1
  C  C1048  1  0.880400  0.780200  0.474000  1
  C  C1049  1  0.127000  0.209900  0.490900  1
  C  C1050  1  0.873000  0.790100  0.509100  1
  C  C1051  1  0.123400  0.250100  0.459300  1
  C  C1052  1  0.876600  0.749900  0.540700  1
  C  C1053  1  0.089500  0.163200  0.577600  1
  C  C1054  1  0.910500  0.836800  0.422400  1
  C  C1055  1  0.104900  0.121300  0.605700  1
  C  C1056  1  0.895100  0.878700  0.394300  1
  C  C1057  1  0.066800  0.098900  0.626100  1
  C  C1058  1  0.933200  0.901100  0.373900  1
  C  C1059  1  0.077300  0.057300  0.656300  1
  C  C1060  1  0.922700  0.942700  0.343700  1
  C  C1061  1  0.126000  0.038200  0.666200  1
  C  C1062  1  0.874000  0.961800  0.333800  1
  C  C1063  1  0.164100  0.060600  0.645800  1
  C  C1064  1  0.835900  0.939400  0.354200  1
  C  C1065  1  0.153500  0.078300  0.432500  1
  C  C1066  1  0.846500  0.921700  0.567500  1
  C  C1067  1  0.177800  0.074200  0.463600  1
  C  C1068  1  0.822200  0.925800  0.536400  1
  C  C1069  1  0.219800  0.091700  0.455200  1
  C  C1070  1  0.780200  0.908300  0.544800  1
  C  C1071  1  0.238200  0.094200  0.484200  1
  C  C1072  1  0.761800  0.905800  0.515800  1
  C  C1073  1  0.214600  0.079100  0.521500  1
  C  C1074  1  0.785400  0.920900  0.478500  1
  C  C1075  1  0.172600  0.061600  0.529800  1
  C  C1076  1  0.827400  0.938400  0.470200  1
  C  C1077  1  0.154200  0.059100  0.500900  1
  C  C1078  1  0.845800  0.940900  0.499100  1
  C  C1079  1  0.270500  0.052500  0.562300  1
  C  C1080  1  0.729500  0.947500  0.437700  1
  C  C1081  1  0.286700  0.060100  0.589100  1
  C  C1082  1  0.713300  0.939900  0.410900  1
  C  C1083  1  0.334600  0.031200  0.599900  1
  C  C1084  1  0.665400  0.968800  0.400100  1
  C  C1085  1  0.348500  0.044900  0.626200  1
  C  C1086  1  0.651500  0.955100  0.373800  1
  C  C1087  1  0.314400  0.087500  0.641800  1
  C  C1088  1  0.685600  0.912500  0.358200  1
  C  C1089  1  0.266400  0.116400  0.631000  1
  C  C1090  1  0.733600  0.883600  0.369000  1
  C  C1091  1  0.276900  0.054700  0.142200  1
  C  C1092  1  0.723100  0.945300  0.857800  1
  C  C1093  1  0.233000  0.032000  0.155900  1
  C  C1094  1  0.767000  0.968000  0.844100  1
  C  C1095  1  0.224000  0.009500  0.132300  1
  C  C1096  1  0.776000  0.990500  0.867700  1
  C  C1097  1  0.179000  0.996200  0.142100  1
  C  C1098  1  0.821000  0.003800  0.857900  1
  C  C1099  1  0.143000  0.005400  0.175600  1
  C  C1100  1  0.857000  0.994600  0.824400  1
  C  C1101  1  0.152000  0.027900  0.199200  1
  C  C1102  1  0.848000  0.972100  0.800800  1
  C  C1103  1  0.197000  0.041200  0.189300  1
  C  C1104  1  0.803000  0.958800  0.810700  1
  C  C1105  1  0.088500  0.956700  0.212400  1
  C  C1106  1  0.911500  0.043300  0.787600  1
  C  C1107  1  0.037200  0.949100  0.221700  1
  C  C1108  1  0.962800  0.050900  0.778300  1
  C  C1109  1  0.021400  0.911200  0.249900  1
  C  C1110  1  0.978600  0.088800  0.750100  1
  C  C1111  1  0.971400  0.909400  0.255300  1
  C  C1112  1  0.028600  0.090600  0.744700  1
  C  C1113  1  0.937300  0.945500  0.232500  1
  C  C1114  1  0.062700  0.054500  0.767500  1
  C  C1115  1  0.953100  0.983400  0.204200  1
  C  C1116  1  0.046900  0.016600  0.795800  1
  C  C1117  1  0.080000  0.084700  0.314700  1
  C  C1118  1  0.920000  0.915300  0.685300  1
  C  C1119  1  0.051700  0.088100  0.285700  1
  C  C1120  1  0.948300  0.911900  0.714300  1
  C  C1121  1  0.032600  0.049000  0.289600  1
  C  C1122  1  0.967400  0.951000  0.710400  1
  C  C1123  1  0.014000  0.047500  0.260400  1
  C  C1124  1  0.986000  0.952500  0.739600  1
  C  C1125  1  0.014500  0.085100  0.227300  1
  C  C1126  1  0.985500  0.914900  0.772700  1
  C  C1127  1  0.033600  0.124300  0.223400  1
  C  C1128  1  0.966400  0.875700  0.776600  1
  C  C1129  1  0.052200  0.125800  0.252600  1
  C  C1130  1  0.947800  0.874200  0.747400  1
  C  C1131  1  0.951700  0.121200  0.189300  1
  C  C1132  1  0.048300  0.878800  0.810700  1
  C  C1133  1  0.931000  0.118200  0.161100  1
  C  C1134  1  0.069000  0.881800  0.838900  1
  C  C1135  1  0.885700  0.153600  0.148900  1
  C  C1136  1  0.114300  0.846400  0.851100  1
  C  C1137  1  0.873400  0.149400  0.117700  1
  C  C1138  1  0.126600  0.850600  0.882300  1
  C  C1139  1  0.906400  0.109800  0.098700  1
  C  C1140  1  0.093600  0.890200  0.901300  1
  C  C1141  1  0.951700  0.074400  0.111000  1
  C  C1142  1  0.048300  0.925600  0.889000  1
  C  C1143  1  0.051700  0.278500  0.141500  1
  C  C1144  1  0.948300  0.721500  0.858500  1
  C  C1145  1  0.058100  0.228800  0.131900  1
  C  C1146  1  0.941900  0.771200  0.868100  1
  C  C1147  1  0.018300  0.226200  0.119500  1
  C  C1148  1  0.981700  0.773800  0.880500  1
  C  C1149  1  0.020800  0.179000  0.115200  1
  C  C1150  1  0.979200  0.821000  0.884800  1
  C  C1151  1  0.063200  0.134500  0.123400  1
  C  C1152  1  0.936800  0.865500  0.876600  1
  C  C1153  1  0.103000  0.137100  0.135900  1
  C  C1154  1  0.897000  0.862900  0.864100  1
  C  C1155  1  0.100500  0.184300  0.140100  1
  C  C1156  1  0.899500  0.815700  0.859900  1
  C  C1157  1  0.081300  0.073400  0.089200  1
  C  C1158  1  0.918700  0.926600  0.910800  1
  C  C1159  1  0.085700  0.022200  0.090600  1
  C  C1160  1  0.914300  0.977800  0.909400  1
  C  C1161  1  0.107700  0.000600  0.058800  1
  C  C1162  1  0.892300  0.999400  0.941200  1
  C  C1163  1  0.107100  0.952100  0.060400  1
  C  C1164  1  0.892900  0.047900  0.939600  1
  C  C1165  1  0.084400  0.925100  0.093700  1
  C  C1166  1  0.915600  0.074900  0.906300  1
  C  C1167  1  0.062400  0.946700  0.125500  1
  C  C1168  1  0.937600  0.053300  0.874500  1
  C  C1169  1  0.199500  0.164000  0.014800  1
  C  C1170  1  0.800500  0.836000  0.985200  1
  S  S1171  1  0.162100  0.132100  0.004200  1
  S  S1172  1  0.837900  0.867900  0.995800  1
  N  N1173  1  0.179500  0.172900  0.312400  1
  N  N1174  1  0.820500  0.827100  0.687600  1
  N  N1175  1  0.414200  0.754800  0.367600  1
  N  N1176  1  0.585800  0.245200  0.632400  1
  N  N1177  1  0.514000  0.769400  0.349600  1
  N  N1178  1  0.486000  0.230600  0.650400  1
  N  N1179  1  0.471100  0.761200  0.291800  1
  N  N1180  1  0.528900  0.238800  0.708200  1
  N  N1181  1  0.726500  0.064000  0.079700  1
  N  N1182  1  0.273500  0.936000  0.920300  1
  N  N1183  1  0.749200  0.094800  0.136000  1
  N  N1184  1  0.250800  0.905200  0.864000  1
  N  N1185  1  0.726100  0.169900  0.063900  1
  N  N1186  1  0.273900  0.830100  0.936100  1
  N  N1187  1  0.486800  0.426300  0.384600  1
  N  N1188  1  0.513200  0.573700  0.615400  1
  N  N1189  1  0.479900  0.503800  0.318000  1
  N  N1190  1  0.520100  0.496200  0.682000  1
  N  N1191  1  0.392400  0.515600  0.382100  1
  N  N1192  1  0.607600  0.484400  0.617900  1
  N  N1193  1  0.001200  0.748400  0.182100  1
  N  N1194  1  0.998800  0.251600  0.817900  1
  N  N1195  1  0.086600  0.745900  0.116600  1
  N  N1196  1  0.913400  0.254100  0.883400  1
  N  N1197  1  0.990800  0.733700  0.115100  1
  N  N1198  1  0.009200  0.266300  0.884900  1
  N  N1199  1  0.734100  0.412400  0.353600  1
  N  N1200  1  0.265900  0.587600  0.646400  1
  N  N1201  1  0.753500  0.414300  0.423600  1
  N  N1202  1  0.246500  0.585700  0.576400  1
  N  N1203  1  0.747700  0.322100  0.415800  1
  N  N1204  1  0.252300  0.677900  0.584200  1
  N  N1205  1  0.319000  0.433600  0.890400  1
  N  N1206  1  0.681000  0.566400  0.109600  1
  N  N1207  1  0.231900  0.402000  0.894400  1
  N  N1208  1  0.768100  0.598000  0.105600  1
  N  N1209  1  0.336400  0.331500  0.883200  1
  N  N1210  1  0.663600  0.668500  0.116800  1
  N  N1211  1  0.166900  0.196400  0.608700  1
  N  N1212  1  0.833100  0.803600  0.391300  1
  N  N1213  1  0.153600  0.102100  0.615600  1
  N  N1214  1  0.846400  0.897900  0.384400  1
  N  N1215  1  0.252600  0.102700  0.604700  1
  N  N1216  1  0.747400  0.897300  0.395300  1
  N  N1217  1  0.003000  0.985200  0.198900  1
  N  N1218  1  0.997000  0.014800  0.801100  1
  N  N1219  1  0.964100  0.078600  0.142200  1
  N  N1220  1  0.035900  0.921400  0.857800  1
  N  N1221  1  0.063100  0.995300  0.123900  1
  N  N1222  1  0.936900  0.004700  0.876100  1
  N  N1223  1  0.419000  0.841600  0.367400  1
  N  N1224  1  0.581000  0.158400  0.632600  1
  N  N1225  1  0.486900  0.848200  0.294700  1
  N  N1226  1  0.513100  0.151800  0.705300  1
  N  N1227  1  0.389900  0.829300  0.307200  1
  N  N1228  1  0.610100  0.170700  0.692800  1
  N  N1229  1  0.659300  0.075900  0.137100  1
  N  N1230  1  0.340700  0.924100  0.862900  1
  N  N1231  1  0.664200  0.174600  0.138000  1
  N  N1232  1  0.335800  0.825400  0.862000  1
  N  N1233  1  0.642200  0.155900  0.076000  1
  N  N1234  1  0.357800  0.844100  0.924000  1
  N  N1235  1  0.400100  0.413300  0.388200  1
  N  N1236  1  0.599900  0.586700  0.611800  1
  N  N1237  1  0.478600  0.415200  0.318000  1
  N  N1238  1  0.521400  0.584800  0.682000  1
  N  N1239  1  0.381600  0.502300  0.322600  1
  N  N1240  1  0.618400  0.497700  0.677400  1
  N  N1241  1  0.001300  0.660600  0.182200  1
  N  N1242  1  0.998700  0.339400  0.817800  1
  N  N1243  1  0.100200  0.672100  0.176400  1
  N  N1244  1  0.899800  0.327900  0.823600  1
  N  N1245  1  0.079000  0.654300  0.114700  1
  N  N1246  1  0.921000  0.345700  0.885300  1
  N  N1247  1  0.841500  0.336200  0.417200  1
  N  N1248  1  0.158500  0.663800  0.582800  1
  N  N1249  1  0.815300  0.323500  0.354400  1
  N  N1250  1  0.184700  0.676500  0.645600  1
  N  N1251  1  0.818400  0.422600  0.352000  1
  N  N1252  1  0.181600  0.577400  0.648000  1
  N  N1253  1  0.254700  0.325200  0.945300  1
  N  N1254  1  0.745300  0.674800  0.054700  1
  N  N1255  1  0.353800  0.341400  0.938500  1
  N  N1256  1  0.646200  0.658600  0.061500  1
  N  N1257  1  0.252800  0.425500  0.950000  1
  N  N1258  1  0.747200  0.574500  0.050000  1
  N  N1259  1  0.130100  0.174200  0.559900  1
  N  N1260  1  0.869900  0.825800  0.440100  1
  N  N1261  1  0.232300  0.189000  0.546000  1
  N  N1262  1  0.767700  0.811000  0.454000  1
  N  N1263  1  0.229800  0.087600  0.550500  1
  N  N1264  1  0.770200  0.912400  0.449500  1
  N  N1265  1  0.089300  0.997100  0.184500  1
  N  N1266  1  0.910700  0.002900  0.815500  1
  N  N1267  1  0.996300  0.085300  0.195800  1
  N  N1268  1  0.003700  0.914700  0.804200  1
  N  N1269  1  0.068400  0.081900  0.122600  1
  N  N1270  1  0.931600  0.918100  0.877400  1
  N  N1271  1  0.297100  0.171700  0.186300  1
  N  N1272  1  0.702900  0.828300  0.813700  1
  N  N1273  1  0.549300  0.070700  0.394000  1
  N  N1274  1  0.450700  0.929300  0.606000  1
  N  N1275  1  0.338600  0.192400  0.293800  1
  N  N1276  1  0.661400  0.807600  0.706200  1
  N  N1277  1  0.445200  0.500900  0.069900  1
  N  N1278  1  0.554800  0.499100  0.930100  1
  N  N1279  1  0.041700  0.509600  0.433500  1
  N  N1280  1  0.958300  0.490400  0.566500  1
  N  N1281  1  0.145300  0.307700  0.202100  1
  N  N1282  1  0.854700  0.692300  0.797900  1
  N  N1283  1  0.432000  0.991800  0.054300  1
  N  N1284  1  0.568000  0.008200  0.945700  1
  N  N1285  1  0.302800  0.325100  0.190500  1
  N  N1286  1  0.697200  0.674900  0.809500  1
  N  N1287  1  0.926400  0.429900  0.097900  1
  N  N1288  1  0.073600  0.570100  0.902100  1
  N  N1289  1  0.051300  0.984100  0.443700  1
  N  N1290  1  0.948700  0.015900  0.556300  1
  N  N1291  1  0.179700  0.334100  0.303100  1
  N  N1292  1  0.820300  0.665900  0.696900  1
  O  O1293  1  0.119600  0.369800  0.119000  1
  O  O1294  1  0.880400  0.630200  0.881000  1
  O  O1295  1  0.200800  0.044000  0.339000  1
  O  O1296  1  0.799200  0.956000  0.661000  1
  O  O1297  1  0.453200  0.076100  0.087300  1
  O  O1298  1  0.546800  0.923900  0.912700  1
  O  O1299  1  0.410800  0.135600  0.123200  1
  O  O1300  1  0.589200  0.864400  0.876800  1
  O  O1301  1  0.411600  0.001000  0.144500  1
  O  O1302  1  0.588400  0.999000  0.855500  1
  O  O1303  1  0.373600  0.054700  0.179000  1
  O  O1304  1  0.626400  0.945300  0.821000  1
  O  O1305  1  0.314500  0.034600  0.118400  1
  O  O1306  1  0.685500  0.965400  0.881600  1
  O  O1307  1  0.279600  0.085500  0.158300  1
  O  O1308  1  0.720400  0.914500  0.841700  1
  O  O1309  1  0.352200  0.115500  0.058400  1
  O  O1310  1  0.647800  0.884500  0.941600  1
  O  O1311  1  0.310200  0.167800  0.097700  1
  O  O1312  1  0.689800  0.832200  0.902300  1
  O  O1313  1  0.401600  0.076300  0.339400  1
  O  O1314  1  0.598400  0.923700  0.660600  1
  O  O1315  1  0.467300  0.039700  0.368000  1
  O  O1316  1  0.532700  0.960300  0.632000  1
  O  O1317  1  0.531200  0.093800  0.309200  1
  O  O1318  1  0.468800  0.906200  0.690800  1
  O  O1319  1  0.464500  0.132200  0.278100  1
  O  O1320  1  0.535500  0.867800  0.721900  1
  O  O1321  1  0.426200  0.124300  0.409400  1
  O  O1322  1  0.573800  0.875700  0.590600  1
  O  O1323  1  0.364200  0.163000  0.378900  1
  O  O1324  1  0.635800  0.837000  0.621100  1
  O  O1325  1  0.425600  0.219500  0.316500  1
  O  O1326  1  0.574400  0.780500  0.683500  1
  O  O1327  1  0.489200  0.183700  0.348000  1
  O  O1328  1  0.510800  0.816300  0.652000  1
  O  O1329  1  0.282900  0.447100  0.143600  1
  O  O1330  1  0.717100  0.552900  0.856400  1
  O  O1331  1  0.321000  0.500400  0.108900  1
  O  O1332  1  0.679000  0.499600  0.891100  1
  O  O1333  1  0.353300  0.366000  0.104400  1
  O  O1334  1  0.646700  0.634000  0.895600  1
  O  O1335  1  0.394100  0.420600  0.064400  1
  O  O1336  1  0.605900  0.579400  0.935600  1
  O  O1337  1  0.351600  0.416700  0.196400  1
  O  O1338  1  0.648400  0.583300  0.803600  1
  O  O1339  1  0.397300  0.464700  0.159300  1
  O  O1340  1  0.602700  0.535300  0.840700  1
  O  O1341  1  0.424600  0.331300  0.155300  1
  O  O1342  1  0.575400  0.668700  0.844700  1
  O  O1343  1  0.466300  0.385500  0.114000  1
  O  O1344  1  0.533700  0.614500  0.886000  1
  O  O1345  1  0.018100  0.332900  0.217200  1
  O  O1346  1  0.981900  0.667100  0.782800  1
  O  O1347  1  0.951800  0.373600  0.188500  1
  O  O1348  1  0.048200  0.626400  0.811500  1
  O  O1349  1  0.082400  0.280700  0.156500  1
  O  O1350  1  0.917600  0.719300  0.843500  1
  O  O1351  1  0.015500  0.317300  0.126700  1
  O  O1352  1  0.984500  0.682700  0.873300  1
  O  O1353  1  0.052900  0.423500  0.180800  1
  O  O1354  1  0.947100  0.576500  0.819200  1
  O  O1355  1  0.991300  0.461600  0.148100  1
  O  O1356  1  0.008700  0.538400  0.851900  1
  O  O1357  1  0.054900  0.406200  0.087300  1
  O  O1358  1  0.945100  0.593800  0.912700  1
  O  O1359  1  0.031800  0.112000  0.408400  1
  O  O1360  1  0.968200  0.888000  0.591600  1
  O  O1361  1  0.070700  0.170300  0.369700  1
  O  O1362  1  0.929300  0.829700  0.630300  1
  O  O1363  1  0.065800  0.055500  0.349200  1
  O  O1364  1  0.934200  0.944500  0.650800  1
  O  O1365  1  0.105600  0.108400  0.313000  1
  O  O1366  1  0.894400  0.891600  0.687000  1
  O  O1367  1  0.126300  0.051400  0.437500  1
  O  O1368  1  0.873700  0.948600  0.562500  1
  O  O1369  1  0.169700  0.103300  0.397500  1
  O  O1370  1  0.830300  0.896700  0.602500  1
  O  O1371  1  0.162100  0.989700  0.378200  1
  O  O1372  1  0.837900  0.010300  0.621800  1
  O  O1373  1  0.161300  0.449200  0.391900  1
  O  O1374  1  0.838700  0.550800  0.608100  1
  O  O1375  1  0.202900  0.388700  0.356800  1
  O  O1376  1  0.797100  0.611300  0.643200  1
  O  O1377  1  0.088400  0.388800  0.432000  1
  O  O1378  1  0.911600  0.611200  0.568000  1
  O  O1379  1  0.127600  0.333900  0.394400  1
  O  O1380  1  0.872400  0.666100  0.605600  1
  O  O1381  1  0.131700  0.457900  0.302700  1
  O  O1382  1  0.868300  0.542100  0.697300  1
  O  O1383  1  0.088900  0.512700  0.341400  1
  O  O1384  1  0.911100  0.487300  0.658600  1
  O  O1385  1  0.057000  0.399100  0.342500  1
  O  O1386  1  0.943000  0.600900  0.657500  1
  O  O1387  1  0.016600  0.452400  0.382200  1
  O  O1388  1  0.983400  0.547600  0.617800  1
  O  O1389  1  0.108200  0.161600  0.018700  1
  O  O1390  1  0.891800  0.838400  0.981300  1
  O  O1391  1  0.181600  0.079500  0.024800  1
  O  O1392  1  0.818400  0.920500  0.975200  1
  O  O1393  1  0.177700  0.139400  0.963700  1
  O  O1394  1  0.822300  0.860600  0.036300  1
  F  F1395  1  0.251600  0.142000  0.003400  1
  F  F1396  1  0.748400  0.858000  0.996600  1
  F  F1397  1  0.186900  0.214300  0.998000  1
  F  F1398  1  0.813100  0.785700  0.002000  1
  F  F1399  1  0.190400  0.161600  0.051800  1
  F  F1400  1  0.809600  0.838400  0.948200  1
