# generated using pymatgen
data_Fe4Mo6H123C173S7N29O46F21
_symmetry_space_group_name_H-M   'P 1'
_cell_length_a   26.64000000
_cell_length_b   28.08100000
_cell_length_c   34.41700000
_cell_angle_alpha   90.00000000
_cell_angle_beta   99.69100000
_cell_angle_gamma   90.00000000
_symmetry_Int_Tables_number   1
_chemical_formula_structural   Fe4Mo6H123C173S7N29O46F21
_chemical_formula_sum   'Fe16 Mo24 H492 C692 S28 N116 O184 F84'
_cell_volume   25379.18913045
_cell_formula_units_Z   4
loop_
 _symmetry_equiv_pos_site_id
 _symmetry_equiv_pos_as_xyz
  1  'x, y, z'
loop_
 _atom_site_type_symbol
 _atom_site_label
 _atom_site_symmetry_multiplicity
 _atom_site_fract_x
 _atom_site_fract_y
 _atom_site_fract_z
 _atom_site_occupancy
  Fe  Fe1  1  0.321850  0.228380  0.120950  1.0
  Fe  Fe2  1  0.178150  0.228380  0.379050  1.0
  Fe  Fe3  1  0.678150  0.771620  0.879050  1.0
  Fe  Fe4  1  0.821850  0.771620  0.620950  1.0
  Fe  Fe5  1  0.695890  0.249870  0.910980  1.0
  Fe  Fe6  1  0.804110  0.249870  0.589020  1.0
  Fe  Fe7  1  0.304110  0.750130  0.089020  1.0
  Fe  Fe8  1  0.195890  0.750130  0.410980  1.0
  Fe  Fe9  1  0.553010  0.908770  0.346780  1.0
  Fe  Fe10  1  0.946990  0.908770  0.153220  1.0
  Fe  Fe11  1  0.446990  0.091230  0.653220  1.0
  Fe  Fe12  1  0.053010  0.091230  0.846780  1.0
  Fe  Fe13  1  0.570730  0.575760  0.362920  1.0
  Fe  Fe14  1  0.929270  0.575760  0.137080  1.0
  Fe  Fe15  1  0.429270  0.424240  0.637080  1.0
  Fe  Fe16  1  0.070730  0.424240  0.862920  1.0
  Mo  Mo17  1  0.616860  0.045740  0.110359  1.0
  Mo  Mo18  1  0.883140  0.045740  0.389641  1.0
  Mo  Mo19  1  0.383140  0.954260  0.889641  1.0
  Mo  Mo20  1  0.116860  0.954260  0.610359  1.0
  Mo  Mo21  1  0.653860  0.098450  0.146615  1.0
  Mo  Mo22  1  0.846140  0.098450  0.353385  1.0
  Mo  Mo23  1  0.346140  0.901550  0.853385  1.0
  Mo  Mo24  1  0.153860  0.901550  0.646615  1.0
  Mo  Mo25  1  0.606480  0.433580  0.119040  1.0
  Mo  Mo26  1  0.893520  0.433580  0.380960  1.0
  Mo  Mo27  1  0.393520  0.566420  0.880960  1.0
  Mo  Mo28  1  0.106480  0.566420  0.619040  1.0
  Mo  Mo29  1  0.645540  0.381340  0.154071  1.0
  Mo  Mo30  1  0.854460  0.381340  0.345929  1.0
  Mo  Mo31  1  0.354460  0.618660  0.845929  1.0
  Mo  Mo32  1  0.145540  0.618660  0.654071  1.0
  Mo  Mo33  1  0.590030  0.242870  0.338882  1.0
  Mo  Mo34  1  0.909970  0.242870  0.161118  1.0
  Mo  Mo35  1  0.409970  0.757130  0.661118  1.0
  Mo  Mo36  1  0.090030  0.757130  0.838882  1.0
  Mo  Mo37  1  0.531240  0.242190  0.371489  1.0
  Mo  Mo38  1  0.968760  0.242190  0.128511  1.0
  Mo  Mo39  1  0.468760  0.757810  0.628511  1.0
  Mo  Mo40  1  0.031240  0.757810  0.871489  1.0
  H  H41  1  0.657100  0.363700  0.293900  1
  H  H42  1  0.842900  0.363700  0.206100  1
  H  H43  1  0.342900  0.636300  0.706100  1
  H  H44  1  0.157100  0.636300  0.793900  1
  H  H45  1  0.685400  0.352600  0.257400  1
  H  H46  1  0.814600  0.352600  0.242600  1
  H  H47  1  0.314600  0.647400  0.742600  1
  H  H48  1  0.185400  0.647400  0.757400  1
  H  H49  1  0.717500  0.356400  0.301000  1
  H  H50  1  0.782500  0.356400  0.199000  1
  H  H51  1  0.282500  0.643600  0.699000  1
  H  H52  1  0.217500  0.643600  0.801000  1
  H  H53  1  0.720900  0.269500  0.143600  1
  H  H54  1  0.779100  0.269500  0.356400  1
  H  H55  1  0.279100  0.730500  0.856400  1
  H  H56  1  0.220900  0.730500  0.643600  1
  H  H57  1  0.722200  0.231600  0.109000  1
  H  H58  1  0.777800  0.231600  0.391000  1
  H  H59  1  0.277800  0.768400  0.891000  1
  H  H60  1  0.222200  0.768400  0.609000  1
  H  H61  1  0.772600  0.241800  0.140400  1
  H  H62  1  0.727400  0.241800  0.359600  1
  H  H63  1  0.227400  0.758200  0.859600  1
  H  H64  1  0.272600  0.758200  0.640400  1
  H  H65  1  0.216900  0.572500  0.986600  1
  H  H66  1  0.283100  0.572500  0.513400  1
  H  H67  1  0.783100  0.427500  0.013400  1
  H  H68  1  0.716900  0.427500  0.486600  1
  H  H69  1  0.156800  0.564400  0.975100  1
  H  H70  1  0.343200  0.564400  0.524900  1
  H  H71  1  0.843200  0.435600  0.024900  1
  H  H72  1  0.656800  0.435600  0.475100  1
  H  H73  1  0.191800  0.524400  0.999200  1
  H  H74  1  0.308200  0.524400  0.500800  1
  H  H75  1  0.808200  0.475600  0.000800  1
  H  H76  1  0.691800  0.475600  0.499200  1
  H  H77  1  0.982200  0.163200  0.998500  1
  H  H78  1  0.517800  0.163200  0.501500  1
  H  H79  1  0.017800  0.836800  0.001500  1
  H  H80  1  0.482200  0.836800  0.498500  1
  H  H81  1  0.979400  0.135100  0.038500  1
  H  H82  1  0.520600  0.135100  0.461500  1
  H  H83  1  0.020600  0.864900  0.961500  1
  H  H84  1  0.479400  0.864900  0.538500  1
  H  H85  1  0.971700  0.191700  0.036700  1
  H  H86  1  0.528300  0.191700  0.463300  1
  H  H87  1  0.028300  0.808300  0.963300  1
  H  H88  1  0.471700  0.808300  0.536700  1
  H  H89  1  0.820900  0.117200  0.243600  1
  H  H90  1  0.679100  0.117200  0.256400  1
  H  H91  1  0.179100  0.882800  0.756400  1
  H  H92  1  0.320900  0.882800  0.743600  1
  H  H93  1  0.830900  0.169100  0.227200  1
  H  H94  1  0.669100  0.169100  0.272800  1
  H  H95  1  0.169100  0.830900  0.772800  1
  H  H96  1  0.330900  0.830900  0.727200  1
  H  H97  1  0.827600  0.123800  0.198600  1
  H  H98  1  0.672400  0.123800  0.301400  1
  H  H99  1  0.172400  0.876200  0.801400  1
  H  H100  1  0.327600  0.876200  0.698600  1
  H  H101  1  0.219400  0.283900  0.103100  1.0
  H  H102  1  0.280600  0.283900  0.396900  1.0
  H  H103  1  0.780600  0.716100  0.896900  1.0
  H  H104  1  0.719400  0.716100  0.603100  1.0
  H  H105  1  0.188200  0.342500  0.057000  1.0
  H  H106  1  0.311800  0.342500  0.443000  1.0
  H  H107  1  0.811800  0.657500  0.943000  1.0
  H  H108  1  0.688200  0.657500  0.557000  1.0
  H  H109  1  0.237700  0.368200  0.010900  1.0
  H  H110  1  0.262300  0.368200  0.489100  1.0
  H  H111  1  0.762300  0.631800  0.989100  1.0
  H  H112  1  0.737700  0.631800  0.510900  1.0
  H  H113  1  0.318400  0.335300  0.010900  1.0
  H  H114  1  0.181600  0.335300  0.489100  1.0
  H  H115  1  0.681600  0.664700  0.989100  1.0
  H  H116  1  0.818400  0.664700  0.510900  1.0
  H  H117  1  0.387300  0.270500  0.043700  1.0
  H  H118  1  0.112700  0.270500  0.456300  1.0
  H  H119  1  0.612700  0.729500  0.956300  1.0
  H  H120  1  0.887300  0.729500  0.543700  1.0
  H  H121  1  0.389600  0.147600  0.067700  1.0
  H  H122  1  0.110400  0.147600  0.432300  1.0
  H  H123  1  0.610400  0.852400  0.932300  1.0
  H  H124  1  0.889600  0.852400  0.567700  1.0
  H  H125  1  0.464800  0.107400  0.074400  1.0
  H  H126  1  0.035200  0.107400  0.425600  1.0
  H  H127  1  0.535200  0.892600  0.925600  1.0
  H  H128  1  0.964800  0.892600  0.574400  1.0
  H  H129  1  0.541500  0.219700  0.121000  1.0
  H  H130  1  0.958500  0.219700  0.379000  1.0
  H  H131  1  0.458500  0.780300  0.879000  1.0
  H  H132  1  0.041500  0.780300  0.621000  1.0
  H  H133  1  0.467400  0.264900  0.110200  1.0
  H  H134  1  0.032600  0.264900  0.389800  1.0
  H  H135  1  0.532600  0.735100  0.889800  1.0
  H  H136  1  0.967400  0.735100  0.610200  1.0
  H  H137  1  0.735800  0.299300  0.843300  1.0
  H  H138  1  0.764200  0.299300  0.656700  1.0
  H  H139  1  0.264200  0.700700  0.156700  1.0
  H  H140  1  0.235800  0.700700  0.343300  1.0
  H  H141  1  0.806600  0.289100  0.812500  1.0
  H  H142  1  0.693400  0.289100  0.687500  1.0
  H  H143  1  0.193400  0.710900  0.187500  1.0
  H  H144  1  0.306600  0.710900  0.312500  1.0
  H  H145  1  0.863700  0.231400  0.832200  1.0
  H  H146  1  0.636300  0.231400  0.667800  1.0
  H  H147  1  0.136300  0.768600  0.167800  1.0
  H  H148  1  0.363700  0.768600  0.332200  1.0
  H  H149  1  0.853000  0.184400  0.884500  1.0
  H  H150  1  0.647000  0.184400  0.615500  1.0
  H  H151  1  0.147000  0.815600  0.115500  1.0
  H  H152  1  0.353000  0.815600  0.384500  1.0
  H  H153  1  0.796200  0.160500  0.935600  1.0
  H  H154  1  0.703800  0.160500  0.564400  1.0
  H  H155  1  0.203800  0.839500  0.064400  1.0
  H  H156  1  0.296200  0.839500  0.435600  1.0
  H  H157  1  0.667500  0.132600  0.938400  1.0
  H  H158  1  0.832500  0.132600  0.561600  1.0
  H  H159  1  0.332500  0.867400  0.061600  1.0
  H  H160  1  0.167500  0.867400  0.438400  1.0
  H  H161  1  0.649500  0.088100  0.993100  1.0
  H  H162  1  0.850500  0.088100  0.506900  1.0
  H  H163  1  0.350500  0.911900  0.006900  1.0
  H  H164  1  0.149500  0.911900  0.493100  1.0
  H  H165  1  0.751600  0.167300  0.066500  1.0
  H  H166  1  0.748400  0.167300  0.433500  1.0
  H  H167  1  0.248400  0.832700  0.933500  1.0
  H  H168  1  0.251600  0.832700  0.566500  1.0
  H  H169  1  0.776200  0.204000  0.011500  1.0
  H  H170  1  0.723800  0.204000  0.488500  1.0
  H  H171  1  0.223800  0.796000  0.988500  1.0
  H  H172  1  0.276200  0.796000  0.511500  1.0
  H  H173  1  0.503100  0.862100  0.412900  1.0
  H  H174  1  0.996900  0.862100  0.087100  1.0
  H  H175  1  0.496900  0.137900  0.587100  1.0
  H  H176  1  0.003100  0.137900  0.912900  1.0
  H  H177  1  0.432000  0.871200  0.436300  1.0
  H  H178  1  0.068000  0.871200  0.063700  1.0
  H  H179  1  0.568000  0.128800  0.563700  1.0
  H  H180  1  0.932000  0.128800  0.936300  1.0
  H  H181  1  0.374800  0.931300  0.413400  1.0
  H  H182  1  0.125200  0.931300  0.086600  1.0
  H  H183  1  0.625200  0.068700  0.586600  1.0
  H  H184  1  0.874800  0.068700  0.913400  1.0
  H  H185  1  0.391100  0.978900  0.357800  1.0
  H  H186  1  0.108900  0.978900  0.142200  1.0
  H  H187  1  0.608900  0.021100  0.642200  1.0
  H  H188  1  0.891100  0.021100  0.857800  1.0
  H  H189  1  0.456600  0.997300  0.312900  1.0
  H  H190  1  0.043400  0.997300  0.187100  1.0
  H  H191  1  0.543400  0.002700  0.687100  1.0
  H  H192  1  0.956600  0.002700  0.812900  1.0
  H  H193  1  0.513100  0.927900  0.245100  1.0
  H  H194  1  0.986900  0.927900  0.254900  1.0
  H  H195  1  0.486900  0.072100  0.754900  1.0
  H  H196  1  0.013100  0.072100  0.745100  1.0
  H  H197  1  0.543000  0.962000  0.192600  1.0
  H  H198  1  0.957000  0.962000  0.307400  1.0
  H  H199  1  0.457000  0.038000  0.807400  1.0
  H  H200  1  0.043000  0.038000  0.692600  1.0
  H  H201  1  0.584700  0.078200  0.256500  1.0
  H  H202  1  0.915300  0.078200  0.243500  1.0
  H  H203  1  0.415300  0.921800  0.743500  1.0
  H  H204  1  0.084700  0.921800  0.756500  1.0
  H  H205  1  0.551400  0.044400  0.309400  1.0
  H  H206  1  0.948600  0.044400  0.190600  1.0
  H  H207  1  0.448600  0.955600  0.690600  1.0
  H  H208  1  0.051400  0.955600  0.809400  1.0
  H  H209  1  0.044100  0.850600  0.176700  1.0
  H  H210  1  0.455900  0.850600  0.323300  1.0
  H  H211  1  0.955900  0.149400  0.823300  1.0
  H  H212  1  0.544100  0.149400  0.676700  1.0
  H  H213  1  0.077300  0.802800  0.228800  1.0
  H  H214  1  0.422700  0.802800  0.271200  1.0
  H  H215  1  0.922700  0.197200  0.771200  1.0
  H  H216  1  0.577300  0.197200  0.728800  1.0
  H  H217  1  0.027600  0.783800  0.275500  1.0
  H  H218  1  0.472400  0.783800  0.224500  1.0
  H  H219  1  0.972400  0.216200  0.724500  1.0
  H  H220  1  0.527600  0.216200  0.775500  1.0
  H  H221  1  0.942400  0.810200  0.267300  1.0
  H  H222  1  0.557600  0.810200  0.232700  1.0
  H  H223  1  0.057600  0.189800  0.732700  1.0
  H  H224  1  0.442400  0.189800  0.767300  1.0
  H  H225  1  0.876800  0.863500  0.228700  1.0
  H  H226  1  0.623200  0.863500  0.271300  1.0
  H  H227  1  0.123200  0.136500  0.771300  1.0
  H  H228  1  0.376800  0.136500  0.728700  1.0
  H  H229  1  0.812800  0.890000  0.129100  1.0
  H  H230  1  0.687200  0.890000  0.370900  1.0
  H  H231  1  0.187200  0.110000  0.870900  1.0
  H  H232  1  0.312800  0.110000  0.629100  1.0
  H  H233  1  0.738400  0.933100  0.118100  1.0
  H  H234  1  0.761600  0.933100  0.381900  1.0
  H  H235  1  0.261600  0.066900  0.881900  1.0
  H  H236  1  0.238400  0.066900  0.618100  1.0
  H  H237  1  0.788900  0.016000  0.211000  1.0
  H  H238  1  0.711100  0.016000  0.289000  1.0
  H  H239  1  0.211100  0.984000  0.789000  1.0
  H  H240  1  0.288900  0.984000  0.711000  1.0
  H  H241  1  0.862300  0.970300  0.224500  1.0
  H  H242  1  0.637700  0.970300  0.275500  1.0
  H  H243  1  0.137700  0.029700  0.775500  1.0
  H  H244  1  0.362300  0.029700  0.724500  1.0
  H  H245  1  0.227300  0.174600  0.134000  1.0
  H  H246  1  0.272700  0.174600  0.366000  1.0
  H  H247  1  0.772700  0.825400  0.866000  1.0
  H  H248  1  0.727300  0.825400  0.634000  1.0
  H  H249  1  0.171400  0.182100  0.179300  1.0
  H  H250  1  0.328600  0.182100  0.320700  1.0
  H  H251  1  0.828600  0.817900  0.820700  1.0
  H  H252  1  0.671400  0.817900  0.679300  1.0
  H  H253  1  0.182200  0.244000  0.225500  1.0
  H  H254  1  0.317800  0.244000  0.274500  1.0
  H  H255  1  0.817800  0.756000  0.774500  1.0
  H  H256  1  0.682200  0.756000  0.725500  1.0
  H  H257  1  0.248900  0.298400  0.226300  1.0
  H  H258  1  0.251100  0.298400  0.273700  1.0
  H  H259  1  0.751100  0.701600  0.773700  1.0
  H  H260  1  0.748900  0.701600  0.726300  1.0
  H  H261  1  0.336000  0.318500  0.199000  1.0
  H  H262  1  0.164000  0.318500  0.301000  1.0
  H  H263  1  0.664000  0.681500  0.801000  1.0
  H  H264  1  0.836000  0.681500  0.699000  1.0
  H  H265  1  0.367900  0.354400  0.114300  1.0
  H  H266  1  0.132100  0.354400  0.385700  1.0
  H  H267  1  0.632100  0.645600  0.885700  1.0
  H  H268  1  0.867900  0.645600  0.614300  1.0
  H  H269  1  0.446500  0.391700  0.112700  1.0
  H  H270  1  0.053500  0.391700  0.387300  1.0
  H  H271  1  0.553500  0.608300  0.887300  1.0
  H  H272  1  0.946500  0.608300  0.612700  1.0
  H  H273  1  0.516300  0.310800  0.201900  1.0
  H  H274  1  0.983700  0.310800  0.298100  1.0
  H  H275  1  0.483700  0.689200  0.798100  1.0
  H  H276  1  0.016300  0.689200  0.701900  1.0
  H  H277  1  0.434000  0.273300  0.204100  1.0
  H  H278  1  0.066000  0.273300  0.295900  1.0
  H  H279  1  0.566000  0.726700  0.795900  1.0
  H  H280  1  0.934000  0.726700  0.704100  1.0
  H  H281  1  0.700000  0.188500  0.835700  1.0
  H  H282  1  0.800000  0.188500  0.664300  1.0
  H  H283  1  0.300000  0.811500  0.164300  1.0
  H  H284  1  0.200000  0.811500  0.335700  1.0
  H  H285  1  0.643500  0.134600  0.799500  1.0
  H  H286  1  0.856500  0.134600  0.700500  1.0
  H  H287  1  0.356500  0.865400  0.200500  1.0
  H  H288  1  0.143500  0.865400  0.299500  1.0
  H  H289  1  0.565200  0.118300  0.818900  1.0
  H  H290  1  0.934800  0.118300  0.681100  1.0
  H  H291  1  0.434800  0.881700  0.181100  1.0
  H  H292  1  0.065200  0.881700  0.318900  1.0
  H  H293  1  0.543400  0.155800  0.874500  1.0
  H  H294  1  0.956600  0.155800  0.625500  1.0
  H  H295  1  0.456600  0.844200  0.125500  1.0
  H  H296  1  0.043400  0.844200  0.374500  1.0
  H  H297  1  0.569800  0.216400  0.931900  1.0
  H  H298  1  0.930200  0.216400  0.568100  1.0
  H  H299  1  0.430200  0.783600  0.068100  1.0
  H  H300  1  0.069800  0.783600  0.431900  1.0
  H  H301  1  0.648300  0.216300  0.009000  1.0
  H  H302  1  0.851700  0.216300  0.491000  1.0
  H  H303  1  0.351700  0.783700  0.991000  1.0
  H  H304  1  0.148300  0.783700  0.509000  1.0
  H  H305  1  0.641100  0.257600  0.066800  1.0
  H  H306  1  0.858900  0.257600  0.433200  1.0
  H  H307  1  0.358900  0.742400  0.933200  1.0
  H  H308  1  0.141100  0.742400  0.566800  1.0
  H  H309  1  0.593200  0.372600  0.999200  1.0
  H  H310  1  0.906800  0.372600  0.500800  1.0
  H  H311  1  0.406800  0.627400  0.000800  1.0
  H  H312  1  0.093200  0.627400  0.499200  1.0
  H  H313  1  0.605600  0.330600  0.943800  1.0
  H  H314  1  0.894400  0.330600  0.556200  1.0
  H  H315  1  0.394400  0.669400  0.056200  1.0
  H  H316  1  0.105600  0.669400  0.443800  1.0
  H  H317  1  0.027300  0.625900  0.119900  1.0
  H  H318  1  0.472700  0.625900  0.380100  1.0
  H  H319  1  0.972700  0.374100  0.880100  1.0
  H  H320  1  0.527300  0.374100  0.619900  1.0
  H  H321  1  0.079800  0.613600  0.073600  1.0
  H  H322  1  0.420200  0.613600  0.426400  1.0
  H  H323  1  0.920200  0.386400  0.926400  1.0
  H  H324  1  0.579800  0.386400  0.573600  1.0
  H  H325  1  0.072400  0.547600  0.034200  1.0
  H  H326  1  0.427600  0.547600  0.465800  1.0
  H  H327  1  0.927600  0.452400  0.965800  1.0
  H  H328  1  0.572400  0.452400  0.534200  1.0
  H  H329  1  0.002500  0.500100  0.034800  1.0
  H  H330  1  0.497500  0.500100  0.465200  1.0
  H  H331  1  0.997500  0.499900  0.965200  1.0
  H  H332  1  0.502500  0.499900  0.534800  1.0
  H  H333  1  0.916800  0.484900  0.060900  1.0
  H  H334  1  0.583200  0.484900  0.439100  1.0
  H  H335  1  0.083200  0.515100  0.939100  1.0
  H  H336  1  0.416800  0.515100  0.560900  1.0
  H  H337  1  0.811000  0.555800  0.079800  1.0
  H  H338  1  0.689000  0.555800  0.420200  1.0
  H  H339  1  0.189000  0.444200  0.920200  1.0
  H  H340  1  0.311000  0.444200  0.579800  1.0
  H  H341  1  0.732500  0.520500  0.085300  1.0
  H  H342  1  0.767500  0.520500  0.414700  1.0
  H  H343  1  0.267500  0.479500  0.914700  1.0
  H  H344  1  0.232500  0.479500  0.585300  1.0
  H  H345  1  0.806700  0.402800  0.132000  1.0
  H  H346  1  0.693300  0.402800  0.368000  1.0
  H  H347  1  0.193300  0.597200  0.868000  1.0
  H  H348  1  0.306700  0.597200  0.632000  1.0
  H  H349  1  0.884200  0.437700  0.124100  1.0
  H  H350  1  0.615800  0.437700  0.375900  1.0
  H  H351  1  0.115800  0.562300  0.875900  1.0
  H  H352  1  0.384200  0.562300  0.624100  1.0
  H  H353  1  0.579700  0.632200  0.440100  1.0
  H  H354  1  0.920300  0.632200  0.059900  1.0
  H  H355  1  0.420300  0.367800  0.559900  1.0
  H  H356  1  0.079700  0.367800  0.940100  1.0
  H  H357  1  0.640700  0.681200  0.475400  1.0
  H  H358  1  0.859300  0.681200  0.024600  1.0
  H  H359  1  0.359300  0.318800  0.524600  1.0
  H  H360  1  0.140700  0.318800  0.975400  1.0
  H  H361  1  0.710100  0.703200  0.448300  1.0
  H  H362  1  0.789900  0.703200  0.051700  1.0
  H  H363  1  0.289900  0.296800  0.551700  1.0
  H  H364  1  0.210100  0.296800  0.948300  1.0
  H  H365  1  0.721100  0.673800  0.388600  1.0
  H  H366  1  0.778900  0.673800  0.111400  1.0
  H  H367  1  0.278900  0.326200  0.611400  1.0
  H  H368  1  0.221100  0.326200  0.888600  1.0
  H  H369  1  0.688000  0.616200  0.331100  1.0
  H  H370  1  0.812000  0.616200  0.168900  1.0
  H  H371  1  0.312000  0.383800  0.668900  1.0
  H  H372  1  0.188000  0.383800  0.831100  1.0
  H  H373  1  0.689000  0.512400  0.324200  1.0
  H  H374  1  0.811000  0.512400  0.175800  1.0
  H  H375  1  0.311000  0.487600  0.675800  1.0
  H  H376  1  0.189000  0.487600  0.824200  1.0
  H  H377  1  0.691300  0.464300  0.269100  1.0
  H  H378  1  0.808700  0.464300  0.230900  1.0
  H  H379  1  0.308700  0.535700  0.730900  1.0
  H  H380  1  0.191300  0.535700  0.769100  1.0
  H  H381  1  0.581800  0.541400  0.206500  1.0
  H  H382  1  0.918200  0.541400  0.293500  1.0
  H  H383  1  0.418200  0.458600  0.793500  1.0
  H  H384  1  0.081800  0.458600  0.706500  1.0
  H  H385  1  0.574700  0.590100  0.261500  1.0
  H  H386  1  0.925300  0.590100  0.238500  1.0
  H  H387  1  0.425300  0.409900  0.738500  1.0
  H  H388  1  0.074700  0.409900  0.761500  1.0
  H  H389  1  0.251800  0.205400  0.044000  1.0
  H  H390  1  0.248200  0.205400  0.456000  1.0
  H  H391  1  0.748200  0.794600  0.956000  1.0
  H  H392  1  0.751800  0.794600  0.544000  1.0
  H  H393  1  0.221700  0.134500  0.012800  1.0
  H  H394  1  0.278300  0.134500  0.487200  1.0
  H  H395  1  0.778300  0.865500  0.987200  1.0
  H  H396  1  0.721700  0.865500  0.512800  1.0
  H  H397  1  0.247600  0.061200  0.041700  1.0
  H  H398  1  0.252400  0.061200  0.458300  1.0
  H  H399  1  0.752400  0.938800  0.958300  1.0
  H  H400  1  0.747600  0.938800  0.541700  1.0
  H  H401  1  0.303600  0.058800  0.101900  1.0
  H  H402  1  0.196400  0.058800  0.398100  1.0
  H  H403  1  0.696400  0.941200  0.898100  1.0
  H  H404  1  0.803600  0.941200  0.601900  1.0
  H  H405  1  0.360900  0.109300  0.158000  1.0
  H  H406  1  0.139100  0.109300  0.342000  1.0
  H  H407  1  0.639100  0.890700  0.842000  1.0
  H  H408  1  0.860900  0.890700  0.658000  1.0
  H  H409  1  0.454900  0.165600  0.165500  1.0
  H  H410  1  0.045100  0.165600  0.334500  1.0
  H  H411  1  0.545100  0.834400  0.834500  1.0
  H  H412  1  0.954900  0.834400  0.665500  1.0
  H  H413  1  0.512700  0.177700  0.223300  1.0
  H  H414  1  0.987300  0.177700  0.276700  1.0
  H  H415  1  0.487300  0.822300  0.776700  1.0
  H  H416  1  0.012700  0.822300  0.723300  1.0
  H  H417  1  0.396800  0.211900  0.279300  1.0
  H  H418  1  0.103200  0.211900  0.220700  1.0
  H  H419  1  0.603200  0.788100  0.720700  1.0
  H  H420  1  0.896800  0.788100  0.779300  1.0
  H  H421  1  0.341100  0.197600  0.223100  1.0
  H  H422  1  0.158900  0.197600  0.276900  1.0
  H  H423  1  0.658900  0.802400  0.776900  1.0
  H  H424  1  0.841100  0.802400  0.723100  1.0
  H  H425  1  0.883300  0.275600  0.663800  1.0
  H  H426  1  0.616700  0.275600  0.836200  1.0
  H  H427  1  0.116700  0.724400  0.336200  1.0
  H  H428  1  0.383300  0.724400  0.163800  1.0
  H  H429  1  0.917800  0.347100  0.691200  1.0
  H  H430  1  0.582200  0.347100  0.808800  1.0
  H  H431  1  0.082200  0.652900  0.308800  1.0
  H  H432  1  0.417800  0.652900  0.191200  1.0
  H  H433  1  0.891500  0.419700  0.661100  1.0
  H  H434  1  0.608500  0.419700  0.838900  1.0
  H  H435  1  0.108500  0.580300  0.338900  1.0
  H  H436  1  0.391500  0.580300  0.161100  1.0
  H  H437  1  0.830600  0.420800  0.603500  1.0
  H  H438  1  0.669400  0.420800  0.896500  1.0
  H  H439  1  0.169400  0.579200  0.396500  1.0
  H  H440  1  0.330600  0.579200  0.103500  1.0
  H  H441  1  0.771100  0.367900  0.551500  1.0
  H  H442  1  0.728900  0.367900  0.948500  1.0
  H  H443  1  0.228900  0.632100  0.448500  1.0
  H  H444  1  0.271100  0.632100  0.051500  1.0
  H  H445  1  0.779100  0.317600  0.482100  1.0
  H  H446  1  0.720900  0.317600  0.017900  1.0
  H  H447  1  0.220900  0.682400  0.517900  1.0
  H  H448  1  0.279100  0.682400  0.982100  1.0
  H  H449  1  0.718000  0.301300  0.425600  1.0
  H  H450  1  0.782000  0.301300  0.074400  1.0
  H  H451  1  0.282000  0.698700  0.574400  1.0
  H  H452  1  0.218000  0.698700  0.925600  1.0
  H  H453  1  0.615800  0.266400  0.492900  1.0
  H  H454  1  0.884200  0.266400  0.007100  1.0
  H  H455  1  0.384200  0.733600  0.507100  1.0
  H  H456  1  0.115800  0.733600  0.992900  1.0
  H  H457  1  0.674200  0.276300  0.549500  1.0
  H  H458  1  0.825800  0.276300  0.950500  1.0
  H  H459  1  0.325800  0.723700  0.450500  1.0
  H  H460  1  0.174200  0.723700  0.049500  1.0
  H  H461  1  0.568500  0.801200  0.355800  1.0
  H  H462  1  0.931500  0.801200  0.144200  1.0
  H  H463  1  0.431500  0.198800  0.644200  1.0
  H  H464  1  0.068500  0.198800  0.855800  1.0
  H  H465  1  0.610700  0.752600  0.401400  1.0
  H  H466  1  0.889300  0.752600  0.098600  1.0
  H  H467  1  0.389300  0.247400  0.598600  1.0
  H  H468  1  0.110700  0.247400  0.901400  1.0
  H  H469  1  0.657000  0.783500  0.459500  1.0
  H  H470  1  0.843000  0.783500  0.040500  1.0
  H  H471  1  0.343000  0.216500  0.540500  1.0
  H  H472  1  0.157000  0.216500  0.959500  1.0
  H  H473  1  0.655700  0.864800  0.469400  1.0
  H  H474  1  0.844300  0.864800  0.030600  1.0
  H  H475  1  0.344300  0.135200  0.530600  1.0
  H  H476  1  0.155700  0.135200  0.969400  1.0
  H  H477  1  0.629300  0.948100  0.438600  1.0
  H  H478  1  0.870700  0.948100  0.061400  1.0
  H  H479  1  0.370700  0.051900  0.561400  1.0
  H  H480  1  0.129300  0.051900  0.938600  1.0
  H  H481  1  0.522200  0.008700  0.405200  1.0
  H  H482  1  0.977800  0.008700  0.094800  1.0
  H  H483  1  0.477800  0.991300  0.594800  1.0
  H  H484  1  0.022200  0.991300  0.905200  1.0
  H  H485  1  0.518800  0.090300  0.399700  1.0
  H  H486  1  0.981200  0.090300  0.100300  1.0
  H  H487  1  0.481200  0.909700  0.600300  1.0
  H  H488  1  0.018800  0.909700  0.899700  1.0
  H  H489  1  0.654800  0.092200  0.364800  1.0
  H  H490  1  0.845200  0.092200  0.135200  1.0
  H  H491  1  0.345200  0.907800  0.635200  1.0
  H  H492  1  0.154800  0.907800  0.864800  1.0
  H  H493  1  0.658300  0.009100  0.370800  1.0
  H  H494  1  0.841700  0.009100  0.129200  1.0
  H  H495  1  0.341700  0.990900  0.629200  1.0
  H  H496  1  0.158300  0.990900  0.870800  1.0
  H  H497  1  0.565800  0.684100  0.347700  1.0
  H  H498  1  0.934200  0.684100  0.152300  1.0
  H  H499  1  0.434200  0.315900  0.652300  1.0
  H  H500  1  0.065800  0.315900  0.847700  1.0
  H  H501  1  0.508100  0.732700  0.311400  1.0
  H  H502  1  0.991900  0.732700  0.188600  1.0
  H  H503  1  0.491900  0.267300  0.688600  1.0
  H  H504  1  0.008100  0.267300  0.811400  1.0
  H  H505  1  0.436700  0.702200  0.269200  1.0
  H  H506  1  0.063300  0.702200  0.230800  1.0
  H  H507  1  0.563300  0.297800  0.730800  1.0
  H  H508  1  0.936700  0.297800  0.769200  1.0
  H  H509  1  0.432700  0.618100  0.262100  1.0
  H  H510  1  0.067300  0.618100  0.237900  1.0
  H  H511  1  0.567300  0.381900  0.737900  1.0
  H  H512  1  0.932700  0.381900  0.762100  1.0
  H  H513  1  0.466300  0.537500  0.287600  1.0
  H  H514  1  0.033700  0.537500  0.212400  1.0
  H  H515  1  0.533700  0.462500  0.712400  1.0
  H  H516  1  0.966300  0.462500  0.787600  1.0
  H  H517  1  0.479300  0.475700  0.366600  1.0
  H  H518  1  0.020700  0.475700  0.133400  1.0
  H  H519  1  0.520700  0.524300  0.633400  1.0
  H  H520  1  0.979300  0.524300  0.866600  1.0
  H  H521  1  0.487000  0.393400  0.372200  1.0
  H  H522  1  0.013000  0.393400  0.127800  1.0
  H  H523  1  0.513000  0.606600  0.627800  1.0
  H  H524  1  0.987000  0.606600  0.872200  1.0
  H  H525  1  0.572800  0.391100  0.288000  1.0
  H  H526  1  0.927200  0.391100  0.212000  1.0
  H  H527  1  0.427200  0.608900  0.712000  1.0
  H  H528  1  0.072800  0.608900  0.788000  1.0
  H  H529  1  0.568600  0.474900  0.284500  1.0
  H  H530  1  0.931400  0.474900  0.215500  1.0
  H  H531  1  0.431400  0.525100  0.715500  1.0
  H  H532  1  0.068600  0.525100  0.784500  1.0
  C  C533  1  0.393600  0.226800  0.458210  1
  C  C534  1  0.106400  0.226800  0.041790  1
  C  C535  1  0.606400  0.773200  0.541790  1
  C  C536  1  0.893600  0.773200  0.958210  1
  C  C537  1  0.677800  0.292100  0.291300  1
  C  C538  1  0.822200  0.292100  0.208700  1
  C  C539  1  0.322200  0.707900  0.708700  1
  C  C540  1  0.177800  0.707900  0.791300  1
  C  C541  1  0.685100  0.346200  0.285300  1
  C  C542  1  0.814900  0.346200  0.214700  1
  C  C543  1  0.314900  0.653800  0.714700  1
  C  C544  1  0.185100  0.653800  0.785300  1
  C  C545  1  0.720300  0.199200  0.163500  1
  C  C546  1  0.779700  0.199200  0.336500  1
  C  C547  1  0.279700  0.800800  0.836500  1
  C  C548  1  0.220300  0.800800  0.663500  1
  C  C549  1  0.735400  0.239200  0.136600  1
  C  C550  1  0.764600  0.239200  0.363400  1
  C  C551  1  0.264600  0.760800  0.863400  1
  C  C552  1  0.235400  0.760800  0.636600  1
  C  C553  1  0.186800  0.558700  0.995300  1
  C  C554  1  0.313200  0.558700  0.504700  1
  C  C555  1  0.813200  0.441300  0.004700  1
  C  C556  1  0.686800  0.441300  0.495300  1
  C  C557  1  0.180700  0.577100  0.026000  1
  C  C558  1  0.319300  0.577100  0.474000  1
  C  C559  1  0.819300  0.422900  0.974000  1
  C  C560  1  0.680700  0.422900  0.526000  1
  C  C561  1  0.916200  0.155900  0.010600  1
  C  C562  1  0.583800  0.155900  0.489400  1
  C  C563  1  0.083800  0.844100  0.989400  1
  C  C564  1  0.416200  0.844100  0.510600  1
  C  C565  1  0.965500  0.161900  0.021800  1
  C  C566  1  0.534500  0.161900  0.478200  1
  C  C567  1  0.034500  0.838100  0.978200  1
  C  C568  1  0.465500  0.838100  0.521800  1
  C  C569  1  0.128800  0.440500  0.071900  1
  C  C570  1  0.371200  0.440500  0.428100  1
  C  C571  1  0.871200  0.559500  0.928100  1
  C  C572  1  0.628800  0.559500  0.571900  1
  C  C573  1  0.727900  0.826200  0.076700  1
  C  C574  1  0.772100  0.826200  0.423300  1
  C  C575  1  0.272100  0.173800  0.923300  1
  C  C576  1  0.227900  0.173800  0.576700  1
  C  C577  1  0.062200  0.727700  0.067160  1
  C  C578  1  0.437800  0.727700  0.432840  1
  C  C579  1  0.937800  0.272300  0.932840  1
  C  C580  1  0.562200  0.272300  0.567160  1
  C  C581  1  0.761800  0.145200  0.210100  1
  C  C582  1  0.738200  0.145200  0.289900  1
  C  C583  1  0.238200  0.854800  0.789900  1
  C  C584  1  0.261800  0.854800  0.710100  1
  C  C585  1  0.814200  0.138300  0.220700  1
  C  C586  1  0.685800  0.138300  0.279300  1
  C  C587  1  0.185800  0.861700  0.779300  1
  C  C588  1  0.314200  0.861700  0.720700  1
  C  C589  1  0.033200  0.753400  0.058960  1
  C  C590  1  0.466800  0.753400  0.441040  1
  C  C591  1  0.966800  0.246600  0.941040  1
  C  C592  1  0.533200  0.246600  0.558960  1
  C  C593  1  0.477600  0.555000  0.072400  1
  C  C594  1  0.022400  0.555000  0.427600  1
  C  C595  1  0.522400  0.445000  0.927600  1
  C  C596  1  0.977600  0.445000  0.572400  1
  C  C597  1  0.491800  0.573800  0.077300  1
  C  C598  1  0.008200  0.573800  0.422700  1
  C  C599  1  0.508200  0.426200  0.922700  1
  C  C600  1  0.991800  0.426200  0.577300  1
  C  C601  1  0.316900  0.290000  0.057000  1.0
  C  C602  1  0.183100  0.290000  0.443000  1.0
  C  C603  1  0.683100  0.710000  0.943000  1.0
  C  C604  1  0.816900  0.710000  0.557000  1.0
  C  C605  1  0.239500  0.294400  0.084400  1.0
  C  C606  1  0.260500  0.294400  0.415600  1.0
  C  C607  1  0.760500  0.705600  0.915600  1.0
  C  C608  1  0.739500  0.705600  0.584400  1.0
  C  C609  1  0.221000  0.329200  0.057000  1.0
  C  C610  1  0.279000  0.329200  0.443000  1.0
  C  C611  1  0.779000  0.670800  0.943000  1.0
  C  C612  1  0.721000  0.670800  0.557000  1.0
  C  C613  1  0.250400  0.344400  0.029600  1.0
  C  C614  1  0.249600  0.344400  0.470400  1.0
  C  C615  1  0.749600  0.655600  0.970400  1.0
  C  C616  1  0.750400  0.655600  0.529600  1.0
  C  C617  1  0.298300  0.324900  0.029600  1.0
  C  C618  1  0.201700  0.324900  0.470400  1.0
  C  C619  1  0.701700  0.675100  0.970400  1.0
  C  C620  1  0.798300  0.675100  0.529600  1.0
  C  C621  1  0.363500  0.264500  0.060800  1.0
  C  C622  1  0.136500  0.264500  0.439200  1.0
  C  C623  1  0.636500  0.735500  0.939200  1.0
  C  C624  1  0.863500  0.735500  0.560800  1.0
  C  C625  1  0.419200  0.209700  0.088800  1.0
  C  C626  1  0.080800  0.209700  0.411200  1.0
  C  C627  1  0.580800  0.790300  0.911200  1.0
  C  C628  1  0.919200  0.790300  0.588800  1.0
  C  C629  1  0.420300  0.163500  0.078400  1.0
  C  C630  1  0.079700  0.163500  0.421600  1.0
  C  C631  1  0.579700  0.836500  0.921600  1.0
  C  C632  1  0.920300  0.836500  0.578400  1.0
  C  C633  1  0.464900  0.139500  0.083100  1.0
  C  C634  1  0.035100  0.139500  0.416900  1.0
  C  C635  1  0.535100  0.860500  0.916900  1.0
  C  C636  1  0.964900  0.860500  0.583100  1.0
  C  C637  1  0.509600  0.159100  0.099800  1.0
  C  C638  1  0.990400  0.159100  0.400200  1.0
  C  C639  1  0.490400  0.840900  0.900200  1.0
  C  C640  1  0.009600  0.840900  0.599800  1.0
  C  C641  1  0.510200  0.205100  0.109800  1.0
  C  C642  1  0.989800  0.205100  0.390200  1.0
  C  C643  1  0.489800  0.794900  0.890200  1.0
  C  C644  1  0.010200  0.794900  0.609800  1.0
  C  C645  1  0.466200  0.231900  0.104000  1.0
  C  C646  1  0.033800  0.231900  0.396000  1.0
  C  C647  1  0.533800  0.768100  0.896000  1.0
  C  C648  1  0.966200  0.768100  0.604000  1.0
  C  C649  1  0.554900  0.130800  0.107900  1.0
  C  C650  1  0.945100  0.130800  0.392100  1.0
  C  C651  1  0.445100  0.869200  0.892100  1.0
  C  C652  1  0.054900  0.869200  0.607900  1.0
  C  C653  1  0.786200  0.213900  0.892600  1.0
  C  C654  1  0.713800  0.213900  0.607400  1.0
  C  C655  1  0.213800  0.786100  0.107400  1.0
  C  C656  1  0.286200  0.786100  0.392600  1.0
  C  C657  1  0.759900  0.275200  0.852600  1.0
  C  C658  1  0.740100  0.275200  0.647400  1.0
  C  C659  1  0.240100  0.724800  0.147400  1.0
  C  C660  1  0.259900  0.724800  0.352600  1.0
  C  C661  1  0.802200  0.268900  0.833800  1.0
  C  C662  1  0.697800  0.268900  0.666200  1.0
  C  C663  1  0.197800  0.731100  0.166200  1.0
  C  C664  1  0.302200  0.731100  0.333800  1.0
  C  C665  1  0.835300  0.235800  0.845100  1.0
  C  C666  1  0.664700  0.235800  0.654900  1.0
  C  C667  1  0.164700  0.764200  0.154900  1.0
  C  C668  1  0.335300  0.764200  0.345100  1.0
  C  C669  1  0.828600  0.208100  0.875100  1.0
  C  C670  1  0.671400  0.208100  0.624900  1.0
  C  C671  1  0.171400  0.791900  0.124900  1.0
  C  C672  1  0.328600  0.791900  0.375100  1.0
  C  C673  1  0.775200  0.186200  0.924800  1.0
  C  C674  1  0.724800  0.186200  0.575200  1.0
  C  C675  1  0.224800  0.813800  0.075200  1.0
  C  C676  1  0.275200  0.813800  0.424800  1.0
  C  C677  1  0.723500  0.171800  0.971840  1.0
  C  C678  1  0.776500  0.171800  0.528160  1.0
  C  C679  1  0.276500  0.828200  0.028160  1.0
  C  C680  1  0.223500  0.828200  0.471840  1.0
  C  C681  1  0.685100  0.138400  0.964300  1.0
  C  C682  1  0.814900  0.138400  0.535700  1.0
  C  C683  1  0.314900  0.861600  0.035700  1.0
  C  C684  1  0.185100  0.861600  0.464300  1.0
  C  C685  1  0.673400  0.113500  0.996700  1.0
  C  C686  1  0.826600  0.113500  0.503300  1.0
  C  C687  1  0.326600  0.886500  0.003300  1.0
  C  C688  1  0.173400  0.886500  0.496700  1.0
  C  C689  1  0.697300  0.126200  0.034680  1.0
  C  C690  1  0.802700  0.126200  0.465320  1.0
  C  C691  1  0.302700  0.873800  0.965320  1.0
  C  C692  1  0.197300  0.873800  0.534680  1.0
  C  C693  1  0.735100  0.159500  0.040600  1.0
  C  C694  1  0.764900  0.159500  0.459400  1.0
  C  C695  1  0.264900  0.840500  0.959400  1.0
  C  C696  1  0.235100  0.840500  0.540600  1.0
  C  C697  1  0.748900  0.181700  0.008200  1.0
  C  C698  1  0.751100  0.181700  0.491800  1.0
  C  C699  1  0.251100  0.818300  0.991800  1.0
  C  C700  1  0.248900  0.818300  0.508200  1.0
  C  C701  1  0.676200  0.103700  0.067800  1.0
  C  C702  1  0.823800  0.103700  0.432200  1.0
  C  C703  1  0.323800  0.896300  0.932200  1.0
  C  C704  1  0.176200  0.896300  0.567800  1.0
  C  C705  1  0.458800  0.946000  0.356800  1.0
  C  C706  1  0.041200  0.946000  0.143200  1.0
  C  C707  1  0.541200  0.054000  0.643200  1.0
  C  C708  1  0.958800  0.054000  0.856800  1.0
  C  C709  1  0.480100  0.886200  0.401800  1.0
  C  C710  1  0.019900  0.886200  0.098200  1.0
  C  C711  1  0.519900  0.113800  0.598200  1.0
  C  C712  1  0.980100  0.113800  0.901800  1.0
  C  C713  1  0.438800  0.891700  0.415800  1.0
  C  C714  1  0.061200  0.891700  0.084200  1.0
  C  C715  1  0.561200  0.108300  0.584200  1.0
  C  C716  1  0.938800  0.108300  0.915800  1.0
  C  C717  1  0.404400  0.926400  0.401900  1.0
  C  C718  1  0.095600  0.926400  0.098100  1.0
  C  C719  1  0.595600  0.073600  0.598100  1.0
  C  C720  1  0.904400  0.073600  0.901900  1.0
  C  C721  1  0.414200  0.955200  0.369500  1.0
  C  C722  1  0.085800  0.955200  0.130500  1.0
  C  C723  1  0.585800  0.044800  0.630500  1.0
  C  C724  1  0.914200  0.044800  0.869500  1.0
  C  C725  1  0.475900  0.971400  0.325500  1.0
  C  C726  1  0.024100  0.971400  0.174500  1.0
  C  C727  1  0.524100  0.028600  0.674500  1.0
  C  C728  1  0.975900  0.028600  0.825500  1.0
  C  C729  1  0.530800  0.982200  0.282240  1.0
  C  C730  1  0.969200  0.982200  0.217760  1.0
  C  C731  1  0.469200  0.017800  0.717760  1.0
  C  C732  1  0.030800  0.017800  0.782240  1.0
  C  C733  1  0.527800  0.958800  0.247830  1.0
  C  C734  1  0.972200  0.958800  0.252170  1.0
  C  C735  1  0.472200  0.041200  0.752170  1.0
  C  C736  1  0.027800  0.041200  0.747830  1.0
  C  C737  1  0.545600  0.978700  0.216900  1.0
  C  C738  1  0.954400  0.978700  0.283100  1.0
  C  C739  1  0.454400  0.021300  0.783100  1.0
  C  C740  1  0.045600  0.021300  0.716900  1.0
  C  C741  1  0.567300  0.022700  0.220670  1.0
  C  C742  1  0.932700  0.022700  0.279330  1.0
  C  C743  1  0.432700  0.977300  0.779330  1.0
  C  C744  1  0.067300  0.977300  0.720670  1.0
  C  C745  1  0.569900  0.047400  0.254170  1.0
  C  C746  1  0.930100  0.047400  0.245830  1.0
  C  C747  1  0.430100  0.952600  0.745830  1.0
  C  C748  1  0.069900  0.952600  0.754170  1.0
  C  C749  1  0.550700  0.027000  0.285700  1.0
  C  C750  1  0.949300  0.027000  0.214300  1.0
  C  C751  1  0.449300  0.973000  0.714300  1.0
  C  C752  1  0.050700  0.973000  0.785700  1.0
  C  C753  1  0.591000  0.042100  0.188300  1.0
  C  C754  1  0.909000  0.042100  0.311700  1.0
  C  C755  1  0.409000  0.957900  0.811700  1.0
  C  C756  1  0.091000  0.957900  0.688300  1.0
  C  C757  1  0.948700  0.849300  0.218800  1.0
  C  C758  1  0.551300  0.849300  0.281200  1.0
  C  C759  1  0.051300  0.150700  0.781200  1.0
  C  C760  1  0.448700  0.150700  0.718800  1.0
  C  C761  1  0.023900  0.843600  0.196200  1.0
  C  C762  1  0.476100  0.843600  0.303800  1.0
  C  C763  1  0.976100  0.156400  0.803800  1.0
  C  C764  1  0.523900  0.156400  0.696200  1.0
  C  C765  1  0.043600  0.814700  0.226600  1.0
  C  C766  1  0.456400  0.814700  0.273400  1.0
  C  C767  1  0.956400  0.185300  0.773400  1.0
  C  C768  1  0.543600  0.185300  0.726600  1.0
  C  C769  1  0.014100  0.803200  0.253600  1.0
  C  C770  1  0.485900  0.803200  0.246400  1.0
  C  C771  1  0.985900  0.196800  0.746400  1.0
  C  C772  1  0.514100  0.196800  0.753600  1.0
  C  C773  1  0.964300  0.819400  0.249500  1.0
  C  C774  1  0.535700  0.819400  0.250500  1.0
  C  C775  1  0.035700  0.180600  0.750500  1.0
  C  C776  1  0.464300  0.180600  0.749500  1.0
  C  C777  1  0.901400  0.871000  0.212700  1.0
  C  C778  1  0.598600  0.871000  0.287300  1.0
  C  C779  1  0.098600  0.129000  0.787300  1.0
  C  C780  1  0.401400  0.129000  0.712700  1.0
  C  C781  1  0.845300  0.927500  0.177900  1.0
  C  C782  1  0.654700  0.927500  0.322100  1.0
  C  C783  1  0.154700  0.072500  0.822100  1.0
  C  C784  1  0.345300  0.072500  0.677900  1.0
  C  C785  1  0.808000  0.915900  0.145900  1.0
  C  C786  1  0.692000  0.915900  0.354100  1.0
  C  C787  1  0.192000  0.084100  0.854100  1.0
  C  C788  1  0.308000  0.084100  0.645900  1.0
  C  C789  1  0.764700  0.942100  0.139000  1.0
  C  C790  1  0.735300  0.942100  0.361000  1.0
  C  C791  1  0.235300  0.057900  0.861000  1.0
  C  C792  1  0.264700  0.057900  0.639000  1.0
  C  C793  1  0.758000  0.981400  0.161400  1.0
  C  C794  1  0.742000  0.981400  0.338600  1.0
  C  C795  1  0.242000  0.018600  0.838600  1.0
  C  C796  1  0.258000  0.018600  0.661400  1.0
  C  C797  1  0.794100  0.990600  0.193900  1.0
  C  C798  1  0.705900  0.990600  0.306100  1.0
  C  C799  1  0.205900  0.009400  0.806100  1.0
  C  C800  1  0.294100  0.009400  0.693900  1.0
  C  C801  1  0.837600  0.963500  0.201900  1.0
  C  C802  1  0.662400  0.963500  0.298100  1.0
  C  C803  1  0.162400  0.036500  0.798100  1.0
  C  C804  1  0.337600  0.036500  0.701900  1.0
  C  C805  1  0.714700  0.013500  0.150800  1.0
  C  C806  1  0.785300  0.013500  0.349200  1.0
  C  C807  1  0.285300  0.986500  0.849200  1.0
  C  C808  1  0.214700  0.986500  0.650800  1.0
  C  C809  1  0.277700  0.268900  0.180600  1.0
  C  C810  1  0.222300  0.268900  0.319400  1.0
  C  C811  1  0.722300  0.731100  0.819400  1.0
  C  C812  1  0.777700  0.731100  0.680600  1.0
  C  C813  1  0.231700  0.199700  0.152700  1.0
  C  C814  1  0.268300  0.199700  0.347300  1.0
  C  C815  1  0.768300  0.800300  0.847300  1.0
  C  C816  1  0.731700  0.800300  0.652700  1.0
  C  C817  1  0.198500  0.204200  0.179700  1.0
  C  C818  1  0.301500  0.204200  0.320300  1.0
  C  C819  1  0.801500  0.795800  0.820300  1.0
  C  C820  1  0.698500  0.795800  0.679700  1.0
  C  C821  1  0.204900  0.240900  0.207100  1.0
  C  C822  1  0.295100  0.240900  0.292900  1.0
  C  C823  1  0.795100  0.759100  0.792900  1.0
  C  C824  1  0.704900  0.759100  0.707100  1.0
  C  C825  1  0.244500  0.273300  0.207600  1.0
  C  C826  1  0.255500  0.273300  0.292400  1.0
  C  C827  1  0.755500  0.726700  0.792400  1.0
  C  C828  1  0.744500  0.726700  0.707600  1.0
  C  C829  1  0.324600  0.293400  0.181100  1.0
  C  C830  1  0.175400  0.293400  0.318900  1.0
  C  C831  1  0.675400  0.706600  0.818900  1.0
  C  C832  1  0.824600  0.706600  0.681100  1.0
  C  C833  1  0.394900  0.309100  0.156400  1.0
  C  C834  1  0.105100  0.309100  0.343600  1.0
  C  C835  1  0.605100  0.690900  0.843600  1.0
  C  C836  1  0.894900  0.690900  0.656400  1.0
  C  C837  1  0.397600  0.344300  0.131600  1.0
  C  C838  1  0.102400  0.344300  0.368400  1.0
  C  C839  1  0.602400  0.655700  0.868400  1.0
  C  C840  1  0.897600  0.655700  0.631600  1.0
  C  C841  1  0.444200  0.366600  0.130800  1.0
  C  C842  1  0.055800  0.366600  0.369200  1.0
  C  C843  1  0.555800  0.633400  0.869200  1.0
  C  C844  1  0.944200  0.633400  0.630800  1.0
  C  C845  1  0.485200  0.352600  0.155400  1.0
  C  C846  1  0.014800  0.352600  0.344600  1.0
  C  C847  1  0.514800  0.647400  0.844600  1.0
  C  C848  1  0.985200  0.647400  0.655400  1.0
  C  C849  1  0.486300  0.318900  0.184000  1.0
  C  C850  1  0.013700  0.318900  0.316000  1.0
  C  C851  1  0.513700  0.681100  0.816000  1.0
  C  C852  1  0.986300  0.681100  0.684000  1.0
  C  C853  1  0.437400  0.296500  0.184600  1.0
  C  C854  1  0.062600  0.296500  0.315400  1.0
  C  C855  1  0.562600  0.703500  0.815400  1.0
  C  C856  1  0.937400  0.703500  0.684600  1.0
  C  C857  1  0.539400  0.374000  0.153100  1.0
  C  C858  1  0.960600  0.374000  0.346900  1.0
  C  C859  1  0.460600  0.626000  0.846900  1.0
  C  C860  1  0.039400  0.626000  0.653100  1.0
  C  C861  1  0.608800  0.194500  0.888070  1.0
  C  C862  1  0.891200  0.194500  0.611930  1.0
  C  C863  1  0.391200  0.805500  0.111930  1.0
  C  C864  1  0.108800  0.805500  0.388070  1.0
  C  C865  1  0.668200  0.181900  0.843550  1.0
  C  C866  1  0.831800  0.181900  0.656450  1.0
  C  C867  1  0.331800  0.818100  0.156450  1.0
  C  C868  1  0.168200  0.818100  0.343550  1.0
  C  C869  1  0.634600  0.149900  0.822070  1.0
  C  C870  1  0.865400  0.149900  0.677930  1.0
  C  C871  1  0.365400  0.850100  0.177930  1.0
  C  C872  1  0.134600  0.850100  0.322070  1.0
  C  C873  1  0.588100  0.140200  0.833600  1.0
  C  C874  1  0.911900  0.140200  0.666400  1.0
  C  C875  1  0.411900  0.859800  0.166400  1.0
  C  C876  1  0.088100  0.859800  0.333600  1.0
  C  C877  1  0.575200  0.162500  0.866590  1.0
  C  C878  1  0.924800  0.162500  0.633410  1.0
  C  C879  1  0.424800  0.837500  0.133410  1.0
  C  C880  1  0.075200  0.837500  0.366590  1.0
  C  C881  1  0.600600  0.219000  0.921700  1.0
  C  C882  1  0.899400  0.219000  0.578300  1.0
  C  C883  1  0.399400  0.781000  0.078300  1.0
  C  C884  1  0.100600  0.781000  0.421700  1.0
  C  C885  1  0.627700  0.270300  0.972600  1.0
  C  C886  1  0.872300  0.270300  0.527400  1.0
  C  C887  1  0.372300  0.729700  0.027400  1.0
  C  C888  1  0.127700  0.729700  0.472600  1.0
  C  C889  1  0.638100  0.248800  0.007700  1.0
  C  C890  1  0.861900  0.248800  0.492300  1.0
  C  C891  1  0.361900  0.751200  0.992300  1.0
  C  C892  1  0.138100  0.751200  0.507700  1.0
  C  C893  1  0.634000  0.272700  0.041800  1.0
  C  C894  1  0.866000  0.272700  0.458200  1.0
  C  C895  1  0.366000  0.727300  0.958200  1.0
  C  C896  1  0.134000  0.727300  0.541800  1.0
  C  C897  1  0.619000  0.320700  0.037900  1.0
  C  C898  1  0.881000  0.320700  0.462100  1.0
  C  C899  1  0.381000  0.679300  0.962100  1.0
  C  C900  1  0.119000  0.679300  0.537900  1.0
  C  C901  1  0.606200  0.341100  0.001600  1.0
  C  C902  1  0.893800  0.341100  0.498400  1.0
  C  C903  1  0.393800  0.658900  0.998400  1.0
  C  C904  1  0.106200  0.658900  0.501600  1.0
  C  C905  1  0.612300  0.316000  0.969100  1.0
  C  C906  1  0.887700  0.316000  0.530900  1.0
  C  C907  1  0.387700  0.684000  0.030900  1.0
  C  C908  1  0.112300  0.684000  0.469100  1.0
  C  C909  1  0.619800  0.350700  0.073200  1.0
  C  C910  1  0.880200  0.350700  0.426800  1.0
  C  C911  1  0.380200  0.649300  0.926800  1.0
  C  C912  1  0.119800  0.649300  0.573200  1.0
  C  C913  1  0.973900  0.536200  0.076000  1.0
  C  C914  1  0.526100  0.536200  0.424000  1.0
  C  C915  1  0.026100  0.463800  0.924000  1.0
  C  C916  1  0.473900  0.463800  0.576000  1.0
  C  C917  1  0.020500  0.600400  0.101500  1.0
  C  C918  1  0.479500  0.600400  0.398500  1.0
  C  C919  1  0.979500  0.399600  0.898500  1.0
  C  C920  1  0.520500  0.399600  0.601500  1.0
  C  C921  1  0.052900  0.591700  0.074800  1.0
  C  C922  1  0.447100  0.591700  0.425200  1.0
  C  C923  1  0.947100  0.408300  0.925200  1.0
  C  C924  1  0.552900  0.408300  0.574800  1.0
  C  C925  1  0.048300  0.554400  0.050900  1.0
  C  C926  1  0.451700  0.554400  0.449100  1.0
  C  C927  1  0.951700  0.445600  0.949100  1.0
  C  C928  1  0.548300  0.445600  0.550900  1.0
  C  C929  1  0.007800  0.527000  0.051700  1.0
  C  C930  1  0.492200  0.527000  0.448300  1.0
  C  C931  1  0.992200  0.473000  0.948300  1.0
  C  C932  1  0.507800  0.473000  0.551700  1.0
  C  C933  1  0.927000  0.511100  0.077900  1.0
  C  C934  1  0.573000  0.511100  0.422100  1.0
  C  C935  1  0.073000  0.488900  0.922100  1.0
  C  C936  1  0.427000  0.488900  0.577900  1.0
  C  C937  1  0.852800  0.501000  0.103190  1.0
  C  C938  1  0.647200  0.501000  0.396810  1.0
  C  C939  1  0.147200  0.499000  0.896810  1.0
  C  C940  1  0.352800  0.499000  0.603190  1.0
  C  C941  1  0.809900  0.524800  0.090820  1.0
  C  C942  1  0.690100  0.524800  0.409180  1.0
  C  C943  1  0.190100  0.475200  0.909180  1.0
  C  C944  1  0.309900  0.475200  0.590820  1.0
  C  C945  1  0.763400  0.503900  0.094200  1.0
  C  C946  1  0.736600  0.503900  0.405800  1.0
  C  C947  1  0.236600  0.496100  0.905800  1.0
  C  C948  1  0.263400  0.496100  0.594200  1.0
  C  C949  1  0.762100  0.458800  0.110550  1.0
  C  C950  1  0.737900  0.458800  0.389450  1.0
  C  C951  1  0.237900  0.541200  0.889450  1.0
  C  C952  1  0.262100  0.541200  0.610550  1.0
  C  C953  1  0.807300  0.434100  0.121550  1.0
  C  C954  1  0.692700  0.434100  0.378450  1.0
  C  C955  1  0.192700  0.565900  0.878450  1.0
  C  C956  1  0.307300  0.565900  0.621550  1.0
  C  C957  1  0.853200  0.454700  0.117420  1.0
  C  C958  1  0.646800  0.454700  0.382580  1.0
  C  C959  1  0.146800  0.545300  0.882580  1.0
  C  C960  1  0.353200  0.545300  0.617420  1.0
  C  C961  1  0.714500  0.440200  0.119360  1.0
  C  C962  1  0.785500  0.440200  0.380640  1.0
  C  C963  1  0.285500  0.559800  0.880640  1.0
  C  C964  1  0.214500  0.559800  0.619360  1.0
  C  C965  1  0.656000  0.634500  0.380800  1.0
  C  C966  1  0.844000  0.634500  0.119200  1.0
  C  C967  1  0.344000  0.365500  0.619200  1.0
  C  C968  1  0.156000  0.365500  0.880800  1.0
  C  C969  1  0.609200  0.640100  0.429300  1.0
  C  C970  1  0.890800  0.640100  0.070700  1.0
  C  C971  1  0.390800  0.359900  0.570700  1.0
  C  C972  1  0.109200  0.359900  0.929300  1.0
  C  C973  1  0.644900  0.669700  0.450100  1.0
  C  C974  1  0.855100  0.669700  0.049900  1.0
  C  C975  1  0.355100  0.330300  0.549900  1.0
  C  C976  1  0.144900  0.330300  0.950100  1.0
  C  C977  1  0.685600  0.682000  0.434400  1.0
  C  C978  1  0.814400  0.682000  0.065600  1.0
  C  C979  1  0.314400  0.318000  0.565600  1.0
  C  C980  1  0.185600  0.318000  0.934400  1.0
  C  C981  1  0.692200  0.665100  0.399900  1.0
  C  C982  1  0.807800  0.665100  0.100100  1.0
  C  C983  1  0.307800  0.334900  0.600100  1.0
  C  C984  1  0.192200  0.334900  0.899900  1.0
  C  C985  1  0.660300  0.610200  0.344600  1.0
  C  C986  1  0.839700  0.610200  0.155400  1.0
  C  C987  1  0.339700  0.389800  0.655400  1.0
  C  C988  1  0.160300  0.389800  0.844600  1.0
  C  C989  1  0.630400  0.553500  0.297400  1.0
  C  C990  1  0.869600  0.553500  0.202600  1.0
  C  C991  1  0.369600  0.446500  0.702600  1.0
  C  C992  1  0.130400  0.446500  0.797400  1.0
  C  C993  1  0.666100  0.517700  0.300300  1.0
  C  C994  1  0.833900  0.517700  0.199700  1.0
  C  C995  1  0.333900  0.482300  0.699700  1.0
  C  C996  1  0.166100  0.482300  0.800300  1.0
  C  C997  1  0.667700  0.489800  0.267500  1.0
  C  C998  1  0.832300  0.489800  0.232500  1.0
  C  C999  1  0.332300  0.510200  0.732500  1.0
  C  C1000  1  0.167700  0.510200  0.767500  1.0
  C  C1001  1  0.636200  0.498500  0.233200  1.0
  C  C1002  1  0.863800  0.498500  0.266800  1.0
  C  C1003  1  0.363800  0.501500  0.766800  1.0
  C  C1004  1  0.136200  0.501500  0.733200  1.0
  C  C1005  1  0.603000  0.535200  0.231000  1.0
  C  C1006  1  0.897000  0.535200  0.269000  1.0
  C  C1007  1  0.397000  0.464800  0.769000  1.0
  C  C1008  1  0.103000  0.464800  0.731000  1.0
  C  C1009  1  0.598300  0.564600  0.263300  1.0
  C  C1010  1  0.901700  0.564600  0.236700  1.0
  C  C1011  1  0.401700  0.435400  0.736700  1.0
  C  C1012  1  0.098300  0.435400  0.763300  1.0
  C  C1013  1  0.634600  0.466100  0.199100  1.0
  C  C1014  1  0.865400  0.466100  0.300900  1.0
  C  C1015  1  0.365400  0.533900  0.800900  1.0
  C  C1016  1  0.134600  0.533900  0.699100  1.0
  C  C1017  1  0.262400  0.175700  0.055800  1.0
  C  C1018  1  0.237600  0.175700  0.444200  1.0
  C  C1019  1  0.737600  0.824300  0.944200  1.0
  C  C1020  1  0.762400  0.824300  0.555800  1.0
  C  C1021  1  0.244500  0.133500  0.037210  1.0
  C  C1022  1  0.255500  0.133500  0.462790  1.0
  C  C1023  1  0.755500  0.866500  0.962790  1.0
  C  C1024  1  0.744500  0.866500  0.537210  1.0
  C  C1025  1  0.259900  0.090000  0.054400  1.0
  C  C1026  1  0.240100  0.090000  0.445600  1.0
  C  C1027  1  0.740100  0.910000  0.945600  1.0
  C  C1028  1  0.759900  0.910000  0.554400  1.0
  C  C1029  1  0.293100  0.088500  0.090100  1.0
  C  C1030  1  0.206900  0.088500  0.409900  1.0
  C  C1031  1  0.706900  0.911500  0.909900  1.0
  C  C1032  1  0.793100  0.911500  0.590100  1.0
  C  C1033  1  0.311000  0.130700  0.108670  1.0
  C  C1034  1  0.189000  0.130700  0.391330  1.0
  C  C1035  1  0.689000  0.869300  0.891330  1.0
  C  C1036  1  0.811000  0.869300  0.608670  1.0
  C  C1037  1  0.346100  0.136100  0.143600  1.0
  C  C1038  1  0.153900  0.136100  0.356400  1.0
  C  C1039  1  0.653900  0.863900  0.856400  1.0
  C  C1040  1  0.846100  0.863900  0.643600  1.0
  C  C1041  1  0.391400  0.181900  0.189500  1.0
  C  C1042  1  0.108600  0.181900  0.310500  1.0
  C  C1043  1  0.608600  0.818100  0.810500  1.0
  C  C1044  1  0.891400  0.818100  0.689500  1.0
  C  C1045  1  0.443400  0.175400  0.189000  1.0
  C  C1046  1  0.056600  0.175400  0.311000  1.0
  C  C1047  1  0.556600  0.824600  0.811000  1.0
  C  C1048  1  0.943400  0.824600  0.689000  1.0
  C  C1049  1  0.477400  0.183400  0.222700  1.0
  C  C1050  1  0.022600  0.183400  0.277300  1.0
  C  C1051  1  0.522600  0.816600  0.777300  1.0
  C  C1052  1  0.977400  0.816600  0.722700  1.0
  C  C1053  1  0.459900  0.200200  0.256800  1.0
  C  C1054  1  0.040100  0.200200  0.243200  1.0
  C  C1055  1  0.540100  0.799800  0.743200  1.0
  C  C1056  1  0.959900  0.799800  0.756800  1.0
  C  C1057  1  0.409400  0.203300  0.256000  1.0
  C  C1058  1  0.090600  0.203300  0.244000  1.0
  C  C1059  1  0.590600  0.796700  0.744000  1.0
  C  C1060  1  0.909400  0.796700  0.756000  1.0
  C  C1061  1  0.376500  0.194600  0.222700  1.0
  C  C1062  1  0.123500  0.194600  0.277300  1.0
  C  C1063  1  0.623500  0.805400  0.777300  1.0
  C  C1064  1  0.876500  0.805400  0.722700  1.0
  C  C1065  1  0.497500  0.213600  0.292100  1.0
  C  C1066  1  0.002500  0.213600  0.207900  1.0
  C  C1067  1  0.502500  0.786400  0.707900  1.0
  C  C1068  1  0.997500  0.786400  0.792100  1.0
  C  C1069  1  0.820700  0.348900  0.599480  1.0
  C  C1070  1  0.679300  0.348900  0.900520  1.0
  C  C1071  1  0.179300  0.651100  0.400520  1.0
  C  C1072  1  0.320700  0.651100  0.099480  1.0
  C  C1073  1  0.872600  0.305100  0.651600  1.0
  C  C1074  1  0.627400  0.305100  0.848400  1.0
  C  C1075  1  0.127400  0.694900  0.348400  1.0
  C  C1076  1  0.372600  0.694900  0.151600  1.0
  C  C1077  1  0.893100  0.347600  0.667850  1.0
  C  C1078  1  0.606900  0.347600  0.832150  1.0
  C  C1079  1  0.106900  0.652400  0.332150  1.0
  C  C1080  1  0.393100  0.652400  0.167850  1.0
  C  C1081  1  0.877500  0.390700  0.650000  1.0
  C  C1082  1  0.622500  0.390700  0.850000  1.0
  C  C1083  1  0.122500  0.609300  0.350000  1.0
  C  C1084  1  0.377500  0.609300  0.150000  1.0
  C  C1085  1  0.841300  0.391300  0.615800  1.0
  C  C1086  1  0.658700  0.391300  0.884200  1.0
  C  C1087  1  0.158700  0.608700  0.384200  1.0
  C  C1088  1  0.341300  0.608700  0.115800  1.0
  C  C1089  1  0.785200  0.341400  0.566700  1.0
  C  C1090  1  0.714800  0.341400  0.933300  1.0
  C  C1091  1  0.214800  0.658600  0.433300  1.0
  C  C1092  1  0.285200  0.658600  0.066700  1.0
  C  C1093  1  0.733400  0.296000  0.521200  1.0
  C  C1094  1  0.766600  0.296000  0.978800  1.0
  C  C1095  1  0.266600  0.704000  0.478800  1.0
  C  C1096  1  0.233400  0.704000  0.021200  1.0
  C  C1097  1  0.746400  0.305600  0.484500  1.0
  C  C1098  1  0.753600  0.305600  0.015500  1.0
  C  C1099  1  0.253600  0.694400  0.515500  1.0
  C  C1100  1  0.246400  0.694400  0.984500  1.0
  C  C1101  1  0.709500  0.297000  0.451100  1.0
  C  C1102  1  0.790500  0.297000  0.048900  1.0
  C  C1103  1  0.290500  0.703000  0.548900  1.0
  C  C1104  1  0.209500  0.703000  0.951100  1.0
  C  C1105  1  0.662100  0.282500  0.454700  1.0
  C  C1106  1  0.837900  0.282500  0.045300  1.0
  C  C1107  1  0.337900  0.717500  0.545300  1.0
  C  C1108  1  0.162100  0.717500  0.954700  1.0
  C  C1109  1  0.649600  0.275700  0.491000  1.0
  C  C1110  1  0.850400  0.275700  0.009000  1.0
  C  C1111  1  0.350400  0.724300  0.509000  1.0
  C  C1112  1  0.149600  0.724300  0.991000  1.0
  C  C1113  1  0.683600  0.281600  0.524400  1.0
  C  C1114  1  0.816400  0.281600  0.975600  1.0
  C  C1115  1  0.316400  0.718400  0.475600  1.0
  C  C1116  1  0.183600  0.718400  0.024400  1.0
  C  C1117  1  0.625100  0.269000  0.418700  1.0
  C  C1118  1  0.874900  0.269000  0.081300  1.0
  C  C1119  1  0.374900  0.731000  0.581300  1.0
  C  C1120  1  0.125100  0.731000  0.918700  1.0
  C  C1121  1  0.613200  0.879600  0.416200  1.0
  C  C1122  1  0.886800  0.879600  0.083800  1.0
  C  C1123  1  0.386800  0.120400  0.583800  1.0
  C  C1124  1  0.113200  0.120400  0.916200  1.0
  C  C1125  1  0.586800  0.814800  0.379300  1.0
  C  C1126  1  0.913200  0.814800  0.120700  1.0
  C  C1127  1  0.413200  0.185200  0.620700  1.0
  C  C1128  1  0.086800  0.185200  0.879300  1.0
  C  C1129  1  0.611600  0.785900  0.405900  1.0
  C  C1130  1  0.888400  0.785900  0.094100  1.0
  C  C1131  1  0.388400  0.214100  0.594100  1.0
  C  C1132  1  0.111600  0.214100  0.905900  1.0
  C  C1133  1  0.638700  0.803900  0.440100  1.0
  C  C1134  1  0.861300  0.803900  0.059900  1.0
  C  C1135  1  0.361300  0.196100  0.559900  1.0
  C  C1136  1  0.138700  0.196100  0.940100  1.0
  C  C1137  1  0.638500  0.851200  0.445500  1.0
  C  C1138  1  0.861500  0.851200  0.054500  1.0
  C  C1139  1  0.361500  0.148800  0.554500  1.0
  C  C1140  1  0.138500  0.148800  0.945500  1.0
  C  C1141  1  0.612600  0.930600  0.416500  1.0
  C  C1142  1  0.887400  0.930600  0.083500  1.0
  C  C1143  1  0.387400  0.069400  0.583500  1.0
  C  C1144  1  0.112600  0.069400  0.916500  1.0
  C  C1145  1  0.588800  0.002100  0.386280  1.0
  C  C1146  1  0.911200  0.002100  0.113720  1.0
  C  C1147  1  0.411200  0.997900  0.613720  1.0
  C  C1148  1  0.088800  0.997900  0.886280  1.0
  C  C1149  1  0.548900  0.025500  0.396100  1.0
  C  C1150  1  0.951100  0.025500  0.103900  1.0
  C  C1151  1  0.451100  0.974500  0.603900  1.0
  C  C1152  1  0.048900  0.974500  0.896100  1.0
  C  C1153  1  0.547200  0.073800  0.392900  1.0
  C  C1154  1  0.952800  0.073800  0.107100  1.0
  C  C1155  1  0.452800  0.926200  0.607100  1.0
  C  C1156  1  0.047200  0.926200  0.892900  1.0
  C  C1157  1  0.584700  0.099000  0.380280  1.0
  C  C1158  1  0.915300  0.099000  0.119720  1.0
  C  C1159  1  0.415300  0.901000  0.619720  1.0
  C  C1160  1  0.084700  0.901000  0.880280  1.0
  C  C1161  1  0.627200  0.075200  0.372430  1.0
  C  C1162  1  0.872800  0.075200  0.127570  1.0
  C  C1163  1  0.372800  0.924800  0.627570  1.0
  C  C1164  1  0.127200  0.924800  0.872430  1.0
  C  C1165  1  0.629200  0.026100  0.375790  1.0
  C  C1166  1  0.870800  0.026100  0.124210  1.0
  C  C1167  1  0.370800  0.973900  0.624210  1.0
  C  C1168  1  0.129200  0.973900  0.875790  1.0
  C  C1169  1  0.578800  0.151200  0.373160  1.0
  C  C1170  1  0.921200  0.151200  0.126840  1.0
  C  C1171  1  0.421200  0.848800  0.626840  1.0
  C  C1172  1  0.078800  0.848800  0.873160  1.0
  C  C1173  1  0.492800  0.604800  0.304100  1.0
  C  C1174  1  0.007200  0.604800  0.195900  1.0
  C  C1175  1  0.507200  0.395200  0.695900  1.0
  C  C1176  1  0.992800  0.395200  0.804100  1.0
  C  C1177  1  0.537400  0.670600  0.331000  1.0
  C  C1178  1  0.962600  0.670600  0.169000  1.0
  C  C1179  1  0.462600  0.329400  0.669000  1.0
  C  C1180  1  0.037400  0.329400  0.831000  1.0
  C  C1181  1  0.503300  0.699200  0.309200  1.0
  C  C1182  1  0.996700  0.699200  0.190800  1.0
  C  C1183  1  0.496700  0.300800  0.690800  1.0
  C  C1184  1  0.003300  0.300800  0.809200  1.0
  C  C1185  1  0.461600  0.681800  0.283600  1.0
  C  C1186  1  0.038400  0.681800  0.216400  1.0
  C  C1187  1  0.538400  0.318200  0.716400  1.0
  C  C1188  1  0.961600  0.318200  0.783600  1.0
  C  C1189  1  0.458700  0.632500  0.280700  1.0
  C  C1190  1  0.041300  0.632500  0.219300  1.0
  C  C1191  1  0.541300  0.367500  0.719300  1.0
  C  C1192  1  0.958700  0.367500  0.780700  1.0
  C  C1193  1  0.492200  0.554700  0.304200  1.0
  C  C1194  1  0.007800  0.554700  0.195800  1.0
  C  C1195  1  0.507800  0.445300  0.695800  1.0
  C  C1196  1  0.992200  0.445300  0.804200  1.0
  C  C1197  1  0.525500  0.482500  0.326800  1.0
  C  C1198  1  0.974500  0.482500  0.173200  1.0
  C  C1199  1  0.474500  0.517500  0.673200  1.0
  C  C1200  1  0.025500  0.517500  0.826800  1.0
  C  C1201  1  0.500100  0.458800  0.351400  1.0
  C  C1202  1  0.999900  0.458800  0.148600  1.0
  C  C1203  1  0.499900  0.541200  0.648600  1.0
  C  C1204  1  0.000100  0.541200  0.851400  1.0
  C  C1205  1  0.504300  0.410100  0.354400  1.0
  C  C1206  1  0.995700  0.410100  0.145600  1.0
  C  C1207  1  0.495700  0.589900  0.645600  1.0
  C  C1208  1  0.004300  0.589900  0.854400  1.0
  C  C1209  1  0.533200  0.385700  0.332000  1.0
  C  C1210  1  0.966800  0.385700  0.168000  1.0
  C  C1211  1  0.466800  0.614300  0.668000  1.0
  C  C1212  1  0.033200  0.614300  0.832000  1.0
  C  C1213  1  0.555200  0.408500  0.305200  1.0
  C  C1214  1  0.944800  0.408500  0.194800  1.0
  C  C1215  1  0.444800  0.591500  0.694800  1.0
  C  C1216  1  0.055200  0.591500  0.805200  1.0
  C  C1217  1  0.552200  0.458200  0.302800  1.0
  C  C1218  1  0.947800  0.458200  0.197200  1.0
  C  C1219  1  0.447800  0.541800  0.697200  1.0
  C  C1220  1  0.052200  0.541800  0.802800  1.0
  C  C1221  1  0.540400  0.334200  0.337700  1.0
  C  C1222  1  0.959600  0.334200  0.162300  1.0
  C  C1223  1  0.459600  0.665800  0.662300  1.0
  C  C1224  1  0.040400  0.665800  0.837700  1.0
  S  S1225  1  0.404400  0.229800  0.407700  1
  S  S1226  1  0.095600  0.229800  0.092300  1
  S  S1227  1  0.595600  0.770200  0.592300  1
  S  S1228  1  0.904400  0.770200  0.907700  1
  S  S1229  1  0.120700  0.433300  0.023830  1
  S  S1230  1  0.379300  0.433300  0.476170  1
  S  S1231  1  0.879300  0.566700  0.976170  1
  S  S1232  1  0.620700  0.566700  0.523830  1
  S  S1233  1  0.706500  0.784600  0.037140  1
  S  S1234  1  0.793500  0.784600  0.462860  1
  S  S1235  1  0.293500  0.215400  0.962860  1
  S  S1236  1  0.206500  0.215400  0.537140  1
  S  S1237  1  0.005260  0.751580  0.082170  1
  S  S1238  1  0.494740  0.751580  0.417830  1
  S  S1239  1  0.994740  0.248420  0.917830  1
  S  S1240  1  0.505260  0.248420  0.582170  1
  S  S1241  1  0.034500  0.736430  0.109890  1
  S  S1242  1  0.465500  0.736430  0.390110  1
  S  S1243  1  0.965500  0.263570  0.890110  1
  S  S1244  1  0.534500  0.263570  0.609890  1
  S  S1245  1  0.534000  0.532500  0.058400  1
  S  S1246  1  0.966000  0.532500  0.441600  1
  S  S1247  1  0.466000  0.467500  0.941600  1
  S  S1248  1  0.034000  0.467500  0.558400  1
  S  S1249  1  0.544900  0.548000  0.090900  1
  S  S1250  1  0.955100  0.548000  0.409100  1
  S  S1251  1  0.455100  0.452000  0.909100  1
  S  S1252  1  0.044900  0.452000  0.590900  1
  N  N1253  1  0.663700  0.254900  0.295200  1
  N  N1254  1  0.836300  0.254900  0.204800  1
  N  N1255  1  0.336300  0.745100  0.704800  1
  N  N1256  1  0.163700  0.745100  0.795200  1
  N  N1257  1  0.695400  0.180500  0.182200  1
  N  N1258  1  0.804600  0.180500  0.317800  1
  N  N1259  1  0.304600  0.819500  0.817800  1
  N  N1260  1  0.195400  0.819500  0.682200  1
  N  N1261  1  0.179100  0.593500  0.055700  1
  N  N1262  1  0.320900  0.593500  0.444300  1
  N  N1263  1  0.820900  0.406500  0.944300  1
  N  N1264  1  0.679100  0.406500  0.555700  1
  N  N1265  1  0.879100  0.149800  0.997700  1
  N  N1266  1  0.620900  0.149800  0.502300  1
  N  N1267  1  0.120900  0.850200  0.002300  1
  N  N1268  1  0.379100  0.850200  0.497700  1
  N  N1269  1  0.715700  0.157600  0.191700  1
  N  N1270  1  0.784300  0.157600  0.308300  1
  N  N1271  1  0.284300  0.842400  0.808300  1
  N  N1272  1  0.215700  0.842400  0.691700  1
  N  N1273  1  0.287500  0.274800  0.084400  1.0
  N  N1274  1  0.212500  0.274800  0.415600  1.0
  N  N1275  1  0.712500  0.725200  0.915600  1.0
  N  N1276  1  0.787500  0.725200  0.584400  1.0
  N  N1277  1  0.271300  0.232100  0.153200  1.0
  N  N1278  1  0.228700  0.232100  0.346800  1.0
  N  N1279  1  0.728700  0.767900  0.846800  1.0
  N  N1280  1  0.771300  0.767900  0.653200  1.0
  N  N1281  1  0.655300  0.204200  0.876540  1.0
  N  N1282  1  0.844700  0.204200  0.623460  1.0
  N  N1283  1  0.344700  0.795800  0.123460  1.0
  N  N1284  1  0.155300  0.795800  0.376540  1.0
  N  N1285  1  0.295600  0.174200  0.091500  1.0
  N  N1286  1  0.204400  0.174200  0.408500  1.0
  N  N1287  1  0.704400  0.825800  0.908500  1.0
  N  N1288  1  0.795600  0.825800  0.591500  1.0
  N  N1289  1  0.836400  0.305700  0.617400  1.0
  N  N1290  1  0.663600  0.305700  0.882600  1.0
  N  N1291  1  0.163600  0.694300  0.382600  1.0
  N  N1292  1  0.336400  0.694300  0.117400  1.0
  N  N1293  1  0.372000  0.234100  0.087200  1.0
  N  N1294  1  0.128000  0.234100  0.412800  1.0
  N  N1295  1  0.628000  0.765900  0.912800  1.0
  N  N1296  1  0.872000  0.765900  0.587200  1.0
  N  N1297  1  0.752600  0.249700  0.881900  1.0
  N  N1298  1  0.747400  0.249700  0.618100  1.0
  N  N1299  1  0.247400  0.750300  0.118100  1.0
  N  N1300  1  0.252600  0.750300  0.381900  1.0
  N  N1301  1  0.735400  0.198200  0.937960  1.0
  N  N1302  1  0.764600  0.198200  0.562040  1.0
  N  N1303  1  0.264600  0.801800  0.062040  1.0
  N  N1304  1  0.235400  0.801800  0.437960  1.0
  N  N1305  1  0.492900  0.912450  0.372360  1.0
  N  N1306  1  0.007100  0.912450  0.127640  1.0
  N  N1307  1  0.507100  0.087550  0.627640  1.0
  N  N1308  1  0.992900  0.087550  0.872360  1.0
  N  N1309  1  0.516300  0.959160  0.315220  1.0
  N  N1310  1  0.983700  0.959160  0.184780  1.0
  N  N1311  1  0.483700  0.040840  0.684780  1.0
  N  N1312  1  0.016300  0.040840  0.815220  1.0
  N  N1313  1  0.979200  0.861800  0.192640  1.0
  N  N1314  1  0.520800  0.861800  0.307360  1.0
  N  N1315  1  0.020800  0.138200  0.807360  1.0
  N  N1316  1  0.479200  0.138200  0.692640  1.0
  N  N1317  1  0.891600  0.902500  0.184030  1.0
  N  N1318  1  0.608400  0.902500  0.315970  1.0
  N  N1319  1  0.108400  0.097500  0.815970  1.0
  N  N1320  1  0.391600  0.097500  0.684030  1.0
  N  N1321  1  0.348800  0.278900  0.155900  1.0
  N  N1322  1  0.151200  0.278900  0.344100  1.0
  N  N1323  1  0.651200  0.721100  0.844100  1.0
  N  N1324  1  0.848800  0.721100  0.655900  1.0
  N  N1325  1  0.637500  0.245400  0.937770  1.0
  N  N1326  1  0.862500  0.245400  0.562230  1.0
  N  N1327  1  0.362500  0.754600  0.062230  1.0
  N  N1328  1  0.137500  0.754600  0.437770  1.0
  N  N1329  1  0.979600  0.572900  0.101290  1.0
  N  N1330  1  0.520400  0.572900  0.398710  1.0
  N  N1331  1  0.020400  0.427100  0.898710  1.0
  N  N1332  1  0.479600  0.427100  0.601290  1.0
  N  N1333  1  0.899900  0.524650  0.102230  1.0
  N  N1334  1  0.600100  0.524650  0.397770  1.0
  N  N1335  1  0.100100  0.475350  0.897770  1.0
  N  N1336  1  0.399900  0.475350  0.602230  1.0
  N  N1337  1  0.614400  0.622500  0.395160  1.0
  N  N1338  1  0.885600  0.622500  0.104840  1.0
  N  N1339  1  0.385600  0.377500  0.604840  1.0
  N  N1340  1  0.114400  0.377500  0.895160  1.0
  N  N1341  1  0.625800  0.580410  0.331730  1.0
  N  N1342  1  0.874200  0.580410  0.168270  1.0
  N  N1343  1  0.374200  0.419590  0.668270  1.0
  N  N1344  1  0.125800  0.419590  0.831730  1.0
  N  N1345  1  0.356800  0.176900  0.154700  1.0
  N  N1346  1  0.143200  0.176900  0.345300  1.0
  N  N1347  1  0.643200  0.823100  0.845300  1.0
  N  N1348  1  0.856800  0.823100  0.654700  1.0
  N  N1349  1  0.770800  0.301000  0.556270  1.0
  N  N1350  1  0.729200  0.301000  0.943730  1.0
  N  N1351  1  0.229200  0.699000  0.443730  1.0
  N  N1352  1  0.270800  0.699000  0.056270  1.0
  N  N1353  1  0.585700  0.861500  0.383210  1.0
  N  N1354  1  0.914300  0.861500  0.116790  1.0
  N  N1355  1  0.414300  0.138500  0.616790  1.0
  N  N1356  1  0.085700  0.138500  0.883210  1.0
  N  N1357  1  0.589400  0.951150  0.386920  1.0
  N  N1358  1  0.910600  0.951150  0.113080  1.0
  N  N1359  1  0.410600  0.048850  0.613080  1.0
  N  N1360  1  0.089400  0.048850  0.886920  1.0
  N  N1361  1  0.531700  0.622880  0.329380  1.0
  N  N1362  1  0.968300  0.622880  0.170620  1.0
  N  N1363  1  0.468300  0.377120  0.670620  1.0
  N  N1364  1  0.031700  0.377120  0.829380  1.0
  N  N1365  1  0.526200  0.533810  0.326630  1.0
  N  N1366  1  0.973800  0.533810  0.173370  1.0
  N  N1367  1  0.473800  0.466190  0.673370  1.0
  N  N1368  1  0.026200  0.466190  0.826630  1.0
  O  O1369  1  0.387000  0.184400  0.392000  1
  O  O1370  1  0.113000  0.184400  0.108000  1
  O  O1371  1  0.613000  0.815600  0.608000  1
  O  O1372  1  0.887000  0.815600  0.892000  1
  O  O1373  1  0.457900  0.236700  0.411600  1
  O  O1374  1  0.042100  0.236700  0.088400  1
  O  O1375  1  0.542100  0.763300  0.588400  1
  O  O1376  1  0.957900  0.763300  0.911600  1
  O  O1377  1  0.373700  0.269500  0.392200  1
  O  O1378  1  0.126300  0.269500  0.107800  1
  O  O1379  1  0.626300  0.730500  0.607800  1
  O  O1380  1  0.873700  0.730500  0.892200  1
  O  O1381  1  0.094800  0.474100  0.007900  1
  O  O1382  1  0.405200  0.474100  0.492100  1
  O  O1383  1  0.905200  0.525900  0.992100  1
  O  O1384  1  0.594800  0.525900  0.507900  1
  O  O1385  1  0.105200  0.385400  0.022100  1
  O  O1386  1  0.394800  0.385400  0.477900  1
  O  O1387  1  0.894800  0.614600  0.977900  1
  O  O1388  1  0.605200  0.614600  0.522100  1
  O  O1389  1  0.171800  0.433400  0.014900  1
  O  O1390  1  0.328200  0.433400  0.485100  1
  O  O1391  1  0.828200  0.566600  0.985100  1
  O  O1392  1  0.671800  0.566600  0.514900  1
  O  O1393  1  0.750700  0.778400  0.019000  1
  O  O1394  1  0.749300  0.778400  0.481000  1
  O  O1395  1  0.249300  0.221600  0.981000  1
  O  O1396  1  0.250700  0.221600  0.519000  1
  O  O1397  1  0.665700  0.809000  0.013300  1
  O  O1398  1  0.834300  0.809000  0.486700  1
  O  O1399  1  0.334300  0.191000  0.986700  1
  O  O1400  1  0.165700  0.191000  0.513300  1
  O  O1401  1  0.692200  0.743800  0.057700  1
  O  O1402  1  0.807800  0.743800  0.442300  1
  O  O1403  1  0.307800  0.256200  0.942300  1
  O  O1404  1  0.192200  0.256200  0.557700  1
  O  O1405  1  0.975000  0.710100  0.085200  1
  O  O1406  1  0.525000  0.710100  0.414800  1
  O  O1407  1  0.025000  0.289900  0.914800  1
  O  O1408  1  0.475000  0.289900  0.585200  1
  O  O1409  1  0.985300  0.782700  0.050700  1
  O  O1410  1  0.514700  0.782700  0.449300  1
  O  O1411  1  0.014700  0.217300  0.949300  1
  O  O1412  1  0.485300  0.217300  0.550700  1
  O  O1413  1  0.024700  0.774300  0.118800  1
  O  O1414  1  0.475300  0.774300  0.381200  1
  O  O1415  1  0.975300  0.225700  0.881200  1
  O  O1416  1  0.524700  0.225700  0.618800  1
  O  O1417  1  0.046400  0.780200  0.130820  1
  O  O1418  1  0.453600  0.780200  0.369180  1
  O  O1419  1  0.953600  0.219800  0.869180  1
  O  O1420  1  0.546400  0.219800  0.630820  1
  O  O1421  1  0.073900  0.701700  0.116700  1
  O  O1422  1  0.426100  0.701700  0.383300  1
  O  O1423  1  0.926100  0.298300  0.883300  1
  O  O1424  1  0.573900  0.298300  0.616700  1
  O  O1425  1  0.984000  0.718900  0.109700  1
  O  O1426  1  0.516000  0.718900  0.390300  1
  O  O1427  1  0.016000  0.281100  0.890300  1
  O  O1428  1  0.484000  0.281100  0.609700  1
  O  O1429  1  0.573500  0.978900  0.064900  1
  O  O1430  1  0.926500  0.978900  0.435100  1
  O  O1431  1  0.426500  0.021100  0.935100  1
  O  O1432  1  0.073500  0.021100  0.564900  1
  O  O1433  1  0.504600  0.517700  0.021700  1
  O  O1434  1  0.995400  0.517700  0.478300  1
  O  O1435  1  0.495400  0.482300  0.978300  1
  O  O1436  1  0.004600  0.482300  0.521700  1
  O  O1437  1  0.542600  0.496500  0.088200  1
  O  O1438  1  0.957400  0.496500  0.411800  1
  O  O1439  1  0.457400  0.503500  0.911800  1
  O  O1440  1  0.042600  0.503500  0.588200  1
  O  O1441  1  0.553100  0.498400  0.084800  1
  O  O1442  1  0.946900  0.498400  0.415200  1
  O  O1443  1  0.446900  0.501600  0.915200  1
  O  O1444  1  0.053100  0.501600  0.584800  1
  O  O1445  1  0.549500  0.562100  0.131300  1
  O  O1446  1  0.950500  0.562100  0.368700  1
  O  O1447  1  0.450500  0.437900  0.868700  1
  O  O1448  1  0.049500  0.437900  0.631300  1
  O  O1449  1  0.568400  0.579600  0.067100  1
  O  O1450  1  0.931600  0.579600  0.432900  1
  O  O1451  1  0.431600  0.420400  0.932900  1
  O  O1452  1  0.068400  0.420400  0.567100  1
  O  O1453  1  0.577600  0.560700  0.055400  1
  O  O1454  1  0.922400  0.560700  0.444600  1
  O  O1455  1  0.422400  0.439300  0.944600  1
  O  O1456  1  0.077600  0.439300  0.555400  1
  O  O1457  1  0.594300  0.146300  0.130300  1.0
  O  O1458  1  0.905700  0.146300  0.369700  1.0
  O  O1459  1  0.405700  0.853700  0.869700  1.0
  O  O1460  1  0.094300  0.853700  0.630300  1.0
  O  O1461  1  0.554610  0.089500  0.093100  1.0
  O  O1462  1  0.945390  0.089500  0.406900  1.0
  O  O1463  1  0.445390  0.910500  0.906900  1.0
  O  O1464  1  0.054610  0.910500  0.593100  1.0
  O  O1465  1  0.688810  0.123180  0.101390  1.0
  O  O1466  1  0.811190  0.123180  0.398610  1.0
  O  O1467  1  0.311190  0.876820  0.898610  1.0
  O  O1468  1  0.188810  0.876820  0.601390  1.0
  O  O1469  1  0.648000  0.068900  0.062890  1.0
  O  O1470  1  0.852000  0.068900  0.437110  1.0
  O  O1471  1  0.352000  0.931100  0.937110  1.0
  O  O1472  1  0.148000  0.931100  0.562890  1.0
  O  O1473  1  0.619360  0.076390  0.193430  1.0
  O  O1474  1  0.880640  0.076390  0.306570  1.0
  O  O1475  1  0.380640  0.923610  0.806570  1.0
  O  O1476  1  0.119360  0.923610  0.693430  1.0
  O  O1477  1  0.582720  0.019690  0.155140  1.0
  O  O1478  1  0.917280  0.019690  0.344860  1.0
  O  O1479  1  0.417280  0.980310  0.844860  1.0
  O  O1480  1  0.082720  0.980310  0.655140  1.0
  O  O1481  1  0.714970  0.053200  0.166100  1.0
  O  O1482  1  0.785030  0.053200  0.333900  1.0
  O  O1483  1  0.285030  0.946800  0.833900  1.0
  O  O1484  1  0.214970  0.946800  0.666100  1.0
  O  O1485  1  0.677130  0.998240  0.125800  1.0
  O  O1486  1  0.822870  0.998240  0.374200  1.0
  O  O1487  1  0.322870  0.001760  0.874200  1.0
  O  O1488  1  0.177130  0.001760  0.625800  1.0
  O  O1489  1  0.536800  0.408700  0.130140  1.0
  O  O1490  1  0.963200  0.408700  0.369860  1.0
  O  O1491  1  0.463200  0.591300  0.869860  1.0
  O  O1492  1  0.036800  0.591300  0.630140  1.0
  O  O1493  1  0.578000  0.354400  0.168730  1.0
  O  O1494  1  0.922000  0.354400  0.331270  1.0
  O  O1495  1  0.422000  0.645600  0.831270  1.0
  O  O1496  1  0.078000  0.645600  0.668730  1.0
  O  O1497  1  0.600600  0.391700  0.068990  1.0
  O  O1498  1  0.899400  0.391700  0.431010  1.0
  O  O1499  1  0.399400  0.608300  0.931010  1.0
  O  O1500  1  0.100600  0.608300  0.568990  1.0
  O  O1501  1  0.639100  0.333970  0.106690  1.0
  O  O1502  1  0.860900  0.333970  0.393310  1.0
  O  O1503  1  0.360900  0.666030  0.893310  1.0
  O  O1504  1  0.139100  0.666030  0.606690  1.0
  O  O1505  1  0.673830  0.460540  0.104820  1.0
  O  O1506  1  0.826170  0.460540  0.395180  1.0
  O  O1507  1  0.326170  0.539460  0.895180  1.0
  O  O1508  1  0.173830  0.539460  0.604820  1.0
  O  O1509  1  0.715140  0.403830  0.141070  1.0
  O  O1510  1  0.784860  0.403830  0.358930  1.0
  O  O1511  1  0.284860  0.596170  0.858930  1.0
  O  O1512  1  0.215140  0.596170  0.641070  1.0
  O  O1513  1  0.610500  0.480170  0.165870  1.0
  O  O1514  1  0.889500  0.480170  0.334130  1.0
  O  O1515  1  0.389500  0.519830  0.834130  1.0
  O  O1516  1  0.110500  0.519830  0.665870  1.0
  O  O1517  1  0.655300  0.425700  0.203560  1.0
  O  O1518  1  0.844700  0.425700  0.296440  1.0
  O  O1519  1  0.344700  0.574300  0.796440  1.0
  O  O1520  1  0.155300  0.574300  0.703560  1.0
  O  O1521  1  0.479790  0.221020  0.323230  1.0
  O  O1522  1  0.020210  0.221020  0.176770  1.0
  O  O1523  1  0.520210  0.778980  0.676770  1.0
  O  O1524  1  0.979790  0.778980  0.823230  1.0
  O  O1525  1  0.542500  0.218810  0.288830  1.0
  O  O1526  1  0.957500  0.218810  0.211170  1.0
  O  O1527  1  0.457500  0.781190  0.711170  1.0
  O  O1528  1  0.042500  0.781190  0.788830  1.0
  O  O1529  1  0.543860  0.171340  0.385790  1.0
  O  O1530  1  0.956140  0.171340  0.114210  1.0
  O  O1531  1  0.456140  0.828660  0.614210  1.0
  O  O1532  1  0.043860  0.828660  0.885790  1.0
  O  O1533  1  0.607690  0.171870  0.353220  1.0
  O  O1534  1  0.892310  0.171870  0.146780  1.0
  O  O1535  1  0.392310  0.828130  0.646780  1.0
  O  O1536  1  0.107690  0.828130  0.853220  1.0
  O  O1537  1  0.513970  0.313150  0.359440  1.0
  O  O1538  1  0.986030  0.313150  0.140560  1.0
  O  O1539  1  0.486030  0.686850  0.640560  1.0
  O  O1540  1  0.013970  0.686850  0.859440  1.0
  O  O1541  1  0.575170  0.313820  0.323570  1.0
  O  O1542  1  0.924830  0.313820  0.176430  1.0
  O  O1543  1  0.424830  0.686180  0.676430  1.0
  O  O1544  1  0.075170  0.686180  0.823570  1.0
  O  O1545  1  0.642220  0.265820  0.387100  1.0
  O  O1546  1  0.857780  0.265820  0.112900  1.0
  O  O1547  1  0.357780  0.734180  0.612900  1.0
  O  O1548  1  0.142220  0.734180  0.887100  1.0
  O  O1549  1  0.580050  0.262870  0.422090  1.0
  O  O1550  1  0.919950  0.262870  0.077910  1.0
  O  O1551  1  0.419950  0.737130  0.577910  1.0
  O  O1552  1  0.080050  0.737130  0.922090  1.0
  F  F1553  1  0.408300  0.266500  0.478030  1
  F  F1554  1  0.091700  0.266500  0.021970  1
  F  F1555  1  0.591700  0.733500  0.521970  1
  F  F1556  1  0.908300  0.733500  0.978030  1
  F  F1557  1  0.345000  0.221000  0.460400  1
  F  F1558  1  0.155000  0.221000  0.039600  1
  F  F1559  1  0.655000  0.779000  0.539600  1
  F  F1560  1  0.845000  0.779000  0.960400  1
  F  F1561  1  0.419200  0.191200  0.477380  1
  F  F1562  1  0.080800  0.191200  0.022620  1
  F  F1563  1  0.580800  0.808800  0.522620  1
  F  F1564  1  0.919200  0.808800  0.977380  1
  F  F1565  1  0.161200  0.414500  0.097000  1
  F  F1566  1  0.338800  0.414500  0.403000  1
  F  F1567  1  0.838800  0.585500  0.903000  1
  F  F1568  1  0.661200  0.585500  0.597000  1
  F  F1569  1  0.085500  0.439600  0.086900  1
  F  F1570  1  0.414500  0.439600  0.413100  1
  F  F1571  1  0.914500  0.560400  0.913100  1
  F  F1572  1  0.585500  0.560400  0.586900  1
  F  F1573  1  0.146500  0.484600  0.082800  1
  F  F1574  1  0.353500  0.484600  0.417200  1
  F  F1575  1  0.853500  0.515400  0.917200  1
  F  F1576  1  0.646500  0.515400  0.582800  1
  F  F1577  1  0.691000  0.836800  0.097000  1
  F  F1578  1  0.809000  0.836800  0.403000  1
  F  F1579  1  0.309000  0.163200  0.903000  1
  F  F1580  1  0.191000  0.163200  0.597000  1
  F  F1581  1  0.766000  0.809000  0.102400  1
  F  F1582  1  0.734000  0.809000  0.397600  1
  F  F1583  1  0.234000  0.191000  0.897600  1
  F  F1584  1  0.266000  0.191000  0.602400  1
  F  F1585  1  0.743200  0.866700  0.062900  1
  F  F1586  1  0.756800  0.866700  0.437100  1
  F  F1587  1  0.256800  0.133300  0.937100  1
  F  F1588  1  0.243200  0.133300  0.562900  1
  F  F1589  1  0.095300  0.761800  0.062400  1
  F  F1590  1  0.404700  0.761800  0.437600  1
  F  F1591  1  0.904700  0.238200  0.937600  1
  F  F1592  1  0.595300  0.238200  0.562400  1
  F  F1593  1  0.086500  0.697900  0.093500  1
  F  F1594  1  0.413500  0.697900  0.406500  1
  F  F1595  1  0.913500  0.302100  0.906500  1
  F  F1596  1  0.586500  0.302100  0.593500  1
  F  F1597  1  0.051200  0.704700  0.033300  1
  F  F1598  1  0.448800  0.704700  0.466700  1
  F  F1599  1  0.948800  0.295300  0.966700  1
  F  F1600  1  0.551200  0.295300  0.533300  1
  F  F1601  1  0.023100  0.716500  0.034630  1
  F  F1602  1  0.476900  0.716500  0.465370  1
  F  F1603  1  0.976900  0.283500  0.965370  1
  F  F1604  1  0.523100  0.283500  0.534630  1
  F  F1605  1  0.997900  0.785700  0.047100  1
  F  F1606  1  0.502100  0.785700  0.452900  1
  F  F1607  1  0.002100  0.214300  0.952900  1
  F  F1608  1  0.497900  0.214300  0.547100  1
  F  F1609  1  0.077500  0.771100  0.053600  1
  F  F1610  1  0.422500  0.771100  0.446400  1
  F  F1611  1  0.922500  0.228900  0.946400  1
  F  F1612  1  0.577500  0.228900  0.553600  1
  F  F1613  1  0.513000  0.591100  0.111900  1
  F  F1614  1  0.987000  0.591100  0.388100  1
  F  F1615  1  0.487000  0.408900  0.888100  1
  F  F1616  1  0.013000  0.408900  0.611900  1
  F  F1617  1  0.465900  0.543700  0.034400  1
  F  F1618  1  0.034100  0.543700  0.465600  1
  F  F1619  1  0.534100  0.456300  0.965600  1
  F  F1620  1  0.965900  0.456300  0.534400  1
  F  F1621  1  0.449400  0.527400  0.091100  1
  F  F1622  1  0.050600  0.527400  0.408900  1
  F  F1623  1  0.550600  0.472600  0.908900  1
  F  F1624  1  0.949400  0.472600  0.591100  1
  F  F1625  1  0.462800  0.599500  0.076000  1
  F  F1626  1  0.037200  0.599500  0.424000  1
  F  F1627  1  0.537200  0.400500  0.924000  1
  F  F1628  1  0.962800  0.400500  0.576000  1
  F  F1629  1  0.479800  0.610700  0.053200  1
  F  F1630  1  0.020200  0.610700  0.446800  1
  F  F1631  1  0.520200  0.389300  0.946800  1
  F  F1632  1  0.979800  0.389300  0.553200  1
  F  F1633  1  0.448300  0.553600  0.081600  1
  F  F1634  1  0.051700  0.553600  0.418400  1
  F  F1635  1  0.551700  0.446400  0.918400  1
  F  F1636  1  0.948300  0.446400  0.581600  1
