
#######################################################################
#
#                 Cambridge Crystallographic Data Centre
#                                CCDC 
#
#######################################################################
#
# If this CIF has been generated from an entry in the Cambridge 
# Structural Database, then it will include bibliographic, chemical, 
# crystal, experimental, refinement or atomic coordinate data resulting 
# from the CCDC's data processing and validation procedures.
#
#######################################################################

data_HIPSUW
_chemical_formula_moiety         
'C312 H216 Fe8 Mo12 N48 O48 16+,16(C1 F3 O3 S1 1-),18(C2 H3 N1),13(C3 H7 N1 O1),13(C4 H10 O1),2(H2 O1)'
_chemical_name_systematic        
'tetracosakis(\m~3~-4-((Pyridin-2-ylmethylene)amino)benzoato)-octa-iron-dodeca-molybdenum hexadecakis(trifluoromethanesulfonate) acetonitrile dimethylformamide diethyl ether solvate dihydrate'
_symmetry_cell_setting           monoclinic
_symmetry_space_group_name_H-M   'P 2/n'
_symmetry_Int_Tables_number      13
_space_group_name_Hall           '-P 2yac'
loop_
_symmetry_equiv_pos_site_id
_symmetry_equiv_pos_as_xyz
1 x,y,z
2 1/2-x,y,1/2-z
3 -x,-y,-z
4 1/2+x,-y,1/2+z
_cell_length_a                   26.640(11)
_cell_length_b                   28.081(9)
_cell_length_c                   34.417(14)
_cell_angle_alpha                90
_cell_angle_beta                 99.691(3)
_cell_angle_gamma                90
_cell_volume                     25379.2
_exptl_crystal_colour            purple
_exptl_crystal_description       prism
_cell_formula_units_Z            2
loop_
_atom_site_label
_atom_site_type_symbol
_atom_site_fract_x
_atom_site_fract_y
_atom_site_fract_z
C1 C 0.3169(2) 0.2900(3) 0.0570(2)
N1 N 0.2875(3) 0.2748(2) 0.0844(2)
C2 C 0.2395(3) 0.2944(3) 0.0844(2)
H1 H 0.2194 0.2839 0.1031
C3 C 0.2210(2) 0.3292(3) 0.0570(2)
H2 H 0.1882 0.3425 0.0570
C4 C 0.2504(3) 0.3444(2) 0.0296(2)
H3 H 0.2377 0.3682 0.0109
C5 C 0.2983(3) 0.3249(3) 0.0296(2)
H4 H 0.3184 0.3353 0.0109
C6 C 0.3635(3) 0.2645(4) 0.0608(3)
H5 H 0.3873 0.2705 0.0437
C7 C 0.4192(3) 0.2097(3) 0.0888(2)
C8 C 0.4203(3) 0.1635(3) 0.0784(2)
H6 H 0.3896 0.1476 0.0677
C9 C 0.4649(3) 0.1395(3) 0.0831(2)
H7 H 0.4648 0.1074 0.0744
C10 C 0.5096(3) 0.1591(3) 0.0998(2)
C11 C 0.5102(3) 0.2051(3) 0.1098(2)
H8 H 0.5415 0.2197 0.1210
C12 C 0.4662(3) 0.2319(3) 0.1040(2)
H9 H 0.4674 0.2649 0.1102
C13 C 0.5549(3) 0.1308(3) 0.1079(2)
C14 C 0.7862(4) 0.2139(4) -0.1074(3)
C15 C 0.7599(4) 0.2752(4) -0.1474(3)
H10 H 0.7358 0.2993 -0.1567
C16 C 0.8022(4) 0.2689(4) -0.1662(3)
H11 H 0.8066 0.2891 -0.1875
C17 C 0.8353(4) 0.2358(4) -0.1549(3)
H12 H 0.8637 0.2314 -0.1678
C18 C 0.8286(4) 0.2081(4) -0.1249(3)
H13 H 0.8530 0.1844 -0.1155
C19 C 0.7752(4) 0.1862(3) -0.0752(2)
H14 H 0.7962 0.1605 -0.0644
C20 C 0.7235(3) 0.1718(3) -0.02816(19)
C21 C 0.6851(4) 0.1384(3) -0.0357(2)
H15 H 0.6675 0.1326 -0.0616
C22 C 0.6734(4) 0.1135(3) -0.0033(2)
H16 H 0.6495 0.0881 -0.0069
C23 C 0.6973(3) 0.1262(3) 0.03468(19)
C24 C 0.7351(3) 0.1595(3) 0.0406(2)
H17 H 0.7516 0.1673 0.0665
C25 C 0.7489(3) 0.1817(3) 0.0082(2)
H18 H 0.7762 0.2040 0.0115
C26 C 0.6762(3) 0.1037(3) 0.0678(2)
C27 C 0.4588(3) -0.0540(3) 0.3568(2)
C28 C 0.4801(4) -0.1138(3) 0.4018(2)
H19 H 0.5031 -0.1379 0.4129
C29 C 0.4388(4) -0.1083(4) 0.4158(3)
H20 H 0.4320 -0.1288 0.4363
C30 C 0.4044(4) -0.0736(4) 0.4019(3)
H21 H 0.3748 -0.0687 0.4134
C31 C 0.4142(4) -0.0448(4) 0.3695(3)
H22 H 0.3911 -0.0211 0.3578
C32 C 0.4759(3) -0.0286(3) 0.3255(2)
H23 H 0.4566 -0.0027 0.3129
C33 C 0.5308(3) -0.0178(2) 0.28224(19)
C34 C 0.5278(3) -0.0412(2) 0.24783(19)
H24 H 0.5131 -0.0721 0.2451
C35 C 0.5456(3) -0.0213(3) 0.2169(2)
H25 H 0.5430 -0.0380 0.1926
C36 C 0.5673(2) 0.0227(3) 0.22067(18)
C37 C 0.5699(2) 0.0474(2) 0.25417(17)
H26 H 0.5847 0.0782 0.2565
C38 C 0.5507(3) 0.0270(2) 0.2857(2)
H27 H 0.5514 0.0444 0.3094
C39 C 0.5910(3) 0.0421(3) 0.1883(2)
C40 C 0.9487(3) -0.1507(3) 0.2188(2)
C41 C 1.0239(3) -0.1564(3) 0.1962(2)
H28 H 1.0441 -0.1494 0.1767
C42 C 1.0436(3) -0.1853(2) 0.2266(2)
H29 H 1.0773 -0.1972 0.2288
C43 C 1.0141(3) -0.1968(3) 0.2536(2)
H30 H 1.0276 -0.2162 0.2755
C44 C 0.9643(3) -0.1806(2) 0.2495(2)
H31 H 0.9424 -0.1898 0.2673
C45 C 0.9014(3) -0.1290(3) 0.2127(2)
H32 H 0.8768 -0.1365 0.2287
C46 C 0.8453(3) -0.0725(3) 0.1779(2)
C47 C 0.8080(3) -0.0841(3) 0.1459(2)
H33 H 0.8128 -0.1100 0.1291
C48 C 0.7647(3) -0.0579(3) 0.1390(2)
H34 H 0.7384 -0.0669 0.1181
C49 C 0.7580(3) -0.0186(3) 0.1614(2)
C50 C 0.7941(3) -0.0094(3) 0.1939(2)
H35 H 0.7889 0.0160 0.2110
C51 C 0.8376(3) -0.0365(3) 0.2019(2)
H36 H 0.8623 -0.0297 0.2245
C52 C 0.7147(3) 0.0135(3) 0.1508(2)
C53 C 0.2777(3) 0.2689(3) 0.1806(3)
N2 N 0.2713(3) 0.2321(4) 0.1532(3)
C54 C 0.2317(4) 0.1997(3) 0.1527(3)
H37 H 0.2273 0.1746 0.1340
C55 C 0.1985(3) 0.2042(3) 0.1797(3)
H38 H 0.1714 0.1821 0.1793
C56 C 0.2049(3) 0.2409(4) 0.2071(3)
H39 H 0.1822 0.2440 0.2255
C57 C 0.2445(4) 0.2733(4) 0.2076(3)
H40 H 0.2489 0.2984 0.2263
C58 C 0.3246(4) 0.2934(5) 0.1811(4)
H41 H 0.3360 0.3185 0.1990
C59 C 0.3949(4) 0.3091(5) 0.1564(4)
C60 C 0.3976(4) 0.3443(4) 0.1316(4)
H42 H 0.3679 0.3544 0.1143
C61 C 0.4442(4) 0.3666(4) 0.1308(4)
H43 H 0.4465 0.3917 0.1127
C62 C 0.4852(4) 0.3526(4) 0.1554(4)
C63 C 0.4863(4) 0.3189(4) 0.1840(4)
H44 H 0.5163 0.3108 0.2019
C64 C 0.4374(4) 0.2965(4) 0.1846(4)
H45 H 0.4340 0.2733 0.2041
C65 C 0.5394(4) 0.3740(4) 0.1531(3)
C66 C 0.6088(3) 0.1945(2) -0.11193(14)
N3 N 0.6553(2) 0.2042(2) -0.12346(15)
C67 C 0.6682(2) 0.1819(2) -0.15645(16)
H46 H 0.7000 0.1885 -0.1643
C68 C 0.6346(3) 0.1499(2) -0.17793(14)
H47 H 0.6435 0.1346 -0.2005
C69 C 0.5881(3) 0.1402(2) -0.16640(16)
H48 H 0.5652 0.1183 -0.1811
C70 C 0.5752(2) 0.1625(3) -0.13341(17)
H49 H 0.5434 0.1558 -0.1255
C71 C 0.6006(4) 0.2190(3) -0.0783(2)
H50 H 0.5698 0.2164 -0.0681
C72 C 0.6277(3) 0.2703(4) -0.0274(2)
C73 C 0.6381(3) 0.2488(3) 0.0077(2)
H51 H 0.6483 0.2163 0.0090
C74 C 0.6340(3) 0.2727(3) 0.0418(2)
H52 H 0.6411 0.2576 0.0668
C75 C 0.6190(3) 0.3207(3) 0.0379(3)
C76 C 0.6062(4) 0.3411(3) 0.0016(2)
H53 H 0.5932 0.3726 -0.0008
C77 C 0.6123(4) 0.3160(4) -0.0309(3)
H54 H 0.6056 0.3306 -0.0562
C78 C 0.6198(3) 0.3507(3) 0.0732(2)
C79 C 0.9739(3) 0.5362(2) 0.0760(2)
C80 C 1.0205(4) 0.6004(3) 0.1015(3)
H55 H 1.0273 0.6259 0.1199
C81 C 1.0529(4) 0.5917(4) 0.0748(4)
H56 H 1.0798 0.6136 0.0736
C82 C 1.0483(4) 0.5544(4) 0.0509(3)
H57 H 1.0724 0.5476 0.0342
C83 C 1.0078(3) 0.5270(3) 0.0517(2)
H58 H 1.0025 0.5001 0.0348
C84 C 0.9270(3) 0.5111(2) 0.0779(2)
H59 H 0.9168 0.4849 0.0609
C85 C 0.8528(3) 0.5010(2) 0.10319(19)
C86 C 0.8099(3) 0.5248(3) 0.09082(19)
H60 H 0.8110 0.5558 0.0798
C87 C 0.7634(3) 0.5039(3) 0.0942(2)
H61 H 0.7325 0.5205 0.0853
C88 C 0.7621(3) 0.4588(2) 0.11055(19)
C89 C 0.8073(3) 0.4341(2) 0.12155(19)
H62 H 0.8067 0.4028 0.1320
C90 C 0.8532(3) 0.4547(2) 0.11742(18)
H63 H 0.8842 0.4377 0.1241
C91 C 0.7145(3) 0.4402(3) 0.11936(19)
C92 C 0.6560(3) 0.6345(2) 0.3808(2)
C93 C 0.6092(3) 0.6401(2) 0.4293(2)
H64 H 0.5797 0.6322 0.4401
C94 C 0.6449(3) 0.6697(2) 0.4501(2)
H65 H 0.6407 0.6812 0.4754
C95 C 0.6856(3) 0.6820(2) 0.4344(2)
H66 H 0.7101 0.7032 0.4483
C96 C 0.6922(3) 0.6651(2) 0.3999(2)
H67 H 0.7211 0.6738 0.3886
C97 C 0.6603(3) 0.6102(2) 0.3446(2)
H68 H 0.6880 0.6162 0.3311
C98 C 0.6304(3) 0.5535(3) 0.2974(2)
C99 C 0.6661(3) 0.5177(3) 0.3003(2)
H69 H 0.6890 0.5124 0.3242
C100 C 0.6677(3) 0.4898(3) 0.2675(2)
H70 H 0.6913 0.4643 0.2691
C101 C 0.6362(4) 0.4985(3) 0.2332(2)
C102 C 0.6030(4) 0.5352(3) 0.2310(2)
H71 H 0.5818 0.5414 0.2065
C103 C 0.5983(4) 0.5646(3) 0.2633(2)
H72 H 0.5747 0.5901 0.2615
C104 C 0.6346(4) 0.4661(3) 0.1991(3)
N4 N 0.2956(2) 0.1742(2) 0.0915(2)
C105 C 0.2624(3) 0.1757(2) 0.0558(2)
H73 H 0.2518 0.2054 0.0440
C106 C 0.2445(3) 0.1335(3) 0.03721(16)
H74 H 0.2217 0.1345 0.0128
C107 C 0.2599(3) 0.0900(2) 0.0544(2)
H75 H 0.2476 0.0612 0.0417
C108 C 0.2931(3) 0.0885(2) 0.0901(2)
H76 H 0.3036 0.0588 0.1019
C109 C 0.3110(2) 0.1307(3) 0.10867(16)
C110 C 0.3461(4) 0.1361(5) 0.1436(3)
H77 H 0.3609 0.1093 0.1580
C111 C 0.3914(5) 0.1819(5) 0.1895(3)
C112 C 0.4434(5) 0.1754(5) 0.1890(3)
H78 H 0.4549 0.1656 0.1655
C113 C 0.4774(5) 0.1834(5) 0.2227(3)
H79 H 0.5127 0.1777 0.2233
C114 C 0.4599(5) 0.2002(5) 0.2568(3)
C115 C 0.4094(5) 0.2033(5) 0.2560(3)
H80 H 0.3968 0.2119 0.2793
C116 C 0.3765(5) 0.1946(5) 0.2227(3)
H81 H 0.3411 0.1976 0.2231
C117 C 0.4975(4) 0.2136(3) 0.2921(2)
C118 C 0.8207(3) 0.3489(3) 0.59948(17)
N5 N 0.8364(3) 0.3057(2) 0.6174(2)
C119 C 0.8726(3) 0.3051(2) 0.6516(2)
H82 H 0.8833 0.2756 0.6638
C120 C 0.8931(3) 0.3476(3) 0.66785(18)
H83 H 0.9178 0.3471 0.6912
C121 C 0.8775(3) 0.3907(2) 0.6500(2)
H84 H 0.8915 0.4197 0.6611
C122 C 0.8413(3) 0.3913(2) 0.6158(2)
H85 H 0.8306 0.4208 0.6035
C123 C 0.7852(4) 0.3414(3) 0.5667(3)
H86 H 0.7711 0.3679 0.5515
C124 C 0.7334(2) 0.2960(3) 0.5212(2)
C125 C 0.7464(3) 0.3056(3) 0.4845(2)
H87 H 0.7791 0.3176 0.4821
C126 C 0.7095(3) 0.2970(3) 0.4511(2)
H88 H 0.7180 0.3013 0.4256
C127 C 0.6621(3) 0.2825(3) 0.4547(2)
C128 C 0.6496(3) 0.2757(3) 0.4910(2)
H89 H 0.6158 0.2664 0.4929
C129 C 0.6836(3) 0.2816(3) 0.5244(2)
H90 H 0.6742 0.2763 0.5495
C130 C 0.6251(3) 0.2690(2) 0.4187(2)
C131 C 0.6132(3) -0.1204(3) 0.4162(2)
C132 C 0.5868(3) -0.1852(3) 0.3793(2)
H91 H 0.5685 -0.1988 0.3558
C133 C 0.6116(4) -0.2141(3) 0.4059(3)
H92 H 0.6107 -0.2474 0.4014
C134 C 0.6387(4) -0.1961(3) 0.4401(3)
H93 H 0.6570 -0.2165 0.4595
C135 C 0.6385(4) -0.1488(3) 0.4455(3)
H94 H 0.6557 -0.1352 0.4694
C136 C 0.6126(3) -0.0694(2) 0.4165(2)
H95 H 0.6293 -0.0519 0.4386
C137 C 0.5888(3) 0.0021(2) 0.38628(19)
C138 C 0.5489(3) 0.0255(3) 0.3961(2)
H96 H 0.5222 0.0087 0.4052
C139 C 0.5472(4) 0.0738(3) 0.3929(2)
H97 H 0.5188 0.0903 0.3997
C140 C 0.5847(3) 0.0990(2) 0.38028(19)
C141 C 0.6272(3) 0.0752(3) 0.37243(19)
H98 H 0.6548 0.0922 0.3648
C142 C 0.6292(3) 0.0261(2) 0.37579(19)
H99 H 0.6583 0.0091 0.3708
C143 C 0.5788(3) 0.1512(2) 0.37316(19)
C144 C 0.4928(3) 0.6048(3) 0.3041(3)
C145 C 0.5374(4) 0.6706(3) 0.3310(3)
H100 H 0.5658 0.6841 0.3477
C146 C 0.5033(6) 0.6992(3) 0.3092(4)
H101 H 0.5081 0.7327 0.3114
C147 C 0.4616(6) 0.6818(4) 0.2836(4)
H102 H 0.4367 0.7022 0.2692
C148 C 0.4587(5) 0.6325(4) 0.2807(3)
H103 H 0.4327 0.6181 0.2621
C149 C 0.4922(3) 0.5547(3) 0.3042(2)
H104 H 0.4663 0.5375 0.2876
C150 C 0.5255(3) 0.4825(2) 0.3268(2)
C151 C 0.5001(3) 0.4588(2) 0.3514(2)
H105 H 0.4793 0.4757 0.3666
C152 C 0.5043(3) 0.4101(2) 0.3544(2)
H106 H 0.4870 0.3934 0.3722
C153 C 0.5332(3) 0.3857(2) 0.3320(2)
C154 C 0.5552(3) 0.4085(2) 0.3052(2)
H107 H 0.5728 0.3911 0.2880
C155 C 0.5522(3) 0.4582(2) 0.3028(2)
H108 H 0.5686 0.4749 0.2845
C156 C 0.5404(3) 0.3342(2) 0.3377(2)
O1 O 0.5943(2) 0.14630(18) 0.13030(14)
O2 O 0.55461(18) 0.0895(2) 0.09310(13)
O3 O 0.68881(19) 0.12318(18) 0.10139(14)
O4 O 0.6480(2) 0.06890(18) 0.06289(14)
O5 O 0.61936(18) 0.07639(18) 0.19343(12)
O6 O 0.58272(18) 0.01969(18) 0.15514(13)
O7 O 0.71497(18) 0.05320(18) 0.16610(13)
O8 O 0.67713(19) -0.00176(17) 0.12580(14)
O9 O 0.5368(2) 0.4087(2) 0.13014(18)
O10 O 0.5780(3) 0.3544(2) 0.16873(18)
O11 O 0.6006(2) 0.3917(2) 0.06899(15)
O12 O 0.6391(2) 0.33397(19) 0.10669(15)
O13 O 0.67383(19) 0.46054(19) 0.10482(13)
O14 O 0.71514(18) 0.40383(18) 0.14107(13)
O15 O 0.6105(2) 0.48017(19) 0.16587(15)
O16 O 0.6553(2) 0.4257(2) 0.20356(13)
O17 O 0.47979(18) 0.22102(17) 0.32323(14)
O18 O 0.5425(2) 0.21881(18) 0.28883(13)
O19 O 0.54386(19) 0.17134(15) 0.38579(12)
O20 O 0.60769(18) 0.17187(14) 0.35322(13)
O21 O 0.51397(17) 0.31315(15) 0.35944(13)
O22 O 0.57517(17) 0.31382(15) 0.32357(13)
O23 O 0.64222(17) 0.26582(15) 0.38710(14)
O24 O 0.58005(19) 0.26287(15) 0.42209(13)
Fe1 Fe 0.32185(6) 0.22838(7) 0.12095(5)
Fe2 Fe 0.69589(5) 0.24987(4) -0.08902(3)
Fe3 Fe 0.55301(4) -0.09123(3) 0.34678(3)
Fe4 Fe 0.57073(4) 0.57576(3) 0.36292(3)
Mo1 Mo 0.61686(3) 0.04574(2) 0.110359(17)
Mo2 Mo 0.65386(2) 0.09845(2) 0.146615(17)
Mo3 Mo 0.60648(3) 0.43358(3) 0.11904(2)
Mo4 Mo 0.64554(3) 0.38134(3) 0.154071(19)
Mo5 Mo 0.59003(2) 0.24287(2) 0.338882(17)
Mo6 Mo 0.53124(2) 0.24219(2) 0.371489(17)
N6 N 0.3720(3) 0.2341(3) 0.0872(2)
N7 N 0.7526(4) 0.2497(3) -0.1181(2)
N8 N 0.7354(3) 0.1982(2) -0.06204(15)
N9 N 0.4929(2) -0.08755(19) 0.37236(16)
N10 N 0.5163(2) -0.04084(17) 0.31522(16)
N11 N 0.9792(3) -0.1382(2) 0.19264(18)
N12 N 0.8916(2) -0.0975(2) 0.18403(16)
N13 N 0.3488(3) 0.2789(4) 0.1559(2)
N14 N 0.6375(3) 0.2454(2) -0.06223(17)
N15 N 0.9796(2) 0.5729(2) 0.10129(17)
N16 N 0.8999(2) 0.52465(18) 0.10223(16)
N17 N 0.6144(2) 0.6225(2) 0.39516(18)
N18 N 0.6258(2) 0.58041(19) 0.33173(17)
N19 N 0.3568(4) 0.1769(4) 0.1547(3)
N20 N 0.7708(2) 0.3010(2) 0.55627(17)
N21 N 0.5857(2) -0.1385(2) 0.38321(16)
N22 N 0.5894(2) -0.04885(19) 0.38692(15)
N23 N 0.5317(3) 0.62288(19) 0.32938(18)
N24 N 0.5262(2) 0.53381(18) 0.32663(17)
C1A C 1.1831(2) 0.2900(3) 0.4430(2)
N1A N 1.2125(3) 0.2748(2) 0.4156(2)
C2A C 1.2605(3) 0.2944(3) 0.4156(2)
H1A H 1.2806 0.2839 0.3969
C3A C 1.2790(2) 0.3292(3) 0.4430(2)
H2A H 1.3118 0.3425 0.4430
C4A C 1.2496(3) 0.3444(2) 0.4704(2)
H3A H 1.2623 0.3682 0.4891
C5A C 1.2017(3) 0.3249(3) 0.4704(2)
H4A H 1.1816 0.3353 0.4891
C6A C 1.1365(3) 0.2645(4) 0.4392(3)
H5A H 1.1127 0.2705 0.4563
C7A C 1.0808(3) 0.2097(3) 0.4112(2)
C8A C 1.0797(3) 0.1635(3) 0.4216(2)
H6A H 1.1104 0.1476 0.4323
C9A C 1.0351(3) 0.1395(3) 0.4169(2)
H7A H 1.0352 0.1074 0.4256
C10A C 0.9904(3) 0.1591(3) 0.4002(2)
C11A C 0.9898(3) 0.2051(3) 0.3902(2)
H8A H 0.9585 0.2197 0.3790
C12A C 1.0338(3) 0.2319(3) 0.3960(2)
H9A H 1.0326 0.2649 0.3898
C13A C 0.9451(3) 0.1308(3) 0.3921(2)
C14A C 0.7138(4) 0.2139(4) 0.6074(3)
C15A C 0.7401(4) 0.2752(4) 0.6474(3)
H10A H 0.7642 0.2993 0.6567
C16A C 0.6978(4) 0.2689(4) 0.6662(3)
H11A H 0.6934 0.2891 0.6875
C17A C 0.6647(4) 0.2358(4) 0.6549(3)
H12A H 0.6363 0.2314 0.6678
C18A C 0.6714(4) 0.2081(4) 0.6249(3)
H13A H 0.6470 0.1844 0.6155
C19A C 0.7248(4) 0.1862(3) 0.5752(2)
H14A H 0.7038 0.1605 0.5644
C20A C 0.7765(3) 0.1718(3) 0.52816(19)
C21A C 0.8149(4) 0.1384(3) 0.5357(2)
H15A H 0.8325 0.1326 0.5616
C22A C 0.8266(4) 0.1135(3) 0.5033(2)
H16A H 0.8505 0.0881 0.5069
C23A C 0.8027(3) 0.1262(3) 0.46532(19)
C24A C 0.7649(3) 0.1595(3) 0.4594(2)
H17A H 0.7484 0.1673 0.4335
C25A C 0.7511(3) 0.1817(3) 0.4918(2)
H18A H 0.7238 0.2040 0.4885
C26A C 0.8238(3) 0.1037(3) 0.4322(2)
C27A C 1.0412(3) -0.0540(3) 0.1432(2)
C28A C 1.0199(4) -0.1138(3) 0.0982(2)
H19A H 0.9969 -0.1379 0.0871
C29A C 1.0612(4) -0.1083(4) 0.0842(3)
H20A H 1.0680 -0.1288 0.0637
C30A C 1.0956(4) -0.0736(4) 0.0981(3)
H21A H 1.1252 -0.0687 0.0866
C31A C 1.0858(4) -0.0448(4) 0.1305(3)
H22A H 1.1089 -0.0211 0.1422
C32A C 1.0241(3) -0.0286(3) 0.1745(2)
H23A H 1.0434 -0.0027 0.1871
C33A C 0.9692(3) -0.0178(2) 0.21776(19)
C34A C 0.9722(3) -0.0412(2) 0.25217(19)
H24A H 0.9869 -0.0721 0.2549
C35A C 0.9544(3) -0.0213(3) 0.2831(2)
H25A H 0.9570 -0.0380 0.3074
C36A C 0.9327(2) 0.0227(3) 0.27933(18)
C37A C 0.9301(2) 0.0474(2) 0.24583(17)
H26A H 0.9153 0.0782 0.2435
C38A C 0.9493(3) 0.0270(2) 0.2143(2)
H27A H 0.9486 0.0444 0.1906
C39A C 0.9090(3) 0.0421(3) 0.3117(2)
C40A C 0.5513(3) -0.1507(3) 0.2812(2)
C41A C 0.4761(3) -0.1564(3) 0.3038(2)
H28A H 0.4559 -0.1494 0.3233
C42A C 0.4564(3) -0.1853(2) 0.2734(2)
H29A H 0.4227 -0.1972 0.2712
C43A C 0.4859(3) -0.1968(3) 0.2464(2)
H30A H 0.4724 -0.2162 0.2245
C44A C 0.5357(3) -0.1806(2) 0.2505(2)
H31A H 0.5576 -0.1898 0.2327
C45A C 0.5986(3) -0.1290(3) 0.2873(2)
H32A H 0.6232 -0.1365 0.2713
C46A C 0.6547(3) -0.0725(3) 0.3221(2)
C47A C 0.6920(3) -0.0841(3) 0.3541(2)
H33A H 0.6872 -0.1100 0.3709
C48A C 0.7353(3) -0.0579(3) 0.3610(2)
H34A H 0.7616 -0.0669 0.3819
C49A C 0.7420(3) -0.0186(3) 0.3386(2)
C50A C 0.7059(3) -0.0094(3) 0.3061(2)
H35A H 0.7111 0.0160 0.2890
C51A C 0.6624(3) -0.0365(3) 0.2981(2)
H36A H 0.6377 -0.0297 0.2755
C52A C 0.7853(3) 0.0135(3) 0.3492(2)
C53A C 1.2223(3) 0.2689(3) 0.3194(3)
N2A N 1.2287(3) 0.2321(4) 0.3468(3)
C54A C 1.2683(4) 0.1997(3) 0.3473(3)
H37A H 1.2727 0.1746 0.3660
C55A C 1.3015(3) 0.2042(3) 0.3203(3)
H38A H 1.3286 0.1821 0.3207
C56A C 1.2951(3) 0.2409(4) 0.2929(3)
H39A H 1.3178 0.2440 0.2745
C57A C 1.2555(4) 0.2733(4) 0.2924(3)
H40A H 1.2511 0.2984 0.2737
C58A C 1.1754(4) 0.2934(5) 0.3189(4)
H41A H 1.1640 0.3185 0.3010
C59A C 1.1051(4) 0.3091(5) 0.3436(4)
C60A C 1.1024(4) 0.3443(4) 0.3684(4)
H42A H 1.1321 0.3544 0.3857
C61A C 1.0558(4) 0.3666(4) 0.3692(4)
H43A H 1.0535 0.3917 0.3873
C62A C 1.0148(4) 0.3526(4) 0.3446(4)
C63A C 1.0137(4) 0.3189(4) 0.3160(4)
H44A H 0.9837 0.3108 0.2981
C64A C 1.0626(4) 0.2965(4) 0.3154(4)
H45A H 1.0660 0.2733 0.2959
C65A C 0.9606(4) 0.3740(4) 0.3469(3)
C66A C 0.8912(3) 0.1945(2) 0.61193(14)
N3A N 0.8447(2) 0.2042(2) 0.62346(15)
C67A C 0.8318(2) 0.1819(2) 0.65645(16)
H46A H 0.8000 0.1885 0.6643
C68A C 0.8654(3) 0.1499(2) 0.67793(14)
H47A H 0.8565 0.1346 0.7005
C69A C 0.9119(3) 0.1402(2) 0.66640(16)
H48A H 0.9348 0.1183 0.6811
C70A C 0.9248(2) 0.1625(3) 0.63341(17)
H49A H 0.9566 0.1558 0.6255
C71A C 0.8994(4) 0.2190(3) 0.5783(2)
H50A H 0.9302 0.2164 0.5681
C72A C 0.8723(3) 0.2703(4) 0.5274(2)
C73A C 0.8619(3) 0.2488(3) 0.4923(2)
H51A H 0.8517 0.2163 0.4910
C74A C 0.8660(3) 0.2727(3) 0.4582(2)
H52A H 0.8589 0.2576 0.4332
C75A C 0.8810(3) 0.3207(3) 0.4621(3)
C76A C 0.8938(4) 0.3411(3) 0.4984(2)
H53A H 0.9068 0.3726 0.5008
C77A C 0.8877(4) 0.3160(4) 0.5309(3)
H54A H 0.8944 0.3306 0.5562
C78A C 0.8802(3) 0.3507(3) 0.4268(2)
C79A C 0.5261(3) 0.5362(2) 0.4240(2)
C80A C 0.4795(4) 0.6004(3) 0.3985(3)
H55A H 0.4727 0.6259 0.3801
C81A C 0.4471(4) 0.5917(4) 0.4252(4)
H56A H 0.4202 0.6136 0.4264
C82A C 0.4517(4) 0.5544(4) 0.4491(3)
H57A H 0.4276 0.5476 0.4658
C83A C 0.4922(3) 0.5270(3) 0.4483(2)
H58A H 0.4975 0.5001 0.4652
C84A C 0.5730(3) 0.5111(2) 0.4221(2)
H59A H 0.5832 0.4849 0.4391
C85A C 0.6472(3) 0.5010(2) 0.39681(19)
C86A C 0.6901(3) 0.5248(3) 0.40918(19)
H60A H 0.6890 0.5558 0.4202
C87A C 0.7366(3) 0.5039(3) 0.4058(2)
H61A H 0.7675 0.5205 0.4147
C88A C 0.7379(3) 0.4588(2) 0.38945(19)
C89A C 0.6927(3) 0.4341(2) 0.37845(19)
H62A H 0.6933 0.4028 0.3680
C90A C 0.6468(3) 0.4547(2) 0.38258(18)
H63A H 0.6158 0.4377 0.3759
C91A C 0.7855(3) 0.4402(3) 0.38064(19)
C92A C 0.8440(3) 0.6345(2) 0.1192(2)
C93A C 0.8908(3) 0.6401(2) 0.0707(2)
H64A H 0.9203 0.6322 0.0599
C94A C 0.8551(3) 0.6697(2) 0.0499(2)
H65A H 0.8593 0.6812 0.0246
C95A C 0.8144(3) 0.6820(2) 0.0656(2)
H66A H 0.7899 0.7032 0.0517
C96A C 0.8078(3) 0.6651(2) 0.1001(2)
H67A H 0.7789 0.6738 0.1114
C97A C 0.8397(3) 0.6102(2) 0.1554(2)
H68A H 0.8120 0.6162 0.1689
C98A C 0.8696(3) 0.5535(3) 0.2026(2)
C99A C 0.8339(3) 0.5177(3) 0.1997(2)
H69A H 0.8110 0.5124 0.1758
C100A C 0.8323(3) 0.4898(3) 0.2325(2)
H70A H 0.8087 0.4643 0.2309
C101A C 0.8638(4) 0.4985(3) 0.2668(2)
C102A C 0.8970(4) 0.5352(3) 0.2690(2)
H71A H 0.9182 0.5414 0.2935
C103A C 0.9017(4) 0.5646(3) 0.2367(2)
H72A H 0.9253 0.5901 0.2385
C104A C 0.8654(4) 0.4661(3) 0.3009(3)
N4A N 1.2044(2) 0.1742(2) 0.4085(2)
C105A C 1.2376(3) 0.1757(2) 0.4442(2)
H73A H 1.2482 0.2054 0.4560
C106A C 1.2555(3) 0.1335(3) 0.46279(16)
H74A H 1.2783 0.1345 0.4872
C107A C 1.2401(3) 0.0900(2) 0.4456(2)
H75A H 1.2524 0.0612 0.4583
C108A C 1.2069(3) 0.0885(2) 0.4099(2)
H76A H 1.1964 0.0588 0.3981
C109A C 1.1890(2) 0.1307(3) 0.39133(16)
C110A C 1.1539(4) 0.1361(5) 0.3564(3)
H77A H 1.1391 0.1093 0.3420
C111A C 1.1086(5) 0.1819(5) 0.3105(3)
C112A C 1.0566(5) 0.1754(5) 0.3110(3)
H78A H 1.0451 0.1656 0.3345
C113A C 1.0226(5) 0.1834(5) 0.2773(3)
H79A H 0.9873 0.1777 0.2767
C114A C 1.0401(5) 0.2002(5) 0.2432(3)
C115A C 1.0906(5) 0.2033(5) 0.2440(3)
H80A H 1.1032 0.2119 0.2207
C116A C 1.1235(5) 0.1946(5) 0.2773(3)
H81A H 1.1589 0.1976 0.2769
C117A C 1.0025(4) 0.2136(3) 0.2079(2)
C118A C 0.6793(3) 0.3489(3) -0.09948(17)
N5A N 0.6636(3) 0.3057(2) -0.1174(2)
C119A C 0.6274(3) 0.3051(2) -0.1516(2)
H82A H 0.6167 0.2756 -0.1638
C120A C 0.6069(3) 0.3476(3) -0.16785(18)
H83A H 0.5822 0.3471 -0.1912
C121A C 0.6225(3) 0.3907(2) -0.1500(2)
H84A H 0.6085 0.4197 -0.1611
C122A C 0.6587(3) 0.3913(2) -0.1158(2)
H85A H 0.6694 0.4208 -0.1035
C123A C 0.7148(4) 0.3414(3) -0.0667(3)
H86A H 0.7289 0.3679 -0.0515
C124A C 0.7666(2) 0.2960(3) -0.0212(2)
C125A C 0.7536(3) 0.3056(3) 0.0155(2)
H87A H 0.7209 0.3176 0.0179
C126A C 0.7905(3) 0.2970(3) 0.0489(2)
H88A H 0.7820 0.3013 0.0744
C127A C 0.8379(3) 0.2825(3) 0.0453(2)
C128A C 0.8504(3) 0.2757(3) 0.0090(2)
H89A H 0.8842 0.2664 0.0071
C129A C 0.8164(3) 0.2816(3) -0.0244(2)
H90A H 0.8258 0.2763 -0.0495
C130A C 0.8749(3) 0.2690(2) 0.0813(2)
C131A C 0.8868(3) -0.1204(3) 0.0838(2)
C132A C 0.9132(3) -0.1852(3) 0.1207(2)
H91A H 0.9315 -0.1988 0.1442
C133A C 0.8884(4) -0.2141(3) 0.0941(3)
H92A H 0.8893 -0.2474 0.0986
C134A C 0.8613(4) -0.1961(3) 0.0599(3)
H93A H 0.8430 -0.2165 0.0405
C135A C 0.8615(4) -0.1488(3) 0.0545(3)
H94A H 0.8443 -0.1352 0.0306
C136A C 0.8874(3) -0.0694(2) 0.0835(2)
H95A H 0.8707 -0.0519 0.0614
C137A C 0.9112(3) 0.0021(2) 0.11372(19)
C138A C 0.9511(3) 0.0255(3) 0.1039(2)
H96A H 0.9778 0.0087 0.0948
C139A C 0.9528(4) 0.0738(3) 0.1071(2)
H97A H 0.9812 0.0903 0.1003
C140A C 0.9153(3) 0.0990(2) 0.11972(19)
C141A C 0.8728(3) 0.0752(3) 0.12757(19)
H98A H 0.8452 0.0922 0.1352
C142A C 0.8708(3) 0.0261(2) 0.12421(19)
H99A H 0.8417 0.0091 0.1292
C143A C 0.9212(3) 0.1512(2) 0.12684(19)
C144A C 1.0072(3) 0.6048(3) 0.1959(3)
C145A C 0.9626(4) 0.6706(3) 0.1690(3)
H100A H 0.9342 0.6841 0.1523
C146A C 0.9967(6) 0.6992(3) 0.1908(4)
H101A H 0.9919 0.7327 0.1886
C147A C 1.0384(6) 0.6818(4) 0.2164(4)
H102A H 1.0633 0.7022 0.2308
C148A C 1.0413(5) 0.6325(4) 0.2193(3)
H103A H 1.0673 0.6181 0.2379
C149A C 1.0078(3) 0.5547(3) 0.1958(2)
H104A H 1.0337 0.5375 0.2124
C150A C 0.9745(3) 0.4825(2) 0.1732(2)
C151A C 0.9999(3) 0.4588(2) 0.1486(2)
H105A H 1.0207 0.4757 0.1334
C152A C 0.9957(3) 0.4101(2) 0.1456(2)
H106A H 1.0130 0.3934 0.1278
C153A C 0.9668(3) 0.3857(2) 0.1680(2)
C154A C 0.9448(3) 0.4085(2) 0.1948(2)
H107A H 0.9272 0.3911 0.2120
C155A C 0.9478(3) 0.4582(2) 0.1972(2)
H108A H 0.9314 0.4749 0.2155
C156A C 0.9596(3) 0.3342(2) 0.1623(2)
O1A O 0.9057(2) 0.14630(18) 0.36970(14)
O2A O 0.94539(18) 0.0895(2) 0.40690(13)
O3A O 0.81119(19) 0.12318(18) 0.39861(14)
O4A O 0.8520(2) 0.06890(18) 0.43711(14)
O5A O 0.88064(18) 0.07639(18) 0.30657(12)
O6A O 0.91728(18) 0.01969(18) 0.34486(13)
O7A O 0.78503(18) 0.05320(18) 0.33390(13)
O8A O 0.82287(19) -0.00176(17) 0.37420(14)
O9A O 0.9632(2) 0.4087(2) 0.36986(18)
O10A O 0.9220(3) 0.3544(2) 0.33127(18)
O11A O 0.8994(2) 0.3917(2) 0.43101(15)
O12A O 0.8609(2) 0.33397(19) 0.39331(15)
O13A O 0.82617(19) 0.46054(19) 0.39518(13)
O14A O 0.78486(18) 0.40383(18) 0.35893(13)
O15A O 0.8895(2) 0.48017(19) 0.33413(15)
O16A O 0.8447(2) 0.4257(2) 0.29644(13)
O17A O 1.02021(18) 0.22102(17) 0.17677(14)
O18A O 0.9575(2) 0.21881(18) 0.21117(13)
O19A O 0.95614(19) 0.17134(15) 0.11421(12)
O20A O 0.89231(18) 0.17187(14) 0.14678(13)
O21A O 0.98603(17) 0.31315(15) 0.14056(13)
O22A O 0.92483(17) 0.31382(15) 0.17643(13)
O23A O 0.85778(17) 0.26582(15) 0.11290(14)
O24A O 0.91995(19) 0.26287(15) 0.07791(13)
Fe1A Fe 1.17815(6) 0.22838(7) 0.37905(5)
Fe2A Fe 0.80411(5) 0.24987(4) 0.58902(3)
Fe3A Fe 0.94699(4) -0.09123(3) 0.15322(3)
Fe4A Fe 0.92927(4) 0.57576(3) 0.13708(3)
Mo1A Mo 0.88314(3) 0.04574(2) 0.389641(17)
Mo2A Mo 0.84614(2) 0.09845(2) 0.353385(17)
Mo3A Mo 0.89352(3) 0.43358(3) 0.38096(2)
Mo4A Mo 0.85446(3) 0.38134(3) 0.345929(19)
Mo5A Mo 0.90997(2) 0.24287(2) 0.161118(17)
Mo6A Mo 0.96876(2) 0.24219(2) 0.128511(17)
N6A N 1.1280(3) 0.2341(3) 0.4128(2)
N7A N 0.7474(4) 0.2497(3) 0.6181(2)
N8A N 0.7646(3) 0.1982(2) 0.56204(15)
N9A N 1.0071(2) -0.08755(19) 0.12764(16)
N10A N 0.9837(2) -0.04084(17) 0.18478(16)
N11A N 0.5208(3) -0.1382(2) 0.30736(18)
N12A N 0.6084(2) -0.0975(2) 0.31597(16)
N13A N 1.1512(3) 0.2789(4) 0.3441(2)
N14A N 0.8625(3) 0.2454(2) 0.56223(17)
N15A N 0.5204(2) 0.5729(2) 0.39871(17)
N16A N 0.6001(2) 0.52465(18) 0.39777(16)
N17A N 0.8856(2) 0.6225(2) 0.10484(18)
N18A N 0.8742(2) 0.58041(19) 0.16827(17)
N19A N 1.1432(4) 0.1769(4) 0.3453(3)
N20A N 0.7292(2) 0.3010(2) -0.05627(17)
N21A N 0.9143(2) -0.1385(2) 0.11679(16)
N22A N 0.9106(2) -0.04885(19) 0.11308(15)
N23A N 0.9683(3) 0.62288(19) 0.17062(18)
N24A N 0.9738(2) 0.53381(18) 0.17337(17)
S1 S 0.4044(2) 0.2298(3) 0.40770(14)
O25 O 0.3870(3) 0.1844(3) 0.3920(2)
O26 O 0.4579(2) 0.2367(4) 0.4116(2)
O27 O 0.3737(3) 0.2695(3) 0.3922(2)
F1 F 0.4083(4) 0.2665(3) 0.47803(19)
F2 F 0.3450(3) 0.2210(4) 0.4604(2)
F3 F 0.4192(3) 0.1912(3) 0.47738(18)
C157 C 0.3936(2) 0.2268(3) 0.45821(14)
N25 N 0.6637(8) 0.2549(6) 0.2952(7)
C158 C 0.6778(13) 0.2921(7) 0.2913(11)
C159 C 0.6851(7) 0.3462(6) 0.2853(5)
H109 H 0.6571 0.3637 0.2939
H110 H 0.6854 0.3526 0.2574
H111 H 0.7175 0.3564 0.3010
N26 N 0.6954(12) 0.1805(10) 0.1822(9)
C160 C 0.7203(9) 0.1992(8) 0.1635(7)
C161 C 0.7354(7) 0.2392(6) 0.1366(5)
H112 H 0.7209 0.2695 0.1436
H113 H 0.7222 0.2316 0.1090
H114 H 0.7726 0.2418 0.1404
N27 N 0.1791(8) 0.5935(7) 0.0557(6)
C162 C 0.1868(6) 0.5587(6) -0.0047(5)
H115 H 0.2169 0.5725 -0.0134
H116 H 0.1568 0.5644 -0.0249
H117 H 0.1918 0.5244 -0.0008
C163 C 0.1807(8) 0.5771(7) 0.0260(6)
N28 N 0.8791(5) 0.1498(5) -0.0023(4)
C164 C 0.9162(6) 0.1559(5) 0.0106(4)
C165 C 0.9655(6) 0.1619(6) 0.0218(5)
H118 H 0.9822 0.1632 -0.0015
H119 H 0.9794 0.1351 0.0385
H120 H 0.9717 0.1917 0.0367
S2 S 0.1207(2) 0.4333(2) 0.02383(16)
C166 C 0.1288(4) 0.4405(4) 0.0719(6)
O28 O 0.0948(5) 0.4741(4) 0.0079(3)
O29 O 0.1052(5) 0.3854(4) 0.0221(3)
O30 O 0.1718(5) 0.4334(4) 0.0149(3)
F4 F 0.1612(3) 0.4145(3) 0.0970(3)
F5 F 0.0855(3) 0.4396(3) 0.0869(3)
F6 F 0.1465(3) 0.4846(3) 0.0828(3)
S3 S 0.7065(3) 0.7846(2) 0.03714(19)
C167 C 0.7279(3) 0.8262(2) 0.0767(2)
O31 O 0.7507(3) 0.7784(4) 0.0190(3)
O32 O 0.6657(3) 0.8090(4) 0.0133(2)
O33 O 0.6922(4) 0.7438(2) 0.0577(3)
F7 F 0.6910(4) 0.8368(3) 0.0970(2)
F8 F 0.7660(3) 0.8090(4) 0.1024(2)
F9 F 0.7432(4) 0.8667(2) 0.0629(3)
S4 S 0.00526(19) 0.75158(18) 0.08217(18)
C168 C 0.0622(2) 0.7277(2) 0.06716(19)
O34 O -0.0250(2) 0.7101(2) 0.0852(3)
O35 O -0.0147(3) 0.7827(3) 0.0507(2)
O36 O 0.0247(3) 0.7743(3) 0.1188(2)
F10 F 0.0953(2) 0.7618(3) 0.0624(3)
F11 F 0.0865(3) 0.6979(3) 0.0935(3)
F12 F 0.0512(3) 0.7047(3) 0.0333(2)
loop_
_geom_bond_atom_site_label_1
_geom_bond_atom_site_label_2
_geom_bond_site_symmetry_1
_geom_bond_site_symmetry_2
C1 N1 1_555 1_555
N1 C2 1_555 1_555
C2 H1 1_555 1_555
C3 C2 1_555 1_555
H2 C3 1_555 1_555
C4 C3 1_555 1_555
H3 C4 1_555 1_555
C5 C1 1_555 1_555
H4 C5 1_555 1_555
C6 C1 1_555 1_555
H5 C6 1_555 1_555
C7 C8 1_555 1_555
C8 H6 1_555 1_555
C9 C8 1_555 1_555
H7 C9 1_555 1_555
C10 C9 1_555 1_555
C11 C10 1_555 1_555
H8 C11 1_555 1_555
C12 C7 1_555 1_555
H9 C12 1_555 1_555
C13 C10 1_555 1_555
C14 C18 1_555 1_555
C15 H10 1_555 1_555
C16 C15 1_555 1_555
H11 C16 1_555 1_555
C17 C16 1_555 1_555
H12 C17 1_555 1_555
C18 C17 1_555 1_555
H13 C18 1_555 1_555
C19 C14 1_555 1_555
H14 C19 1_555 1_555
C20 C21 1_555 1_555
C21 H15 1_555 1_555
C22 C21 1_555 1_555
H16 C22 1_555 1_555
C23 C22 1_555 1_555
C24 C23 1_555 1_555
H17 C24 1_555 1_555
C25 C20 1_555 1_555
H18 C25 1_555 1_555
C26 C23 1_555 1_555
C27 C31 1_555 1_555
C28 H19 1_555 1_555
C29 C28 1_555 1_555
H20 C29 1_555 1_555
C30 C29 1_555 1_555
H21 C30 1_555 1_555
C31 C30 1_555 1_555
H22 C31 1_555 1_555
C32 C27 1_555 1_555
H23 C32 1_555 1_555
C33 C34 1_555 1_555
C34 H24 1_555 1_555
C35 C34 1_555 1_555
H25 C35 1_555 1_555
C36 C35 1_555 1_555
C37 C36 1_555 1_555
H26 C37 1_555 1_555
C38 C33 1_555 1_555
H27 C38 1_555 1_555
C39 C36 1_555 1_555
C40 C44 1_555 1_555
C41 H28 1_555 1_555
C42 C41 1_555 1_555
H29 C42 1_555 1_555
C43 C42 1_555 1_555
H30 C43 1_555 1_555
C44 C43 1_555 1_555
H31 C44 1_555 1_555
C45 C40 1_555 1_555
H32 C45 1_555 1_555
C46 C47 1_555 1_555
C47 H33 1_555 1_555
C48 C47 1_555 1_555
H34 C48 1_555 1_555
C49 C48 1_555 1_555
C50 C49 1_555 1_555
H35 C50 1_555 1_555
C51 C46 1_555 1_555
H36 C51 1_555 1_555
C52 C49 1_555 1_555
C53 N2 1_555 1_555
N2 C54 1_555 1_555
C54 H37 1_555 1_555
C55 C54 1_555 1_555
H38 C55 1_555 1_555
C56 C55 1_555 1_555
H39 C56 1_555 1_555
C57 C53 1_555 1_555
H40 C57 1_555 1_555
C58 C53 1_555 1_555
H41 C58 1_555 1_555
C59 C60 1_555 1_555
C60 H42 1_555 1_555
C61 C60 1_555 1_555
H43 C61 1_555 1_555
C62 C61 1_555 1_555
C63 C62 1_555 1_555
H44 C63 1_555 1_555
C64 C59 1_555 1_555
H45 C64 1_555 1_555
C65 C62 1_555 1_555
C66 N3 1_555 1_555
N3 C67 1_555 1_555
C67 H46 1_555 1_555
C68 C67 1_555 1_555
H47 C68 1_555 1_555
C69 C68 1_555 1_555
H48 C69 1_555 1_555
C70 C66 1_555 1_555
H49 C70 1_555 1_555
C71 C66 1_555 1_555
H50 C71 1_555 1_555
C72 C73 1_555 1_555
C73 H51 1_555 1_555
C74 C73 1_555 1_555
H52 C74 1_555 1_555
C75 C74 1_555 1_555
C76 C75 1_555 1_555
H53 C76 1_555 1_555
C77 C72 1_555 1_555
H54 C77 1_555 1_555
C78 C75 1_555 1_555
C79 C83 1_555 1_555
C80 H55 1_555 1_555
C81 C80 1_555 1_555
H56 C81 1_555 1_555
C82 C81 1_555 1_555
H57 C82 1_555 1_555
C83 C82 1_555 1_555
H58 C83 1_555 1_555
C84 C79 1_555 1_555
H59 C84 1_555 1_555
C85 C86 1_555 1_555
C86 H60 1_555 1_555
C87 C86 1_555 1_555
H61 C87 1_555 1_555
C88 C87 1_555 1_555
C89 C88 1_555 1_555
H62 C89 1_555 1_555
C90 C85 1_555 1_555
H63 C90 1_555 1_555
C91 C88 1_555 1_555
C92 C96 1_555 1_555
C93 H64 1_555 1_555
C94 C93 1_555 1_555
H65 C94 1_555 1_555
C95 C94 1_555 1_555
H66 C95 1_555 1_555
C96 C95 1_555 1_555
H67 C96 1_555 1_555
C97 C92 1_555 1_555
H68 C97 1_555 1_555
C98 C99 1_555 1_555
C99 H69 1_555 1_555
C100 C99 1_555 1_555
H70 C100 1_555 1_555
C101 C100 1_555 1_555
C102 C101 1_555 1_555
H71 C102 1_555 1_555
C103 C98 1_555 1_555
H72 C103 1_555 1_555
C104 C101 1_555 1_555
N4 C105 1_555 1_555
C105 H73 1_555 1_555
C106 C105 1_555 1_555
H74 C106 1_555 1_555
C107 C106 1_555 1_555
H75 C107 1_555 1_555
C108 C107 1_555 1_555
H76 C108 1_555 1_555
C109 N4 1_555 1_555
C110 C109 1_555 1_555
H77 C110 1_555 1_555
C111 C112 1_555 1_555
C112 H78 1_555 1_555
C113 C112 1_555 1_555
H79 C113 1_555 1_555
C114 C113 1_555 1_555
C115 C114 1_555 1_555
H80 C115 1_555 1_555
C116 C111 1_555 1_555
H81 C116 1_555 1_555
C117 C114 1_555 1_555
C118 N5 1_555 1_555
N5 C119 1_555 1_555
C119 H82 1_555 1_555
C120 C119 1_555 1_555
H83 C120 1_555 1_555
C121 C120 1_555 1_555
H84 C121 1_555 1_555
C122 C118 1_555 1_555
H85 C122 1_555 1_555
C123 C118 1_555 1_555
H86 C123 1_555 1_555
C124 C125 1_555 1_555
C125 H87 1_555 1_555
C126 C125 1_555 1_555
H88 C126 1_555 1_555
C127 C126 1_555 1_555
C128 C127 1_555 1_555
H89 C128 1_555 1_555
C129 C124 1_555 1_555
H90 C129 1_555 1_555
C130 C127 1_555 1_555
C131 C135 1_555 1_555
C132 H91 1_555 1_555
C133 C132 1_555 1_555
H92 C133 1_555 1_555
C134 C133 1_555 1_555
H93 C134 1_555 1_555
C135 C134 1_555 1_555
H94 C135 1_555 1_555
C136 C131 1_555 1_555
H95 C136 1_555 1_555
C137 C138 1_555 1_555
C138 H96 1_555 1_555
C139 C138 1_555 1_555
H97 C139 1_555 1_555
C140 C139 1_555 1_555
C141 C140 1_555 1_555
H98 C141 1_555 1_555
C142 C137 1_555 1_555
H99 C142 1_555 1_555
C143 C140 1_555 1_555
C144 C148 1_555 1_555
C145 H100 1_555 1_555
C146 C145 1_555 1_555
H101 C146 1_555 1_555
C147 C146 1_555 1_555
H102 C147 1_555 1_555
C148 C147 1_555 1_555
H103 C148 1_555 1_555
C149 C144 1_555 1_555
H104 C149 1_555 1_555
C150 C151 1_555 1_555
C151 H105 1_555 1_555
C152 C151 1_555 1_555
H106 C152 1_555 1_555
C153 C152 1_555 1_555
C154 C153 1_555 1_555
H107 C154 1_555 1_555
C155 C150 1_555 1_555
H108 C155 1_555 1_555
C156 C153 1_555 1_555
O1 C13 1_555 1_555
O2 C13 1_555 1_555
O3 C26 1_555 1_555
O4 C26 1_555 1_555
O5 C39 1_555 1_555
O6 C39 1_555 1_555
O7 C52 1_555 1_555
O8 C52 1_555 1_555
O9 C65 1_555 1_555
O10 C65 1_555 1_555
O11 C78 1_555 1_555
O12 C78 1_555 1_555
O13 C91 1_555 1_555
O14 C91 1_555 1_555
O15 C104 1_555 1_555
O16 C104 1_555 1_555
O17 C117 1_555 1_555
O18 C117 1_555 1_555
O19 C143 1_555 1_555
O20 C143 1_555 1_555
O21 C156 1_555 1_555
O22 C156 1_555 1_555
O23 C130 1_555 1_555
O24 C130 1_555 1_555
Fe1 N1 1_555 1_555
Fe2 N3 1_555 1_555
Fe3 N9 1_555 1_555
Fe4 N17 1_555 1_555
Mo1 O2 1_555 1_555
Mo2 O1 1_555 1_555
Mo3 O9 1_555 1_555
Mo4 O10 1_555 1_555
Mo5 O18 1_555 1_555
Mo6 O17 1_555 1_555
N6 C6 1_555 1_555
N7 C14 1_555 1_555
N8 C19 1_555 1_555
N9 C27 1_555 1_555
N10 C32 1_555 1_555
N11 C40 1_555 1_555
N12 C45 1_555 1_555
N13 C58 1_555 1_555
N14 C71 1_555 1_555
N15 C79 1_555 1_555
N16 C84 1_555 1_555
N17 C92 1_555 1_555
N18 C97 1_555 1_555
N19 C110 1_555 1_555
N20 C123 1_555 1_555
N21 C131 1_555 1_555
N22 C136 1_555 1_555
N23 C144 1_555 1_555
N24 C149 1_555 1_555
S1 O25 1_555 1_555
O26 S1 1_555 1_555
O27 S1 1_555 1_555
F1 C157 1_555 1_555
F2 C157 1_555 1_555
F3 C157 1_555 1_555
C157 S1 1_555 1_555
N25 C158 1_555 1_555
C158 C159 1_555 1_555
C159 H109 1_555 1_555
H110 C159 1_555 1_555
H111 C159 1_555 1_555
N26 C160 1_555 1_555
C160 C161 1_555 1_555
C161 H112 1_555 1_555
H113 C161 1_555 1_555
H114 C161 1_555 1_555
N27 C163 1_555 1_555
C162 H115 1_555 1_555
H116 C162 1_555 1_555
H117 C162 1_555 1_555
C163 C162 1_555 1_555
N28 C164 1_555 1_555
C164 C165 1_555 1_555
C165 H118 1_555 1_555
H119 C165 1_555 1_555
H120 C165 1_555 1_555
S2 C166 1_555 1_555
C166 F4 1_555 1_555
O28 S2 1_555 1_555
O29 S2 1_555 1_555
O30 S2 1_555 1_555
F5 C166 1_555 1_555
F6 C166 1_555 1_555
S3 C167 1_555 1_555
C167 F7 1_555 1_555
O31 S3 1_555 1_555
O32 S3 1_555 1_555
O33 S3 1_555 1_555
F8 C167 1_555 1_555
F9 C167 1_555 1_555
S4 C168 1_555 1_555
C168 F10 1_555 1_555
O34 S4 1_555 1_555
O35 S4 1_555 1_555
O36 S4 1_555 1_555
F11 C168 1_555 1_555
F12 C168 1_555 1_555
C1A N1A 1_555 1_555
N1A C2A 1_555 1_555
C2A H1A 1_555 1_555
C3A C2A 1_555 1_555
H2A C3A 1_555 1_555
C4A C3A 1_555 1_555
H3A C4A 1_555 1_555
C5A C1A 1_555 1_555
H4A C5A 1_555 1_555
C6A C1A 1_555 1_555
H5A C6A 1_555 1_555
C7A C8A 1_555 1_555
C8A H6A 1_555 1_555
C9A C8A 1_555 1_555
H7A C9A 1_555 1_555
C10A C9A 1_555 1_555
C11A C10A 1_555 1_555
H8A C11A 1_555 1_555
C12A C7A 1_555 1_555
H9A C12A 1_555 1_555
C13A C10A 1_555 1_555
C14A C18A 1_555 1_555
C15A H10A 1_555 1_555
C16A C15A 1_555 1_555
H11A C16A 1_555 1_555
C17A C16A 1_555 1_555
H12A C17A 1_555 1_555
C18A C17A 1_555 1_555
H13A C18A 1_555 1_555
C19A C14A 1_555 1_555
H14A C19A 1_555 1_555
C20A C21A 1_555 1_555
C21A H15A 1_555 1_555
C22A C21A 1_555 1_555
H16A C22A 1_555 1_555
C23A C22A 1_555 1_555
C24A C23A 1_555 1_555
H17A C24A 1_555 1_555
C25A C20A 1_555 1_555
H18A C25A 1_555 1_555
C26A C23A 1_555 1_555
C27A C31A 1_555 1_555
C28A H19A 1_555 1_555
C29A C28A 1_555 1_555
H20A C29A 1_555 1_555
C30A C29A 1_555 1_555
H21A C30A 1_555 1_555
C31A C30A 1_555 1_555
H22A C31A 1_555 1_555
C32A C27A 1_555 1_555
H23A C32A 1_555 1_555
C33A C34A 1_555 1_555
C34A H24A 1_555 1_555
C35A C34A 1_555 1_555
H25A C35A 1_555 1_555
C36A C35A 1_555 1_555
C37A C36A 1_555 1_555
H26A C37A 1_555 1_555
C38A C33A 1_555 1_555
H27A C38A 1_555 1_555
C39A C36A 1_555 1_555
C40A C44A 1_555 1_555
C41A H28A 1_555 1_555
C42A C41A 1_555 1_555
H29A C42A 1_555 1_555
C43A C42A 1_555 1_555
H30A C43A 1_555 1_555
C44A C43A 1_555 1_555
H31A C44A 1_555 1_555
C45A C40A 1_555 1_555
H32A C45A 1_555 1_555
C46A C47A 1_555 1_555
C47A H33A 1_555 1_555
C48A C47A 1_555 1_555
H34A C48A 1_555 1_555
C49A C48A 1_555 1_555
C50A C49A 1_555 1_555
H35A C50A 1_555 1_555
C51A C46A 1_555 1_555
H36A C51A 1_555 1_555
C52A C49A 1_555 1_555
C53A N2A 1_555 1_555
N2A C54A 1_555 1_555
C54A H37A 1_555 1_555
C55A C54A 1_555 1_555
H38A C55A 1_555 1_555
C56A C55A 1_555 1_555
H39A C56A 1_555 1_555
C57A C53A 1_555 1_555
H40A C57A 1_555 1_555
C58A C53A 1_555 1_555
H41A C58A 1_555 1_555
C59A C60A 1_555 1_555
C60A H42A 1_555 1_555
C61A C60A 1_555 1_555
H43A C61A 1_555 1_555
C62A C61A 1_555 1_555
C63A C62A 1_555 1_555
H44A C63A 1_555 1_555
C64A C59A 1_555 1_555
H45A C64A 1_555 1_555
C65A C62A 1_555 1_555
C66A N3A 1_555 1_555
N3A C67A 1_555 1_555
C67A H46A 1_555 1_555
C68A C67A 1_555 1_555
H47A C68A 1_555 1_555
C69A C68A 1_555 1_555
H48A C69A 1_555 1_555
C70A C66A 1_555 1_555
H49A C70A 1_555 1_555
C71A C66A 1_555 1_555
H50A C71A 1_555 1_555
C72A C73A 1_555 1_555
C73A H51A 1_555 1_555
C74A C73A 1_555 1_555
H52A C74A 1_555 1_555
C75A C74A 1_555 1_555
C76A C75A 1_555 1_555
H53A C76A 1_555 1_555
C77A C72A 1_555 1_555
H54A C77A 1_555 1_555
C78A C75A 1_555 1_555
C79A C83A 1_555 1_555
C80A H55A 1_555 1_555
C81A C80A 1_555 1_555
H56A C81A 1_555 1_555
C82A C81A 1_555 1_555
H57A C82A 1_555 1_555
C83A C82A 1_555 1_555
H58A C83A 1_555 1_555
C84A C79A 1_555 1_555
H59A C84A 1_555 1_555
C85A C86A 1_555 1_555
C86A H60A 1_555 1_555
C87A C86A 1_555 1_555
H61A C87A 1_555 1_555
C88A C87A 1_555 1_555
C89A C88A 1_555 1_555
H62A C89A 1_555 1_555
C90A C85A 1_555 1_555
H63A C90A 1_555 1_555
C91A C88A 1_555 1_555
C92A C96A 1_555 1_555
C93A H64A 1_555 1_555
C94A C93A 1_555 1_555
H65A C94A 1_555 1_555
C95A C94A 1_555 1_555
H66A C95A 1_555 1_555
C96A C95A 1_555 1_555
H67A C96A 1_555 1_555
C97A C92A 1_555 1_555
H68A C97A 1_555 1_555
C98A C99A 1_555 1_555
C99A H69A 1_555 1_555
C100A C99A 1_555 1_555
H70A C100A 1_555 1_555
C101A C100A 1_555 1_555
C102A C101A 1_555 1_555
H71A C102A 1_555 1_555
C103A C98A 1_555 1_555
H72A C103A 1_555 1_555
C104A C101A 1_555 1_555
N4A C105A 1_555 1_555
C105A H73A 1_555 1_555
C106A C105A 1_555 1_555
H74A C106A 1_555 1_555
C107A C106A 1_555 1_555
H75A C107A 1_555 1_555
C108A C107A 1_555 1_555
H76A C108A 1_555 1_555
C109A N4A 1_555 1_555
C110A C109A 1_555 1_555
H77A C110A 1_555 1_555
C111A C112A 1_555 1_555
C112A H78A 1_555 1_555
C113A C112A 1_555 1_555
H79A C113A 1_555 1_555
C114A C113A 1_555 1_555
C115A C114A 1_555 1_555
H80A C115A 1_555 1_555
C116A C111A 1_555 1_555
H81A C116A 1_555 1_555
C117A C114A 1_555 1_555
C118A N5A 1_555 1_555
N5A Fe2 1_555 1_555
C119A N5A 1_555 1_555
H82A C119A 1_555 1_555
C120A C119A 1_555 1_555
H83A C120A 1_555 1_555
C121A C120A 1_555 1_555
H84A C121A 1_555 1_555
C122A C118A 1_555 1_555
H85A C122A 1_555 1_555
C123A C118A 1_555 1_555
H86A C123A 1_555 1_555
C124A C125A 1_555 1_555
C125A H87A 1_555 1_555
C126A C125A 1_555 1_555
H88A C126A 1_555 1_555
C127A C126A 1_555 1_555
C128A C127A 1_555 1_555
H89A C128A 1_555 1_555
C129A C124A 1_555 1_555
H90A C129A 1_555 1_555
C130A C127A 1_555 1_555
C131A C135A 1_555 1_555
C132A H91A 1_555 1_555
C133A C132A 1_555 1_555
H92A C133A 1_555 1_555
C134A C133A 1_555 1_555
H93A C134A 1_555 1_555
C135A C134A 1_555 1_555
H94A C135A 1_555 1_555
C136A C131A 1_555 1_555
H95A C136A 1_555 1_555
C137A C138A 1_555 1_555
C138A H96A 1_555 1_555
C139A C138A 1_555 1_555
H97A C139A 1_555 1_555
C140A C139A 1_555 1_555
C141A C140A 1_555 1_555
H98A C141A 1_555 1_555
C142A C137A 1_555 1_555
H99A C142A 1_555 1_555
C143A C140A 1_555 1_555
C144A C148A 1_555 1_555
C145A H100A 1_555 1_555
C146A C145A 1_555 1_555
H101A C146A 1_555 1_555
C147A C146A 1_555 1_555
H102A C147A 1_555 1_555
C148A C147A 1_555 1_555
H103A C148A 1_555 1_555
C149A C144A 1_555 1_555
H104A C149A 1_555 1_555
C150A C151A 1_555 1_555
C151A H105A 1_555 1_555
C152A C151A 1_555 1_555
H106A C152A 1_555 1_555
C153A C152A 1_555 1_555
C154A C153A 1_555 1_555
H107A C154A 1_555 1_555
C155A C150A 1_555 1_555
H108A C155A 1_555 1_555
C156A C153A 1_555 1_555
O1A C13A 1_555 1_555
O2A C13A 1_555 1_555
O3A C26A 1_555 1_555
O4A C26A 1_555 1_555
O5A C39A 1_555 1_555
O6A C39A 1_555 1_555
O7A C52A 1_555 1_555
O8A C52A 1_555 1_555
O9A C65A 1_555 1_555
O10A C65A 1_555 1_555
O11A C78A 1_555 1_555
O12A C78A 1_555 1_555
O13A C91A 1_555 1_555
O14A C91A 1_555 1_555
O15A C104A 1_555 1_555
O16A C104A 1_555 1_555
O17A C117A 1_555 1_555
O18A C117A 1_555 1_555
O19A C143A 1_555 1_555
O20A C143A 1_555 1_555
O21A C156A 1_555 1_555
O22A C156A 1_555 1_555
O23A C130A 1_555 1_555
O24A C130A 1_555 1_555
Fe1A N1A 1_555 1_555
Fe2A N5 1_555 1_555
Fe3A N11 1_555 1_555
Fe4A N15 1_555 1_555
Mo1A O2A 1_555 1_555
Mo2A O1A 1_555 1_555
Mo3A O9A 1_555 1_555
Mo4A O10A 1_555 1_555
Mo5A O18A 1_555 1_555
Mo6A O17A 1_555 1_555
N6A C6A 1_555 1_555
N7A C14A 1_555 1_555
N8A C19A 1_555 1_555
N9A C27A 1_555 1_555
N10A C32A 1_555 1_555
N11A Fe3 1_555 1_555
N12A Fe3 1_555 1_555
N13A C58A 1_555 1_555
N14A C71A 1_555 1_555
N15A Fe4 1_555 1_555
N16A Fe4 1_555 1_555
N17A C92A 1_555 1_555
N18A C97A 1_555 1_555
N19A C110A 1_555 1_555
N20A Fe2 1_555 1_555
N21A C131A 1_555 1_555
N22A C136A 1_555 1_555
N23A C144A 1_555 1_555
N24A C149A 1_555 1_555
C4 C5 1_555 1_555
C7 N6 1_555 1_555
C11 C12 1_555 1_555
C15 N7 1_555 1_555
C20 N8 1_555 1_555
C24 C25 1_555 1_555
C28 N9 1_555 1_555
C33 N10 1_555 1_555
C37 C38 1_555 1_555
C41 N11 1_555 1_555
C46 N12 1_555 1_555
C50 C51 1_555 1_555
N2 Fe1 1_555 1_555
C56 C57 1_555 1_555
C59 N13 1_555 1_555
C63 C64 1_555 1_555
C69 C70 1_555 1_555
C72 N14 1_555 1_555
C76 C77 1_555 1_555
C80 N15 1_555 1_555
C85 N16 1_555 1_555
C89 C90 1_555 1_555
C93 N17 1_555 1_555
C98 N18 1_555 1_555
C102 C103 1_555 1_555
N4 Fe1 1_555 1_555
C108 C109 1_555 1_555
C111 N19 1_555 1_555
C115 C116 1_555 1_555
C121 C122 1_555 1_555
C124 N20 1_555 1_555
C128 C129 1_555 1_555
C132 N21 1_555 1_555
C137 N22 1_555 1_555
C141 C142 1_555 1_555
C145 N23 1_555 1_555
C150 N24 1_555 1_555
C154 C155 1_555 1_555
O3 Mo2 1_555 1_555
O4 Mo1 1_555 1_555
O5 Mo2 1_555 1_555
O6 Mo1 1_555 1_555
O7 Mo2 1_555 1_555
O8 Mo1 1_555 1_555
O11 Mo3 1_555 1_555
O12 Mo4 1_555 1_555
O13 Mo3 1_555 1_555
O14 Mo4 1_555 1_555
O15 Mo3 1_555 1_555
O16 Mo4 1_555 1_555
O19 Mo6 1_555 1_555
O20 Mo5 1_555 1_555
O21 Mo6 1_555 1_555
O22 Mo5 1_555 1_555
O23 Mo5 1_555 1_555
O24 Mo6 1_555 1_555
Fe1 N6 1_555 1_555
Fe1 N13 1_555 1_555
Fe1 N19 1_555 1_555
Fe2 N7 1_555 1_555
Fe2 N8 1_555 1_555
Fe2 N14 1_555 1_555
Fe3 N10 1_555 1_555
Fe3 N21 1_555 1_555
Fe3 N22 1_555 1_555
Fe4 N18 1_555 1_555
Fe4 N23 1_555 1_555
Fe4 N24 1_555 1_555
Mo1 Mo2 1_555 1_555
Mo3 Mo4 1_555 1_555
Mo5 Mo6 1_555 1_555
N12 Fe3A 1_555 1_555
N16 Fe4A 1_555 1_555
N20 Fe2A 1_555 1_555
C4A C5A 1_555 1_555
C7A N6A 1_555 1_555
C11A C12A 1_555 1_555
C15A N7A 1_555 1_555
C20A N8A 1_555 1_555
C24A C25A 1_555 1_555
C28A N9A 1_555 1_555
C33A N10A 1_555 1_555
C37A C38A 1_555 1_555
C40A N11A 1_555 1_555
C41A N11A 1_555 1_555
C45A N12A 1_555 1_555
C46A N12A 1_555 1_555
C50A C51A 1_555 1_555
N2A Fe1A 1_555 1_555
C56A C57A 1_555 1_555
C59A N13A 1_555 1_555
C63A C64A 1_555 1_555
N3A Fe2A 1_555 1_555
C69A C70A 1_555 1_555
C72A N14A 1_555 1_555
C76A C77A 1_555 1_555
C79A N15A 1_555 1_555
C80A N15A 1_555 1_555
C84A N16A 1_555 1_555
C85A N16A 1_555 1_555
C89A C90A 1_555 1_555
C93A N17A 1_555 1_555
C98A N18A 1_555 1_555
C102A C103A 1_555 1_555
N4A Fe1A 1_555 1_555
C108A C109A 1_555 1_555
C111A N19A 1_555 1_555
C115A C116A 1_555 1_555
C121A C122A 1_555 1_555
C123A N20A 1_555 1_555
C124A N20A 1_555 1_555
C128A C129A 1_555 1_555
C132A N21A 1_555 1_555
C137A N22A 1_555 1_555
C141A C142A 1_555 1_555
C145A N23A 1_555 1_555
C150A N24A 1_555 1_555
C154A C155A 1_555 1_555
O3A Mo2A 1_555 1_555
O4A Mo1A 1_555 1_555
O5A Mo2A 1_555 1_555
O6A Mo1A 1_555 1_555
O7A Mo2A 1_555 1_555
O8A Mo1A 1_555 1_555
O11A Mo3A 1_555 1_555
O12A Mo4A 1_555 1_555
O13A Mo3A 1_555 1_555
O14A Mo4A 1_555 1_555
O15A Mo3A 1_555 1_555
O16A Mo4A 1_555 1_555
O19A Mo6A 1_555 1_555
O20A Mo5A 1_555 1_555
O21A Mo6A 1_555 1_555
O22A Mo5A 1_555 1_555
O23A Mo5A 1_555 1_555
O24A Mo6A 1_555 1_555
Fe1A N6A 1_555 1_555
Fe1A N13A 1_555 1_555
Fe1A N19A 1_555 1_555
Fe2A N7A 1_555 1_555
Fe2A N8A 1_555 1_555
Fe2A N14A 1_555 1_555
Fe3A N9A 1_555 1_555
Fe3A N10A 1_555 1_555
Fe3A N21A 1_555 1_555
Fe3A N22A 1_555 1_555
Fe4A N17A 1_555 1_555
Fe4A N18A 1_555 1_555
Fe4A N23A 1_555 1_555
Fe4A N24A 1_555 1_555
Mo1A Mo2A 1_555 1_555
Mo3A Mo4A 1_555 1_555
Mo5A Mo6A 1_555 1_555

#END
