
#######################################################################
#
#                 Cambridge Crystallographic Data Centre
#                                CCDC 
#
#######################################################################
#
# If this CIF has been generated from an entry in the Cambridge 
# Structural Database, then it will include bibliographic, chemical, 
# crystal, experimental, refinement or atomic coordinate data resulting 
# from the CCDC's data processing and validation procedures.
#
#######################################################################

data_HIPSOQ
_chemical_formula_moiety         
'C312 H252 Fe8 Mo12 N60 O48 16+,16(C1 F3 O3 S1 1-)'
_chemical_name_systematic        
'tetracosakis(\m~3~-4-((Pyridin-2-ylmethylene)amino)benzoato)-dodeca-ammine-octa-iron-dodeca-molybdenum hexadecakis(trifluoromethanesulfonate) unknown solvate'
_symmetry_cell_setting           triclinic
_symmetry_space_group_name_H-M   'P -1'
_symmetry_Int_Tables_number      2
_space_group_name_Hall           '-P 1'
loop_
_symmetry_equiv_pos_site_id
_symmetry_equiv_pos_as_xyz
1 x,y,z
2 -x,-y,-z
_cell_length_a                   28.3942(10)
_cell_length_b                   28.8405(10)
_cell_length_c                   38.1696(15)
_cell_angle_alpha                72.114(2)
_cell_angle_beta                 72.063(2)
_cell_angle_gamma                66.161(2)
_cell_volume                     26595
_exptl_crystal_colour            purple
_exptl_crystal_description       cube
_cell_formula_units_Z            2
loop_
_atom_site_label
_atom_site_type_symbol
_atom_site_fract_x
_atom_site_fract_y
_atom_site_fract_z
Mo1 Mo 0.38222(9) 0.05763(10) 0.10274(8)
Mo2 Mo 0.34511(8) 0.10923(9) 0.14017(7)
Mo3 Mo 0.47709(8) 0.11046(8) 0.35768(7)
Mo4 Mo 0.41452(8) 0.14782(7) 0.32919(6)
Mo5 Mo 0.39265(8) 0.44203(8) 0.11283(6)
Mo6 Mo 0.35393(8) 0.39088(8) 0.14845(6)
Mo7 Mo 0.06737(8) 0.35257(8) 0.16720(6)
O1 O 0.1196(5) 0.3698(5) 0.1190(4)
Mo8 Mo 0.00492(9) 0.38990(9) 0.13786(6)
Mo9 Mo 0.13489(9) 0.10675(9) 0.35596(6)
O2 O 0.2008(6) 0.0440(6) 0.3390(4)
N1 N 0.1795(8) 0.1729(7) 0.3124(6)
H1 H 0.1720 0.1821 0.2894
H2 H 0.1677 0.2012 0.3222
H3 H 0.2145 0.1580 0.3104
Mo10 Mo 0.09761(10) 0.05444(9) 0.39209(6)
Mo11 Mo 0.12962(7) 0.39660(8) 0.34974(6)
Mo12 Mo 0.09029(8) 0.44917(8) 0.38576(6)
Fe1 Fe 0.44885(15) -0.19866(12) 0.33023(12)
Fe2 Fe 0.69291(13) 0.12200(15) 0.10534(11)
Fe3 Fe 0.43662(12) 0.46176(11) 0.35140(9)
Fe4 Fe 0.04397(14) 0.70040(12) 0.14884(10)
Fe5 Fe -0.21268(13) 0.36908(17) 0.38694(10)
Fe6 Fe 0.29137(16) 0.37651(18) -0.08257(10)
Fe7 Fe 0.19357(18) 0.14358(14) 0.57995(10)
Fe8 Fe 0.03209(12) 0.03822(12) 0.16109(9)
C1 C 0.4313(10) 0.0411(11) 0.3540(8)
C2 C 0.4260(6) -0.0130(5) 0.3617(4)
C3 C 0.4686(4) -0.0577(6) 0.3690(4)
H4 H 0.5000 -0.0554 0.3711
C4 C 0.4653(5) -0.1060(5) 0.3731(4)
H5 H 0.4945 -0.1366 0.3781
C5 C 0.4194(7) -0.1095(5) 0.3700(4)
C6 C 0.3768(5) -0.0647(6) 0.3627(4)
H6 H 0.3454 -0.0671 0.3606
C7 C 0.3801(5) -0.0164(5) 0.3586(4)
H7 H 0.3510 0.0142 0.3537
C8 C 0.3885(11) -0.1727(11) 0.3992(9)
H8 H 0.3710 -0.1538 0.4188
N2 N 0.4142(5) -0.2452(7) 0.3676(4)
C9 C 0.3859(7) -0.2246(5) 0.3995(6)
C10 C 0.3605(6) -0.2529(8) 0.4303(4)
H9 H 0.3412 -0.2388 0.4521
C11 C 0.3634(6) -0.3017(8) 0.4292(5)
H10 H 0.3460 -0.3210 0.4503
C12 C 0.3916(7) -0.3223(5) 0.3974(6)
H11 H 0.3936 -0.3556 0.3967
C13 C 0.4171(6) -0.2940(7) 0.3666(4)
H12 H 0.4364 -0.3081 0.3448
C14 C 0.4046(9) 0.0068(7) 0.1795(5)
C15 C 0.4292(5) -0.0319(5) 0.2080(3)
C16 C 0.4497(5) -0.0835(5) 0.2049(4)
H13 H 0.4504 -0.0922 0.1826
C17 C 0.4691(5) -0.1223(4) 0.2344(4)
H14 H 0.4831 -0.1575 0.2323
C18 C 0.4680(5) -0.1095(6) 0.2670(4)
C19 C 0.4475(5) -0.0579(6) 0.2701(3)
H15 H 0.4467 -0.0492 0.2924
C20 C 0.4281(5) -0.0191(5) 0.2406(4)
H16 H 0.4141 0.0161 0.2427
C21 C 0.5335(14) -0.1617(13) 0.3009(10)
H17 H 0.5547 -0.1408 0.2874
N3 N 0.5140(6) -0.2306(6) 0.3496(5)
C22 C 0.5488(9) -0.2046(6) 0.3284(5)
C23 C 0.5984(8) -0.2208(9) 0.3362(6)
H18 H 0.6222 -0.2030 0.3217
C24 C 0.6131(6) -0.2629(9) 0.3653(7)
H19 H 0.6470 -0.2739 0.3707
C25 C 0.5783(9) -0.2889(7) 0.3866(5)
H20 H 0.5883 -0.3177 0.4065
C26 C 0.5287(8) -0.2728(6) 0.3787(5)
H21 H 0.5049 -0.2906 0.3932
C27 C 0.2045(8) -0.0035(8) 0.3532(6)
C28 C 0.2478(5) -0.0460(5) 0.3402(4)
C29 C 0.2558(5) -0.0959(5) 0.3621(3)
H22 H 0.2305 -0.1021 0.3843
C30 C 0.3007(6) -0.1365(4) 0.3515(4)
H23 H 0.3061 -0.1706 0.3664
C31 C 0.3376(5) -0.1274(5) 0.3190(4)
C32 C 0.3297(5) -0.0775(6) 0.2971(3)
H24 H 0.3549 -0.0712 0.2749
C33 C 0.2848(6) -0.0368(5) 0.3077(3)
H25 H 0.2793 -0.0027 0.2928
C34 C 0.3921(12) -0.1867(11) 0.2788(9)
H26 H 0.3646 -0.1713 0.2652
N4 N 0.4711(7) -0.2388(5) 0.2918(4)
C35 C 0.4357(5) -0.2264(5) 0.2693(5)
C36 C 0.4497(8) -0.2516(7) 0.2399(5)
H27 H 0.4255 -0.2431 0.2245
C37 C 0.4991(9) -0.2892(7) 0.2331(4)
H28 H 0.5087 -0.3064 0.2131
C38 C 0.5345(6) -0.3016(5) 0.2557(5)
H29 H 0.5683 -0.3273 0.2510
C39 C 0.5205(6) -0.2764(6) 0.2850(5)
H30 H 0.5447 -0.2849 0.3004
C40 C 0.5176(8) 0.1055(10) 0.2789(6)
C41 C 0.5533(5) 0.0935(5) 0.2446(3)
C42 C 0.5340(4) 0.1018(5) 0.2131(4)
H31 H 0.4971 0.1132 0.2148
C43 C 0.5686(6) 0.0934(5) 0.1790(3)
H32 H 0.5554 0.0991 0.1574
C44 C 0.6226(6) 0.0767(5) 0.1764(4)
C45 C 0.6420(4) 0.0684(5) 0.2079(5)
H33 H 0.6789 0.0570 0.2062
C46 C 0.6074(5) 0.0768(5) 0.2420(4)
H34 H 0.6206 0.0711 0.2636
C47 C 0.6759(12) 0.0249(13) 0.1354(9)
H35 H 0.6656 -0.0021 0.1537
N5 N 0.7265(7) 0.0640(7) 0.0797(7)
C48 C 0.7120(6) 0.0211(10) 0.0999(5)
C49 C 0.7307(8) -0.0227(7) 0.0846(7)
H36 H 0.7207 -0.0521 0.0984
C50 C 0.7640(8) -0.0235(7) 0.0493(7)
H37 H 0.7767 -0.0534 0.0388
C51 C 0.7785(7) 0.0195(10) 0.0291(5)
H38 H 0.8013 0.0189 0.0049
C52 C 0.7598(8) 0.0633(7) 0.0443(6)
H39 H 0.7698 0.0926 0.0306
C53 C 0.4687(7) 0.3377(8) 0.1355(6)
C54 C 0.5193(4) 0.2979(4) 0.1368(4)
C55 C 0.5628(5) 0.3029(4) 0.1086(3)
H40 H 0.5594 0.3337 0.0895
C56 C 0.6111(4) 0.2630(6) 0.1083(3)
H41 H 0.6408 0.2664 0.0891
C57 C 0.6160(4) 0.2180(5) 0.1362(4)
C58 C 0.5725(6) 0.2130(4) 0.1644(3)
H42 H 0.5759 0.1823 0.1835
C59 C 0.5242(5) 0.2530(5) 0.1647(3)
H43 H 0.4945 0.2495 0.1839
C60 C 0.6896(10) 0.1677(10) 0.1625(8)
H44 H 0.6778 0.1898 0.1798
N6 N 0.7492(5) 0.0948(6) 0.1360(4)
C61 C 0.7362(5) 0.1252(5) 0.1620(5)
C62 C 0.7669(7) 0.1102(6) 0.1884(4)
H45 H 0.7580 0.1309 0.2062
C63 C 0.8105(6) 0.0649(7) 0.1889(4)
H46 H 0.8314 0.0546 0.2069
C64 C 0.8234(5) 0.0346(5) 0.1629(5)
H47 H 0.8532 0.0036 0.1632
C65 C 0.7928(6) 0.0495(6) 0.1364(4)
H48 H 0.8017 0.0288 0.1187
C66 C 0.4496(9) 0.1113(9) 0.1017(8)
C67 C 0.4994(5) 0.1242(6) 0.0929(4)
C68 C 0.5474(6) 0.0905(5) 0.0776(4)
H49 H 0.5487 0.0603 0.0715
C69 C 0.5934(5) 0.1009(6) 0.0710(4)
H50 H 0.6262 0.0778 0.0605
C70 C 0.5915(6) 0.1450(7) 0.0798(4)
C71 C 0.5436(7) 0.1788(5) 0.0951(4)
H51 H 0.5423 0.2089 0.1011
C72 C 0.4975(5) 0.1684(5) 0.1017(4)
H52 H 0.4648 0.1914 0.1122
C73 C 0.6468(11) 0.1870(10) 0.0472(9)
H53 H 0.6225 0.2004 0.0311
N7 N 0.7261(7) 0.1699(5) 0.0639(4)
C74 C 0.6950(5) 0.2033(8) 0.0383(6)
C75 C 0.7129(7) 0.2393(6) 0.0094(5)
H54 H 0.6916 0.2621 -0.0081
C76 C 0.7620(8) 0.2419(6) 0.0061(4)
H55 H 0.7742 0.2665 -0.0137
C77 C 0.7931(5) 0.2085(7) 0.0317(6)
H56 H 0.8266 0.2102 0.0295
C78 C 0.7751(7) 0.1725(6) 0.0606(4)
H57 H 0.7964 0.1496 0.0782
C79 C 0.2025(7) 0.4204(7) 0.3738(6)
C80 C 0.2543(4) 0.4161(5) 0.3799(3)
C81 C 0.2564(4) 0.4538(4) 0.3945(3)
H58 H 0.2249 0.4803 0.4025
C82 C 0.3045(5) 0.4525(4) 0.3973(3)
H59 H 0.3060 0.4782 0.4072
C83 C 0.3506(4) 0.4137(5) 0.3855(3)
C84 C 0.3485(4) 0.3760(4) 0.3709(3)
H60 H 0.3800 0.3495 0.3629
C85 C 0.3004(5) 0.3773(4) 0.3682(3)
H61 H 0.2989 0.3515 0.3582
C86 C 0.4222(10) 0.3819(10) 0.4126(8)
H62 H 0.4080 0.3577 0.4312
N8 N 0.4868(5) 0.4263(4) 0.3846(3)
C87 C 0.4733(5) 0.3852(5) 0.4103(4)
C88 C 0.5040(7) 0.3535(5) 0.4365(4)
H63 H 0.4948 0.3254 0.4541
C89 C 0.5481(6) 0.3628(6) 0.4371(4)
H64 H 0.5691 0.3411 0.4551
C90 C 0.5615(5) 0.4038(6) 0.4114(5)
H65 H 0.5917 0.4102 0.4118
C91 C 0.5309(6) 0.4356(5) 0.3851(4)
H66 H 0.5400 0.4637 0.3676
C92 C 0.4598(10) 0.2201(8) 0.3293(6)
C93 C 0.4683(5) 0.2707(4) 0.3242(4)
C94 C 0.4463(5) 0.3142(5) 0.2983(3)
H67 H 0.4273 0.3121 0.2826
C95 C 0.4522(5) 0.3610(4) 0.2952(3)
H68 H 0.4372 0.3908 0.2775
C96 C 0.4800(5) 0.3642(4) 0.3181(4)
C97 C 0.5020(5) 0.3206(6) 0.3441(4)
H69 H 0.5210 0.3228 0.3597
C98 C 0.4962(5) 0.2739(5) 0.3471(3)
H70 H 0.5112 0.2441 0.3649
C99 C 0.5185(9) 0.4272(8) 0.2937(6)
H71 H 0.5451 0.4042 0.2787
N9 N 0.4799(5) 0.5038(6) 0.3180(3)
C100 C 0.5187(6) 0.4774(4) 0.2914(4)
C101 C 0.5535(5) 0.5005(6) 0.2653(3)
H72 H 0.5800 0.4824 0.2471
C102 C 0.5495(5) 0.5500(6) 0.2657(3)
H73 H 0.5733 0.5657 0.2478
C103 C 0.5107(6) 0.5764(4) 0.2923(4)
H74 H 0.5079 0.6102 0.2926
C104 C 0.4759(5) 0.5533(5) 0.3185(3)
H75 H 0.4494 0.5713 0.3366
C105 C 0.3721(8) 0.4481(8) 0.1920(5)
C106 C 0.3717(5) 0.4667(5) 0.2250(3)
C107 C 0.3379(4) 0.4570(4) 0.2593(4)
H76 H 0.3128 0.4420 0.2612
C108 C 0.3410(5) 0.4694(5) 0.2908(3)
H77 H 0.3179 0.4628 0.3143
C109 C 0.3777(5) 0.4914(5) 0.2880(3)
C110 C 0.4115(4) 0.5011(4) 0.2536(4)
H78 H 0.4367 0.5162 0.2517
C111 C 0.4085(4) 0.4887(4) 0.2221(3)
H79 H 0.4316 0.4953 0.1987
C112 C 0.3442(10) 0.5429(9) 0.3328(6)
H80 H 0.3165 0.5647 0.3200
N10 N 0.3924(5) 0.5156(4) 0.3821(4)
C113 C 0.3506(6) 0.5501(6) 0.3654(3)
C114 C 0.3128(5) 0.5900(5) 0.3824(4)
H81 H 0.2842 0.6135 0.3710
C115 C 0.3168(5) 0.5955(5) 0.4162(4)
H82 H 0.2909 0.6227 0.4279
C116 C 0.3586(6) 0.5610(6) 0.4330(3)
H83 H 0.3613 0.5648 0.4561
C117 C 0.3965(5) 0.5211(5) 0.4159(4)
H84 H 0.4251 0.4976 0.4274
C118 C 0.0227(11) 0.4617(8) 0.1681(7)
C119 C 0.0122(5) 0.5144(4) 0.1748(4)
C120 C -0.0131(5) 0.5593(6) 0.1513(3)
H85 H -0.0276 0.5572 0.1327
C121 C -0.0173(5) 0.6074(5) 0.1549(4)
H86 H -0.0346 0.6381 0.1389
C122 C 0.0039(6) 0.6106(5) 0.1821(5)
C123 C 0.0292(5) 0.5656(6) 0.2056(4)
H87 H 0.0437 0.5678 0.2242
C124 C 0.0334(5) 0.5176(5) 0.2020(3)
H88 H 0.0507 0.4868 0.2180
C125 C -0.0374(12) 0.6840(11) 0.2083(8)
H89 H -0.0626 0.6690 0.2249
N11 N 0.0012(6) 0.7484(6) 0.1821(4)
C126 C -0.0375(8) 0.7312(5) 0.2088(6)
C127 C -0.0749(6) 0.7627(8) 0.2330(4)
H90 H -0.1014 0.7510 0.2512
C128 C -0.0735(6) 0.8113(7) 0.2304(4)
H91 H -0.0990 0.8328 0.2469
C129 C -0.0348(8) 0.8284(5) 0.2037(6)
H92 H -0.0338 0.8616 0.2020
C130 C 0.0026(6) 0.7969(7) 0.1796(4)
H93 H 0.0291 0.8086 0.1613
C131 C 0.1055(9) 0.5044(8) 0.3088(6)
C132 C 0.1089(5) 0.5491(4) 0.2754(3)
C133 C 0.0719(4) 0.5983(5) 0.2771(3)
H94 H 0.0474 0.6048 0.3000
C134 C 0.0707(5) 0.6381(4) 0.2452(4)
H95 H 0.0454 0.6718 0.2463
C135 C 0.1065(6) 0.6286(5) 0.2117(3)
C136 C 0.1435(5) 0.5794(6) 0.2101(3)
H96 H 0.1679 0.5729 0.1872
C137 C 0.1447(4) 0.5396(4) 0.2419(4)
H97 H 0.1699 0.5060 0.2408
C138 C 0.1380(11) 0.6885(10) 0.1663(7)
H98 H 0.1673 0.6753 0.1780
N12 N 0.0866(6) 0.7459(5) 0.1166(5)
C139 C 0.1293(8) 0.7323(5) 0.1328(4)
C140 C 0.1681(6) 0.7545(7) 0.1151(5)
H99 H 0.1973 0.7452 0.1262
C141 C 0.1644(6) 0.7904(6) 0.0811(5)
H100 H 0.1910 0.8056 0.0690
C142 C 0.1217(7) 0.8040(5) 0.0649(4)
H101 H 0.1192 0.8285 0.0417
C143 C 0.0829(6) 0.7818(6) 0.0826(5)
H102 H 0.0537 0.7911 0.0715
C144 C 0.2789(8) 0.4895(8) 0.1243(7)
C145 C 0.2267(4) 0.5332(4) 0.1197(4)
C146 C 0.1806(5) 0.5215(4) 0.1321(3)
H103 H 0.1820 0.4867 0.1427
C147 C 0.1324(4) 0.5607(6) 0.1289(4)
H104 H 0.1009 0.5527 0.1373
C148 C 0.1304(5) 0.6117(5) 0.1133(4)
C149 C 0.1765(6) 0.6234(4) 0.1009(3)
H105 H 0.1751 0.6582 0.0903
C150 C 0.2247(5) 0.5842(5) 0.1042(3)
H106 H 0.2562 0.5922 0.0957
C151 C 0.0573(13) 0.6543(13) 0.0903(10)
H107 H 0.0697 0.6289 0.0754
N13 N -0.0092(7) 0.7337(7) 0.1151(4)
C152 C 0.0071(7) 0.7027(6) 0.0890(5)
C153 C -0.0262(10) 0.7097(8) 0.0663(4)
H108 H -0.0150 0.6885 0.0485
C154 C -0.0758(9) 0.7478(9) 0.0696(5)
H109 H -0.0986 0.7526 0.0540
C155 C -0.0922(6) 0.7788(7) 0.0956(6)
H110 H -0.1261 0.8048 0.0979
C156 C -0.0589(8) 0.7718(6) 0.1184(5)
H111 H -0.0700 0.7930 0.1362
C157 C 0.0164(9) 0.4264(11) 0.3616(8)
C158 C -0.0364(5) 0.4282(6) 0.3588(4)
C159 C -0.0391(6) 0.4061(5) 0.3321(4)
H112 H -0.0082 0.3918 0.3146
C160 C -0.0872(7) 0.4049(5) 0.3311(4)
H113 H -0.0891 0.3899 0.3129
C161 C -0.1324(6) 0.4259(6) 0.3567(5)
C162 C -0.1296(5) 0.4480(5) 0.3834(4)
H114 H -0.1605 0.4623 0.4009
C163 C -0.0816(7) 0.4491(5) 0.3844(4)
H115 H -0.0797 0.4642 0.4026
C164 C -0.2097(15) 0.4608(15) 0.3334(11)
H116 H -0.2017 0.4918 0.3228
N14 N -0.2659(7) 0.4124(8) 0.3536(5)
C165 C -0.2562(7) 0.4556(9) 0.3285(7)
C166 C -0.2887(11) 0.4860(7) 0.3031(6)
H117 H -0.2821 0.5156 0.2859
C167 C -0.3308(9) 0.4732(9) 0.3029(6)
H118 H -0.3530 0.4940 0.2855
C168 C -0.3404(7) 0.4299(10) 0.3280(7)
H119 H -0.3692 0.4212 0.3279
C169 C -0.3080(8) 0.3996(7) 0.3534(6)
H120 H -0.3146 0.3700 0.3707
C170 C 0.0293(8) 0.1593(9) 0.3938(8)
C171 C -0.0206(5) 0.2048(5) 0.4027(4)
C172 C -0.0182(5) 0.2543(6) 0.3949(4)
H121 H 0.0148 0.2595 0.3849
C173 C -0.0640(7) 0.2961(5) 0.4017(4)
H122 H -0.0624 0.3299 0.3963
C174 C -0.1122(5) 0.2885(6) 0.4163(4)
C175 C -0.1146(5) 0.2390(7) 0.4241(4)
H123 H -0.1476 0.2338 0.4341
C176 C -0.0688(6) 0.1972(5) 0.4173(4)
H124 H -0.0704 0.1634 0.4227
C177 C -0.1685(12) 0.3524(11) 0.4482(9)
H125 H -0.1473 0.3370 0.4665
N15 N -0.2465(6) 0.4143(6) 0.4236(4)
C178 C -0.2161(5) 0.3964(6) 0.4505(5)
C179 C -0.2299(8) 0.4230(8) 0.4790(4)
H126 H -0.2091 0.4108 0.4974
C180 C -0.2741(8) 0.4677(8) 0.4805(5)
H127 H -0.2836 0.4859 0.4999
C181 C -0.3046(6) 0.4856(5) 0.4535(6)
H128 H -0.3348 0.5161 0.4546
C182 C -0.2908(6) 0.4589(7) 0.4251(5)
H129 H -0.3116 0.4712 0.4067
C183 C -0.0302(10) 0.3507(10) 0.2174(7)
C184 C -0.0696(6) 0.3367(6) 0.2516(4)
C185 C -0.0523(5) 0.3002(5) 0.2828(5)
H130 H -0.0160 0.2802 0.2811
C186 C -0.0883(8) 0.2930(5) 0.3164(4)
H131 H -0.0766 0.2681 0.3377
C187 C -0.1415(7) 0.3223(7) 0.3189(4)
C188 C -0.1587(5) 0.3588(6) 0.2877(5)
H132 H -0.1950 0.3788 0.2894
C189 C -0.1227(6) 0.3659(5) 0.2541(4)
H133 H -0.1345 0.3909 0.2328
C190 C -0.2002(13) 0.2836(13) 0.3632(9)
H134 H -0.1900 0.2601 0.3472
N16 N -0.2523(7) 0.3221(6) 0.4158(5)
C191 C -0.2337(6) 0.2796(8) 0.3992(4)
C192 C -0.2556(9) 0.2406(6) 0.4145(6)
H135 H -0.2429 0.2116 0.4031
C193 C -0.2962(8) 0.2442(7) 0.4463(6)
H136 H -0.3112 0.2176 0.4567
C194 C -0.3148(6) 0.2867(9) 0.4629(5)
H137 H -0.3425 0.2892 0.4847
C195 C -0.2928(7) 0.3257(7) 0.4477(5)
H138 H -0.3055 0.3548 0.4590
C196 C 0.1049(9) 0.3892(10) 0.0901(6)
C197 C 0.1425(5) 0.4026(5) 0.0532(3)
C198 C 0.1275(5) 0.4164(5) 0.0190(4)
H139 H 0.0929 0.4200 0.0186
C199 C 0.1631(6) 0.4249(5) -0.0145(3)
H140 H 0.1529 0.4343 -0.0379
C200 C 0.2137(6) 0.4196(5) -0.0139(4)
C201 C 0.2287(4) 0.4059(5) 0.0203(5)
H141 H 0.2633 0.4023 0.0208
C202 C 0.1932(5) 0.3973(5) 0.0539(4)
H142 H 0.2034 0.3879 0.0773
C203 C 0.2598(14) 0.4715(14) -0.0605(10)
H143 H 0.2408 0.4979 -0.0464
N17 N 0.3190(8) 0.4336(8) -0.1096(6)
C204 C 0.2978(7) 0.4777(11) -0.0945(5)
C205 C 0.3160(10) 0.5191(8) -0.1120(8)
H144 H 0.3016 0.5493 -0.1017
C206 C 0.3554(10) 0.5163(8) -0.1446(7)
H145 H 0.3678 0.5445 -0.1565
C207 C 0.3765(7) 0.4721(11) -0.1596(5)
H146 H 0.4034 0.4702 -0.1819
C208 C 0.3583(8) 0.4308(7) -0.1421(7)
H147 H 0.3728 0.4006 -0.1524
C209 C 0.3250(8) 0.1623(7) 0.0628(5)
C210 C 0.3031(5) 0.2019(4) 0.0326(3)
C211 C 0.3270(4) 0.1979(5) -0.0046(4)
H148 H 0.3552 0.1673 -0.0100
C212 C 0.3097(5) 0.2386(6) -0.0338(3)
H149 H 0.3260 0.2359 -0.0592
C213 C 0.2684(6) 0.2834(5) -0.0258(4)
C214 C 0.2445(4) 0.2874(4) 0.0113(4)
H150 H 0.2163 0.3180 0.0168
C215 C 0.2618(5) 0.2467(5) 0.0406(3)
H151 H 0.2455 0.2494 0.0660
C216 C 0.2140(15) 0.3331(14) -0.0672(11)
H152 H 0.1943 0.3103 -0.0563
N18 N 0.2319(7) 0.4020(11) -0.1056(7)
C217 C 0.2003(11) 0.3715(7) -0.0943(5)
C218 C 0.1563(10) 0.3872(10) -0.1096(7)
H153 H 0.1347 0.3664 -0.1019
C219 C 0.1440(7) 0.4333(11) -0.1361(7)
H154 H 0.1139 0.4440 -0.1465
C220 C 0.1756(11) 0.4638(7) -0.1474(5)
H155 H 0.1672 0.4953 -0.1655
C221 C 0.2196(9) 0.4482(10) -0.1321(7)
H156 H 0.2412 0.4690 -0.1398
C222 C 0.3715(10) 0.3863(8) 0.0696(6)
C223 C 0.3670(6) 0.3741(5) 0.0367(3)
C224 C 0.3769(5) 0.4052(4) 0.0013(4)
H157 H 0.3845 0.4354 -0.0011
C225 C 0.3756(5) 0.3922(6) -0.0304(3)
H158 H 0.3824 0.4134 -0.0546
C226 C 0.3644(6) 0.3481(6) -0.0268(4)
C227 C 0.3545(5) 0.3170(5) 0.0085(5)
H159 H 0.3468 0.2868 0.0110
C228 C 0.3558(5) 0.3300(5) 0.0403(4)
H160 H 0.3490 0.3087 0.0645
C229 C 0.3928(13) 0.3059(12) -0.0729(9)
H161 H 0.4229 0.2864 -0.0621
N19 N 0.3364(7) 0.3315(5) -0.1168(5)
C230 C 0.3834(8) 0.3003(8) -0.1054(4)
C231 C 0.4182(6) 0.2600(7) -0.1232(6)
H162 H 0.4503 0.2386 -0.1154
C232 C 0.4059(7) 0.2510(6) -0.1525(6)
H163 H 0.4297 0.2235 -0.1647
C233 C 0.3589(9) 0.2823(8) -0.1640(4)
H164 H 0.3505 0.2761 -0.1840
C234 C 0.3241(6) 0.3225(7) -0.1461(5)
H165 H 0.2920 0.3439 -0.1540
C235 C 0.3772(9) 0.1486(8) 0.4098(6)
C236 C 0.3411(5) 0.1629(5) 0.4442(3)
C237 C 0.3555(4) 0.1369(4) 0.4786(4)
H166 H 0.3899 0.1123 0.4793
C238 C 0.3196(6) 0.1470(5) 0.5119(3)
H167 H 0.3295 0.1293 0.5354
C239 C 0.2693(5) 0.1830(6) 0.5109(4)
C240 C 0.2549(4) 0.2090(5) 0.4765(5)
H168 H 0.2205 0.2336 0.4757
C241 C 0.2908(5) 0.1989(5) 0.4431(3)
H169 H 0.2809 0.2167 0.4196
C242 C 0.2236(13) 0.2332(13) 0.5588(9)
H170 H 0.2407 0.2579 0.5461
N20 N 0.1669(7) 0.1964(6) 0.6087(5)
C243 C 0.1882(6) 0.2356(9) 0.5912(4)
C244 C 0.1707(9) 0.2791(7) 0.6065(7)
H171 H 0.1852 0.3060 0.5946
C245 C 0.1318(9) 0.2835(7) 0.6393(7)
H172 H 0.1198 0.3132 0.6498
C246 C 0.1105(7) 0.2443(10) 0.6567(5)
H173 H 0.0839 0.2472 0.6791
C247 C 0.1280(8) 0.2007(7) 0.6414(6)
H174 H 0.1134 0.1739 0.6534
C248 C 0.1117(12) 0.3433(11) 0.4276(8)
C249 C 0.1125(5) 0.3002(5) 0.4628(4)
C250 C 0.1052(5) 0.3101(5) 0.4979(4)
H175 H 0.0977 0.3443 0.5002
C251 C 0.1087(6) 0.2699(7) 0.5295(4)
H176 H 0.1037 0.2766 0.5534
C252 C 0.1196(6) 0.2198(6) 0.5260(4)
C253 C 0.1270(5) 0.2099(5) 0.4909(5)
H177 H 0.1344 0.1756 0.4885
C254 C 0.1234(5) 0.2501(6) 0.4593(4)
H178 H 0.1285 0.2433 0.4353
C255 C 0.0895(14) 0.1632(12) 0.5776(9)
H179 H 0.0551 0.1805 0.5725
N21 N 0.1536(8) 0.1021(8) 0.6156(6)
C256 C 0.1049(10) 0.1213(6) 0.6057(5)
C257 C 0.0668(7) 0.0989(9) 0.6261(7)
H180 H 0.0335 0.1120 0.6193
C258 C 0.0773(8) 0.0573(9) 0.6563(6)
H181 H 0.0513 0.0420 0.6703
C259 C 0.1260(10) 0.0382(6) 0.6662(5)
H182 H 0.1332 0.0098 0.6869
C260 C 0.1641(7) 0.0606(8) 0.6458(6)
H183 H 0.1974 0.0475 0.6526
C261 C 0.1535(10) 0.0783(11) 0.4325(8)
C262 C 0.1778(6) 0.0742(5) 0.4636(4)
C263 C 0.2198(5) 0.0917(5) 0.4552(4)
H184 H 0.2359 0.1020 0.4297
C264 C 0.2382(5) 0.0942(5) 0.4842(5)
H185 H 0.2669 0.1061 0.4785
C265 C 0.2146(6) 0.0791(6) 0.5215(4)
C266 C 0.1726(6) 0.0616(5) 0.5298(3)
H186 H 0.1565 0.0513 0.5553
C267 C 0.1542(5) 0.0591(5) 0.5009(4)
H187 H 0.1255 0.0471 0.5066
C268 C 0.2705(13) 0.0525(13) 0.5623(9)
H188 H 0.2887 0.0220 0.5524
N22 N 0.2526(6) 0.1027(7) 0.6047(5)
C269 C 0.2867(9) 0.0601(8) 0.5891(4)
C270 C 0.3346(8) 0.0312(6) 0.5999(6)
H189 H 0.3579 0.0021 0.5892
C271 C 0.3485(6) 0.0449(8) 0.6262(6)
H190 H 0.3812 0.0252 0.6336
C272 C 0.3144(9) 0.0875(9) 0.6418(5)
H191 H 0.3238 0.0969 0.6597
C273 C 0.2664(8) 0.1164(6) 0.6310(5)
H192 H 0.2431 0.1455 0.6416
C274 C 0.2769(9) 0.0547(10) 0.1422(7)
C275 C 0.2330(5) 0.0320(5) 0.1559(4)
C276 C 0.2240(6) 0.0095(5) 0.1323(3)
H193 H 0.2485 0.0032 0.1094
C277 C 0.1790(7) -0.0038(5) 0.1421(4)
H194 H 0.1728 -0.0191 0.1260
C278 C 0.1430(5) 0.0054(5) 0.1756(5)
C279 C 0.1520(5) 0.0279(5) 0.1992(4)
H195 H 0.1274 0.0342 0.2221
C280 C 0.1970(6) 0.0412(5) 0.1893(4)
H196 H 0.2031 0.0565 0.2055
C281 C 0.0885(8) -0.0433(9) 0.2124(6)
H197 H 0.1168 -0.0646 0.2247
N23 N 0.0030(6) -0.0148(4) 0.1989(3)
C282 C 0.0372(4) -0.0509(6) 0.2217(4)
C283 C 0.0214(5) -0.0888(5) 0.2499(4)
H198 H 0.0448 -0.1134 0.2655
C284 C -0.0286(6) -0.0906(5) 0.2553(3)
H199 H -0.0394 -0.1165 0.2746
C285 C -0.0627(4) -0.0545(6) 0.2325(4)
H200 H -0.0969 -0.0557 0.2361
C286 C -0.0469(5) -0.0166(4) 0.2042(3)
H201 H -0.0703 0.0081 0.1886
C287 C 0.0800(8) 0.0847(7) 0.3147(6)
C288 C 0.0517(5) 0.0881(5) 0.2857(3)
C289 C 0.0326(5) 0.0490(4) 0.2896(3)
H202 H 0.0323 0.0232 0.3122
C290 C 0.0140(5) 0.0475(4) 0.2604(4)
H203 H 0.0010 0.0207 0.2631
C291 C 0.0145(5) 0.0851(5) 0.2273(3)
C292 C 0.0336(5) 0.1243(4) 0.2234(3)
H204 H 0.0339 0.1500 0.2008
C293 C 0.0522(5) 0.1258(4) 0.2526(4)
H205 H 0.0652 0.1525 0.2500
C294 C -0.0483(9) 0.1212(9) 0.1893(6)
H206 H -0.0661 0.1482 0.2030
N24 N -0.0359(4) 0.0786(5) 0.1422(4)
C295 C -0.0690(6) 0.1182(6) 0.1611(3)
C296 C -0.1143(5) 0.1536(5) 0.1489(4)
H207 H -0.1368 0.1807 0.1619
C297 C -0.1266(4) 0.1494(5) 0.1177(4)
H208 H -0.1576 0.1737 0.1094
C298 C -0.0936(6) 0.1098(6) 0.0987(3)
H209 H -0.1020 0.1070 0.0774
C299 C -0.0483(5) 0.0744(5) 0.1110(4)
H210 H -0.0257 0.0473 0.0980
C300 C 0.0517(8) 0.2785(7) 0.1415(7)
C301 C 0.0581(5) 0.2288(4) 0.1319(4)
C302 C 0.0183(4) 0.2262(4) 0.1195(3)
H211 H -0.0107 0.2566 0.1139
C303 C 0.0208(5) 0.1790(6) 0.1152(3)
H212 H -0.0064 0.1772 0.1067
C304 C 0.0632(6) 0.1345(4) 0.1234(4)
C305 C 0.1030(5) 0.1371(4) 0.1359(4)
H213 H 0.1320 0.1066 0.1415
C306 C 0.1005(4) 0.1843(5) 0.1401(3)
H214 H 0.1277 0.1861 0.1486
C307 C 0.0813(12) 0.0734(12) 0.0892(10)
H215 H 0.0871 0.0981 0.0667
N25 N 0.0631(5) -0.0047(7) 0.1239(4)
C308 C 0.0857(6) 0.0222(6) 0.0906(6)
C309 C 0.1077(7) 0.0006(8) 0.0588(4)
H216 H 0.1232 0.0191 0.0360
C310 C 0.1071(7) -0.0479(9) 0.0604(5)
H217 H 0.1221 -0.0627 0.0387
C311 C 0.0844(7) -0.0749(6) 0.0937(7)
H218 H 0.0840 -0.1080 0.0948
C312 C 0.0624(6) -0.0533(7) 0.1255(5)
H219 H 0.0469 -0.0717 0.1483
N26 N 0.4190(7) -0.1584(6) 0.3674(5)
N27 N 0.4869(7) -0.1518(6) 0.2947(5)
N28 N 0.3899(7) -0.1707(6) 0.3072(5)
N29 N 0.6593(7) 0.0759(7) 0.1371(5)
N30 N 0.6642(6) 0.1746(6) 0.1380(5)
N31 N 0.6422(6) 0.1559(7) 0.0760(5)
N32 N 0.4001(6) 0.4133(5) 0.3882(4)
N33 N 0.4786(6) 0.4152(6) 0.3180(5)
N34 N 0.3816(7) 0.5023(7) 0.3226(5)
N35 N 0.0013(7) 0.6606(5) 0.1822(5)
N36 N 0.1002(6) 0.6721(5) 0.1764(4)
N37 N 0.0790(6) 0.6543(5) 0.1147(5)
N38 N -0.1585(6) 0.3362(6) 0.4172(4)
N39 N -0.1847(5) 0.3235(8) 0.3544(4)
N40 N -0.1816(7) 0.4226(8) 0.3520(5)
N41 N 0.2547(7) 0.3252(7) -0.0547(5)
N42 N 0.3538(6) 0.3414(7) -0.0615(4)
N43 N 0.2528(7) 0.4255(8) -0.0500(5)
N44 N 0.1301(7) 0.1742(7) 0.5599(4)
N45 N 0.2323(6) 0.1890(6) 0.5460(4)
N46 N 0.2298(8) 0.0876(7) 0.5505(5)
N47 N 0.0893(5) -0.0029(5) 0.1845(4)
N48 N -0.0037(5) 0.0853(5) 0.1958(4)
N49 N 0.0684(6) 0.0819(6) 0.1226(5)
N50 N 0.2971(8) 0.1717(7) 0.1863(6)
H220 H 0.2656 0.1683 0.1981
H221 H 0.3163 0.1643 0.2034
H222 H 0.2924 0.2044 0.1731
N51 N 0.5493(9) 0.0707(9) 0.3940(7)
H223 H 0.5349 0.0734 0.4185
H224 H 0.5729 0.0877 0.3841
H225 H 0.5660 0.0367 0.3928
N52 N 0.3386(9) 0.1924(8) 0.2938(6)
H226 H 0.3341 0.2264 0.2854
H227 H 0.3465 0.1777 0.2741
H228 H 0.3087 0.1886 0.3094
N53 N 0.4452(9) 0.5009(9) 0.0699(7)
H229 H 0.4506 0.5000 0.0456
H230 H 0.4271 0.5337 0.0731
H231 H 0.4764 0.4898 0.0764
N54 N 0.0417(7) 0.5096(7) 0.4335(5)
H232 H 0.0068 0.5174 0.4369
H233 H 0.0516 0.4938 0.4557
H234 H 0.0496 0.5388 0.4242
O3 O 0.4532(5) 0.0761(6) 0.0873(4)
O4 O 0.4108(5) 0.1356(6) 0.1232(5)
O5 O 0.4116(6) 0.0010(6) 0.1445(5)
O6 O 0.3736(5) 0.0547(5) 0.1790(4)
O7 O 0.3145(6) 0.0346(5) 0.1184(5)
O8 O 0.2796(5) 0.0855(5) 0.1583(4)
O9 O 0.3522(5) 0.1155(5) 0.0584(4)
O10 O 0.3102(6) 0.1678(5) 0.0977(4)
O11 O 0.4016(5) 0.0763(5) 0.3394(4)
O12 O 0.4673(6) 0.0397(5) 0.3680(4)
O13 O 0.5312(5) 0.0938(5) 0.3092(4)
O14 O 0.4645(5) 0.1322(4) 0.2781(4)
O15 O 0.4262(5) 0.1243(5) 0.4094(4)
O16 O 0.3642(5) 0.1630(5) 0.3789(5)
O17 O 0.4256(5) 0.2195(5) 0.3165(4)
O18 O 0.4892(5) 0.1837(5) 0.3480(4)
O19 O 0.2829(5) 0.4471(5) 0.1436(4)
O20 O 0.3210(6) 0.5004(5) 0.1089(4)
O21 O 0.3533(6) 0.3660(6) 0.1044(4)
O22 O 0.3941(6) 0.4206(6) 0.0644(4)
O23 O 0.3516(5) 0.4167(5) 0.1964(4)
O24 O 0.3973(5) 0.4647(5) 0.1593(4)
O25 O 0.4246(6) 0.3313(5) 0.1553(4)
O26 O 0.4663(5) 0.3855(6) 0.1140(4)
O27 O 0.0181(6) 0.3329(6) 0.2172(4)
O28 O -0.0482(5) 0.3736(6) 0.1885(4)
O29 O 0.0824(6) 0.2807(6) 0.1565(4)
O30 O 0.0155(5) 0.3173(5) 0.1267(3)
O31 O 0.0529(5) 0.4235(6) 0.1808(4)
O32 O -0.0087(5) 0.4616(5) 0.1481(4)
O33 O 0.0549(5) 0.4062(5) 0.0873(3)
O34 O 0.0318(6) 0.1120(6) 0.4084(4)
O35 O 0.0707(5) 0.1703(6) 0.3697(4)
O36 O 0.0658(5) 0.0555(5) 0.3492(4)
O37 O 0.1056(6) 0.1084(5) 0.3130(4)
O38 O 0.1263(6) 0.0514(5) 0.4375(4)
O39 O 0.1697(6) 0.1033(6) 0.3975(5)
O40 O 0.1621(6) -0.0103(5) 0.3782(4)
O41 O 0.1613(5) 0.4492(6) 0.3919(4)
O42 O 0.2029(5) 0.3887(6) 0.3568(4)
O43 O 0.0884(5) 0.3888(6) 0.4320(4)
O44 O 0.1276(5) 0.3339(6) 0.3944(5)
O45 O 0.1317(5) 0.4579(5) 0.3027(4)
O46 O 0.0889(5) 0.5127(5) 0.3414(4)
O47 O 0.0570(6) 0.3991(6) 0.3425(5)
O48 O 0.0166(4) 0.4524(5) 0.3822(4)
N55 N 0.1453(9) 0.3077(9) 0.2021(7)
H235 H 0.1334 0.2952 0.2264
H236 H 0.1695 0.2815 0.1913
H237 H 0.1601 0.3309 0.2004
N56 N 0.4320(8) -0.0082(8) 0.0543(6)
H238 H 0.4101 -0.0234 0.0539
H239 H 0.4412 0.0099 0.0311
H240 H 0.4611 -0.0326 0.0618
N57 N 0.3028(9) 0.3251(8) 0.1905(6)
H241 H 0.2987 0.3090 0.1754
H242 H 0.3212 0.3014 0.2075
H243 H 0.2709 0.3432 0.2026
N58 N -0.0736(8) 0.4299(8) 0.0979(6)
H244 H -0.0888 0.4642 0.0968
H245 H -0.0602 0.4239 0.0745
H246 H -0.0977 0.4143 0.1099
N59 N 0.0513(10) -0.0159(9) 0.4437(7)
H247 H 0.0334 -0.0245 0.4324
H248 H 0.0767 -0.0445 0.4523
H249 H 0.0291 -0.0013 0.4630
N60 N 0.1797(10) 0.3341(9) 0.3031(7)
H250 H 0.2147 0.3255 0.3002
H251 H 0.1708 0.3053 0.3127
H252 H 0.1706 0.3495 0.2806
S1 S 0.1621(5) 0.1321(6) 0.0042(3)
O49 O 0.1082(4) 0.1616(7) 0.0187(6)
O50 O 0.1816(7) 0.0795(5) 0.0248(5)
O51 O 0.1777(8) 0.1394(9) -0.0363(3)
C313 C 0.1995(5) 0.1640(5) 0.0148(4)
F1 F 0.2516(5) 0.1420(8) 0.0034(6)
F2 F 0.1869(8) 0.2143(6) -0.0020(6)
F3 F 0.1904(8) 0.1616(8) 0.0518(5)
loop_
_geom_bond_atom_site_label_1
_geom_bond_atom_site_label_2
_geom_bond_site_symmetry_1
_geom_bond_site_symmetry_2
Mo1 Mo2 1_555 1_555
Mo2 N50 1_555 1_555
Mo3 Mo4 1_555 1_555
Mo4 N52 1_555 1_555
Mo5 Mo6 1_555 1_555
Mo6 O19 1_555 1_555
Mo7 O1 1_555 1_555
O1 C196 1_555 1_555
Mo8 Mo7 1_555 1_555
Mo9 O2 1_555 1_555
O2 C27 1_555 1_555
N1 Mo9 1_555 1_555
H1 N1 1_555 1_555
H2 N1 1_555 1_555
H3 N1 1_555 1_555
Mo10 Mo9 1_555 1_555
Mo11 Mo12 1_555 1_555
Mo12 N54 1_555 1_555
Fe1 N2 1_555 1_555
Fe2 N5 1_555 1_555
Fe3 N8 1_555 1_555
Fe4 N11 1_555 1_555
Fe5 N14 1_555 1_555
Fe6 N17 1_555 1_555
Fe7 N20 1_555 1_555
Fe8 N23 1_555 1_555
C1 C2 1_555 1_555
C2 C3 1_555 1_555
C3 H4 1_555 1_555
C4 C3 1_555 1_555
H5 C4 1_555 1_555
C5 C4 1_555 1_555
C6 C5 1_555 1_555
H6 C6 1_555 1_555
C7 C2 1_555 1_555
H7 C7 1_555 1_555
C8 H8 1_555 1_555
N2 C9 1_555 1_555
C9 C8 1_555 1_555
C10 C9 1_555 1_555
H9 C10 1_555 1_555
C11 C10 1_555 1_555
H10 C11 1_555 1_555
C12 C11 1_555 1_555
H11 C12 1_555 1_555
C13 N2 1_555 1_555
H12 C13 1_555 1_555
C14 C15 1_555 1_555
C15 C16 1_555 1_555
C16 H13 1_555 1_555
C17 C16 1_555 1_555
H14 C17 1_555 1_555
C18 C17 1_555 1_555
C19 C18 1_555 1_555
H15 C19 1_555 1_555
C20 C15 1_555 1_555
H16 C20 1_555 1_555
C21 H17 1_555 1_555
N3 Fe1 1_555 1_555
C22 C21 1_555 1_555
C23 C22 1_555 1_555
H18 C23 1_555 1_555
C24 C23 1_555 1_555
H19 C24 1_555 1_555
C25 C24 1_555 1_555
H20 C25 1_555 1_555
C26 N3 1_555 1_555
H21 C26 1_555 1_555
C27 C28 1_555 1_555
C28 C29 1_555 1_555
C29 H22 1_555 1_555
C30 C29 1_555 1_555
H23 C30 1_555 1_555
C31 C30 1_555 1_555
C32 C31 1_555 1_555
H24 C32 1_555 1_555
C33 C28 1_555 1_555
H25 C33 1_555 1_555
C34 H26 1_555 1_555
N4 Fe1 1_555 1_555
C35 C34 1_555 1_555
C36 C35 1_555 1_555
H27 C36 1_555 1_555
C37 C36 1_555 1_555
H28 C37 1_555 1_555
C38 C37 1_555 1_555
H29 C38 1_555 1_555
C39 N4 1_555 1_555
H30 C39 1_555 1_555
C40 C41 1_555 1_555
C41 C42 1_555 1_555
C42 H31 1_555 1_555
C43 C42 1_555 1_555
H32 C43 1_555 1_555
C44 C43 1_555 1_555
C45 C44 1_555 1_555
H33 C45 1_555 1_555
C46 C41 1_555 1_555
H34 C46 1_555 1_555
C47 H35 1_555 1_555
N5 C48 1_555 1_555
C48 C47 1_555 1_555
C49 C48 1_555 1_555
H36 C49 1_555 1_555
C50 C49 1_555 1_555
H37 C50 1_555 1_555
C51 C50 1_555 1_555
H38 C51 1_555 1_555
C52 N5 1_555 1_555
H39 C52 1_555 1_555
C53 C54 1_555 1_555
C54 C55 1_555 1_555
C55 H40 1_555 1_555
C56 C55 1_555 1_555
H41 C56 1_555 1_555
C57 C56 1_555 1_555
C58 C57 1_555 1_555
H42 C58 1_555 1_555
C59 C54 1_555 1_555
H43 C59 1_555 1_555
C60 H44 1_555 1_555
N6 Fe2 1_555 1_555
C61 C60 1_555 1_555
C62 C61 1_555 1_555
H45 C62 1_555 1_555
C63 C62 1_555 1_555
H46 C63 1_555 1_555
C64 C63 1_555 1_555
H47 C64 1_555 1_555
C65 N6 1_555 1_555
H48 C65 1_555 1_555
C66 C67 1_555 1_555
C67 C68 1_555 1_555
C68 H49 1_555 1_555
C69 C68 1_555 1_555
H50 C69 1_555 1_555
C70 C69 1_555 1_555
C71 C70 1_555 1_555
H51 C71 1_555 1_555
C72 C67 1_555 1_555
H52 C72 1_555 1_555
C73 H53 1_555 1_555
N7 Fe2 1_555 1_555
C74 C73 1_555 1_555
C75 C74 1_555 1_555
H54 C75 1_555 1_555
C76 C75 1_555 1_555
H55 C76 1_555 1_555
C77 C76 1_555 1_555
H56 C77 1_555 1_555
C78 N7 1_555 1_555
H57 C78 1_555 1_555
C79 C80 1_555 1_555
C80 C81 1_555 1_555
C81 H58 1_555 1_555
C82 C81 1_555 1_555
H59 C82 1_555 1_555
C83 C82 1_555 1_555
C84 C83 1_555 1_555
H60 C84 1_555 1_555
C85 C80 1_555 1_555
H61 C85 1_555 1_555
C86 H62 1_555 1_555
N8 C87 1_555 1_555
C87 C86 1_555 1_555
C88 C87 1_555 1_555
H63 C88 1_555 1_555
C89 C88 1_555 1_555
H64 C89 1_555 1_555
C90 C89 1_555 1_555
H65 C90 1_555 1_555
C91 N8 1_555 1_555
H66 C91 1_555 1_555
C92 C93 1_555 1_555
C93 C94 1_555 1_555
C94 H67 1_555 1_555
C95 C94 1_555 1_555
H68 C95 1_555 1_555
C96 C95 1_555 1_555
C97 C96 1_555 1_555
H69 C97 1_555 1_555
C98 C93 1_555 1_555
H70 C98 1_555 1_555
C99 H71 1_555 1_555
N9 Fe3 1_555 1_555
C100 C99 1_555 1_555
C101 C100 1_555 1_555
H72 C101 1_555 1_555
C102 C101 1_555 1_555
H73 C102 1_555 1_555
C103 C102 1_555 1_555
H74 C103 1_555 1_555
C104 N9 1_555 1_555
H75 C104 1_555 1_555
C105 C106 1_555 1_555
C106 C107 1_555 1_555
C107 H76 1_555 1_555
C108 C107 1_555 1_555
H77 C108 1_555 1_555
C109 C108 1_555 1_555
C110 C109 1_555 1_555
H78 C110 1_555 1_555
C111 C106 1_555 1_555
H79 C111 1_555 1_555
C112 H80 1_555 1_555
N10 Fe3 1_555 1_555
C113 C112 1_555 1_555
C114 C113 1_555 1_555
H81 C114 1_555 1_555
C115 C114 1_555 1_555
H82 C115 1_555 1_555
C116 C115 1_555 1_555
H83 C116 1_555 1_555
C117 N10 1_555 1_555
H84 C117 1_555 1_555
C118 C119 1_555 1_555
C119 C120 1_555 1_555
C120 H85 1_555 1_555
C121 C120 1_555 1_555
H86 C121 1_555 1_555
C122 C121 1_555 1_555
C123 C122 1_555 1_555
H87 C123 1_555 1_555
C124 C119 1_555 1_555
H88 C124 1_555 1_555
C125 H89 1_555 1_555
N11 C126 1_555 1_555
C126 C125 1_555 1_555
C127 C126 1_555 1_555
H90 C127 1_555 1_555
C128 C127 1_555 1_555
H91 C128 1_555 1_555
C129 C128 1_555 1_555
H92 C129 1_555 1_555
C130 N11 1_555 1_555
H93 C130 1_555 1_555
C131 C132 1_555 1_555
C132 C133 1_555 1_555
C133 H94 1_555 1_555
C134 C133 1_555 1_555
H95 C134 1_555 1_555
C135 C134 1_555 1_555
C136 C135 1_555 1_555
H96 C136 1_555 1_555
C137 C132 1_555 1_555
H97 C137 1_555 1_555
C138 H98 1_555 1_555
N12 Fe4 1_555 1_555
C139 C138 1_555 1_555
C140 C139 1_555 1_555
H99 C140 1_555 1_555
C141 C140 1_555 1_555
H100 C141 1_555 1_555
C142 C141 1_555 1_555
H101 C142 1_555 1_555
C143 N12 1_555 1_555
H102 C143 1_555 1_555
C144 C145 1_555 1_555
C145 C146 1_555 1_555
C146 H103 1_555 1_555
C147 C146 1_555 1_555
H104 C147 1_555 1_555
C148 C147 1_555 1_555
C149 C148 1_555 1_555
H105 C149 1_555 1_555
C150 C145 1_555 1_555
H106 C150 1_555 1_555
C151 H107 1_555 1_555
N13 Fe4 1_555 1_555
C152 C151 1_555 1_555
C153 C152 1_555 1_555
H108 C153 1_555 1_555
C154 C153 1_555 1_555
H109 C154 1_555 1_555
C155 C154 1_555 1_555
H110 C155 1_555 1_555
C156 N13 1_555 1_555
H111 C156 1_555 1_555
C157 C158 1_555 1_555
C158 C159 1_555 1_555
C159 H112 1_555 1_555
C160 C159 1_555 1_555
H113 C160 1_555 1_555
C161 C160 1_555 1_555
C162 C161 1_555 1_555
H114 C162 1_555 1_555
C163 C158 1_555 1_555
H115 C163 1_555 1_555
C164 H116 1_555 1_555
N14 C165 1_555 1_555
C165 C164 1_555 1_555
C166 C165 1_555 1_555
H117 C166 1_555 1_555
C167 C166 1_555 1_555
H118 C167 1_555 1_555
C168 C167 1_555 1_555
H119 C168 1_555 1_555
C169 N14 1_555 1_555
H120 C169 1_555 1_555
C170 C171 1_555 1_555
C171 C172 1_555 1_555
C172 H121 1_555 1_555
C173 C172 1_555 1_555
H122 C173 1_555 1_555
C174 C173 1_555 1_555
C175 C174 1_555 1_555
H123 C175 1_555 1_555
C176 C171 1_555 1_555
H124 C176 1_555 1_555
C177 H125 1_555 1_555
N15 Fe5 1_555 1_555
C178 C177 1_555 1_555
C179 C178 1_555 1_555
H126 C179 1_555 1_555
C180 C179 1_555 1_555
H127 C180 1_555 1_555
C181 C180 1_555 1_555
H128 C181 1_555 1_555
C182 N15 1_555 1_555
H129 C182 1_555 1_555
C183 C184 1_555 1_555
C184 C185 1_555 1_555
C185 H130 1_555 1_555
C186 C185 1_555 1_555
H131 C186 1_555 1_555
C187 C186 1_555 1_555
C188 C187 1_555 1_555
H132 C188 1_555 1_555
C189 C184 1_555 1_555
H133 C189 1_555 1_555
C190 H134 1_555 1_555
N16 Fe5 1_555 1_555
C191 C190 1_555 1_555
C192 C191 1_555 1_555
H135 C192 1_555 1_555
C193 C192 1_555 1_555
H136 C193 1_555 1_555
C194 C193 1_555 1_555
H137 C194 1_555 1_555
C195 N16 1_555 1_555
H138 C195 1_555 1_555
C196 C197 1_555 1_555
C197 C198 1_555 1_555
C198 H139 1_555 1_555
C199 C198 1_555 1_555
H140 C199 1_555 1_555
C200 C199 1_555 1_555
C201 C200 1_555 1_555
H141 C201 1_555 1_555
C202 C197 1_555 1_555
H142 C202 1_555 1_555
C203 H143 1_555 1_555
N17 C204 1_555 1_555
C204 C203 1_555 1_555
C205 C204 1_555 1_555
H144 C205 1_555 1_555
C206 C205 1_555 1_555
H145 C206 1_555 1_555
C207 C206 1_555 1_555
H146 C207 1_555 1_555
C208 N17 1_555 1_555
H147 C208 1_555 1_555
C209 C210 1_555 1_555
C210 C211 1_555 1_555
C211 H148 1_555 1_555
C212 C211 1_555 1_555
H149 C212 1_555 1_555
C213 C212 1_555 1_555
C214 C213 1_555 1_555
H150 C214 1_555 1_555
C215 C210 1_555 1_555
H151 C215 1_555 1_555
C216 H152 1_555 1_555
N18 Fe6 1_555 1_555
C217 C216 1_555 1_555
C218 C217 1_555 1_555
H153 C218 1_555 1_555
C219 C218 1_555 1_555
H154 C219 1_555 1_555
C220 C219 1_555 1_555
H155 C220 1_555 1_555
C221 N18 1_555 1_555
H156 C221 1_555 1_555
C222 C223 1_555 1_555
C223 C224 1_555 1_555
C224 H157 1_555 1_555
C225 C224 1_555 1_555
H158 C225 1_555 1_555
C226 C225 1_555 1_555
C227 C226 1_555 1_555
H159 C227 1_555 1_555
C228 C223 1_555 1_555
H160 C228 1_555 1_555
C229 H161 1_555 1_555
N19 Fe6 1_555 1_555
C230 C229 1_555 1_555
C231 C230 1_555 1_555
H162 C231 1_555 1_555
C232 C231 1_555 1_555
H163 C232 1_555 1_555
C233 C232 1_555 1_555
H164 C233 1_555 1_555
C234 N19 1_555 1_555
H165 C234 1_555 1_555
C235 C236 1_555 1_555
C236 C237 1_555 1_555
C237 H166 1_555 1_555
C238 C237 1_555 1_555
H167 C238 1_555 1_555
C239 C238 1_555 1_555
C240 C239 1_555 1_555
H168 C240 1_555 1_555
C241 C236 1_555 1_555
H169 C241 1_555 1_555
C242 H170 1_555 1_555
N20 C243 1_555 1_555
C243 C242 1_555 1_555
C244 C243 1_555 1_555
H171 C244 1_555 1_555
C245 C244 1_555 1_555
H172 C245 1_555 1_555
C246 C245 1_555 1_555
H173 C246 1_555 1_555
C247 N20 1_555 1_555
H174 C247 1_555 1_555
C248 C249 1_555 1_555
C249 C250 1_555 1_555
C250 H175 1_555 1_555
C251 C250 1_555 1_555
H176 C251 1_555 1_555
C252 C251 1_555 1_555
C253 C252 1_555 1_555
H177 C253 1_555 1_555
C254 C249 1_555 1_555
H178 C254 1_555 1_555
C255 H179 1_555 1_555
N21 Fe7 1_555 1_555
C256 C255 1_555 1_555
C257 C256 1_555 1_555
H180 C257 1_555 1_555
C258 C257 1_555 1_555
H181 C258 1_555 1_555
C259 C258 1_555 1_555
H182 C259 1_555 1_555
C260 N21 1_555 1_555
H183 C260 1_555 1_555
C261 C262 1_555 1_555
C262 C263 1_555 1_555
C263 H184 1_555 1_555
C264 C263 1_555 1_555
H185 C264 1_555 1_555
C265 C264 1_555 1_555
C266 C265 1_555 1_555
H186 C266 1_555 1_555
C267 C262 1_555 1_555
H187 C267 1_555 1_555
C268 H188 1_555 1_555
N22 Fe7 1_555 1_555
C269 C268 1_555 1_555
C270 C269 1_555 1_555
H189 C270 1_555 1_555
C271 C270 1_555 1_555
H190 C271 1_555 1_555
C272 C271 1_555 1_555
H191 C272 1_555 1_555
C273 N22 1_555 1_555
H192 C273 1_555 1_555
C274 C275 1_555 1_555
C275 C276 1_555 1_555
C276 H193 1_555 1_555
C277 C276 1_555 1_555
H194 C277 1_555 1_555
C278 C277 1_555 1_555
C279 C278 1_555 1_555
H195 C279 1_555 1_555
C280 C275 1_555 1_555
H196 C280 1_555 1_555
C281 H197 1_555 1_555
N23 C282 1_555 1_555
C282 C281 1_555 1_555
C283 C282 1_555 1_555
H198 C283 1_555 1_555
C284 C283 1_555 1_555
H199 C284 1_555 1_555
C285 C284 1_555 1_555
H200 C285 1_555 1_555
C286 N23 1_555 1_555
H201 C286 1_555 1_555
C287 C288 1_555 1_555
C288 C289 1_555 1_555
C289 H202 1_555 1_555
C290 C289 1_555 1_555
H203 C290 1_555 1_555
C291 C290 1_555 1_555
C292 C291 1_555 1_555
H204 C292 1_555 1_555
C293 C288 1_555 1_555
H205 C293 1_555 1_555
C294 H206 1_555 1_555
N24 Fe8 1_555 1_555
C295 C294 1_555 1_555
C296 C295 1_555 1_555
H207 C296 1_555 1_555
C297 C296 1_555 1_555
H208 C297 1_555 1_555
C298 C297 1_555 1_555
H209 C298 1_555 1_555
C299 N24 1_555 1_555
H210 C299 1_555 1_555
C300 C301 1_555 1_555
C301 C302 1_555 1_555
C302 H211 1_555 1_555
C303 C302 1_555 1_555
H212 C303 1_555 1_555
C304 C303 1_555 1_555
C305 C304 1_555 1_555
H213 C305 1_555 1_555
C306 C301 1_555 1_555
H214 C306 1_555 1_555
C307 H215 1_555 1_555
N25 Fe8 1_555 1_555
C308 C307 1_555 1_555
C309 C308 1_555 1_555
H216 C309 1_555 1_555
C310 C309 1_555 1_555
H217 C310 1_555 1_555
C311 C310 1_555 1_555
H218 C311 1_555 1_555
C312 N25 1_555 1_555
H219 C312 1_555 1_555
N26 Fe1 1_555 1_555
N27 Fe1 1_555 1_555
N28 Fe1 1_555 1_555
N29 Fe2 1_555 1_555
N30 Fe2 1_555 1_555
N31 Fe2 1_555 1_555
N32 Fe3 1_555 1_555
N33 Fe3 1_555 1_555
N34 Fe3 1_555 1_555
N35 Fe4 1_555 1_555
N36 Fe4 1_555 1_555
N37 Fe4 1_555 1_555
N38 Fe5 1_555 1_555
N39 Fe5 1_555 1_555
N40 Fe5 1_555 1_555
N41 Fe6 1_555 1_555
N42 Fe6 1_555 1_555
N43 Fe6 1_555 1_555
N44 Fe7 1_555 1_555
N45 Fe7 1_555 1_555
N46 Fe7 1_555 1_555
N47 Fe8 1_555 1_555
N48 Fe8 1_555 1_555
N49 Fe8 1_555 1_555
N50 H220 1_555 1_555
H221 N50 1_555 1_555
H222 N50 1_555 1_555
N51 Mo3 1_555 1_555
H223 N51 1_555 1_555
H224 N51 1_555 1_555
H225 N51 1_555 1_555
N52 H226 1_555 1_555
H227 N52 1_555 1_555
H228 N52 1_555 1_555
N53 Mo5 1_555 1_555
H229 N53 1_555 1_555
H230 N53 1_555 1_555
H231 N53 1_555 1_555
N54 H232 1_555 1_555
H233 N54 1_555 1_555
H234 N54 1_555 1_555
O3 Mo1 1_555 1_555
O4 Mo2 1_555 1_555
O5 Mo1 1_555 1_555
O6 Mo2 1_555 1_555
O7 Mo1 1_555 1_555
O8 Mo2 1_555 1_555
O9 Mo1 1_555 1_555
O10 Mo2 1_555 1_555
O11 Mo4 1_555 1_555
O12 Mo3 1_555 1_555
O13 Mo3 1_555 1_555
O14 Mo4 1_555 1_555
O15 Mo3 1_555 1_555
O16 Mo4 1_555 1_555
O17 Mo4 1_555 1_555
O18 Mo3 1_555 1_555
O19 C144 1_555 1_555
O20 Mo5 1_555 1_555
O21 Mo6 1_555 1_555
O22 Mo5 1_555 1_555
O23 Mo6 1_555 1_555
O24 Mo5 1_555 1_555
O25 Mo6 1_555 1_555
O26 Mo5 1_555 1_555
O27 Mo7 1_555 1_555
O28 Mo8 1_555 1_555
O29 Mo7 1_555 1_555
O30 Mo8 1_555 1_555
O31 Mo7 1_555 1_555
O32 Mo8 1_555 1_555
O33 Mo8 1_555 1_555
O34 Mo10 1_555 1_555
O35 Mo9 1_555 1_555
O36 Mo10 1_555 1_555
O37 Mo9 1_555 1_555
O38 Mo10 1_555 1_555
O39 Mo9 1_555 1_555
O40 Mo10 1_555 1_555
O41 Mo12 1_555 1_555
O42 Mo11 1_555 1_555
O43 Mo12 1_555 1_555
O44 Mo11 1_555 1_555
O45 Mo11 1_555 1_555
O46 Mo12 1_555 1_555
O47 Mo11 1_555 1_555
O48 Mo12 1_555 1_555
N55 Mo7 1_555 1_555
H235 N55 1_555 1_555
H236 N55 1_555 1_555
H237 N55 1_555 1_555
N56 Mo1 1_555 1_555
H238 N56 1_555 1_555
H239 N56 1_555 1_555
H240 N56 1_555 1_555
N57 Mo6 1_555 1_555
H241 N57 1_555 1_555
H242 N57 1_555 1_555
H243 N57 1_555 1_555
N58 Mo8 1_555 1_555
H244 N58 1_555 1_555
H245 N58 1_555 1_555
H246 N58 1_555 1_555
N59 Mo10 1_555 1_555
H247 N59 1_555 1_555
H248 N59 1_555 1_555
H249 N59 1_555 1_555
N60 Mo11 1_555 1_555
H250 N60 1_555 1_555
H251 N60 1_555 1_555
H252 N60 1_555 1_555
S1 O49 1_555 1_555
O50 S1 1_555 1_555
O51 S1 1_555 1_555
C313 S1 1_555 1_555
F1 C313 1_555 1_555
F2 C313 1_555 1_555
F3 C313 1_555 1_555
C1 O11 1_555 1_555
C1 O12 1_555 1_555
C5 N26 1_555 1_555
C6 C7 1_555 1_555
C8 N26 1_555 1_555
C12 C13 1_555 1_555
C14 O5 1_555 1_555
C14 O6 1_555 1_555
C18 N27 1_555 1_555
C19 C20 1_555 1_555
C21 N27 1_555 1_555
N3 C22 1_555 1_555
C25 C26 1_555 1_555
C27 O40 1_555 1_555
C31 N28 1_555 1_555
C32 C33 1_555 1_555
C34 N28 1_555 1_555
N4 C35 1_555 1_555
C38 C39 1_555 1_555
C40 O13 1_555 1_555
C40 O14 1_555 1_555
C44 N29 1_555 1_555
C45 C46 1_555 1_555
C47 N29 1_555 1_555
C51 C52 1_555 1_555
C53 O25 1_555 1_555
C53 O26 1_555 1_555
C57 N30 1_555 1_555
C58 C59 1_555 1_555
C60 N30 1_555 1_555
N6 C61 1_555 1_555
C64 C65 1_555 1_555
C66 O3 1_555 1_555
C66 O4 1_555 1_555
C70 N31 1_555 1_555
C71 C72 1_555 1_555
C73 N31 1_555 1_555
N7 C74 1_555 1_555
C77 C78 1_555 1_555
C79 O41 1_555 1_555
C79 O42 1_555 1_555
C83 N32 1_555 1_555
C84 C85 1_555 1_555
C86 N32 1_555 1_555
C90 C91 1_555 1_555
C92 O17 1_555 1_555
C92 O18 1_555 1_555
C96 N33 1_555 1_555
C97 C98 1_555 1_555
C99 N33 1_555 1_555
N9 C100 1_555 1_555
C103 C104 1_555 1_555
C105 O23 1_555 1_555
C105 O24 1_555 1_555
C109 N34 1_555 1_555
C110 C111 1_555 1_555
C112 N34 1_555 1_555
N10 C113 1_555 1_555
C116 C117 1_555 1_555
C118 O31 1_555 1_555
C118 O32 1_555 1_555
C122 N35 1_555 1_555
C123 C124 1_555 1_555
C125 N35 1_555 1_555
C129 C130 1_555 1_555
C131 O45 1_555 1_555
C131 O46 1_555 1_555
C135 N36 1_555 1_555
C136 C137 1_555 1_555
C138 N36 1_555 1_555
N12 C139 1_555 1_555
C142 C143 1_555 1_555
C144 O20 1_555 1_555
C148 N37 1_555 1_555
C149 C150 1_555 1_555
C151 N37 1_555 1_555
N13 C152 1_555 1_555
C155 C156 1_555 1_555
C157 O47 1_555 1_555
C157 O48 1_555 1_555
C161 N40 1_555 1_555
C162 C163 1_555 1_555
C164 N40 1_555 1_555
C168 C169 1_555 1_555
C170 O34 1_555 1_555
C170 O35 1_555 1_555
C174 N38 1_555 1_555
C175 C176 1_555 1_555
C177 N38 1_555 1_555
N15 C178 1_555 1_555
C181 C182 1_555 1_555
C183 O27 1_555 1_555
C183 O28 1_555 1_555
C187 N39 1_555 1_555
C188 C189 1_555 1_555
C190 N39 1_555 1_555
N16 C191 1_555 1_555
C194 C195 1_555 1_555
C196 O33 1_555 1_555
C200 N43 1_555 1_555
C201 C202 1_555 1_555
C203 N43 1_555 1_555
C207 C208 1_555 1_555
C209 O9 1_555 1_555
C209 O10 1_555 1_555
C213 N41 1_555 1_555
C214 C215 1_555 1_555
C216 N41 1_555 1_555
N18 C217 1_555 1_555
C220 C221 1_555 1_555
C222 O21 1_555 1_555
C222 O22 1_555 1_555
C226 N42 1_555 1_555
C227 C228 1_555 1_555
C229 N42 1_555 1_555
N19 C230 1_555 1_555
C233 C234 1_555 1_555
C235 O15 1_555 1_555
C235 O16 1_555 1_555
C239 N45 1_555 1_555
C240 C241 1_555 1_555
C242 N45 1_555 1_555
C246 C247 1_555 1_555
C248 O43 1_555 1_555
C248 O44 1_555 1_555
C252 N44 1_555 1_555
C253 C254 1_555 1_555
C255 N44 1_555 1_555
N21 C256 1_555 1_555
C259 C260 1_555 1_555
C261 O38 1_555 1_555
C261 O39 1_555 1_555
C265 N46 1_555 1_555
C266 C267 1_555 1_555
C268 N46 1_555 1_555
N22 C269 1_555 1_555
C272 C273 1_555 1_555
C274 O7 1_555 1_555
C274 O8 1_555 1_555
C278 N47 1_555 1_555
C279 C280 1_555 1_555
C281 N47 1_555 1_555
C285 C286 1_555 1_555
C287 O36 1_555 1_555
C287 O37 1_555 1_555
C291 N48 1_555 1_555
C292 C293 1_555 1_555
C294 N48 1_555 1_555
N24 C295 1_555 1_555
C298 C299 1_555 1_555
C300 O29 1_555 1_555
C300 O30 1_555 1_555
C304 N49 1_555 1_555
C305 C306 1_555 1_555
C307 N49 1_555 1_555
N25 C308 1_555 1_555
C311 C312 1_555 1_555

#END
