
#######################################################################
#
#                 Cambridge Crystallographic Data Centre
#                                CCDC 
#
#######################################################################
#
# If this CIF has been generated from an entry in the Cambridge 
# Structural Database, then it will include bibliographic, chemical, 
# crystal, experimental, refinement or atomic coordinate data resulting 
# from the CCDC's data processing and validation procedures.
#
#######################################################################

data_HITHID
_chemical_formula_moiety         'C52 H56 N12 Pd2 4+,2(C2 H3 N1),4(Cl1 O4 1-)'
_chemical_name_systematic        
"bis(\m~2~-1,4-bis(pyridin-4-ylmethyl)piperazine)-bis(2,2'-bipyridine)-di-palladium(ii) tetra(perchlorate) acetonitrile solvate"
_symmetry_cell_setting           monoclinic
_symmetry_space_group_name_H-M   'P 21/n'
_symmetry_Int_Tables_number      14
_space_group_name_Hall           '-P 2yn'
loop_
_symmetry_equiv_pos_site_id
_symmetry_equiv_pos_as_xyz
1 x,y,z
2 1/2-x,1/2+y,1/2-z
3 -x,-y,-z
4 1/2+x,1/2-y,1/2+z
_cell_length_a                   19.3948(7)
_cell_length_b                   8.9515(3)
_cell_length_c                   20.0301(6)
_cell_angle_alpha                90
_cell_angle_beta                 113.9080(10)
_cell_angle_gamma                90
_cell_volume                     3179.1
_exptl_crystal_colour            colorless
_exptl_crystal_description       Rectangular
_cell_formula_units_Z            2
loop_
_atom_site_label
_atom_site_type_symbol
_atom_site_fract_x
_atom_site_fract_y
_atom_site_fract_z
C1 C 0.6090(2) 0.1205(5) 0.6501(2)
H1 H 0.6275 0.1111 0.7006
C2 C 0.6435(3) 0.0431(5) 0.6131(3)
H2 H 0.6850 -0.0173 0.6382
C3 C 0.6164(3) 0.0558(5) 0.5399(3)
H3 H 0.6393 0.0041 0.5140
C4 C 0.5549(3) 0.1453(5) 0.5033(3)
H4 H 0.5360 0.1541 0.4528
C5 C 0.5212(2) 0.2227(4) 0.54244(19)
C6 C 0.4575(2) 0.3262(4) 0.51079(19)
C7 C 0.4185(3) 0.3488(5) 0.4371(2)
H5 H 0.4309 0.2951 0.4038
C8 C 0.3609(3) 0.4521(5) 0.4131(2)
H6 H 0.3341 0.4685 0.3633
C9 C 0.3435(2) 0.5304(5) 0.4627(2)
H7 H 0.3053 0.6016 0.4473
C10 C 0.38350(19) 0.5019(5) 0.5364(2)
H8 H 0.3713 0.5540 0.5703
C11 C 0.4733(2) 0.6165(4) 0.7235(2)
H9 H 0.5147 0.6426 0.7138
C12 C 0.4423(2) 0.7221(4) 0.7525(2)
H10 H 0.4623 0.8181 0.7614
C13 C 0.38164(18) 0.6867(4) 0.76844(16)
C14 C 0.35541(19) 0.5415(4) 0.75465(19)
H11 H 0.3151 0.5120 0.7655
C15 C 0.38825(19) 0.4409(4) 0.72512(19)
H12 H 0.3696 0.3438 0.7162
C16 C 0.34492(19) 0.8023(4) 0.79774(18)
H13 H 0.3112 0.8633 0.7578
H14 H 0.3151 0.7530 0.8201
C17 C 0.3710(2) 1.0385(4) 0.86528(19)
H15 H 0.3399 1.0839 0.8188
H16 H 0.4126 1.1059 0.8905
C18 C 0.3242(2) 1.0224(4) 0.91026(17)
H17 H 0.3079 1.1202 0.9190
H18 H 0.2796 0.9630 0.8836
C19 C 0.39479(19) 0.8037(4) 0.96652(18)
H19 H 0.3515 0.7404 0.9408
H20 H 0.4253 0.7563 1.0126
C20 C 0.44061(19) 0.8210(4) 0.92140(18)
H21 H 0.4862 0.8761 0.9497
H22 H 0.4556 0.7226 0.9119
C21 C 0.32289(18) 0.9342(4) 1.02186(17)
H23 H 0.2797 0.8717 0.9947
H24 H 0.3042 1.0318 1.0276
C22 C 0.36560(17) 0.8665(4) 1.09640(16)
C23 C 0.43732(18) 0.9158(4) 1.14114(17)
H25 H 0.4602 0.9908 1.1252
C24 C 0.47438(19) 0.8540(4) 1.20871(18)
H26 H 0.5225 0.8882 1.2381
C25 C 0.3750(2) 0.6962(4) 1.1911(2)
H27 H 0.3534 0.6204 1.2080
C26 C 0.33537(19) 0.7544(4) 1.12277(19)
H28 H 0.2876 0.7174 1.0941
N1 N 0.54951(16) 0.2091(3) 0.61589(15)
N2 N 0.43917(15) 0.4015(3) 0.56006(14)
N3 N 0.44640(14) 0.4775(3) 0.70861(13)
N4 N 0.40120(15) 0.8977(3) 0.85157(14)
N5 N 0.36922(14) 0.9502(3) 0.98018(13)
N6 N 0.44384(14) 0.7459(3) 1.23401(13)
Pd1 Pd 0.497337(13) 0.33577(3) 0.664604(12)
C1B C 0.3910(2) 0.8795(5) 1.3499(2)
H1B H 0.3725 0.8889 1.2994
C2B C 0.3565(3) 0.9569(5) 1.3869(3)
H2B H 0.3150 1.0173 1.3618
C3B C 0.3836(3) 0.9442(5) 1.4601(3)
H3B H 0.3607 0.9959 1.4860
C4B C 0.4451(3) 0.8547(5) 1.4967(3)
H4B H 0.4640 0.8459 1.5472
C5B C 0.4788(2) 0.7773(4) 1.45756(19)
C6B C 0.5425(2) 0.6738(4) 1.48921(19)
C7B C 0.5815(3) 0.6512(5) 1.5629(2)
H5B H 0.5691 0.7049 1.5962
C8B C 0.6391(3) 0.5479(5) 1.5869(2)
H6B H 0.6659 0.5315 1.6367
C9B C 0.6565(2) 0.4696(5) 1.5373(2)
H7B H 0.6947 0.3984 1.5527
C10B C 0.61650(19) 0.4981(5) 1.4636(2)
H8B H 0.6287 0.4460 1.4297
C11B C 0.5267(2) 0.3835(4) 1.2765(2)
H9B H 0.4853 0.3574 1.2862
C12B C 0.5577(2) 0.2779(4) 1.2475(2)
H10B H 0.5377 0.1819 1.2386
C13B C 0.61836(18) 0.3133(4) 1.23156(16)
C14B C 0.64459(19) 0.4585(4) 1.24535(19)
H11B H 0.6849 0.4880 1.2345
C15B C 0.61175(19) 0.5591(4) 1.27488(19)
H12B H 0.6304 0.6562 1.2838
C16B C 0.65508(19) 0.1977(4) 1.20226(18)
H13B H 0.6888 0.1367 1.2422
H14B H 0.6849 0.2470 1.1799
C17B C 0.6290(2) -0.0385(4) 1.13472(19)
H15B H 0.6601 -0.0839 1.1812
H16B H 0.5874 -0.1059 1.1095
C18B C 0.6758(2) -0.0224(4) 1.08974(17)
H17B H 0.6921 -0.1202 1.0810
H18B H 0.7204 0.0370 1.1164
C19B C 0.60521(19) 0.1963(4) 1.03348(18)
H19B H 0.6485 0.2596 1.0592
H20B H 0.5747 0.2437 0.9874
C20B C 0.55939(19) 0.1790(4) 1.07860(18)
H21B H 0.5138 0.1239 1.0503
H22B H 0.5444 0.2774 1.0881
C21B C 0.67711(18) 0.0658(4) 0.97814(17)
H23B H 0.7203 0.1283 1.0053
H24B H 0.6958 -0.0318 0.9724
C22B C 0.63440(17) 0.1335(4) 0.90360(16)
C23B C 0.56268(18) 0.0842(4) 0.85886(17)
H25B H 0.5398 0.0092 0.8748
C24B C 0.52562(19) 0.1460(4) 0.79129(18)
H26B H 0.4775 0.1118 0.7619
C25B C 0.6250(2) 0.3038(4) 0.8089(2)
H27B H 0.6466 0.3796 0.7920
C26B C 0.66463(19) 0.2456(4) 0.87723(19)
H28B H 0.7124 0.2826 0.9059
N1B N 0.45049(16) 0.7909(3) 1.38411(15)
N2B N 0.56083(15) 0.5985(3) 1.43994(14)
N3B N 0.55360(14) 0.5225(3) 1.29139(13)
N4B N 0.59880(15) 0.1023(3) 1.14843(14)
N5B N 0.63078(14) 0.0498(3) 1.01982(13)
N6B N 0.55616(14) 0.2541(3) 0.76599(13)
Pd1B Pd 0.502663(13) 0.66423(3) 1.335396(12)
C27 C 0.3861(4) 0.4029(8) 0.0381(4)
H29 H 0.3842 0.3015 0.0529
H30 H 0.3380 0.4495 0.0258
H31 H 0.4240 0.4566 0.0774
C28 C 0.4043(4) 0.4043(6) -0.0237(4)
N7 N 0.4215(4) 0.4058(7) -0.0730(3)
Cl1 Cl 0.67682(6) 0.77134(12) 0.78041(6)
O1 O 0.6068(2) 0.8410(5) 0.7340(3)
O2 O 0.6650(3) 0.6269(5) 0.7565(3)
O3 O 0.7369(3) 0.8309(7) 0.7694(4)
O4 O 0.6885(4) 0.7740(11) 0.8518(3)
Cl2 Cl 0.32492(6) 0.03186(12) 0.61189(5)
O5 O 0.4043(2) 0.0292(6) 0.6312(2)
O6 O 0.2899(3) 0.1164(5) 0.5487(2)
O7 O 0.3007(3) -0.1162(5) 0.5969(3)
O8 O 0.3133(3) 0.0892(6) 0.6714(2)
loop_
_geom_bond_atom_site_label_1
_geom_bond_atom_site_label_2
_geom_bond_site_symmetry_1
_geom_bond_site_symmetry_2
C1 H1 1_555 1_555
C2 C1 1_555 1_555
H2 C2 1_555 1_555
C3 C2 1_555 1_555
H3 C3 1_555 1_555
C4 C3 1_555 1_555
H4 C4 1_555 1_555
C5 C4 1_555 1_555
C6 C5 1_555 1_555
C7 C6 1_555 1_555
H5 C7 1_555 1_555
C8 C7 1_555 1_555
H6 C8 1_555 1_555
C9 C8 1_555 1_555
H7 C9 1_555 1_555
C10 C9 1_555 1_555
H8 C10 1_555 1_555
C11 H9 1_555 1_555
C12 C11 1_555 1_555
H10 C12 1_555 1_555
C13 C12 1_555 1_555
C14 C13 1_555 1_555
H11 C14 1_555 1_555
C15 C14 1_555 1_555
H12 C15 1_555 1_555
C16 C13 1_555 1_555
H13 C16 1_555 1_555
H14 C16 1_555 1_555
C17 H15 1_555 1_555
H16 C17 1_555 1_555
C18 C17 1_555 1_555
H17 C18 1_555 1_555
H18 C18 1_555 1_555
C19 H19 1_555 1_555
H20 C19 1_555 1_555
C20 C19 1_555 1_555
H21 C20 1_555 1_555
H22 C20 1_555 1_555
C21 H23 1_555 1_555
H24 C21 1_555 1_555
C22 C21 1_555 1_555
C23 C22 1_555 1_555
H25 C23 1_555 1_555
C24 C23 1_555 1_555
H26 C24 1_555 1_555
C25 H27 1_555 1_555
C26 C22 1_555 1_555
H28 C26 1_555 1_555
N1 C1 1_555 1_555
N2 C6 1_555 1_555
N3 C11 1_555 1_555
N4 C16 1_555 1_555
N5 C18 1_555 1_555
N6 C24 1_555 1_555
Pd1 N1 1_555 1_555
C27 H29 1_555 1_555
H30 C27 1_555 1_555
H31 C27 1_555 1_555
C28 C27 1_555 1_555
N7 C28 1_555 1_555
Cl1 O1 1_555 1_555
O2 Cl1 1_555 1_555
O3 Cl1 1_555 1_555
O4 Cl1 1_555 1_555
Cl2 O5 1_555 1_555
O6 Cl2 1_555 1_555
O7 Cl2 1_555 1_555
O8 Cl2 1_555 1_555
C1B H1B 1_555 1_555
C2B C1B 1_555 1_555
H2B C2B 1_555 1_555
C3B C2B 1_555 1_555
H3B C3B 1_555 1_555
C4B C3B 1_555 1_555
H4B C4B 1_555 1_555
C5B C4B 1_555 1_555
C6B C5B 1_555 1_555
C7B C6B 1_555 1_555
H5B C7B 1_555 1_555
C8B C7B 1_555 1_555
H6B C8B 1_555 1_555
C9B C8B 1_555 1_555
H7B C9B 1_555 1_555
C10B C9B 1_555 1_555
H8B C10B 1_555 1_555
C11B H9B 1_555 1_555
C12B C11B 1_555 1_555
H10B C12B 1_555 1_555
C13B C12B 1_555 1_555
C14B C13B 1_555 1_555
H11B C14B 1_555 1_555
C15B C14B 1_555 1_555
H12B C15B 1_555 1_555
C16B C13B 1_555 1_555
H13B C16B 1_555 1_555
H14B C16B 1_555 1_555
C17B H15B 1_555 1_555
H16B C17B 1_555 1_555
C18B C17B 1_555 1_555
H17B C18B 1_555 1_555
H18B C18B 1_555 1_555
C19B H19B 1_555 1_555
H20B C19B 1_555 1_555
C20B C19B 1_555 1_555
H21B C20B 1_555 1_555
H22B C20B 1_555 1_555
C21B H23B 1_555 1_555
H24B C21B 1_555 1_555
C22B C21B 1_555 1_555
C23B C22B 1_555 1_555
H25B C23B 1_555 1_555
C24B C23B 1_555 1_555
H26B C24B 1_555 1_555
C25B H27B 1_555 1_555
C26B C22B 1_555 1_555
H28B C26B 1_555 1_555
N1B C1B 1_555 1_555
N2B C6B 1_555 1_555
N3B C11B 1_555 1_555
N4B C16B 1_555 1_555
N5B C18B 1_555 1_555
N6B Pd1 1_555 1_555
Pd1B N6 1_555 1_555
C5 N1 1_555 1_555
C10 N2 1_555 1_555
C15 N3 1_555 1_555
C17 N4 1_555 1_555
C19 N5 1_555 1_555
C20 N4 1_555 1_555
C21 N5 1_555 1_555
C25 C26 1_555 1_555
C25 N6 1_555 1_555
N2 Pd1 1_555 1_555
N3 Pd1 1_555 1_555
C5B N1B 1_555 1_555
C10B N2B 1_555 1_555
C15B N3B 1_555 1_555
C17B N4B 1_555 1_555
C19B N5B 1_555 1_555
C20B N4B 1_555 1_555
C21B N5B 1_555 1_555
C24B N6B 1_555 1_555
C25B C26B 1_555 1_555
C25B N6B 1_555 1_555
N1B Pd1B 1_555 1_555
N2B Pd1B 1_555 1_555
N3B Pd1B 1_555 1_555

#END
