
#######################################################################
#
#                 Cambridge Crystallographic Data Centre
#                                CCDC 
#
#######################################################################
#
# If this CIF has been generated from an entry in the Cambridge 
# Structural Database, then it will include bibliographic, chemical, 
# crystal, experimental, refinement or atomic coordinate data resulting 
# from the CCDC's data processing and validation procedures.
#
#######################################################################

data_HITHOJ
_chemical_formula_moiety         'C56 H56 N12 Pd2 4+,20(H2 O1),4(N1 O3 1-)'
_chemical_name_systematic        
'bis(\m~2~-1,4-bis((pyridin-4-yl)methyl)piperazine)-bis(1,10-phenanthroline)-di-palladium(ii) tetranitrate icosahydrate'
_symmetry_cell_setting           monoclinic
_symmetry_space_group_name_H-M   'P 21/c'
_symmetry_Int_Tables_number      14
_space_group_name_Hall           '-P 2ybc'
loop_
_symmetry_equiv_pos_site_id
_symmetry_equiv_pos_as_xyz
1 x,y,z
2 -x,1/2+y,1/2-z
3 -x,-y,-z
4 x,1/2-y,1/2+z
_cell_length_a                   20.461(4)
_cell_length_b                   16.581(3)
_cell_length_c                   11.713(2)
_cell_angle_alpha                90
_cell_angle_beta                 103.48(3)
_cell_angle_gamma                90
_cell_volume                     3864.32
_exptl_crystal_colour            colorless
_exptl_crystal_description       Block
_cell_formula_units_Z            2
loop_
_atom_site_label
_atom_site_type_symbol
_atom_site_fract_x
_atom_site_fract_y
_atom_site_fract_z
C1 C 0.6433(3) 1.0217(3) -0.0935(4)
H1 H 0.6836 1.0500 -0.0758
C2 C 0.6029(4) 1.0258(4) -0.2093(5)
H2 H 0.6164 1.0559 -0.2667
C3 C 0.5441(3) 0.9847(4) -0.2343(4)
H3 H 0.5168 0.9873 -0.3097
C4 C 0.5232(2) 0.9374(3) -0.1473(4)
C5 C 0.4635(3) 0.8903(4) -0.1656(5)
H4 H 0.4344 0.8899 -0.2395
C6 C 0.4480(3) 0.8463(4) -0.0787(5)
H5 H 0.4086 0.8160 -0.0938
C7 C 0.4914(2) 0.8456(3) 0.0362(5)
C8 C 0.4786(3) 0.8017(3) 0.1319(6)
H6 H 0.4404 0.7696 0.1219
C9 C 0.5225(3) 0.8065(3) 0.2395(5)
H7 H 0.5133 0.7793 0.3034
C10 C 0.5814(2) 0.8528(3) 0.2532(4)
H8 H 0.6118 0.8541 0.3259
C11 C 0.5502(2) 0.8914(3) 0.0565(4)
C12 C 0.5666(2) 0.9372(3) -0.0348(4)
C13 C 0.7069(3) 0.9880(3) 0.4155(4)
H9 H 0.6756 1.0293 0.3955
C14 C 0.7362(3) 0.9753(3) 0.5303(4)
H10 H 0.7252 1.0086 0.5869
C15 C 0.7818(2) 0.9140(3) 0.5647(4)
C16 C 0.7975(3) 0.8686(3) 0.4761(4)
H11 H 0.8288 0.8270 0.4945
C17 C 0.7670(3) 0.8846(3) 0.3603(4)
H12 H 0.7784 0.8536 0.3017
C18 C 0.8099(2) 0.8988(3) 0.6941(4)
H13 H 0.8134 0.9501 0.7350
H14 H 0.7781 0.8658 0.7231
C19 C 0.8928(2) 0.8421(3) 0.8514(4)
H15 H 0.8593 0.8062 0.8701
H16 H 0.8921 0.8920 0.8944
C20 C 0.9614(2) 0.8036(3) 0.8891(4)
H17 H 0.9715 0.7932 0.9729
H18 H 0.9615 0.7524 0.8490
C21 C 0.9964(2) 0.8727(3) 0.7345(4)
H19 H 0.9962 0.8223 0.6924
H20 H 1.0302 0.9075 0.7147
C22 C 0.9286(2) 0.9121(3) 0.6981(4)
H21 H 0.9291 0.9628 0.7395
H22 H 0.9187 0.9235 0.6146
C23 C 1.0796(2) 0.8178(3) 0.8982(5)
H23 H 1.0794 0.7685 0.8535
H24 H 1.0873 0.8033 0.9804
C24 C 1.1364(2) 0.8710(3) 0.8810(4)
C25 C 1.1838(3) 0.8434(3) 0.8221(5)
H25 H 1.1799 0.7919 0.7897
C26 C 1.1458(3) 0.9473(3) 0.9268(6)
H26 H 1.1158 0.9681 0.9680
C27 C 1.1993(3) 0.9934(3) 0.9122(5)
H27 H 1.2039 1.0453 0.9431
C28 C 1.2368(3) 0.8929(3) 0.8117(5)
H28 H 1.2680 0.8735 0.7722
N1 N 0.62581(18) 0.9792(2) -0.0091(3)
N2 N 0.59460(17) 0.8951(2) 0.1636(3)
N3 N 0.72172(18) 0.9432(2) 0.3300(3)
N4 N 1.24454(19) 0.9671(2) 0.8561(3)
N5 N 0.87568(17) 0.8592(2) 0.7242(3)
N6 N 1.01325(19) 0.8571(2) 0.8612(3)
Pd1 Pd 0.676237(15) 0.963531(19) 0.15954(3)
C1B C 1.3567(3) 0.9783(3) 1.0935(4)
H1B H 1.3164 0.9500 1.0758
C2B C 1.3971(4) 0.9742(4) 1.2093(5)
H2B H 1.3836 0.9441 1.2667
C3B C 1.4559(3) 1.0153(4) 1.2343(4)
H3B H 1.4832 1.0127 1.3097
C4B C 1.4768(2) 1.0626(3) 1.1473(4)
C5B C 1.5365(3) 1.1097(4) 1.1656(5)
H4B H 1.5656 1.1101 1.2395
C6B C 1.5520(3) 1.1537(4) 1.0787(5)
H5B H 1.5914 1.1840 1.0938
C7B C 1.5086(2) 1.1544(3) 0.9638(5)
C8B C 1.5214(3) 1.1983(3) 0.8681(6)
H6B H 1.5596 1.2304 0.8781
C9B C 1.4775(3) 1.1935(3) 0.7605(5)
H7B H 1.4867 1.2207 0.6966
C10B C 1.4186(2) 1.1472(3) 0.7468(4)
H8B H 1.3882 1.1459 0.6741
C11B C 1.4498(2) 1.1086(3) 0.9435(4)
C12B C 1.4334(2) 1.0628(3) 1.0348(4)
C13B C 1.2931(3) 1.0120(3) 0.5845(4)
H9B H 1.3244 0.9707 0.6045
C14B C 1.2638(3) 1.0247(3) 0.4697(4)
H10B H 1.2748 0.9914 0.4131
C15B C 1.2182(2) 1.0860(3) 0.4353(4)
C16B C 1.2025(3) 1.1314(3) 0.5239(4)
H11B H 1.1712 1.1730 0.5055
C17B C 1.2330(3) 1.1154(3) 0.6397(4)
H12B H 1.2216 1.1464 0.6983
C18B C 1.1901(2) 1.1012(3) 0.3059(4)
H13B H 1.1866 1.0499 0.2650
H14B H 1.2219 1.1342 0.2769
C19B C 1.1072(2) 1.1579(3) 0.1486(4)
H15B H 1.1407 1.1938 0.1299
H16B H 1.1079 1.1080 0.1056
C20B C 1.0386(2) 1.1964(3) 0.1109(4)
H17B H 1.0285 1.2068 0.0271
H18B H 1.0385 1.2476 0.1510
C21B C 1.0036(2) 1.1273(3) 0.2655(4)
H19B H 1.0038 1.1777 0.3076
H20B H 0.9698 1.0925 0.2853
C22B C 1.0714(2) 1.0879(3) 0.3019(4)
H21B H 1.0709 1.0372 0.2605
H22B H 1.0813 1.0765 0.3854
C23B C 0.9204(2) 1.1822(3) 0.1018(5)
H23B H 0.9206 1.2315 0.1465
H24B H 0.9127 1.1967 0.0196
C24B C 0.8636(2) 1.1290(3) 0.1190(4)
C25B C 0.8162(3) 1.1566(3) 0.1779(5)
H25B H 0.8201 1.2081 0.2103
C26B C 0.8542(3) 1.0527(3) 0.0732(6)
H26B H 0.8842 1.0319 0.0320
C27B C 0.8007(3) 1.0066(3) 0.0878(5)
H27B H 0.7961 0.9547 0.0569
C28B C 0.7632(3) 1.1071(3) 0.1883(5)
H28B H 0.7320 1.1265 0.2278
N1B N 1.37419(18) 1.0208(2) 1.0091(3)
N2B N 1.40540(17) 1.1049(2) 0.8364(3)
N3B N 1.27828(18) 1.0568(2) 0.6700(3)
N4B N 0.75546(19) 1.0329(2) 0.1439(3)
N5B N 1.12432(17) 1.1408(2) 0.2758(3)
N6B N 0.98675(19) 1.1429(2) 0.1388(3)
Pd1B Pd 1.323763(15) 1.036469(19) 0.84046(3)
N7 N 0.7023(3) 0.8055(3) 0.9784(5)
O1 O 0.7230(2) 0.8005(3) 1.0852(4)
O2 O 0.6476(3) 0.7793(3) 0.9314(5)
O3 O 0.7366(3) 0.8397(3) 0.9202(5)
O4 O 0.6414(3) 0.8238(3) 0.6673(4)
O5 O 0.4419(3) 0.0881(4) 0.5010(4)
O6 O 0.0247(5) 0.0968(5) 0.7935(8)
O7 O 0.1263(5) 0.6280(5) 0.7375(10)
O8 O 0.5734(3) 0.0809(4) 0.4895(5)
O9 O 0.8699(2) 0.6986(3) 0.6358(4)
O10 O 0.7410(7) 0.1600(8) 0.8168(11)
N8 N 0.7346(7) 0.2345(8) 0.8371(14)
O11 O 0.7621(13) 0.2635(13) 0.9370(14)
O12 O 0.6750(7) 0.2542(14) 0.840(2)
O13 O 0.0025(13) 0.0708(8) 0.5582(11)
O14 O 0.1366(9) 0.6088(10) -0.0176(14)
O15 O 0.6731(5) 0.1869(6) 0.5670(12)
loop_
_geom_bond_atom_site_label_1
_geom_bond_atom_site_label_2
_geom_bond_site_symmetry_1
_geom_bond_site_symmetry_2
C1 H1 1_555 1_555
C2 C1 1_555 1_555
H2 C2 1_555 1_555
C3 C2 1_555 1_555
H3 C3 1_555 1_555
C4 C3 1_555 1_555
C5 C4 1_555 1_555
H4 C5 1_555 1_555
C6 C5 1_555 1_555
H5 C6 1_555 1_555
C7 C6 1_555 1_555
C8 C7 1_555 1_555
H6 C8 1_555 1_555
C9 C8 1_555 1_555
H7 C9 1_555 1_555
C10 C9 1_555 1_555
H8 C10 1_555 1_555
C11 C7 1_555 1_555
C12 C4 1_555 1_555
C13 H9 1_555 1_555
C14 C13 1_555 1_555
H10 C14 1_555 1_555
C15 C14 1_555 1_555
C16 C15 1_555 1_555
H11 C16 1_555 1_555
C17 C16 1_555 1_555
H12 C17 1_555 1_555
C18 C15 1_555 1_555
H13 C18 1_555 1_555
H14 C18 1_555 1_555
C19 H15 1_555 1_555
H16 C19 1_555 1_555
C20 C19 1_555 1_555
H17 C20 1_555 1_555
H18 C20 1_555 1_555
C21 H19 1_555 1_555
H20 C21 1_555 1_555
C22 C21 1_555 1_555
H21 C22 1_555 1_555
H22 C22 1_555 1_555
C23 H23 1_555 1_555
H24 C23 1_555 1_555
C24 C23 1_555 1_555
C25 C24 1_555 1_555
H25 C25 1_555 1_555
C26 C24 1_555 1_555
H26 C26 1_555 1_555
C27 C26 1_555 1_555
H27 C27 1_555 1_555
C28 C25 1_555 1_555
H28 C28 1_555 1_555
N1 C1 1_555 1_555
N2 C10 1_555 1_555
N3 C13 1_555 1_555
N4 C27 1_555 1_555
N5 C18 1_555 1_555
N6 C20 1_555 1_555
Pd1 N1 1_555 1_555
N7 O1 1_555 1_555
O2 N7 1_555 1_555
O3 N7 1_555 1_555
O10 N8 1_555 1_555
N8 O11 1_555 1_555
O12 N8 1_555 1_555
C1B H1B 1_555 1_555
C2B C1B 1_555 1_555
H2B C2B 1_555 1_555
C3B C2B 1_555 1_555
H3B C3B 1_555 1_555
C4B C3B 1_555 1_555
C5B C4B 1_555 1_555
H4B C5B 1_555 1_555
C6B C5B 1_555 1_555
H5B C6B 1_555 1_555
C7B C6B 1_555 1_555
C8B C7B 1_555 1_555
H6B C8B 1_555 1_555
C9B C8B 1_555 1_555
H7B C9B 1_555 1_555
C10B C9B 1_555 1_555
H8B C10B 1_555 1_555
C11B C7B 1_555 1_555
C12B C4B 1_555 1_555
C13B H9B 1_555 1_555
C14B C13B 1_555 1_555
H10B C14B 1_555 1_555
C15B C14B 1_555 1_555
C16B C15B 1_555 1_555
H11B C16B 1_555 1_555
C17B C16B 1_555 1_555
H12B C17B 1_555 1_555
C18B C15B 1_555 1_555
H13B C18B 1_555 1_555
H14B C18B 1_555 1_555
C19B H15B 1_555 1_555
H16B C19B 1_555 1_555
C20B C19B 1_555 1_555
H17B C20B 1_555 1_555
H18B C20B 1_555 1_555
C21B H19B 1_555 1_555
H20B C21B 1_555 1_555
C22B C21B 1_555 1_555
H21B C22B 1_555 1_555
H22B C22B 1_555 1_555
C23B H23B 1_555 1_555
H24B C23B 1_555 1_555
C24B C23B 1_555 1_555
C25B C24B 1_555 1_555
H25B C25B 1_555 1_555
C26B C24B 1_555 1_555
H26B C26B 1_555 1_555
C27B C26B 1_555 1_555
H27B C27B 1_555 1_555
C28B C25B 1_555 1_555
H28B C28B 1_555 1_555
N1B C1B 1_555 1_555
N2B C10B 1_555 1_555
N3B C13B 1_555 1_555
N4B Pd1 1_555 1_555
N5B C18B 1_555 1_555
N6B C20B 1_555 1_555
Pd1B N4 1_555 1_555
C11 C12 1_555 1_555
C11 N2 1_555 1_555
C12 N1 1_555 1_555
C17 N3 1_555 1_555
C19 N5 1_555 1_555
C21 N6 1_555 1_555
C22 N5 1_555 1_555
C23 N6 1_555 1_555
C28 N4 1_555 1_555
N2 Pd1 1_555 1_555
N3 Pd1 1_555 1_555
C11B C12B 1_555 1_555
C11B N2B 1_555 1_555
C12B N1B 1_555 1_555
C17B N3B 1_555 1_555
C19B N5B 1_555 1_555
C21B N6B 1_555 1_555
C22B N5B 1_555 1_555
C23B N6B 1_555 1_555
C27B N4B 1_555 1_555
C28B N4B 1_555 1_555
N1B Pd1B 1_555 1_555
N2B Pd1B 1_555 1_555
N3B Pd1B 1_555 1_555

#END
