
#######################################################################
#
#                 Cambridge Crystallographic Data Centre
#                                CCDC 
#
#######################################################################
#
# If this CIF has been generated from an entry in the Cambridge 
# Structural Database, then it will include bibliographic, chemical, 
# crystal, experimental, refinement or atomic coordinate data resulting 
# from the CCDC's data processing and validation procedures.
#
#######################################################################

data_HITHUP
_chemical_formula_moiety         'C44 H72 N12 Pd2 4+,4(Cl1 O4 1-),6(H2 O1)'
_chemical_name_systematic        
"bis(\m~2~-1,4-bis((pyridin-4-yl)methyl)piperazine)-bis(N,N,N',N'-tetramethylethane-1,2-diamine)-di-palladium(ii) tetraperchlorate hexahydrate"
_symmetry_cell_setting           monoclinic
_symmetry_space_group_name_H-M   'P 21/n'
_symmetry_Int_Tables_number      14
_space_group_name_Hall           '-P 2yn'
loop_
_symmetry_equiv_pos_site_id
_symmetry_equiv_pos_as_xyz
1 x,y,z
2 1/2-x,1/2+y,1/2-z
3 -x,-y,-z
4 1/2+x,1/2-y,1/2+z
_cell_length_a                   12.1709(11)
_cell_length_b                   17.4598(13)
_cell_length_c                   16.8831(15)
_cell_angle_alpha                90
_cell_angle_beta                 95.199(4)
_cell_angle_gamma                90
_cell_volume                     3572.92
_exptl_crystal_colour            white
_exptl_crystal_description       Block
_cell_formula_units_Z            2
loop_
_atom_site_label
_atom_site_type_symbol
_atom_site_fract_x
_atom_site_fract_y
_atom_site_fract_z
Pd1 Pd 0.21766(4) 0.13956(3) 0.40874(3)
N1 N 0.0593(5) 0.1733(3) 0.4186(4)
N2 N -0.2857(5) 0.3396(4) 0.4142(4)
N3 N -0.3552(5) 0.4958(3) 0.4281(4)
C1 C -0.2626(7) 0.2628(5) 0.4475(7)
H1 H -0.3154 0.2270 0.4219
H2 H -0.2736 0.2637 0.5037
C2 C -0.1478(6) 0.2337(4) 0.4382(5)
C3 C -0.4006(7) 0.3594(5) 0.4266(8)
H3 H -0.4097 0.3607 0.4831
H4 H -0.4502 0.3210 0.4021
C4 C 0.0100(7) 0.1619(5) 0.4853(5)
H5 H 0.0459 0.1328 0.5259
C5 C -0.2438(7) 0.4751(4) 0.4170(5)
H6 H -0.1942 0.5135 0.4415
H7 H -0.2345 0.4740 0.3605
C6 C -0.4282(7) 0.4371(4) 0.3901(6)
H8 H -0.4197 0.4355 0.3336
H9 H -0.5044 0.4498 0.3969
C7 C 0.0058(7) 0.2158(5) 0.3624(5)
H10 H 0.0400 0.2253 0.3163
C8 C -0.2144(6) 0.3980(5) 0.4527(5)
H11 H -0.1380 0.3862 0.4458
H12 H -0.2230 0.3989 0.5093
N4 N -0.2650(5) 0.7651(3) 0.5271(3)
C9 C -0.3382(7) 0.6364(4) 0.4397(5)
C10 C -0.3091(7) 0.6332(4) 0.5213(5)
H13 H -0.3138 0.5870 0.5483
C11 C -0.2735(7) 0.6980(4) 0.5624(4)
H14 H -0.2546 0.6945 0.6169
C12 C -0.3855(7) 0.5711(4) 0.3933(5)
H15 H -0.4652 0.5758 0.3885
H16 H -0.3613 0.5736 0.3402
N5 N 0.1728(5) 0.0423(3) 0.3442(4)
C13 C 0.1249(9) -0.0128(5) 0.3966(6)
H17 H 0.0675 0.0116 0.4228
H18 H 0.1812 -0.0308 0.4356
H19 H 0.0947 -0.0552 0.3657
N6 N 0.3777(5) 0.1062(4) 0.3976(4)
C14 C -0.0913(7) 0.1916(4) 0.4954(5)
H20 H -0.1224 0.1827 0.5429
C15 C -0.3242(8) 0.7069(4) 0.4034(5)
H21 H -0.3378 0.7117 0.3485
C16 C -0.0957(6) 0.2462(5) 0.3681(5)
H22 H -0.1303 0.2747 0.3265
C17 C 0.4252(8) 0.1547(6) 0.3381(7)
H23 H 0.4992 0.1383 0.3319
H24 H 0.4262 0.2071 0.3556
H25 H 0.3813 0.1505 0.2881
C18 C 0.4522(8) 0.1099(7) 0.4729(7)
H26 H 0.5223 0.0876 0.4643
H27 H 0.4197 0.0820 0.5138
H28 H 0.4625 0.1623 0.4889
C19 C -0.2905(8) 0.7695(5) 0.4484(5)
H29 H -0.2852 0.8166 0.4234
C20 C 0.0925(9) 0.0562(5) 0.2760(6)
H30 H 0.0785 0.0092 0.2472
H31 H 0.1212 0.0936 0.2417
H32 H 0.0250 0.0747 0.2943
C21 C 0.3689(8) 0.0241(5) 0.3704(7)
H33 H 0.4360 0.0094 0.3475
H34 H 0.3605 -0.0088 0.4157
C22 C 0.2771(8) 0.0140(6) 0.3129(7)
H35 H 0.2693 -0.0398 0.2994
H36 H 0.2898 0.0419 0.2648
Pd1B Pd -0.21766(4) 0.86044(3) 0.59126(3)
N1B N -0.0593(5) 0.8267(3) 0.5814(4)
N2B N 0.2857(5) 0.6604(4) 0.5858(4)
N3B N 0.3552(5) 0.5042(3) 0.5719(4)
C1B C 0.2626(7) 0.7372(5) 0.5525(7)
H1B H 0.3154 0.7730 0.5781
H2B H 0.2736 0.7363 0.4963
C2B C 0.1478(6) 0.7663(4) 0.5618(5)
C3B C 0.4006(7) 0.6406(5) 0.5734(8)
H3B H 0.4097 0.6393 0.5169
H4B H 0.4502 0.6790 0.5979
C4B C -0.0100(7) 0.8381(5) 0.5147(5)
H5B H -0.0459 0.8672 0.4741
C5B C 0.2438(7) 0.5249(4) 0.5830(5)
H6B H 0.1942 0.4865 0.5585
H7B H 0.2345 0.5260 0.6395
C6B C 0.4282(7) 0.5629(4) 0.6099(6)
H8B H 0.4197 0.5645 0.6664
H9B H 0.5044 0.5502 0.6031
C7B C -0.0058(7) 0.7842(5) 0.6376(5)
H10B H -0.0400 0.7747 0.6837
C8B C 0.2144(6) 0.6020(5) 0.5473(5)
H11B H 0.1380 0.6138 0.5542
H12B H 0.2230 0.6011 0.4907
N4B N 0.2650(5) 0.2349(3) 0.4729(3)
C9B C 0.3382(7) 0.3636(4) 0.5603(5)
C10B C 0.3091(7) 0.3668(4) 0.4787(5)
H13B H 0.3138 0.4130 0.4517
C11B C 0.2735(7) 0.3020(4) 0.4376(4)
H14B H 0.2546 0.3055 0.3831
C12B C 0.3855(7) 0.4289(4) 0.6067(5)
H15B H 0.4652 0.4242 0.6115
H16B H 0.3613 0.4264 0.6598
N5B N -0.1728(5) 0.9577(3) 0.6558(4)
C13B C -0.1249(9) 1.0128(5) 0.6034(6)
H17B H -0.0675 0.9884 0.5772
H18B H -0.1812 1.0308 0.5644
H19B H -0.0947 1.0552 0.6343
N6B N -0.3777(5) 0.8938(4) 0.6024(4)
C14B C 0.0913(7) 0.8084(4) 0.5046(5)
H20B H 0.1224 0.8173 0.4571
C15B C 0.3242(8) 0.2931(4) 0.5966(5)
H21B H 0.3378 0.2883 0.6515
C16B C 0.0957(6) 0.7538(5) 0.6319(5)
H22B H 0.1303 0.7253 0.6735
C17B C -0.4252(8) 0.8453(6) 0.6619(7)
H23B H -0.4992 0.8617 0.6681
H24B H -0.4262 0.7929 0.6444
H25B H -0.3813 0.8495 0.7119
C18B C -0.4522(8) 0.8901(7) 0.5271(7)
H26B H -0.5223 0.9124 0.5357
H27B H -0.4197 0.9180 0.4862
H28B H -0.4625 0.8377 0.5111
C19B C 0.2905(8) 0.2305(5) 0.5516(5)
H29B H 0.2852 0.1834 0.5766
C20B C -0.0925(9) 0.9438(5) 0.7240(6)
H30B H -0.0785 0.9908 0.7528
H31B H -0.1212 0.9064 0.7583
H32B H -0.0250 0.9253 0.7057
C21B C -0.3689(8) 0.9759(5) 0.6296(7)
H33B H -0.4360 0.9906 0.6525
H34B H -0.3605 1.0088 0.5843
C22B C -0.2771(8) 0.9860(6) 0.6871(7)
H35B H -0.2693 1.0398 0.7006
H36B H -0.2898 0.9581 0.7352
O1 O 0.2950(10) 0.9530(12) 0.5793(7)
O2 O 0.3265(11) 1.0267(10) 0.6800(11)
O3 O 0.1786(13) 1.0453(8) 0.6031(13)
O4 O 0.1913(17) 0.9494(11) 0.6799(10)
Cl1 Cl 0.2477(2) 0.99243(15) 0.63484(15)
O5 O 0.6885(11) 0.3212(6) 0.2427(6)
O6 O 0.1732(13) 0.3295(5) 0.1158(5)
O7 O 0.2589(15) 0.2633(18) 0.1955(18)
O8 O 0.104(2) 0.2183(8) 0.1480(10)
O9 O 0.120(3) 0.3215(11) 0.2357(13)
Cl2 Cl 0.1564(4) 0.2826(3) 0.1730(2)
O10 O 0.513(4) 0.090(3) 0.125(3)
O11 O 0.035(3) 0.423(3) 0.316(3)
loop_
_geom_bond_atom_site_label_1
_geom_bond_atom_site_label_2
_geom_bond_site_symmetry_1
_geom_bond_site_symmetry_2
Pd1 N1 1_555 1_555
N1 C4 1_555 1_555
N2 C1 1_555 1_555
N3 C5 1_555 1_555
C1 H1 1_555 1_555
H2 C1 1_555 1_555
C2 C1 1_555 1_555
C3 N2 1_555 1_555
H3 C3 1_555 1_555
H4 C3 1_555 1_555
C4 H5 1_555 1_555
C5 H6 1_555 1_555
H7 C5 1_555 1_555
C6 N3 1_555 1_555
H8 C6 1_555 1_555
H9 C6 1_555 1_555
C7 N1 1_555 1_555
H10 C7 1_555 1_555
C8 N2 1_555 1_555
H11 C8 1_555 1_555
H12 C8 1_555 1_555
N4 C11 1_555 1_555
C9 C10 1_555 1_555
C10 H13 1_555 1_555
C11 C10 1_555 1_555
H14 C11 1_555 1_555
C12 N3 1_555 1_555
H15 C12 1_555 1_555
H16 C12 1_555 1_555
N5 Pd1 1_555 1_555
C13 N5 1_555 1_555
H17 C13 1_555 1_555
H18 C13 1_555 1_555
H19 C13 1_555 1_555
N6 Pd1 1_555 1_555
C14 C2 1_555 1_555
H20 C14 1_555 1_555
C15 C9 1_555 1_555
H21 C15 1_555 1_555
C16 C2 1_555 1_555
H22 C16 1_555 1_555
C17 N6 1_555 1_555
H23 C17 1_555 1_555
H24 C17 1_555 1_555
H25 C17 1_555 1_555
C18 N6 1_555 1_555
H26 C18 1_555 1_555
H27 C18 1_555 1_555
H28 C18 1_555 1_555
C19 N4 1_555 1_555
H29 C19 1_555 1_555
C20 N5 1_555 1_555
H30 C20 1_555 1_555
H31 C20 1_555 1_555
H32 C20 1_555 1_555
C21 N6 1_555 1_555
H33 C21 1_555 1_555
H34 C21 1_555 1_555
C22 N5 1_555 1_555
H35 C22 1_555 1_555
H36 C22 1_555 1_555
O1 Cl1 1_555 1_555
O2 Cl1 1_555 1_555
O3 Cl1 1_555 1_555
O4 Cl1 1_555 1_555
O6 Cl2 1_555 1_555
O7 Cl2 1_555 1_555
O8 Cl2 1_555 1_555
O9 Cl2 1_555 1_555
Pd1B N4 1_555 1_555
N1B Pd1B 1_555 1_555
N2B C1B 1_555 1_555
N3B C5B 1_555 1_555
C1B H1B 1_555 1_555
H2B C1B 1_555 1_555
C2B C1B 1_555 1_555
C3B N2B 1_555 1_555
H3B C3B 1_555 1_555
H4B C3B 1_555 1_555
C4B N1B 1_555 1_555
H5B C4B 1_555 1_555
C5B H6B 1_555 1_555
H7B C5B 1_555 1_555
C6B N3B 1_555 1_555
H8B C6B 1_555 1_555
H9B C6B 1_555 1_555
C7B N1B 1_555 1_555
H10B C7B 1_555 1_555
C8B N2B 1_555 1_555
H11B C8B 1_555 1_555
H12B C8B 1_555 1_555
N4B Pd1 1_555 1_555
C9B C10B 1_555 1_555
C10B H13B 1_555 1_555
C11B N4B 1_555 1_555
H14B C11B 1_555 1_555
C12B N3B 1_555 1_555
H15B C12B 1_555 1_555
H16B C12B 1_555 1_555
N5B Pd1B 1_555 1_555
C13B N5B 1_555 1_555
H17B C13B 1_555 1_555
H18B C13B 1_555 1_555
H19B C13B 1_555 1_555
N6B Pd1B 1_555 1_555
C14B C2B 1_555 1_555
H20B C14B 1_555 1_555
C15B C9B 1_555 1_555
H21B C15B 1_555 1_555
C16B C2B 1_555 1_555
H22B C16B 1_555 1_555
C17B N6B 1_555 1_555
H23B C17B 1_555 1_555
H24B C17B 1_555 1_555
H25B C17B 1_555 1_555
C18B N6B 1_555 1_555
H26B C18B 1_555 1_555
H27B C18B 1_555 1_555
H28B C18B 1_555 1_555
C19B N4B 1_555 1_555
H29B C19B 1_555 1_555
C20B N5B 1_555 1_555
H30B C20B 1_555 1_555
H31B C20B 1_555 1_555
H32B C20B 1_555 1_555
C21B N6B 1_555 1_555
H33B C21B 1_555 1_555
H34B C21B 1_555 1_555
C22B N5B 1_555 1_555
H35B C22B 1_555 1_555
H36B C22B 1_555 1_555
C3 C6 1_555 1_555
C4 C14 1_555 1_555
C5 C8 1_555 1_555
C7 C16 1_555 1_555
C9 C12 1_555 1_555
C15 C19 1_555 1_555
C21 C22 1_555 1_555
C3B C6B 1_555 1_555
C4B C14B 1_555 1_555
C5B C8B 1_555 1_555
C7B C16B 1_555 1_555
C9B C12B 1_555 1_555
C10B C11B 1_555 1_555
C15B C19B 1_555 1_555
C21B C22B 1_555 1_555

#END
