
#######################################################################
#
#                 Cambridge Crystallographic Data Centre
#                                CCDC 
#
#######################################################################
#
# If this CIF has been generated from an entry in the Cambridge 
# Structural Database, then it will include bibliographic, chemical, 
# crystal, experimental, refinement or atomic coordinate data resulting 
# from the CCDC's data processing and validation procedures.
#
#######################################################################

data_HOBDEI
_chemical_formula_moiety         'C57 H48 Cl6 N6 O6 Pd3,2(C3 H7 N1 O1)'
_chemical_name_systematic        
'(\m~3~-hexakis(2-pyridylmethyl)cyclotricatechylene)-hexachloro-tri-palladium(ii) N,N-dimethylformamide solvate'
_symmetry_cell_setting           monoclinic
_symmetry_space_group_name_H-M   'P 21/m'
_symmetry_Int_Tables_number      11
_space_group_name_Hall           '-P 2yb'
loop_
_symmetry_equiv_pos_site_id
_symmetry_equiv_pos_as_xyz
1 x,y,z
2 -x,1/2+y,-z
3 -x,-y,-z
4 x,1/2-y,z
_cell_length_a                   10.4340(6)
_cell_length_b                   19.3415(10)
_cell_length_c                   17.0617(9)
_cell_angle_alpha                90
_cell_angle_beta                 100.733(3)
_cell_angle_gamma                90
_cell_volume                     3382.97
_exptl_crystal_colour            yellow
_exptl_crystal_description       plate
_cell_formula_units_Z            2
loop_
_atom_site_label
_atom_site_type_symbol
_atom_site_fract_x
_atom_site_fract_y
_atom_site_fract_z
Pd1 Pd 0.16410(8) 0.7500 0.18978(5)
C1 C 0.7297(10) 0.7500 0.4748(8)
H1 H 0.7475 0.7500 0.4210
H2 H 0.8121 0.7500 0.5122
Pd2 Pd 0.26293(7) 0.49916(4) 0.75943(4)
C2 C 0.6489(7) 0.6866(4) 0.4881(5)
Cl1 Cl -0.0077(5) 0.7500 0.2564(3)
C3 C 0.5534(7) 0.6657(4) 0.4246(5)
H3 H 0.5532 0.6847 0.3745
Cl2 Cl 0.3361(4) 0.7500 0.1243(3)
C4 C 0.4580(7) 0.6176(4) 0.4332(5)
Cl3 Cl 0.1162(3) 0.58929(12) 0.73506(15)
C5 C 0.4582(7) 0.5894(4) 0.5082(5)
Cl4 Cl 0.4168(4) 0.4144(3) 0.7775(2)
C6 C 0.5589(7) 0.6073(4) 0.5707(5)
H4 H 0.5626 0.5863 0.6201
C7 C 0.6537(7) 0.6553(4) 0.5619(5)
C8 C 0.7601(8) 0.6709(5) 0.6356(6)
H5 H 0.8313 0.6957 0.6189
H6 H 0.7945 0.6277 0.6598
C9 C 0.7059(7) 0.7146(5) 0.6981(5)
C10 C 0.6512(9) 0.6796(5) 0.7554(6)
H7 H 0.6577 0.6316 0.7579
C11 C 0.5882(9) 0.7131(5) 0.8082(6)
C12 C 0.3198(8) 0.6417(4) 0.3093(5)
H8 H 0.3935 0.6583 0.2874
H9 H 0.2775 0.6810 0.3289
O1 O 0.3628(6) 0.5945(3) 0.3723(3)
O2 O 0.3570(5) 0.5445(3) 0.5131(3)
C13 C 0.3387(7) 0.5255(4) 0.5905(5)
H10 H 0.3243 0.5664 0.6206
H11 H 0.4159 0.5020 0.6188
C14 C 0.470(2) 0.6158(8) 0.8379(7)
H12 H 0.5397 0.5849 0.8291
H13 H 0.4099 0.6207 0.7877
O3 O 0.5240(7) 0.6802(4) 0.8612(4)
N1 N 0.1583(6) 0.6443(4) 0.1882(4)
C15 C 0.2250(7) 0.6045(4) 0.2457(5)
C16 C 0.2090(9) 0.5331(5) 0.2446(6)
H14 H 0.2556 0.5071 0.2862
C17 C 0.1282(11) 0.5003(6) 0.1853(7)
H15 H 0.1173 0.4526 0.1854
C18 C 0.0608(10) 0.5422(7) 0.1232(7)
H16 H 0.0064 0.5223 0.0796
C19 C 0.0765(9) 0.6129(6) 0.1278(6)
H17 H 0.0290 0.6401 0.0877
N2 N 0.1872(6) 0.4587(3) 0.6511(4)
C20 C 0.2230(7) 0.4785(4) 0.5828(5)
C21 C 0.1570(7) 0.4555(4) 0.5107(5)
H18 H 0.1821 0.4702 0.4639
C22 C 0.0521(8) 0.4099(4) 0.5070(6)
H19 H 0.0050 0.3952 0.4581
C23 C 0.0196(8) 0.3871(5) 0.5781(6)
H20 H -0.0460 0.3546 0.5783
C24 C 0.0868(9) 0.4139(5) 0.6475(6)
H21 H 0.0622 0.4008 0.6950
N3 N 0.3247(8) 0.5315(5) 0.8745(4)
C25 C 0.4000(11) 0.5838(6) 0.8985(6)
C26 C 0.4256(14) 0.6062(7) 0.9765(6)
H22 H 0.4785 0.6444 0.9917
C27 C 0.3682(13) 0.5688(8) 1.0328(7)
H23 H 0.3781 0.5843 1.0851
C28 C 0.3001(13) 0.5113(8) 1.0106(7)
H24 H 0.2682 0.4838 1.0473
C29 C 0.2789(11) 0.4943(6) 0.9294(7)
H25 H 0.2301 0.4550 0.9127
Pd2C Pd 0.26293(7) 1.00084(4) 0.75943(4)
C2C C 0.6489(7) 0.8134(4) 0.4881(5)
C3C C 0.5534(7) 0.8343(4) 0.4246(5)
H3C H 0.5532 0.8153 0.3745
C4C C 0.4580(7) 0.8824(4) 0.4332(5)
Cl3C Cl 0.1162(3) 0.91071(12) 0.73506(15)
C5C C 0.4582(7) 0.9106(4) 0.5082(5)
Cl4C Cl 0.4168(4) 1.0856(3) 0.7775(2)
C6C C 0.5589(7) 0.8927(4) 0.5707(5)
H4C H 0.5626 0.9137 0.6201
C7C C 0.6537(7) 0.8447(4) 0.5619(5)
C8C C 0.7601(8) 0.8291(5) 0.6356(6)
H5C H 0.8313 0.8043 0.6189
H6C H 0.7945 0.8723 0.6598
C9C C 0.7059(7) 0.7854(5) 0.6981(5)
C10C C 0.6512(9) 0.8204(5) 0.7554(6)
H7C H 0.6577 0.8684 0.7579
C11C C 0.5882(9) 0.7869(5) 0.8082(6)
C12C C 0.3198(8) 0.8583(4) 0.3093(5)
H8C H 0.3935 0.8417 0.2874
H9C H 0.2775 0.8190 0.3289
O1C O 0.3628(6) 0.9055(3) 0.3723(3)
O2C O 0.3570(5) 0.9555(3) 0.5131(3)
C13C C 0.3387(7) 0.9745(4) 0.5905(5)
H10C H 0.3243 0.9336 0.6206
H11C H 0.4159 0.9980 0.6188
C14C C 0.470(2) 0.8842(8) 0.8379(7)
H12C H 0.5397 0.9151 0.8291
H13C H 0.4099 0.8793 0.7877
O3C O 0.5240(7) 0.8198(4) 0.8612(4)
N1C N 0.1583(6) 0.8557(4) 0.1882(4)
C15C C 0.2250(7) 0.8955(4) 0.2457(5)
C16C C 0.2090(9) 0.9669(5) 0.2446(6)
H14C H 0.2556 0.9929 0.2862
C17C C 0.1282(11) 0.9997(6) 0.1853(7)
H15C H 0.1173 1.0474 0.1854
C18C C 0.0608(10) 0.9578(7) 0.1232(7)
H16C H 0.0064 0.9777 0.0796
C19C C 0.0765(9) 0.8871(6) 0.1278(6)
H17C H 0.0290 0.8599 0.0877
N2C N 0.1872(6) 1.0413(3) 0.6511(4)
C20C C 0.2230(7) 1.0215(4) 0.5828(5)
C21C C 0.1570(7) 1.0445(4) 0.5107(5)
H18C H 0.1821 1.0298 0.4639
C22C C 0.0521(8) 1.0901(4) 0.5070(6)
H19C H 0.0050 1.1048 0.4581
C23C C 0.0196(8) 1.1129(5) 0.5781(6)
H20C H -0.0460 1.1454 0.5783
C24C C 0.0868(9) 1.0861(5) 0.6475(6)
H21C H 0.0622 1.0992 0.6950
N3C N 0.3247(8) 0.9685(5) 0.8745(4)
C25C C 0.4000(11) 0.9162(6) 0.8985(6)
C26C C 0.4256(14) 0.8938(7) 0.9765(6)
H22C H 0.4785 0.8556 0.9917
C27C C 0.3682(13) 0.9312(8) 1.0328(7)
H23C H 0.3781 0.9157 1.0851
C28C C 0.3001(13) 0.9887(8) 1.0106(7)
H24C H 0.2682 1.0162 1.0473
C29C C 0.2789(11) 1.0057(6) 0.9294(7)
H25C H 0.2301 1.0450 0.9127
O4 O 0.2161(11) 0.7500 0.4466(7)
C30 C 0.2853(12) 0.7500 0.5114(7)
H26 H 0.3748 0.7500 0.5125
N4 N 0.2470(7) 0.7500 0.5826(6)
C31 C 0.3467(13) 0.7500 0.6530(9)
H27 H 0.3069 0.7500 0.6994
H28 H 0.3999 0.7095 0.6534
C32 C 0.1123(11) 0.7500 0.5909(9)
H29 H 0.1071 0.7500 0.6464
H30 H 0.0700 0.7095 0.5658
H28C H 0.3999 0.7905 0.6534
H30C H 0.0700 0.7905 0.5658
O5? O -0.022(3) 0.6300(11) 0.9422(10)
C33? C 0.068(3) 0.6711(14) 0.940(2)
H31? H 0.1382 0.6651 0.9813
N5? N 0.0854(17) 0.7198(10) 0.8923(10)
C34? C -0.007(2) 0.7500 0.8240(13)
H32? H -0.0840 0.7219 0.8126
H33? H 0.0337 0.7516 0.7780
H34? H -0.0302 0.7960 0.8374
C35? C 0.217(2) 0.7500 0.8933(18)
H35? H 0.2441 0.7753 0.9419
H36? H 0.2132 0.7806 0.8486
H37? H 0.2780 0.7135 0.8899
loop_
_geom_bond_atom_site_label_1
_geom_bond_atom_site_label_2
_geom_bond_site_symmetry_1
_geom_bond_site_symmetry_2
Pd1 Cl1 1_555 1_555
C1 H1 1_555 1_555
H2 C1 1_555 1_555
Pd2 Cl3 1_555 1_555
C2 C1 1_555 1_555
C3 C2 1_555 1_555
H3 C3 1_555 1_555
Cl2 Pd1 1_555 1_555
C4 C3 1_555 1_555
C5 C4 1_555 1_555
Cl4 Pd2 1_555 1_555
C6 C5 1_555 1_555
H4 C6 1_555 1_555
C7 C2 1_555 1_555
C8 C7 1_555 1_555
H5 C8 1_555 1_555
H6 C8 1_555 1_555
C9 C8 1_555 1_555
C10 C9 1_555 1_555
H7 C10 1_555 1_555
C11 C10 1_555 1_555
C12 H8 1_555 1_555
H9 C12 1_555 1_555
O1 C4 1_555 1_555
O2 C5 1_555 1_555
C13 O2 1_555 1_555
H10 C13 1_555 1_555
H11 C13 1_555 1_555
C14 H12 1_555 1_555
H13 C14 1_555 1_555
O3 C11 1_555 1_555
N1 Pd1 1_555 1_555
C15 C12 1_555 1_555
C16 C15 1_555 1_555
H14 C16 1_555 1_555
C17 C16 1_555 1_555
H15 C17 1_555 1_555
C18 C17 1_555 1_555
H16 C18 1_555 1_555
C19 N1 1_555 1_555
H17 C19 1_555 1_555
N2 Pd2 1_555 1_555
C20 C13 1_555 1_555
C21 C20 1_555 1_555
H18 C21 1_555 1_555
C22 C21 1_555 1_555
H19 C22 1_555 1_555
C23 C22 1_555 1_555
H20 C23 1_555 1_555
C24 N2 1_555 1_555
H21 C24 1_555 1_555
N3 Pd2 1_555 1_555
C25 C14 1_555 1_555
C26 C25 1_555 1_555
H22 C26 1_555 1_555
C27 C26 1_555 1_555
H23 C27 1_555 1_555
C28 C27 1_555 1_555
H24 C28 1_555 1_555
C29 N3 1_555 1_555
H25 C29 1_555 1_555
O4 C30 1_555 1_555
C30 H26 1_555 1_555
N4 C30 1_555 1_555
C31 N4 1_555 1_555
H27 C31 1_555 1_555
H28 C31 1_555 1_555
C32 N4 1_555 1_555
H29 C32 1_555 1_555
H30 C32 1_555 1_555
Pd2C Cl3C 1_555 1_555
C2C C1 1_555 1_555
C3C C2C 1_555 1_555
H3C C3C 1_555 1_555
C4C C3C 1_555 1_555
C5C C4C 1_555 1_555
Cl4C Pd2C 1_555 1_555
C6C C5C 1_555 1_555
H4C C6C 1_555 1_555
C7C C2C 1_555 1_555
C8C C7C 1_555 1_555
H5C C8C 1_555 1_555
H6C C8C 1_555 1_555
C9C C9 1_555 1_555
C10C C9C 1_555 1_555
H7C C10C 1_555 1_555
C11C C11 1_555 1_555
C12C H8C 1_555 1_555
H9C C12C 1_555 1_555
O1C C4C 1_555 1_555
O2C C5C 1_555 1_555
C13C O2C 1_555 1_555
H10C C13C 1_555 1_555
H11C C13C 1_555 1_555
C14C H12C 1_555 1_555
H13C C14C 1_555 1_555
O3C C11C 1_555 1_555
N1C Pd1 1_555 1_555
C15C C12C 1_555 1_555
C16C C15C 1_555 1_555
H14C C16C 1_555 1_555
C17C C16C 1_555 1_555
H15C C17C 1_555 1_555
C18C C17C 1_555 1_555
H16C C18C 1_555 1_555
C19C N1C 1_555 1_555
H17C C19C 1_555 1_555
N2C Pd2C 1_555 1_555
C20C C13C 1_555 1_555
C21C C20C 1_555 1_555
H18C C21C 1_555 1_555
C22C C21C 1_555 1_555
H19C C22C 1_555 1_555
C23C C22C 1_555 1_555
H20C C23C 1_555 1_555
C24C N2C 1_555 1_555
H21C C24C 1_555 1_555
N3C Pd2C 1_555 1_555
C25C C14C 1_555 1_555
C26C C25C 1_555 1_555
H22C C26C 1_555 1_555
C27C C26C 1_555 1_555
H23C C27C 1_555 1_555
C28C C27C 1_555 1_555
H24C C28C 1_555 1_555
C29C N3C 1_555 1_555
H25C C29C 1_555 1_555
H28C C31 1_555 1_555
H30C C32 1_555 1_555
C6 C7 1_555 1_555
C12 O1 1_555 1_555
C14 O3 1_555 1_555
N1 C15 1_555 1_555
C18 C19 1_555 1_555
N2 C20 1_555 1_555
C23 C24 1_555 1_555
N3 C25 1_555 1_555
C28 C29 1_555 1_555
C6C C7C 1_555 1_555
C8C C9C 1_555 1_555
C10C C11C 1_555 1_555
C12C O1C 1_555 1_555
C14C O3C 1_555 1_555
N1C C15C 1_555 1_555
C18C C19C 1_555 1_555
N2C C20C 1_555 1_555
C23C C24C 1_555 1_555
N3C C25C 1_555 1_555
C28C C29C 1_555 1_555

#END
