# generated using pymatgen
data_H85Pd4C140N17Cl8O19
_symmetry_space_group_name_H-M   'P 1'
_cell_length_a   20.82900000
_cell_length_b   22.19100000
_cell_length_c   26.57800000
_cell_angle_alpha   90.00000000
_cell_angle_beta   90.00000000
_cell_angle_gamma   90.00000000
_symmetry_Int_Tables_number   1
_chemical_formula_structural   H85Pd4C140N17Cl8O19
_chemical_formula_sum   'H340 Pd16 C560 N68 Cl32 O76'
_cell_volume   12284.78585794
_cell_formula_units_Z   4
loop_
 _symmetry_equiv_pos_site_id
 _symmetry_equiv_pos_as_xyz
  1  'x, y, z'
loop_
 _atom_site_type_symbol
 _atom_site_label
 _atom_site_symmetry_multiplicity
 _atom_site_fract_x
 _atom_site_fract_y
 _atom_site_fract_z
 _atom_site_occupancy
  H  H1  1  0.446200  0.250000  0.328800  1
  H  H2  1  0.053800  0.750000  0.828800  1
  H  H3  1  0.946200  0.250000  0.171200  1
  H  H4  1  0.553800  0.750000  0.671200  1
  H  H5  1  0.461000  0.250000  0.269600  1
  H  H6  1  0.039000  0.750000  0.769600  1
  H  H7  1  0.961000  0.250000  0.230400  1
  H  H8  1  0.539000  0.750000  0.730400  1
  H  H9  1  0.262000  0.250000  0.195900  1
  H  H10  1  0.238000  0.750000  0.695900  1
  H  H11  1  0.762000  0.250000  0.304100  1
  H  H12  1  0.738000  0.750000  0.804100  1
  H  H13  1  0.221000  0.291500  0.288200  1
  H  H14  1  0.279000  0.708500  0.788200  1
  H  H15  1  0.721000  0.208500  0.211800  1
  H  H16  1  0.779000  0.791500  0.711800  1
  H  H17  1  0.779000  0.708500  0.711800  1
  H  H18  1  0.721000  0.291500  0.211800  1
  H  H19  1  0.279000  0.791500  0.788200  1
  H  H20  1  0.221000  0.208500  0.288200  1
  H  H21  1  0.248900  0.225900  0.275900  1
  H  H22  1  0.251100  0.774100  0.775900  1
  H  H23  1  0.748900  0.274100  0.224100  1
  H  H24  1  0.751100  0.725900  0.724100  1
  H  H25  1  0.751100  0.774100  0.724100  1
  H  H26  1  0.748900  0.225900  0.224100  1
  H  H27  1  0.251100  0.725900  0.775900  1
  H  H28  1  0.248900  0.274100  0.275900  1
  H  H29  1  0.182200  0.232700  0.305300  1
  H  H30  1  0.317800  0.767300  0.805300  1
  H  H31  1  0.682200  0.267300  0.194700  1
  H  H32  1  0.817800  0.732700  0.694700  1
  H  H33  1  0.817800  0.767300  0.694700  1
  H  H34  1  0.682200  0.232700  0.194700  1
  H  H35  1  0.317800  0.732700  0.805300  1
  H  H36  1  0.182200  0.267300  0.305300  1
  H  H37  1  0.455300  0.465300  0.271200  1
  H  H38  1  0.044700  0.534700  0.771200  1
  H  H39  1  0.955300  0.034700  0.228800  1
  H  H40  1  0.544700  0.965300  0.728800  1
  H  H41  1  0.544700  0.534700  0.728800  1
  H  H42  1  0.955300  0.465300  0.228800  1
  H  H43  1  0.044700  0.965300  0.771200  1
  H  H44  1  0.455300  0.034700  0.271200  1
  H  H45  1  0.521900  0.384000  0.293500  1
  H  H46  1  0.978100  0.616000  0.793500  1
  H  H47  1  0.021900  0.116000  0.206500  1
  H  H48  1  0.478100  0.884000  0.706500  1
  H  H49  1  0.478100  0.616000  0.706500  1
  H  H50  1  0.021900  0.384000  0.206500  1
  H  H51  1  0.978100  0.884000  0.793500  1
  H  H52  1  0.521900  0.116000  0.293500  1
  H  H53  1  0.534200  0.360400  0.379300  1
  H  H54  1  0.965800  0.639600  0.879300  1
  H  H55  1  0.034200  0.139600  0.120700  1
  H  H56  1  0.465800  0.860400  0.620700  1
  H  H57  1  0.465800  0.639600  0.620700  1
  H  H58  1  0.034200  0.360400  0.120700  1
  H  H59  1  0.965800  0.860400  0.879300  1
  H  H60  1  0.534200  0.139600  0.379300  1
  H  H61  1  0.479600  0.418900  0.438400  1
  H  H62  1  0.020400  0.581100  0.938400  1
  H  H63  1  0.979600  0.081100  0.061600  1
  H  H64  1  0.520400  0.918900  0.561600  1
  H  H65  1  0.520400  0.581100  0.561600  1
  H  H66  1  0.979600  0.418900  0.061600  1
  H  H67  1  0.020400  0.918900  0.938400  1
  H  H68  1  0.479600  0.081100  0.438400  1
  H  H69  1  0.273600  0.662300  0.565000  1
  H  H70  1  0.226400  0.337700  0.065000  1
  H  H71  1  0.773600  0.837700  0.935000  1
  H  H72  1  0.726400  0.162300  0.435000  1
  H  H73  1  0.726400  0.337700  0.435000  1
  H  H74  1  0.773600  0.662300  0.935000  1
  H  H75  1  0.226400  0.162300  0.065000  1
  H  H76  1  0.273600  0.837700  0.565000  1
  H  H77  1  0.303100  0.612400  0.636400  1
  H  H78  1  0.196900  0.387600  0.136400  1
  H  H79  1  0.803100  0.887600  0.863600  1
  H  H80  1  0.696900  0.112400  0.363600  1
  H  H81  1  0.696900  0.387600  0.363600  1
  H  H82  1  0.803100  0.612400  0.863600  1
  H  H83  1  0.196900  0.112400  0.136400  1
  H  H84  1  0.303100  0.887600  0.636400  1
  H  H85  1  0.365200  0.526700  0.632500  1
  H  H86  1  0.134800  0.473300  0.132500  1
  H  H87  1  0.865200  0.973300  0.867500  1
  H  H88  1  0.634800  0.026700  0.367500  1
  H  H89  1  0.634800  0.473300  0.367500  1
  H  H90  1  0.865200  0.526700  0.867500  1
  H  H91  1  0.134800  0.026700  0.132500  1
  H  H92  1  0.365200  0.973300  0.632500  1
  H  H93  1  0.403700  0.494800  0.554300  1
  H  H94  1  0.096300  0.505200  0.054300  1
  H  H95  1  0.903700  0.005200  0.945700  1
  H  H96  1  0.596300  0.994800  0.445700  1
  H  H97  1  0.596300  0.505200  0.445700  1
  H  H98  1  0.903700  0.494800  0.945700  1
  H  H99  1  0.096300  0.994800  0.054300  1
  H  H100  1  0.403700  0.005200  0.554300  1
  H  H101  1  0.246500  0.750000  0.164800  1
  H  H102  1  0.253500  0.250000  0.664800  1
  H  H103  1  0.746500  0.750000  0.335200  1
  H  H104  1  0.753500  0.250000  0.835200  1
  H  H105  1  0.198300  0.750000  0.212100  1
  H  H106  1  0.301700  0.250000  0.712100  1
  H  H107  1  0.698300  0.750000  0.287900  1
  H  H108  1  0.801700  0.250000  0.787900  1
  H  H109  1  0.345100  0.691600  0.167600  1
  H  H110  1  0.154900  0.308400  0.667600  1
  H  H111  1  0.845100  0.808400  0.332400  1
  H  H112  1  0.654900  0.191600  0.832400  1
  H  H113  1  0.654900  0.308400  0.832400  1
  H  H114  1  0.845100  0.691600  0.332400  1
  H  H115  1  0.154900  0.191600  0.667600  1
  H  H116  1  0.345100  0.808400  0.167600  1
  H  H117  1  0.283300  0.596400  0.315000  1
  H  H118  1  0.216700  0.403600  0.815000  1
  H  H119  1  0.783300  0.903600  0.185000  1
  H  H120  1  0.716700  0.096400  0.685000  1
  H  H121  1  0.716700  0.403600  0.685000  1
  H  H122  1  0.783300  0.596400  0.185000  1
  H  H123  1  0.216700  0.096400  0.815000  1
  H  H124  1  0.283300  0.903600  0.315000  1
  H  H125  1  0.169500  0.704500  0.276900  1
  H  H126  1  0.330500  0.295500  0.776900  1
  H  H127  1  0.669500  0.795500  0.223100  1
  H  H128  1  0.830500  0.204500  0.723100  1
  H  H129  1  0.830500  0.295500  0.723100  1
  H  H130  1  0.669500  0.704500  0.223100  1
  H  H131  1  0.330500  0.204500  0.776900  1
  H  H132  1  0.169500  0.795500  0.276900  1
  H  H133  1  0.176900  0.643700  0.308800  1
  H  H134  1  0.323100  0.356300  0.808800  1
  H  H135  1  0.676900  0.856300  0.191200  1
  H  H136  1  0.823100  0.143700  0.691200  1
  H  H137  1  0.823100  0.356300  0.691200  1
  H  H138  1  0.676900  0.643700  0.191200  1
  H  H139  1  0.323100  0.143700  0.808800  1
  H  H140  1  0.176900  0.856300  0.308800  1
  H  H141  1  0.233200  0.645900  0.386800  1
  H  H142  1  0.266800  0.354100  0.886800  1
  H  H143  1  0.733200  0.854100  0.113200  1
  H  H144  1  0.766800  0.145900  0.613200  1
  H  H145  1  0.766800  0.354100  0.613200  1
  H  H146  1  0.733200  0.645900  0.113200  1
  H  H147  1  0.266800  0.145900  0.886800  1
  H  H148  1  0.233200  0.854100  0.386800  1
  H  H149  1  0.338700  0.523500  0.335800  1
  H  H150  1  0.161300  0.476500  0.835800  1
  H  H151  1  0.838700  0.976500  0.164200  1
  H  H152  1  0.661300  0.023500  0.664200  1
  H  H153  1  0.661300  0.476500  0.664200  1
  H  H154  1  0.838700  0.523500  0.164200  1
  H  H155  1  0.161300  0.023500  0.835800  1
  H  H156  1  0.338700  0.976500  0.335800  1
  H  H157  1  0.390300  0.572900  0.353700  1
  H  H158  1  0.109700  0.427100  0.853700  1
  H  H159  1  0.890300  0.927100  0.146300  1
  H  H160  1  0.609700  0.072900  0.646300  1
  H  H161  1  0.609700  0.427100  0.646300  1
  H  H162  1  0.890300  0.572900  0.146300  1
  H  H163  1  0.109700  0.072900  0.853700  1
  H  H164  1  0.390300  0.927100  0.353700  1
  H  H165  1  0.340000  0.633400  0.441800  1
  H  H166  1  0.160000  0.366600  0.941800  1
  H  H167  1  0.840000  0.866600  0.058200  1
  H  H168  1  0.660000  0.133400  0.558200  1
  H  H169  1  0.660000  0.366600  0.558200  1
  H  H170  1  0.840000  0.633400  0.058200  1
  H  H171  1  0.160000  0.133400  0.941800  1
  H  H172  1  0.340000  0.866600  0.441800  1
  H  H173  1  0.269400  0.605100  0.448400  1
  H  H174  1  0.230600  0.394900  0.948400  1
  H  H175  1  0.769400  0.894900  0.051600  1
  H  H176  1  0.730600  0.105100  0.551600  1
  H  H177  1  0.730600  0.394900  0.551600  1
  H  H178  1  0.769400  0.605100  0.051600  1
  H  H179  1  0.230600  0.105100  0.948400  1
  H  H180  1  0.269400  0.894900  0.448400  1
  H  H181  1  0.104700  0.205500  0.226700  1
  H  H182  1  0.395300  0.794500  0.726700  1
  H  H183  1  0.604700  0.294500  0.273300  1
  H  H184  1  0.895300  0.705500  0.773300  1
  H  H185  1  0.895300  0.794500  0.773300  1
  H  H186  1  0.604700  0.205500  0.273300  1
  H  H187  1  0.395300  0.705500  0.726700  1
  H  H188  1  0.104700  0.294500  0.226700  1
  H  H189  1  0.102500  0.271800  0.203100  1
  H  H190  1  0.397500  0.728200  0.703100  1
  H  H191  1  0.602500  0.228200  0.296900  1
  H  H192  1  0.897500  0.771800  0.796900  1
  H  H193  1  0.897500  0.728200  0.796900  1
  H  H194  1  0.602500  0.271800  0.296900  1
  H  H195  1  0.397500  0.771800  0.703100  1
  H  H196  1  0.102500  0.228200  0.203100  1
  H  H197  1  0.100100  0.263000  0.262800  1
  H  H198  1  0.399900  0.737000  0.762800  1
  H  H199  1  0.600100  0.237000  0.237200  1
  H  H200  1  0.899900  0.763000  0.737200  1
  H  H201  1  0.899900  0.737000  0.737200  1
  H  H202  1  0.600100  0.263000  0.237200  1
  H  H203  1  0.399900  0.763000  0.762800  1
  H  H204  1  0.100100  0.237000  0.262800  1
  H  H205  1  0.397400  0.191500  0.213600  1.0
  H  H206  1  0.102600  0.808500  0.713600  1.0
  H  H207  1  0.897400  0.308500  0.286400  1.0
  H  H208  1  0.602600  0.691500  0.786400  1.0
  H  H209  1  0.602600  0.808500  0.786400  1.0
  H  H210  1  0.897400  0.191500  0.286400  1.0
  H  H211  1  0.102600  0.691500  0.713600  1.0
  H  H212  1  0.397400  0.308500  0.213600  1.0
  H  H213  1  0.293000  0.097400  0.344900  1.0
  H  H214  1  0.207000  0.902600  0.844900  1.0
  H  H215  1  0.793000  0.402600  0.155100  1.0
  H  H216  1  0.707000  0.597400  0.655100  1.0
  H  H217  1  0.707000  0.902600  0.655100  1.0
  H  H218  1  0.793000  0.097400  0.155100  1.0
  H  H219  1  0.207000  0.597400  0.844900  1.0
  H  H220  1  0.293000  0.402600  0.344900  1.0
  H  H221  1  0.365400  0.144800  0.404100  1.0
  H  H222  1  0.134600  0.855200  0.904100  1.0
  H  H223  1  0.865400  0.355200  0.095900  1.0
  H  H224  1  0.634600  0.644800  0.595900  1.0
  H  H225  1  0.634600  0.855200  0.595900  1.0
  H  H226  1  0.865400  0.144800  0.095900  1.0
  H  H227  1  0.134600  0.644800  0.904100  1.0
  H  H228  1  0.365400  0.355200  0.404100  1.0
  H  H229  1  0.402100  0.204900  0.387400  1.0
  H  H230  1  0.097900  0.795100  0.887400  1.0
  H  H231  1  0.902100  0.295100  0.112600  1.0
  H  H232  1  0.597900  0.704900  0.612600  1.0
  H  H233  1  0.597900  0.795100  0.612600  1.0
  H  H234  1  0.902100  0.204900  0.112600  1.0
  H  H235  1  0.097900  0.704900  0.887400  1.0
  H  H236  1  0.402100  0.295100  0.387400  1.0
  H  H237  1  0.251000  0.145100  0.417900  1.0
  H  H238  1  0.249000  0.854900  0.917900  1.0
  H  H239  1  0.751000  0.354900  0.082100  1.0
  H  H240  1  0.749000  0.645100  0.582100  1.0
  H  H241  1  0.749000  0.854900  0.582100  1.0
  H  H242  1  0.751000  0.145100  0.082100  1.0
  H  H243  1  0.249000  0.645100  0.917900  1.0
  H  H244  1  0.251000  0.354900  0.417900  1.0
  H  H245  1  0.187800  0.077400  0.300100  1.0
  H  H246  1  0.312200  0.922600  0.800100  1.0
  H  H247  1  0.687800  0.422600  0.199900  1.0
  H  H248  1  0.812200  0.577400  0.699900  1.0
  H  H249  1  0.812200  0.922600  0.699900  1.0
  H  H250  1  0.687800  0.077400  0.199900  1.0
  H  H251  1  0.312200  0.577400  0.800100  1.0
  H  H252  1  0.187800  0.422600  0.300100  1.0
  H  H253  1  0.228600  0.021900  0.322400  1.0
  H  H254  1  0.271400  0.978100  0.822400  1.0
  H  H255  1  0.728600  0.478100  0.177600  1.0
  H  H256  1  0.771400  0.521900  0.677600  1.0
  H  H257  1  0.771400  0.978100  0.677600  1.0
  H  H258  1  0.728600  0.021900  0.177600  1.0
  H  H259  1  0.271400  0.521900  0.822400  1.0
  H  H260  1  0.228600  0.478100  0.322400  1.0
  H  H261  1  0.166300  0.103900  0.434300  1.0
  H  H262  1  0.333700  0.896100  0.934300  1.0
  H  H263  1  0.666300  0.396100  0.065700  1.0
  H  H264  1  0.833700  0.603900  0.565700  1.0
  H  H265  1  0.833700  0.896100  0.565700  1.0
  H  H266  1  0.666300  0.103900  0.065700  1.0
  H  H267  1  0.333700  0.603900  0.934300  1.0
  H  H268  1  0.166300  0.396100  0.434300  1.0
  H  H269  1  0.129000  0.132900  0.387200  1.0
  H  H270  1  0.371000  0.867100  0.887200  1.0
  H  H271  1  0.629000  0.367100  0.112800  1.0
  H  H272  1  0.871000  0.632900  0.612800  1.0
  H  H273  1  0.871000  0.867100  0.612800  1.0
  H  H274  1  0.629000  0.132900  0.112800  1.0
  H  H275  1  0.371000  0.632900  0.887200  1.0
  H  H276  1  0.129000  0.367100  0.387200  1.0
  H  H277  1  0.222300  0.969400  0.207000  1.0
  H  H278  1  0.277700  0.030600  0.707000  1.0
  H  H279  1  0.722300  0.530600  0.293000  1.0
  H  H280  1  0.777700  0.469400  0.793000  1.0
  H  H281  1  0.777700  0.030600  0.793000  1.0
  H  H282  1  0.722300  0.969400  0.293000  1.0
  H  H283  1  0.277700  0.469400  0.707000  1.0
  H  H284  1  0.222300  0.530600  0.207000  1.0
  H  H285  1  0.149000  0.902900  0.172600  1.0
  H  H286  1  0.351000  0.097100  0.672600  1.0
  H  H287  1  0.649000  0.597100  0.327400  1.0
  H  H288  1  0.851000  0.402900  0.827400  1.0
  H  H289  1  0.851000  0.097100  0.827400  1.0
  H  H290  1  0.649000  0.902900  0.327400  1.0
  H  H291  1  0.351000  0.402900  0.672600  1.0
  H  H292  1  0.149000  0.597100  0.172600  1.0
  H  H293  1  0.048600  0.892600  0.209600  1.0
  H  H294  1  0.451400  0.107400  0.709600  1.0
  H  H295  1  0.548600  0.607400  0.290400  1.0
  H  H296  1  0.951400  0.392600  0.790400  1.0
  H  H297  1  0.951400  0.107400  0.790400  1.0
  H  H298  1  0.548600  0.892600  0.290400  1.0
  H  H299  1  0.451400  0.392600  0.709600  1.0
  H  H300  1  0.048600  0.607400  0.209600  1.0
  H  H301  1  0.025000  0.943500  0.282800  1.0
  H  H302  1  0.475000  0.056500  0.782800  1.0
  H  H303  1  0.525000  0.556500  0.217200  1.0
  H  H304  1  0.975000  0.443500  0.717200  1.0
  H  H305  1  0.975000  0.056500  0.717200  1.0
  H  H306  1  0.525000  0.943500  0.217200  1.0
  H  H307  1  0.475000  0.443500  0.782800  1.0
  H  H308  1  0.025000  0.556500  0.282800  1.0
  H  H309  1  0.057600  0.161500  0.504700  1.0
  H  H310  1  0.442400  0.838500  0.004700  1.0
  H  H311  1  0.557600  0.338500  0.995300  1.0
  H  H312  1  0.942400  0.661500  0.495300  1.0
  H  H313  1  0.942400  0.838500  0.495300  1.0
  H  H314  1  0.557600  0.161500  0.995300  1.0
  H  H315  1  0.442400  0.661500  0.004700  1.0
  H  H316  1  0.057600  0.338500  0.504700  1.0
  H  H317  1  0.963200  0.122000  0.532500  1.0
  H  H318  1  0.536800  0.878000  0.032500  1.0
  H  H319  1  0.463200  0.378000  0.967500  1.0
  H  H320  1  0.036800  0.622000  0.467500  1.0
  H  H321  1  0.036800  0.878000  0.467500  1.0
  H  H322  1  0.463200  0.122000  0.967500  1.0
  H  H323  1  0.536800  0.622000  0.032500  1.0
  H  H324  1  0.963200  0.378000  0.532500  1.0
  H  H325  1  0.919900  0.038700  0.486400  1.0
  H  H326  1  0.580100  0.961300  0.986400  1.0
  H  H327  1  0.419900  0.461300  0.013600  1.0
  H  H328  1  0.080100  0.538700  0.513600  1.0
  H  H329  1  0.080100  0.961300  0.513600  1.0
  H  H330  1  0.419900  0.038700  0.013600  1.0
  H  H331  1  0.580100  0.538700  0.986400  1.0
  H  H332  1  0.919900  0.461300  0.486400  1.0
  H  H333  1  0.971700  0.002900  0.418100  1.0
  H  H334  1  0.528300  0.997100  0.918100  1.0
  H  H335  1  0.471700  0.497100  0.081900  1.0
  H  H336  1  0.028300  0.502900  0.581900  1.0
  H  H337  1  0.028300  0.997100  0.581900  1.0
  H  H338  1  0.471700  0.002900  0.081900  1.0
  H  H339  1  0.528300  0.502900  0.918100  1.0
  H  H340  1  0.971700  0.497100  0.418100  1.0
  Pd  Pd341  1  0.396150  0.520250  0.449290  1
  Pd  Pd342  1  0.103850  0.479750  0.949290  1
  Pd  Pd343  1  0.896150  0.979750  0.050710  1
  Pd  Pd344  1  0.603850  0.020250  0.550710  1
  Pd  Pd345  1  0.603850  0.479750  0.550710  1
  Pd  Pd346  1  0.896150  0.520250  0.050710  1
  Pd  Pd347  1  0.103850  0.020250  0.949290  1
  Pd  Pd348  1  0.396150  0.979750  0.449290  1
  Pd  Pd349  1  0.080590  0.026650  0.353660  1.0
  Pd  Pd350  1  0.419410  0.973350  0.853660  1.0
  Pd  Pd351  1  0.580590  0.473350  0.146340  1.0
  Pd  Pd352  1  0.919410  0.526650  0.646340  1.0
  Pd  Pd353  1  0.919410  0.973350  0.646340  1.0
  Pd  Pd354  1  0.580590  0.026650  0.146340  1.0
  Pd  Pd355  1  0.419410  0.526650  0.853660  1.0
  Pd  Pd356  1  0.080590  0.473350  0.353660  1.0
  C  C357  1  0.426200  0.250000  0.295000  1
  C  C358  1  0.073800  0.750000  0.795000  1
  C  C359  1  0.926200  0.250000  0.205000  1
  C  C360  1  0.573800  0.750000  0.705000  1
  C  C361  1  0.216700  0.250000  0.192000  1
  C  C362  1  0.283300  0.750000  0.692000  1
  C  C363  1  0.716700  0.250000  0.308000  1
  C  C364  1  0.783300  0.750000  0.808000  1
  C  C365  1  0.209700  0.250000  0.279100  1
  C  C366  1  0.290300  0.750000  0.779100  1
  C  C367  1  0.709700  0.250000  0.220900  1
  C  C368  1  0.790300  0.750000  0.720900  1
  C  C369  1  0.431200  0.488200  0.342000  1
  C  C370  1  0.068800  0.511800  0.842000  1
  C  C371  1  0.931200  0.011800  0.158000  1
  C  C372  1  0.568800  0.988200  0.658000  1
  C  C373  1  0.568800  0.511800  0.658000  1
  C  C374  1  0.931200  0.488200  0.158000  1
  C  C375  1  0.068800  0.988200  0.842000  1
  C  C376  1  0.431200  0.011800  0.342000  1
  C  C377  1  0.461300  0.455200  0.305600  1
  C  C378  1  0.038700  0.544800  0.805600  1
  C  C379  1  0.961300  0.044800  0.194400  1
  C  C380  1  0.538700  0.955200  0.694400  1
  C  C381  1  0.538700  0.544800  0.694400  1
  C  C382  1  0.961300  0.455200  0.194400  1
  C  C383  1  0.038700  0.955200  0.805600  1
  C  C384  1  0.461300  0.044800  0.305600  1
  C  C385  1  0.500600  0.406900  0.318700  1
  C  C386  1  0.999400  0.593100  0.818700  1
  C  C387  1  0.000600  0.093100  0.181300  1
  C  C388  1  0.499400  0.906900  0.681300  1
  C  C389  1  0.499400  0.593100  0.681300  1
  C  C390  1  0.000600  0.406900  0.181300  1
  C  C391  1  0.999400  0.906900  0.818700  1
  C  C392  1  0.500600  0.093100  0.318700  1
  C  C393  1  0.507800  0.393000  0.368900  1
  C  C394  1  0.992200  0.607000  0.868900  1
  C  C395  1  0.007800  0.107000  0.131100  1
  C  C396  1  0.492200  0.893000  0.631100  1
  C  C397  1  0.492200  0.607000  0.631100  1
  C  C398  1  0.007800  0.393000  0.131100  1
  C  C399  1  0.992200  0.893000  0.868900  1
  C  C400  1  0.507800  0.107000  0.368900  1
  C  C401  1  0.475100  0.428400  0.403700  1
  C  C402  1  0.024900  0.571600  0.903700  1
  C  C403  1  0.975100  0.071600  0.096300  1
  C  C404  1  0.524900  0.928400  0.596300  1
  C  C405  1  0.524900  0.571600  0.596300  1
  C  C406  1  0.975100  0.428400  0.096300  1
  C  C407  1  0.024900  0.928400  0.903700  1
  C  C408  1  0.475100  0.071600  0.403700  1
  C  C409  1  0.321800  0.605300  0.515600  1
  C  C410  1  0.178200  0.394700  0.015600  1
  C  C411  1  0.821800  0.894700  0.984400  1
  C  C412  1  0.678200  0.105300  0.484400  1
  C  C413  1  0.678200  0.394700  0.484400  1
  C  C414  1  0.821800  0.605300  0.984400  1
  C  C415  1  0.178200  0.105300  0.015600  1
  C  C416  1  0.321800  0.894700  0.515600  1
  C  C417  1  0.299900  0.627400  0.563100  1
  C  C418  1  0.200100  0.372600  0.063100  1
  C  C419  1  0.799900  0.872600  0.936900  1
  C  C420  1  0.700100  0.127400  0.436900  1
  C  C421  1  0.700100  0.372600  0.436900  1
  C  C422  1  0.799900  0.627400  0.936900  1
  C  C423  1  0.200100  0.127400  0.063100  1
  C  C424  1  0.299900  0.872600  0.563100  1
  C  C425  1  0.317200  0.598000  0.604600  1
  C  C426  1  0.182800  0.402000  0.104600  1
  C  C427  1  0.817200  0.902000  0.895400  1
  C  C428  1  0.682800  0.098000  0.395400  1
  C  C429  1  0.682800  0.402000  0.395400  1
  C  C430  1  0.817200  0.598000  0.895400  1
  C  C431  1  0.182800  0.098000  0.104600  1
  C  C432  1  0.317200  0.902000  0.604600  1
  C  C433  1  0.354400  0.548200  0.602700  1
  C  C434  1  0.145600  0.451800  0.102700  1
  C  C435  1  0.854400  0.951800  0.897300  1
  C  C436  1  0.645600  0.048200  0.397300  1
  C  C437  1  0.645600  0.451800  0.397300  1
  C  C438  1  0.854400  0.548200  0.897300  1
  C  C439  1  0.145600  0.048200  0.102700  1
  C  C440  1  0.354400  0.951800  0.602700  1
  C  C441  1  0.376500  0.529100  0.555900  1
  C  C442  1  0.123500  0.470900  0.055900  1
  C  C443  1  0.876500  0.970900  0.944100  1
  C  C444  1  0.623500  0.029100  0.444100  1
  C  C445  1  0.623500  0.470900  0.444100  1
  C  C446  1  0.876500  0.529100  0.944100  1
  C  C447  1  0.123500  0.029100  0.055900  1
  C  C448  1  0.376500  0.970900  0.555900  1
  C  C449  1  0.244100  0.750000  0.202000  1
  C  C450  1  0.255900  0.250000  0.702000  1
  C  C451  1  0.744100  0.750000  0.298000  1
  C  C452  1  0.755900  0.250000  0.798000  1
  C  C453  1  0.278600  0.693300  0.223600  1
  C  C454  1  0.221400  0.306700  0.723600  1
  C  C455  1  0.778600  0.806700  0.276400  1
  C  C456  1  0.721400  0.193300  0.776400  1
  C  C457  1  0.721400  0.306700  0.776400  1
  C  C458  1  0.778600  0.693300  0.276400  1
  C  C459  1  0.221400  0.193300  0.723600  1
  C  C460  1  0.278600  0.806700  0.223600  1
  C  C461  1  0.333400  0.673200  0.198500  1
  C  C462  1  0.166600  0.326800  0.698500  1
  C  C463  1  0.833400  0.826800  0.301500  1
  C  C464  1  0.666600  0.173200  0.801500  1
  C  C465  1  0.666600  0.326800  0.801500  1
  C  C466  1  0.833400  0.673200  0.301500  1
  C  C467  1  0.166600  0.173200  0.698500  1
  C  C468  1  0.333400  0.826800  0.198500  1
  C  C469  1  0.371600  0.626900  0.217600  1
  C  C470  1  0.128400  0.373100  0.717600  1
  C  C471  1  0.871600  0.873100  0.282400  1
  C  C472  1  0.628400  0.126900  0.782400  1
  C  C473  1  0.628400  0.373100  0.782400  1
  C  C474  1  0.871600  0.626900  0.282400  1
  C  C475  1  0.128400  0.126900  0.717600  1
  C  C476  1  0.371600  0.873100  0.217600  1
  C  C477  1  0.353200  0.600900  0.262800  1
  C  C478  1  0.146800  0.399100  0.762800  1
  C  C479  1  0.853200  0.899100  0.237200  1
  C  C480  1  0.646800  0.100900  0.737200  1
  C  C481  1  0.646800  0.399100  0.737200  1
  C  C482  1  0.853200  0.600900  0.237200  1
  C  C483  1  0.146800  0.100900  0.762800  1
  C  C484  1  0.353200  0.899100  0.262800  1
  C  C485  1  0.297000  0.617800  0.286000  1
  C  C486  1  0.203000  0.382200  0.786000  1
  C  C487  1  0.797000  0.882200  0.214000  1
  C  C488  1  0.703000  0.117800  0.714000  1
  C  C489  1  0.703000  0.382200  0.714000  1
  C  C490  1  0.797000  0.617800  0.214000  1
  C  C491  1  0.203000  0.117800  0.786000  1
  C  C492  1  0.297000  0.882200  0.286000  1
  C  C493  1  0.259600  0.665000  0.268500  1
  C  C494  1  0.240400  0.335000  0.768500  1
  C  C495  1  0.759600  0.835000  0.231500  1
  C  C496  1  0.740400  0.165000  0.731500  1
  C  C497  1  0.740400  0.335000  0.731500  1
  C  C498  1  0.759600  0.665000  0.231500  1
  C  C499  1  0.240400  0.165000  0.768500  1
  C  C500  1  0.259600  0.835000  0.268500  1
  C  C501  1  0.199100  0.681200  0.298500  1
  C  C502  1  0.300900  0.318800  0.798500  1
  C  C503  1  0.699100  0.818800  0.201500  1
  C  C504  1  0.800900  0.181200  0.701500  1
  C  C505  1  0.800900  0.318800  0.701500  1
  C  C506  1  0.699100  0.681200  0.201500  1
  C  C507  1  0.300900  0.181200  0.798500  1
  C  C508  1  0.199100  0.818800  0.298500  1
  C  C509  1  0.215300  0.717500  0.344500  1
  C  C510  1  0.284700  0.282500  0.844500  1
  C  C511  1  0.715300  0.782500  0.155500  1
  C  C512  1  0.784700  0.217500  0.655500  1
  C  C513  1  0.784700  0.282500  0.655500  1
  C  C514  1  0.715300  0.717500  0.155500  1
  C  C515  1  0.284700  0.217500  0.844500  1
  C  C516  1  0.215300  0.782500  0.344500  1
  C  C517  1  0.234200  0.688700  0.386700  1
  C  C518  1  0.265800  0.311300  0.886700  1
  C  C519  1  0.734200  0.811300  0.113300  1
  C  C520  1  0.765800  0.188700  0.613300  1
  C  C521  1  0.765800  0.311300  0.613300  1
  C  C522  1  0.734200  0.688700  0.113300  1
  C  C523  1  0.265800  0.188700  0.886700  1
  C  C524  1  0.234200  0.811300  0.386700  1
  C  C525  1  0.255200  0.718000  0.430200  1
  C  C526  1  0.244800  0.282000  0.930200  1
  C  C527  1  0.755200  0.782000  0.069800  1
  C  C528  1  0.744800  0.218000  0.569800  1
  C  C529  1  0.744800  0.282000  0.569800  1
  C  C530  1  0.755200  0.718000  0.069800  1
  C  C531  1  0.244800  0.218000  0.930200  1
  C  C532  1  0.255200  0.782000  0.430200  1
  C  C533  1  0.437700  0.622300  0.143400  1
  C  C534  1  0.062300  0.377700  0.643400  1
  C  C535  1  0.937700  0.877700  0.356600  1
  C  C536  1  0.562300  0.122300  0.856600  1
  C  C537  1  0.562300  0.377700  0.856600  1
  C  C538  1  0.937700  0.622300  0.356600  1
  C  C539  1  0.062300  0.122300  0.643400  1
  C  C540  1  0.437700  0.877700  0.143400  1
  C  C541  1  0.383100  0.538200  0.331000  1
  C  C542  1  0.116900  0.461800  0.831000  1
  C  C543  1  0.883100  0.961800  0.169000  1
  C  C544  1  0.616900  0.038200  0.669000  1
  C  C545  1  0.616900  0.461800  0.669000  1
  C  C546  1  0.883100  0.538200  0.169000  1
  C  C547  1  0.116900  0.038200  0.831000  1
  C  C548  1  0.383100  0.961800  0.331000  1
  C  C549  1  0.302300  0.631100  0.464400  1
  C  C550  1  0.197700  0.368900  0.964400  1
  C  C551  1  0.802300  0.868900  0.035600  1
  C  C552  1  0.697700  0.131100  0.535600  1
  C  C553  1  0.697700  0.368900  0.535600  1
  C  C554  1  0.802300  0.631100  0.035600  1
  C  C555  1  0.197700  0.131100  0.964400  1
  C  C556  1  0.302300  0.868900  0.464400  1
  C  C557  1  0.446500  0.267800  0.089000  1
  C  C558  1  0.053500  0.732200  0.589000  1
  C  C559  1  0.946500  0.232200  0.411000  1
  C  C560  1  0.553500  0.767800  0.911000  1
  C  C561  1  0.553500  0.732200  0.911000  1
  C  C562  1  0.946500  0.267800  0.411000  1
  C  C563  1  0.053500  0.767800  0.589000  1
  C  C564  1  0.446500  0.232200  0.089000  1
  C  C565  1  0.394400  0.287700  0.060700  1
  C  C566  1  0.105600  0.712300  0.560700  1
  C  C567  1  0.894400  0.212300  0.439300  1
  C  C568  1  0.605600  0.787700  0.939300  1
  C  C569  1  0.605600  0.712300  0.939300  1
  C  C570  1  0.894400  0.287700  0.439300  1
  C  C571  1  0.105600  0.787700  0.560700  1
  C  C572  1  0.394400  0.212300  0.060700  1
  C  C573  1  0.337100  0.255600  0.061500  1
  C  C574  1  0.162900  0.744400  0.561500  1
  C  C575  1  0.837100  0.244400  0.438500  1
  C  C576  1  0.662900  0.755600  0.938500  1
  C  C577  1  0.662900  0.744400  0.938500  1
  C  C578  1  0.837100  0.255600  0.438500  1
  C  C579  1  0.162900  0.755600  0.561500  1
  C  C580  1  0.337100  0.244400  0.061500  1
  C  C581  1  0.331800  0.203700  0.090400  1
  C  C582  1  0.168200  0.796300  0.590400  1
  C  C583  1  0.831800  0.296300  0.409600  1
  C  C584  1  0.668200  0.703700  0.909600  1
  C  C585  1  0.668200  0.796300  0.909600  1
  C  C586  1  0.831800  0.203700  0.409600  1
  C  C587  1  0.168200  0.703700  0.590400  1
  C  C588  1  0.331800  0.296300  0.090400  1
  C  C589  1  0.383900  0.183900  0.118700  1
  C  C590  1  0.116100  0.816100  0.618700  1
  C  C591  1  0.883900  0.316100  0.381300  1
  C  C592  1  0.616100  0.683900  0.881300  1
  C  C593  1  0.616100  0.816100  0.881300  1
  C  C594  1  0.883900  0.183900  0.381300  1
  C  C595  1  0.116100  0.683900  0.618700  1
  C  C596  1  0.383900  0.316100  0.118700  1
  C  C597  1  0.481300  0.680200  0.151900  1
  C  C598  1  0.018700  0.319800  0.651900  1
  C  C599  1  0.981300  0.819800  0.348100  1
  C  C600  1  0.518700  0.180200  0.848100  1
  C  C601  1  0.518700  0.319800  0.848100  1
  C  C602  1  0.981300  0.680200  0.348100  1
  C  C603  1  0.018700  0.180200  0.651900  1
  C  C604  1  0.481300  0.819800  0.151900  1
  C  C605  1  0.496000  0.712400  0.195200  1
  C  C606  1  0.004000  0.287600  0.695200  1
  C  C607  1  0.996000  0.787600  0.304800  1
  C  C608  1  0.504000  0.212400  0.804800  1
  C  C609  1  0.504000  0.287600  0.804800  1
  C  C610  1  0.996000  0.712400  0.304800  1
  C  C611  1  0.004000  0.212400  0.695200  1
  C  C612  1  0.496000  0.787600  0.195200  1
  C  C613  1  0.534500  0.763400  0.192300  1
  C  C614  1  0.965500  0.236600  0.692300  1
  C  C615  1  0.034500  0.736600  0.307700  1
  C  C616  1  0.465500  0.263400  0.807700  1
  C  C617  1  0.465500  0.236600  0.807700  1
  C  C618  1  0.034500  0.763400  0.307700  1
  C  C619  1  0.965500  0.263400  0.692300  1
  C  C620  1  0.534500  0.736600  0.192300  1
  C  C621  1  0.558300  0.782300  0.146100  1
  C  C622  1  0.941700  0.217700  0.646100  1
  C  C623  1  0.058300  0.717700  0.353900  1
  C  C624  1  0.441700  0.282300  0.853900  1
  C  C625  1  0.441700  0.217700  0.853900  1
  C  C626  1  0.058300  0.782300  0.353900  1
  C  C627  1  0.941700  0.282300  0.646100  1
  C  C628  1  0.558300  0.717700  0.146100  1
  C  C629  1  0.543600  0.749900  0.102700  1
  C  C630  1  0.956400  0.250100  0.602700  1
  C  C631  1  0.043600  0.750100  0.397300  1
  C  C632  1  0.456400  0.249900  0.897300  1
  C  C633  1  0.456400  0.250100  0.897300  1
  C  C634  1  0.043600  0.749900  0.397300  1
  C  C635  1  0.956400  0.249900  0.602700  1
  C  C636  1  0.543600  0.750100  0.102700  1
  C  C637  1  0.375300  0.119400  0.143700  1
  C  C638  1  0.124700  0.880600  0.643700  1
  C  C639  1  0.875300  0.380600  0.356300  1
  C  C640  1  0.624700  0.619400  0.856300  1
  C  C641  1  0.624700  0.880600  0.856300  1
  C  C642  1  0.875300  0.119400  0.356300  1
  C  C643  1  0.124700  0.619400  0.643700  1
  C  C644  1  0.375300  0.380600  0.143700  1
  C  C645  1  0.378900  0.589600  0.116100  1
  C  C646  1  0.121100  0.410400  0.616100  1
  C  C647  1  0.878900  0.910400  0.383900  1
  C  C648  1  0.621100  0.089600  0.883900  1
  C  C649  1  0.621100  0.410400  0.883900  1
  C  C650  1  0.878900  0.589600  0.383900  1
  C  C651  1  0.121100  0.089600  0.616100  1
  C  C652  1  0.378900  0.910400  0.116100  1
  C  C653  1  0.354800  0.534100  0.131300  1
  C  C654  1  0.145200  0.465900  0.631300  1
  C  C655  1  0.854800  0.965900  0.368700  1
  C  C656  1  0.645200  0.034100  0.868700  1
  C  C657  1  0.645200  0.465900  0.868700  1
  C  C658  1  0.854800  0.534100  0.368700  1
  C  C659  1  0.145200  0.034100  0.631300  1
  C  C660  1  0.354800  0.965900  0.131300  1
  C  C661  1  0.309700  0.504400  0.101800  1
  C  C662  1  0.190300  0.495600  0.601800  1
  C  C663  1  0.809700  0.995600  0.398200  1
  C  C664  1  0.690300  0.004400  0.898200  1
  C  C665  1  0.690300  0.495600  0.898200  1
  C  C666  1  0.809700  0.504400  0.398200  1
  C  C667  1  0.190300  0.004400  0.601800  1
  C  C668  1  0.309700  0.995600  0.101800  1
  C  C669  1  0.288700  0.530200  0.057000  1
  C  C670  1  0.211300  0.469800  0.557000  1
  C  C671  1  0.788700  0.969800  0.443000  1
  C  C672  1  0.711300  0.030200  0.943000  1
  C  C673  1  0.711300  0.469800  0.943000  1
  C  C674  1  0.788700  0.530200  0.443000  1
  C  C675  1  0.211300  0.030200  0.557000  1
  C  C676  1  0.288700  0.969800  0.057000  1
  C  C677  1  0.312800  0.585700  0.041800  1
  C  C678  1  0.187200  0.414300  0.541800  1
  C  C679  1  0.812800  0.914300  0.458200  1
  C  C680  1  0.687200  0.085700  0.958200  1
  C  C681  1  0.687200  0.414300  0.958200  1
  C  C682  1  0.812800  0.585700  0.458200  1
  C  C683  1  0.187200  0.085700  0.541800  1
  C  C684  1  0.312800  0.914300  0.041800  1
  C  C685  1  0.118100  0.247400  0.231300  1
  C  C686  1  0.381900  0.752600  0.731300  1
  C  C687  1  0.618100  0.252600  0.268700  1
  C  C688  1  0.881900  0.747400  0.768700  1
  C  C689  1  0.881900  0.752600  0.768700  1
  C  C690  1  0.618100  0.247400  0.268700  1
  C  C691  1  0.381900  0.747400  0.731300  1
  C  C692  1  0.118100  0.252600  0.231300  1
  C  C693  1  0.385300  0.193600  0.288700  1.0
  C  C694  1  0.114700  0.806400  0.788700  1.0
  C  C695  1  0.885300  0.306400  0.211300  1.0
  C  C696  1  0.614700  0.693600  0.711300  1.0
  C  C697  1  0.614700  0.806400  0.711300  1.0
  C  C698  1  0.885300  0.193600  0.211300  1.0
  C  C699  1  0.114700  0.693600  0.788700  1.0
  C  C700  1  0.385300  0.306400  0.288700  1.0
  C  C701  1  0.375600  0.172300  0.240600  1.0
  C  C702  1  0.124400  0.827700  0.740600  1.0
  C  C703  1  0.875600  0.327700  0.259400  1.0
  C  C704  1  0.624400  0.672300  0.759400  1.0
  C  C705  1  0.624400  0.827700  0.759400  1.0
  C  C706  1  0.875600  0.172300  0.259400  1.0
  C  C707  1  0.124400  0.672300  0.740600  1.0
  C  C708  1  0.375600  0.327700  0.240600  1.0
  C  C709  1  0.335900  0.124500  0.229600  1.0
  C  C710  1  0.164100  0.875500  0.729600  1.0
  C  C711  1  0.835900  0.375500  0.270400  1.0
  C  C712  1  0.664100  0.624500  0.770400  1.0
  C  C713  1  0.664100  0.875500  0.770400  1.0
  C  C714  1  0.835900  0.124500  0.270400  1.0
  C  C715  1  0.164100  0.624500  0.729600  1.0
  C  C716  1  0.335900  0.375500  0.229600  1.0
  C  C717  1  0.301800  0.096700  0.269500  1.0
  C  C718  1  0.198200  0.903300  0.769500  1.0
  C  C719  1  0.801800  0.403300  0.230500  1.0
  C  C720  1  0.698200  0.596700  0.730500  1.0
  C  C721  1  0.698200  0.903300  0.730500  1.0
  C  C722  1  0.801800  0.096700  0.230500  1.0
  C  C723  1  0.198200  0.596700  0.769500  1.0
  C  C724  1  0.301800  0.403300  0.269500  1.0
  C  C725  1  0.313900  0.117100  0.317700  1.0
  C  C726  1  0.186100  0.882900  0.817700  1.0
  C  C727  1  0.813900  0.382900  0.182300  1.0
  C  C728  1  0.686100  0.617100  0.682300  1.0
  C  C729  1  0.686100  0.882900  0.682300  1.0
  C  C730  1  0.813900  0.117100  0.182300  1.0
  C  C731  1  0.186100  0.617100  0.817700  1.0
  C  C732  1  0.313900  0.382900  0.317700  1.0
  C  C733  1  0.354200  0.163900  0.328500  1.0
  C  C734  1  0.145800  0.836100  0.828500  1.0
  C  C735  1  0.854200  0.336100  0.171500  1.0
  C  C736  1  0.645800  0.663900  0.671500  1.0
  C  C737  1  0.645800  0.836100  0.671500  1.0
  C  C738  1  0.854200  0.163900  0.171500  1.0
  C  C739  1  0.145800  0.663900  0.828500  1.0
  C  C740  1  0.354200  0.336100  0.328500  1.0
  C  C741  1  0.361900  0.181600  0.383300  1.0
  C  C742  1  0.138100  0.818400  0.883300  1.0
  C  C743  1  0.861900  0.318400  0.116700  1.0
  C  C744  1  0.638100  0.681600  0.616700  1.0
  C  C745  1  0.638100  0.818400  0.616700  1.0
  C  C746  1  0.861900  0.181600  0.116700  1.0
  C  C747  1  0.138100  0.681600  0.883300  1.0
  C  C748  1  0.361900  0.318400  0.383300  1.0
  C  C749  1  0.306300  0.218800  0.401500  1.0
  C  C750  1  0.193700  0.781200  0.901500  1.0
  C  C751  1  0.806300  0.281200  0.098500  1.0
  C  C752  1  0.693700  0.718800  0.598500  1.0
  C  C753  1  0.693700  0.781200  0.598500  1.0
  C  C754  1  0.806300  0.218800  0.098500  1.0
  C  C755  1  0.193700  0.718800  0.901500  1.0
  C  C756  1  0.306300  0.281200  0.401500  1.0
  C  C757  1  0.250700  0.187900  0.416700  1.0
  C  C758  1  0.249300  0.812100  0.916700  1.0
  C  C759  1  0.750700  0.312100  0.083300  1.0
  C  C760  1  0.749300  0.687900  0.583300  1.0
  C  C761  1  0.749300  0.812100  0.583300  1.0
  C  C762  1  0.750700  0.187900  0.083300  1.0
  C  C763  1  0.249300  0.687900  0.916700  1.0
  C  C764  1  0.250700  0.312100  0.416700  1.0
  C  C765  1  0.196300  0.218300  0.429800  1.0
  C  C766  1  0.303700  0.781700  0.929800  1.0
  C  C767  1  0.696300  0.281700  0.070200  1.0
  C  C768  1  0.803700  0.718300  0.570200  1.0
  C  C769  1  0.803700  0.781700  0.570200  1.0
  C  C770  1  0.696300  0.218300  0.070200  1.0
  C  C771  1  0.303700  0.718300  0.929800  1.0
  C  C772  1  0.196300  0.281700  0.429800  1.0
  C  C773  1  0.210800  0.039800  0.291300  1.0
  C  C774  1  0.289200  0.960200  0.791300  1.0
  C  C775  1  0.710800  0.460200  0.208700  1.0
  C  C776  1  0.789200  0.539800  0.708700  1.0
  C  C777  1  0.789200  0.960200  0.708700  1.0
  C  C778  1  0.710800  0.039800  0.208700  1.0
  C  C779  1  0.289200  0.539800  0.791300  1.0
  C  C780  1  0.210800  0.460200  0.291300  1.0
  C  C781  1  0.130600  0.130800  0.424400  1.0
  C  C782  1  0.369400  0.869200  0.924400  1.0
  C  C783  1  0.630600  0.369200  0.075600  1.0
  C  C784  1  0.869400  0.630800  0.575600  1.0
  C  C785  1  0.869400  0.869200  0.575600  1.0
  C  C786  1  0.630600  0.130800  0.075600  1.0
  C  C787  1  0.369400  0.630800  0.924400  1.0
  C  C788  1  0.130600  0.369200  0.424400  1.0
  C  C789  1  0.165700  0.995500  0.265200  1.0
  C  C790  1  0.334300  0.004500  0.765200  1.0
  C  C791  1  0.665700  0.504500  0.234800  1.0
  C  C792  1  0.834300  0.495500  0.734800  1.0
  C  C793  1  0.834300  0.004500  0.734800  1.0
  C  C794  1  0.665700  0.995500  0.234800  1.0
  C  C795  1  0.334300  0.495500  0.765200  1.0
  C  C796  1  0.165700  0.504500  0.265200  1.0
  C  C797  1  0.181400  0.964000  0.222300  1.0
  C  C798  1  0.318600  0.036000  0.722300  1.0
  C  C799  1  0.681400  0.536000  0.277700  1.0
  C  C800  1  0.818600  0.464000  0.777700  1.0
  C  C801  1  0.818600  0.036000  0.777700  1.0
  C  C802  1  0.681400  0.964000  0.277700  1.0
  C  C803  1  0.318600  0.464000  0.722300  1.0
  C  C804  1  0.181400  0.536000  0.222300  1.0
  C  C805  1  0.138500  0.925200  0.201900  1.0
  C  C806  1  0.361500  0.074800  0.701900  1.0
  C  C807  1  0.638500  0.574800  0.298100  1.0
  C  C808  1  0.861500  0.425200  0.798100  1.0
  C  C809  1  0.861500  0.074800  0.798100  1.0
  C  C810  1  0.638500  0.925200  0.298100  1.0
  C  C811  1  0.361500  0.425200  0.701900  1.0
  C  C812  1  0.138500  0.574800  0.201900  1.0
  C  C813  1  0.079700  0.918600  0.224200  1.0
  C  C814  1  0.420300  0.081400  0.724200  1.0
  C  C815  1  0.579700  0.581400  0.275800  1.0
  C  C816  1  0.920300  0.418600  0.775800  1.0
  C  C817  1  0.920300  0.081400  0.775800  1.0
  C  C818  1  0.579700  0.918600  0.275800  1.0
  C  C819  1  0.420300  0.418600  0.724200  1.0
  C  C820  1  0.079700  0.581400  0.224200  1.0
  C  C821  1  0.065700  0.949300  0.267300  1.0
  C  C822  1  0.434300  0.050700  0.767300  1.0
  C  C823  1  0.565700  0.550700  0.232700  1.0
  C  C824  1  0.934300  0.449300  0.732700  1.0
  C  C825  1  0.934300  0.050700  0.732700  1.0
  C  C826  1  0.565700  0.949300  0.232700  1.0
  C  C827  1  0.434300  0.449300  0.767300  1.0
  C  C828  1  0.065700  0.550700  0.267300  1.0
  C  C829  1  0.068600  0.107700  0.444600  1.0
  C  C830  1  0.431400  0.892300  0.944600  1.0
  C  C831  1  0.568600  0.392300  0.055400  1.0
  C  C832  1  0.931400  0.607700  0.555400  1.0
  C  C833  1  0.931400  0.892300  0.555400  1.0
  C  C834  1  0.568600  0.107700  0.055400  1.0
  C  C835  1  0.431400  0.607700  0.944600  1.0
  C  C836  1  0.068600  0.392300  0.444600  1.0
  C  C837  1  0.038500  0.129100  0.486800  1.0
  C  C838  1  0.461500  0.870900  0.986800  1.0
  C  C839  1  0.538500  0.370900  0.013200  1.0
  C  C840  1  0.961500  0.629100  0.513200  1.0
  C  C841  1  0.961500  0.870900  0.513200  1.0
  C  C842  1  0.538500  0.129100  0.013200  1.0
  C  C843  1  0.461500  0.629100  0.986800  1.0
  C  C844  1  0.038500  0.370900  0.486800  1.0
  C  C845  1  0.984200  0.106300  0.503600  1.0
  C  C846  1  0.515800  0.893700  0.003600  1.0
  C  C847  1  0.484200  0.393700  0.996400  1.0
  C  C848  1  0.015800  0.606300  0.496400  1.0
  C  C849  1  0.015800  0.893700  0.496400  1.0
  C  C850  1  0.484200  0.106300  0.996400  1.0
  C  C851  1  0.515800  0.606300  0.003600  1.0
  C  C852  1  0.984200  0.393700  0.503600  1.0
  C  C853  1  0.958800  0.057100  0.475900  1.0
  C  C854  1  0.541200  0.942900  0.975900  1.0
  C  C855  1  0.458800  0.442900  0.024100  1.0
  C  C856  1  0.041200  0.557100  0.524100  1.0
  C  C857  1  0.041200  0.942900  0.524100  1.0
  C  C858  1  0.458800  0.057100  0.024100  1.0
  C  C859  1  0.541200  0.557100  0.975900  1.0
  C  C860  1  0.958800  0.442900  0.475900  1.0
  C  C861  1  0.989200  0.036600  0.435500  1.0
  C  C862  1  0.510800  0.963400  0.935500  1.0
  C  C863  1  0.489200  0.463400  0.064500  1.0
  C  C864  1  0.010800  0.536600  0.564500  1.0
  C  C865  1  0.010800  0.963400  0.564500  1.0
  C  C866  1  0.489200  0.036600  0.064500  1.0
  C  C867  1  0.510800  0.536600  0.935500  1.0
  C  C868  1  0.989200  0.463400  0.435500  1.0
  C  C869  1  0.359800  0.047500  0.168800  1.0
  C  C870  1  0.140200  0.952500  0.668800  1.0
  C  C871  1  0.859800  0.452500  0.331200  1.0
  C  C872  1  0.640200  0.547500  0.831200  1.0
  C  C873  1  0.640200  0.952500  0.831200  1.0
  C  C874  1  0.859800  0.047500  0.331200  1.0
  C  C875  1  0.140200  0.547500  0.668800  1.0
  C  C876  1  0.359800  0.452500  0.168800  1.0
  C  C877  1  0.314400  0.975800  0.137800  1.0
  C  C878  1  0.185600  0.024200  0.637800  1.0
  C  C879  1  0.814400  0.524200  0.362200  1.0
  C  C880  1  0.685600  0.475800  0.862200  1.0
  C  C881  1  0.685600  0.024200  0.862200  1.0
  C  C882  1  0.814400  0.975800  0.362200  1.0
  C  C883  1  0.185600  0.475800  0.637800  1.0
  C  C884  1  0.314400  0.524200  0.137800  1.0
  C  C885  1  0.335900  0.031700  0.121500  1.0
  C  C886  1  0.164100  0.968300  0.621500  1.0
  C  C887  1  0.835900  0.468300  0.378500  1.0
  C  C888  1  0.664100  0.531700  0.878500  1.0
  C  C889  1  0.664100  0.968300  0.878500  1.0
  C  C890  1  0.835900  0.031700  0.378500  1.0
  C  C891  1  0.164100  0.531700  0.621500  1.0
  C  C892  1  0.335900  0.468300  0.121500  1.0
  C  C893  1  0.303900  0.007300  0.036900  1.0
  C  C894  1  0.196100  0.992700  0.536900  1.0
  C  C895  1  0.803900  0.492700  0.463100  1.0
  C  C896  1  0.696100  0.507300  0.963100  1.0
  C  C897  1  0.696100  0.992700  0.963100  1.0
  C  C898  1  0.803900  0.007300  0.463100  1.0
  C  C899  1  0.196100  0.507300  0.536900  1.0
  C  C900  1  0.303900  0.492700  0.036900  1.0
  C  C901  1  0.282300  0.951300  0.053200  1.0
  C  C902  1  0.217700  0.048700  0.553200  1.0
  C  C903  1  0.782300  0.548700  0.446800  1.0
  C  C904  1  0.717700  0.451300  0.946800  1.0
  C  C905  1  0.717700  0.048700  0.946800  1.0
  C  C906  1  0.782300  0.951300  0.446800  1.0
  C  C907  1  0.217700  0.451300  0.553200  1.0
  C  C908  1  0.282300  0.548700  0.053200  1.0
  C  C909  1  0.287600  0.935500  0.103700  1.0
  C  C910  1  0.212400  0.064500  0.603700  1.0
  C  C911  1  0.787600  0.564500  0.396300  1.0
  C  C912  1  0.712400  0.435500  0.896300  1.0
  C  C913  1  0.712400  0.064500  0.896300  1.0
  C  C914  1  0.787600  0.935500  0.396300  1.0
  C  C915  1  0.212400  0.435500  0.603700  1.0
  C  C916  1  0.287600  0.564500  0.103700  1.0
  N  N917  1  0.176600  0.250000  0.233000  1
  N  N918  1  0.323400  0.750000  0.733000  1
  N  N919  1  0.676600  0.250000  0.267000  1
  N  N920  1  0.823400  0.750000  0.767000  1
  N  N921  1  0.437800  0.474900  0.391000  1
  N  N922  1  0.062200  0.525100  0.891000  1
  N  N923  1  0.937800  0.025100  0.109000  1
  N  N924  1  0.562200  0.974900  0.609000  1
  N  N925  1  0.562200  0.525100  0.609000  1
  N  N926  1  0.937800  0.474900  0.109000  1
  N  N927  1  0.062200  0.974900  0.891000  1
  N  N928  1  0.437800  0.025100  0.391000  1
  N  N929  1  0.360800  0.557400  0.513100  1
  N  N930  1  0.139200  0.442600  0.013100  1
  N  N931  1  0.860800  0.942600  0.986900  1
  N  N932  1  0.639200  0.057400  0.486900  1
  N  N933  1  0.639200  0.442600  0.486900  1
  N  N934  1  0.860800  0.557400  0.986900  1
  N  N935  1  0.139200  0.057400  0.013100  1
  N  N936  1  0.360800  0.942600  0.513100  1
  N  N937  1  0.441200  0.216000  0.117900  1
  N  N938  1  0.058800  0.784000  0.617900  1
  N  N939  1  0.941200  0.284000  0.382100  1
  N  N940  1  0.558800  0.716000  0.882100  1
  N  N941  1  0.558800  0.784000  0.882100  1
  N  N942  1  0.941200  0.216000  0.382100  1
  N  N943  1  0.058800  0.716000  0.617900  1
  N  N944  1  0.441200  0.284000  0.117900  1
  N  N945  1  0.505100  0.699000  0.105600  1
  N  N946  1  0.994900  0.301000  0.605600  1
  N  N947  1  0.005100  0.801000  0.394400  1
  N  N948  1  0.494900  0.199000  0.894400  1
  N  N949  1  0.494900  0.301000  0.894400  1
  N  N950  1  0.005100  0.699000  0.394400  1
  N  N951  1  0.994900  0.199000  0.605600  1
  N  N952  1  0.505100  0.801000  0.105600  1
  N  N953  1  0.357900  0.615400  0.071300  1
  N  N954  1  0.142100  0.384600  0.571300  1
  N  N955  1  0.857900  0.884600  0.428700  1
  N  N956  1  0.642100  0.115400  0.928700  1
  N  N957  1  0.642100  0.384600  0.928700  1
  N  N958  1  0.857900  0.615400  0.428700  1
  N  N959  1  0.142100  0.115400  0.571300  1
  N  N960  1  0.357900  0.884600  0.071300  1
  N  N961  1  0.108000  0.987900  0.288700  1.0
  N  N962  1  0.392000  0.012100  0.788700  1.0
  N  N963  1  0.608000  0.512100  0.211300  1.0
  N  N964  1  0.892000  0.487900  0.711300  1.0
  N  N965  1  0.892000  0.012100  0.711300  1.0
  N  N966  1  0.608000  0.987900  0.211300  1.0
  N  N967  1  0.392000  0.487900  0.788700  1.0
  N  N968  1  0.108000  0.512100  0.288700  1.0
  N  N969  1  0.044600  0.061700  0.417800  1.0
  N  N970  1  0.455400  0.938300  0.917800  1.0
  N  N971  1  0.544600  0.438300  0.082200  1.0
  N  N972  1  0.955400  0.561700  0.582200  1.0
  N  N973  1  0.955400  0.938300  0.582200  1.0
  N  N974  1  0.544600  0.061700  0.082200  1.0
  N  N975  1  0.455400  0.561700  0.917800  1.0
  N  N976  1  0.044600  0.438300  0.417800  1.0
  N  N977  1  0.330700  0.047500  0.071100  1.0
  N  N978  1  0.169300  0.952500  0.571100  1.0
  N  N979  1  0.830700  0.452500  0.428900  1.0
  N  N980  1  0.669300  0.547500  0.928900  1.0
  N  N981  1  0.669300  0.952500  0.928900  1.0
  N  N982  1  0.830700  0.047500  0.428900  1.0
  N  N983  1  0.169300  0.547500  0.571100  1.0
  N  N984  1  0.330700  0.452500  0.071100  1.0
  Cl  Cl985  1  0.300430  0.471420  0.436360  1
  Cl  Cl986  1  0.199570  0.528580  0.936360  1
  Cl  Cl987  1  0.800430  0.028580  0.063640  1
  Cl  Cl988  1  0.699570  0.971420  0.563640  1
  Cl  Cl989  1  0.699570  0.528580  0.563640  1
  Cl  Cl990  1  0.800430  0.471420  0.063640  1
  Cl  Cl991  1  0.199570  0.971420  0.936360  1
  Cl  Cl992  1  0.300430  0.028580  0.436360  1
  Cl  Cl993  1  0.486960  0.577660  0.457230  1
  Cl  Cl994  1  0.013040  0.422340  0.957230  1
  Cl  Cl995  1  0.986960  0.922340  0.042770  1
  Cl  Cl996  1  0.513040  0.077660  0.542770  1
  Cl  Cl997  1  0.513040  0.422340  0.542770  1
  Cl  Cl998  1  0.986960  0.577660  0.042770  1
  Cl  Cl999  1  0.013040  0.077660  0.957230  1
  Cl  Cl1000  1  0.486960  0.922340  0.457230  1
  Cl  Cl1001  1  0.042100  0.109060  0.310610  1.0
  Cl  Cl1002  1  0.457900  0.890940  0.810610  1.0
  Cl  Cl1003  1  0.542100  0.390940  0.189390  1.0
  Cl  Cl1004  1  0.957900  0.609060  0.689390  1.0
  Cl  Cl1005  1  0.957900  0.890940  0.689390  1.0
  Cl  Cl1006  1  0.542100  0.109060  0.189390  1.0
  Cl  Cl1007  1  0.457900  0.609060  0.810610  1.0
  Cl  Cl1008  1  0.042100  0.390940  0.310610  1.0
  Cl  Cl1009  1  0.121960  0.946070  0.395960  1.0
  Cl  Cl1010  1  0.378040  0.053930  0.895960  1.0
  Cl  Cl1011  1  0.621960  0.553930  0.104040  1.0
  Cl  Cl1012  1  0.878040  0.446070  0.604040  1.0
  Cl  Cl1013  1  0.878040  0.053930  0.604040  1.0
  Cl  Cl1014  1  0.621960  0.946070  0.104040  1.0
  Cl  Cl1015  1  0.378040  0.446070  0.895960  1.0
  Cl  Cl1016  1  0.121960  0.553930  0.395960  1.0
  O  O1017  1  0.555000  0.250000  0.400400  1
  O  O1018  1  0.945000  0.750000  0.900400  1
  O  O1019  1  0.055000  0.250000  0.099600  1
  O  O1020  1  0.445000  0.750000  0.599600  1
  O  O1021  1  0.350000  0.748400  0.072600  1
  O  O1022  1  0.150000  0.251600  0.572600  1
  O  O1023  1  0.850000  0.751600  0.427400  1
  O  O1024  1  0.650000  0.248400  0.927400  1
  O  O1025  1  0.650000  0.251600  0.927400  1
  O  O1026  1  0.850000  0.748400  0.427400  1
  O  O1027  1  0.150000  0.248400  0.572600  1
  O  O1028  1  0.350000  0.751600  0.072600  1
  O  O1029  1  0.427000  0.605800  0.195300  1
  O  O1030  1  0.073000  0.394200  0.695300  1
  O  O1031  1  0.927000  0.894200  0.304700  1
  O  O1032  1  0.573000  0.105800  0.804700  1
  O  O1033  1  0.573000  0.394200  0.804700  1
  O  O1034  1  0.927000  0.605800  0.304700  1
  O  O1035  1  0.073000  0.105800  0.695300  1
  O  O1036  1  0.427000  0.894200  0.195300  1
  O  O1037  1  0.393200  0.555500  0.279800  1
  O  O1038  1  0.106800  0.444500  0.779800  1
  O  O1039  1  0.893200  0.944500  0.220200  1
  O  O1040  1  0.606800  0.055500  0.720200  1
  O  O1041  1  0.606800  0.444500  0.720200  1
  O  O1042  1  0.893200  0.555500  0.220200  1
  O  O1043  1  0.106800  0.055500  0.779800  1
  O  O1044  1  0.393200  0.944500  0.279800  1
  O  O1045  1  0.276800  0.689900  0.473300  1
  O  O1046  1  0.223200  0.310100  0.973300  1
  O  O1047  1  0.776800  0.810100  0.026700  1
  O  O1048  1  0.723200  0.189900  0.526700  1
  O  O1049  1  0.723200  0.310100  0.526700  1
  O  O1050  1  0.776800  0.689900  0.026700  1
  O  O1051  1  0.223200  0.189900  0.973300  1
  O  O1052  1  0.276800  0.810100  0.473300  1
  O  O1053  1  0.186400  0.250000  0.141600  1
  O  O1054  1  0.313600  0.750000  0.641600  1
  O  O1055  1  0.686400  0.250000  0.358400  1
  O  O1056  1  0.813600  0.750000  0.858400  1
  O  O1057  1  0.572000  0.250000  0.454500  1
  O  O1058  1  0.928000  0.750000  0.954500  1
  O  O1059  1  0.072000  0.250000  0.045500  1
  O  O1060  1  0.428000  0.750000  0.545500  1
  O  O1061  1  0.437000  0.761600  0.340400  1
  O  O1062  1  0.063000  0.238400  0.840400  1
  O  O1063  1  0.937000  0.738400  0.159600  1
  O  O1064  1  0.563000  0.261600  0.659600  1
  O  O1065  1  0.563000  0.238400  0.659600  1
  O  O1066  1  0.937000  0.761600  0.159600  1
  O  O1067  1  0.063000  0.261600  0.840400  1
  O  O1068  1  0.437000  0.738400  0.340400  1
  O  O1069  1  0.325500  0.104500  0.181200  1.0
  O  O1070  1  0.174500  0.895500  0.681200  1.0
  O  O1071  1  0.825500  0.395500  0.318800  1.0
  O  O1072  1  0.674500  0.604500  0.818800  1.0
  O  O1073  1  0.674500  0.895500  0.818800  1.0
  O  O1074  1  0.825500  0.104500  0.318800  1.0
  O  O1075  1  0.174500  0.604500  0.681200  1.0
  O  O1076  1  0.325500  0.395500  0.181200  1.0
  O  O1077  1  0.260500  0.051600  0.255900  1.0
  O  O1078  1  0.239500  0.948400  0.755900  1.0
  O  O1079  1  0.760500  0.448400  0.244100  1.0
  O  O1080  1  0.739500  0.551600  0.744100  1.0
  O  O1081  1  0.739500  0.948400  0.744100  1.0
  O  O1082  1  0.760500  0.051600  0.244100  1.0
  O  O1083  1  0.239500  0.551600  0.755900  1.0
  O  O1084  1  0.260500  0.448400  0.255900  1.0
  O  O1085  1  0.139800  0.189800  0.445200  1.0
  O  O1086  1  0.360200  0.810200  0.945200  1.0
  O  O1087  1  0.639800  0.310200  0.054800  1.0
  O  O1088  1  0.860200  0.689800  0.554800  1.0
  O  O1089  1  0.860200  0.810200  0.554800  1.0
  O  O1090  1  0.639800  0.189800  0.054800  1.0
  O  O1091  1  0.360200  0.689800  0.945200  1.0
  O  O1092  1  0.139800  0.310200  0.445200  1.0
