
#######################################################################
#
#                 Cambridge Crystallographic Data Centre
#                                CCDC 
#
#######################################################################
#
# If this CIF has been generated from an entry in the Cambridge 
# Structural Database, then it will include bibliographic, chemical, 
# crystal, experimental, refinement or atomic coordinate data resulting 
# from the CCDC's data processing and validation procedures.
#
#######################################################################

data_HOBDIM
_chemical_formula_moiety         
'C57 H48 Cl4 N6 O6 Pd2,0.5(C3 H7 N1 O1),2(H2 O1)'
_chemical_name_systematic        
'(\m~2~-hexakis(2-pyridylmethyl)cyclotricatechylene)-tetrachloro-di-palladium(ii) N,N-dimethylformamide solvate dihydrate'
_symmetry_cell_setting           orthorhombic
_symmetry_space_group_name_H-M   'P n m a'
_symmetry_Int_Tables_number      62
_space_group_name_Hall           '-P 2ac 2n'
loop_
_symmetry_equiv_pos_site_id
_symmetry_equiv_pos_as_xyz
1 x,y,z
2 1/2-x,-y,1/2+z
3 1/2+x,1/2-y,1/2-z
4 -x,1/2+y,-z
5 -x,-y,-z
6 1/2+x,y,1/2-z
7 1/2-x,1/2+y,1/2+z
8 x,1/2-y,z
_cell_length_a                   20.8290(4)
_cell_length_b                   22.1910(5)
_cell_length_c                   26.5780(7)
_cell_angle_alpha                90
_cell_angle_beta                 90
_cell_angle_gamma                90
_cell_volume                     12284.8
_exptl_crystal_colour            yellow
_exptl_crystal_description       plate
_cell_formula_units_Z            8
loop_
_atom_site_label
_atom_site_type_symbol
_atom_site_fract_x
_atom_site_fract_y
_atom_site_fract_z
O8 O 0.5550(8) 0.2500 0.4004(6)
O10 O 0.3500(9) 0.7484(6) 0.0726(7)
Pd1 Pd 0.08059(4) 0.02665(4) 0.35366(3)
O1 O 0.3255(4) 0.1045(3) 0.1812(3)
C1 C 0.4262(6) 0.2500 0.2950(5)
H1 H 0.4462 0.2500 0.3288
H2 H 0.4610 0.2500 0.2696
O2 O 0.2605(4) 0.0516(3) 0.2559(3)
C2 C 0.3853(4) 0.1936(4) 0.2887(3)
Cl1 Cl 0.0421(2) 0.10906(15) 0.31061(12)
O3 O 0.1398(4) 0.1898(3) 0.4452(3)
C3 C 0.3756(5) 0.1723(5) 0.2406(3)
H3 H 0.3974 0.1915 0.2136
Cl2 Cl 0.12196(18) -0.05393(16) 0.39596(12)
C4 C 0.3359(5) 0.1245(4) 0.2296(4)
C5 C 0.3018(5) 0.0967(4) 0.2695(4)
C6 C 0.3139(5) 0.1171(4) 0.3177(3)
H4 H 0.2930 0.0974 0.3449
C7 C 0.3542(4) 0.1639(4) 0.3285(3)
C8 C 0.3619(5) 0.1816(5) 0.3833(3)
H5 H 0.3654 0.1448 0.4041
H6 H 0.4021 0.2049 0.3874
C9 C 0.3063(5) 0.2188(4) 0.4015(3)
C10 C 0.2507(5) 0.1879(4) 0.4167(4)
H7 H 0.2510 0.1451 0.4179
C11 C 0.1963(5) 0.2183(4) 0.4298(4)
C12 C 0.2108(5) 0.0398(5) 0.2913(4)
H8 H 0.1878 0.0774 0.3001
H9 H 0.2286 0.0219 0.3224
C13 C 0.1306(6) 0.1308(5) 0.4244(5)
H10 H 0.1663 0.1039 0.4343
H11 H 0.1290 0.1329 0.3872
N1 N 0.1080(4) -0.0121(4) 0.2887(3)
C14 C 0.1657(6) -0.0045(4) 0.2652(4)
C15 C 0.1814(6) -0.0360(5) 0.2223(4)
H12 H 0.2223 -0.0306 0.2070
C16 C 0.1385(7) -0.0748(5) 0.2019(4)
H13 H 0.1490 -0.0971 0.1726
C17 C 0.0797(7) -0.0814(5) 0.2242(5)
H14 H 0.0486 -0.1074 0.2096
C18 C 0.0657(6) -0.0507(5) 0.2673(4)
H15 H 0.0250 -0.0565 0.2828
N2 N 0.0446(4) 0.0617(4) 0.4178(3)
C19 C 0.0686(6) 0.1077(5) 0.4446(5)
C20 C 0.0385(6) 0.1291(6) 0.4868(5)
H16 H 0.0576 0.1615 0.5047
C21 C -0.0158(7) 0.1063(7) 0.5036(6)
H17 H -0.0368 0.1220 0.5325
C22 C -0.0412(6) 0.0571(8) 0.4759(5)
H18 H -0.0801 0.0387 0.4864
C23 C -0.0108(6) 0.0366(7) 0.4355(5)
H19 H -0.0283 0.0029 0.4181
C50 C 0.3598(18) 0.0475(17) 0.1688(14)
C56 C 0.3144(16) -0.0242(14) 0.1378(7)
C57 C 0.3359(14) 0.0317(12) 0.1215(9)
N7 N 0.3307(14) 0.0475(9) 0.0711(11)
C58 C 0.3039(13) 0.0073(11) 0.0369(7)
C59 C 0.2823(12) -0.0487(10) 0.0532(9)
C60 C 0.2876(15) -0.0645(10) 0.1037(10)
Pd1G Pd 0.08059(4) 0.47335(4) 0.35366(3)
O1G O 0.3255(4) 0.3955(3) 0.1812(3)
O2G O 0.2605(4) 0.4484(3) 0.2559(3)
C2G C 0.3853(4) 0.3064(4) 0.2887(3)
Cl1G Cl 0.0421(2) 0.39094(15) 0.31061(12)
O3G O 0.1398(4) 0.3102(3) 0.4452(3)
C3G C 0.3756(5) 0.3277(5) 0.2406(3)
H3G H 0.3974 0.3085 0.2136
Cl2G Cl 0.12196(18) 0.55393(16) 0.39596(12)
C4G C 0.3359(5) 0.3755(4) 0.2296(4)
C5G C 0.3018(5) 0.4033(4) 0.2695(4)
C6G C 0.3139(5) 0.3829(4) 0.3177(3)
H4G H 0.2930 0.4026 0.3449
C7G C 0.3542(4) 0.3361(4) 0.3285(3)
C8G C 0.3619(5) 0.3184(5) 0.3833(3)
H5G H 0.3654 0.3552 0.4041
H6G H 0.4021 0.2951 0.3874
C9G C 0.3063(5) 0.2812(4) 0.4015(3)
C10G C 0.2507(5) 0.3121(4) 0.4167(4)
H7G H 0.2510 0.3549 0.4179
C11G C 0.1963(5) 0.2817(4) 0.4298(4)
C12G C 0.2108(5) 0.4602(5) 0.2913(4)
H8G H 0.1878 0.4226 0.3001
H9G H 0.2286 0.4781 0.3224
C13G C 0.1306(6) 0.3692(5) 0.4244(5)
H10G H 0.1663 0.3961 0.4343
H11G H 0.1290 0.3671 0.3872
N1G N 0.1080(4) 0.5121(4) 0.2887(3)
C14G C 0.1657(6) 0.5045(4) 0.2652(4)
C15G C 0.1814(6) 0.5360(5) 0.2223(4)
H12G H 0.2223 0.5306 0.2070
C16G C 0.1385(7) 0.5748(5) 0.2019(4)
H13G H 0.1490 0.5971 0.1726
C17G C 0.0797(7) 0.5814(5) 0.2242(5)
H14G H 0.0486 0.6074 0.2096
C18G C 0.0657(6) 0.5507(5) 0.2673(4)
H15G H 0.0250 0.5565 0.2828
N2G N 0.0446(4) 0.4383(4) 0.4178(3)
C19G C 0.0686(6) 0.3923(5) 0.4446(5)
C20G C 0.0385(6) 0.3709(6) 0.4868(5)
H16G H 0.0576 0.3385 0.5047
C21G C -0.0158(7) 0.3937(7) 0.5036(6)
H17G H -0.0368 0.3780 0.5325
C22G C -0.0412(6) 0.4429(8) 0.4759(5)
H18G H -0.0801 0.4613 0.4864
C23G C -0.0108(6) 0.4634(7) 0.4355(5)
H19G H -0.0283 0.4971 0.4181
C50G C 0.3598(18) 0.4525(17) 0.1688(14)
C56G C 0.3144(16) 0.5242(14) 0.1378(7)
C57G C 0.3359(14) 0.4683(12) 0.1215(9)
N7G N 0.3307(14) 0.4525(9) 0.0711(11)
C58G C 0.3039(13) 0.4927(11) 0.0369(7)
C59G C 0.2823(12) 0.5487(10) 0.0532(9)
C60G C 0.2876(15) 0.5645(10) 0.1037(10)
loop_
_geom_bond_atom_site_label_1
_geom_bond_atom_site_label_2
_geom_bond_site_symmetry_1
_geom_bond_site_symmetry_2
Pd1 Cl1 1_555 1_555
O1 C4 1_555 1_555
C1 H1 1_555 1_555
H2 C1 1_555 1_555
O2 C5 1_555 1_555
C2 C1 1_555 1_555
O3 C11 1_555 1_555
C3 C2 1_555 1_555
H3 C3 1_555 1_555
Cl2 Pd1 1_555 1_555
C4 C3 1_555 1_555
C5 C4 1_555 1_555
C6 C5 1_555 1_555
H4 C6 1_555 1_555
C7 C2 1_555 1_555
C8 C7 1_555 1_555
H5 C8 1_555 1_555
H6 C8 1_555 1_555
C9 C8 1_555 1_555
C10 C9 1_555 1_555
H7 C10 1_555 1_555
C11 C10 1_555 1_555
C12 O2 1_555 1_555
H8 C12 1_555 1_555
H9 C12 1_555 1_555
C13 O3 1_555 1_555
H10 C13 1_555 1_555
H11 C13 1_555 1_555
N1 Pd1 1_555 1_555
C14 C12 1_555 1_555
C15 C14 1_555 1_555
H12 C15 1_555 1_555
C16 C15 1_555 1_555
H13 C16 1_555 1_555
C17 C16 1_555 1_555
H14 C17 1_555 1_555
C18 N1 1_555 1_555
H15 C18 1_555 1_555
N2 Pd1 1_555 1_555
C19 C13 1_555 1_555
C20 C19 1_555 1_555
H16 C20 1_555 1_555
C21 C20 1_555 1_555
H17 C21 1_555 1_555
C22 C21 1_555 1_555
H18 C22 1_555 1_555
C23 N2 1_555 1_555
H19 C23 1_555 1_555
C50 O1 1_555 1_555
C56 C57 1_555 1_555
C57 C50 1_555 1_555
N7 C57 1_555 1_555
C58 N7 1_555 1_555
C59 C58 1_555 1_555
C60 C56 1_555 1_555
Pd1G Cl1G 1_555 1_555
O1G C4G 1_555 1_555
O2G C5G 1_555 1_555
C2G C1 1_555 1_555
O3G C11G 1_555 1_555
C3G C2G 1_555 1_555
H3G C3G 1_555 1_555
Cl2G Pd1G 1_555 1_555
C4G C3G 1_555 1_555
C5G C4G 1_555 1_555
C6G C5G 1_555 1_555
H4G C6G 1_555 1_555
C7G C2G 1_555 1_555
C8G C7G 1_555 1_555
H5G C8G 1_555 1_555
H6G C8G 1_555 1_555
C9G C9 1_555 1_555
C10G C9G 1_555 1_555
H7G C10G 1_555 1_555
C11G C11 1_555 1_555
C12G O2G 1_555 1_555
H8G C12G 1_555 1_555
H9G C12G 1_555 1_555
C13G O3G 1_555 1_555
H10G C13G 1_555 1_555
H11G C13G 1_555 1_555
N1G Pd1G 1_555 1_555
C14G C12G 1_555 1_555
C15G C14G 1_555 1_555
H12G C15G 1_555 1_555
C16G C15G 1_555 1_555
H13G C16G 1_555 1_555
C17G C16G 1_555 1_555
H14G C17G 1_555 1_555
C18G N1G 1_555 1_555
H15G C18G 1_555 1_555
N2G Pd1G 1_555 1_555
C19G C13G 1_555 1_555
C20G C19G 1_555 1_555
H16G C20G 1_555 1_555
C21G C20G 1_555 1_555
H17G C21G 1_555 1_555
C22G C21G 1_555 1_555
H18G C22G 1_555 1_555
C23G N2G 1_555 1_555
H19G C23G 1_555 1_555
C50G O1G 1_555 1_555
C56G C57G 1_555 1_555
C57G C50G 1_555 1_555
N7G C57G 1_555 1_555
C58G N7G 1_555 1_555
C59G C58G 1_555 1_555
C60G C56G 1_555 1_555
C6 C7 1_555 1_555
N1 C14 1_555 1_555
C17 C18 1_555 1_555
N2 C19 1_555 1_555
C22 C23 1_555 1_555
C59 C60 1_555 1_555
C6G C7G 1_555 1_555
C8G C9G 1_555 1_555
C10G C11G 1_555 1_555
N1G C14G 1_555 1_555
C17G C18G 1_555 1_555
N2G C19G 1_555 1_555
C22G C23G 1_555 1_555
C59G C60G 1_555 1_555

#END
