# generated using pymatgen
data_AgH162Pd6Au18C138(N36O37)2
_symmetry_space_group_name_H-M   'P 1'
_cell_length_a   14.43300000
_cell_length_b   18.90000000
_cell_length_c   34.65614972
_cell_angle_alpha   90.00000000
_cell_angle_beta   91.59388476
_cell_angle_gamma   90.00000000
_symmetry_Int_Tables_number   1
_chemical_formula_structural   AgH162Pd6Au18C138(N36O37)2
_chemical_formula_sum   'Ag2 H324 Pd12 Au36 C276 N144 O148'
_cell_volume   9449.97503927
_cell_formula_units_Z   2
loop_
 _symmetry_equiv_pos_site_id
 _symmetry_equiv_pos_as_xyz
  1  'x, y, z'
loop_
 _atom_site_type_symbol
 _atom_site_label
 _atom_site_symmetry_multiplicity
 _atom_site_fract_x
 _atom_site_fract_y
 _atom_site_fract_z
 _atom_site_occupancy
  Ag  Ag1  1  0.500000  0.500000  0.000000  1
  Ag  Ag2  1  0.000000  0.000000  0.500000  1
  H  H3  1  0.038200  0.500000  0.912800  1
  H  H4  1  0.961800  0.500000  0.087200  1
  H  H5  1  0.538200  0.000000  0.412800  1
  H  H6  1  0.461800  0.000000  0.587200  1
  H  H7  1  0.282100  0.302300  0.969200  1
  H  H8  1  0.717900  0.302300  0.030800  1
  H  H9  1  0.782100  0.802300  0.469200  1
  H  H10  1  0.217900  0.802300  0.530800  1
  H  H11  1  0.717900  0.697700  0.030800  1
  H  H12  1  0.282100  0.697700  0.969200  1
  H  H13  1  0.217900  0.197700  0.530800  1
  H  H14  1  0.782100  0.197700  0.469200  1
  H  H15  1  0.323800  0.230800  0.987400  1
  H  H16  1  0.676200  0.230800  0.012600  1
  H  H17  1  0.823800  0.730800  0.487400  1
  H  H18  1  0.176200  0.730800  0.512600  1
  H  H19  1  0.676200  0.769200  0.012600  1
  H  H20  1  0.323800  0.769200  0.987400  1
  H  H21  1  0.176200  0.269200  0.512600  1
  H  H22  1  0.823800  0.269200  0.487400  1
  H  H23  1  0.297300  0.234600  0.942300  1
  H  H24  1  0.702700  0.234600  0.057700  1
  H  H25  1  0.797300  0.734600  0.442300  1
  H  H26  1  0.202700  0.734600  0.557700  1
  H  H27  1  0.702700  0.765400  0.057700  1
  H  H28  1  0.297300  0.765400  0.942300  1
  H  H29  1  0.202700  0.265400  0.557700  1
  H  H30  1  0.797300  0.265400  0.442300  1
  H  H31  1  0.632800  0.275600  0.942800  1
  H  H32  1  0.367200  0.275600  0.057200  1
  H  H33  1  0.132800  0.775600  0.442800  1
  H  H34  1  0.867200  0.775600  0.557200  1
  H  H35  1  0.367200  0.724400  0.057200  1
  H  H36  1  0.632800  0.724400  0.942800  1
  H  H37  1  0.867200  0.224400  0.557200  1
  H  H38  1  0.132800  0.224400  0.442800  1
  H  H39  1  0.501600  0.197300  0.959800  1
  H  H40  1  0.498400  0.197300  0.040200  1
  H  H41  1  0.001600  0.697300  0.459800  1
  H  H42  1  0.998400  0.697300  0.540200  1
  H  H43  1  0.498400  0.802700  0.040200  1
  H  H44  1  0.501600  0.802700  0.959800  1
  H  H45  1  0.998400  0.302700  0.540200  1
  H  H46  1  0.001600  0.302700  0.459800  1
  H  H47  1  0.222700  0.256600  0.960200  1
  H  H48  1  0.777300  0.256600  0.039800  1
  H  H49  1  0.722700  0.756600  0.460200  1
  H  H50  1  0.277300  0.756600  0.539800  1
  H  H51  1  0.777300  0.743400  0.039800  1
  H  H52  1  0.222700  0.743400  0.960200  1
  H  H53  1  0.277300  0.243400  0.539800  1
  H  H54  1  0.722700  0.243400  0.460200  1
  H  H55  1  0.333100  0.263600  0.960500  1
  H  H56  1  0.666900  0.263600  0.039500  1
  H  H57  1  0.833100  0.763600  0.460500  1
  H  H58  1  0.166900  0.763600  0.539500  1
  H  H59  1  0.666900  0.736400  0.039500  1
  H  H60  1  0.333100  0.736400  0.960500  1
  H  H61  1  0.166900  0.236400  0.539500  1
  H  H62  1  0.833100  0.236400  0.460500  1
  H  H63  1  0.280200  0.256500  0.000300  1
  H  H64  1  0.719800  0.256500  0.999700  1
  H  H65  1  0.780200  0.756500  0.500300  1
  H  H66  1  0.219800  0.756500  0.499700  1
  H  H67  1  0.719800  0.743500  0.999700  1
  H  H68  1  0.280200  0.743500  0.000300  1
  H  H69  1  0.219800  0.243500  0.499700  1
  H  H70  1  0.780200  0.243500  0.500300  1
  H  H71  1  0.172900  0.499300  0.996800  1
  H  H72  1  0.827100  0.499300  0.003200  1
  H  H73  1  0.672900  0.999300  0.496800  1
  H  H74  1  0.327100  0.999300  0.503200  1
  H  H75  1  0.827100  0.500700  0.003200  1
  H  H76  1  0.172900  0.500700  0.996800  1
  H  H77  1  0.327100  0.000700  0.503200  1
  H  H78  1  0.672900  0.000700  0.496800  1
  H  H79  1  0.144800  0.370200  0.003900  1
  H  H80  1  0.855200  0.370200  0.996100  1
  H  H81  1  0.644800  0.870200  0.503900  1
  H  H82  1  0.355200  0.870200  0.496100  1
  H  H83  1  0.855200  0.629800  0.996100  1
  H  H84  1  0.144800  0.629800  0.003900  1
  H  H85  1  0.355200  0.129800  0.496100  1
  H  H86  1  0.644800  0.129800  0.503900  1
  H  H87  1  0.648900  0.274800  0.942800  1
  H  H88  1  0.351100  0.274800  0.057200  1
  H  H89  1  0.148900  0.774800  0.442800  1
  H  H90  1  0.851100  0.774800  0.557200  1
  H  H91  1  0.351100  0.725200  0.057200  1
  H  H92  1  0.648900  0.725200  0.942800  1
  H  H93  1  0.851100  0.225200  0.557200  1
  H  H94  1  0.148900  0.225200  0.442800  1
  H  H95  1  0.802100  0.330700  0.932300  1
  H  H96  1  0.197900  0.330700  0.067700  1
  H  H97  1  0.302100  0.830700  0.432300  1
  H  H98  1  0.697900  0.830700  0.567700  1
  H  H99  1  0.197900  0.669300  0.067700  1
  H  H100  1  0.802100  0.669300  0.932300  1
  H  H101  1  0.697900  0.169300  0.567700  1
  H  H102  1  0.302100  0.169300  0.432300  1
  H  H103  1  0.822000  0.475200  0.890000  1
  H  H104  1  0.178000  0.475200  0.110000  1
  H  H105  1  0.322000  0.975200  0.390000  1
  H  H106  1  0.678000  0.975200  0.610000  1
  H  H107  1  0.178000  0.524800  0.110000  1
  H  H108  1  0.822000  0.524800  0.890000  1
  H  H109  1  0.678000  0.024800  0.610000  1
  H  H110  1  0.322000  0.024800  0.390000  1
  H  H111  1  0.782900  0.525500  0.922900  1
  H  H112  1  0.217100  0.525500  0.077100  1
  H  H113  1  0.282900  0.025500  0.422900  1
  H  H114  1  0.717100  0.025500  0.577100  1
  H  H115  1  0.217100  0.474500  0.077100  1
  H  H116  1  0.782900  0.474500  0.922900  1
  H  H117  1  0.717100  0.974500  0.577100  1
  H  H118  1  0.282900  0.974500  0.422900  1
  H  H119  1  0.860200  0.467500  0.933600  1
  H  H120  1  0.139800  0.467500  0.066400  1
  H  H121  1  0.360200  0.967500  0.433600  1
  H  H122  1  0.639800  0.967500  0.566400  1
  H  H123  1  0.139800  0.532500  0.066400  1
  H  H124  1  0.860200  0.532500  0.933600  1
  H  H125  1  0.639800  0.032500  0.566400  1
  H  H126  1  0.360200  0.032500  0.433600  1
  H  H127  1  0.692600  0.437200  0.790400  1.0
  H  H128  1  0.307400  0.437200  0.209600  1.0
  H  H129  1  0.192600  0.937200  0.290400  1.0
  H  H130  1  0.807400  0.937200  0.709600  1.0
  H  H131  1  0.307400  0.562800  0.209600  1.0
  H  H132  1  0.692600  0.562800  0.790400  1.0
  H  H133  1  0.807400  0.062800  0.709600  1.0
  H  H134  1  0.192600  0.062800  0.290400  1.0
  H  H135  1  0.758000  0.288800  0.870800  1.0
  H  H136  1  0.242000  0.288800  0.129200  1.0
  H  H137  1  0.258000  0.788800  0.370800  1.0
  H  H138  1  0.742000  0.788800  0.629200  1.0
  H  H139  1  0.242000  0.711200  0.129200  1.0
  H  H140  1  0.758000  0.711200  0.870800  1.0
  H  H141  1  0.742000  0.211200  0.629200  1.0
  H  H142  1  0.258000  0.211200  0.370800  1.0
  H  H143  1  0.914400  0.314900  0.861100  1.0
  H  H144  1  0.085600  0.314900  0.138900  1.0
  H  H145  1  0.414400  0.814900  0.361100  1.0
  H  H146  1  0.585600  0.814900  0.638900  1.0
  H  H147  1  0.085600  0.685100  0.138900  1.0
  H  H148  1  0.914400  0.685100  0.861100  1.0
  H  H149  1  0.585600  0.185100  0.638900  1.0
  H  H150  1  0.414400  0.185100  0.361100  1.0
  H  H151  1  0.956400  0.401900  0.818600  1.0
  H  H152  1  0.043600  0.401900  0.181400  1.0
  H  H153  1  0.456400  0.901900  0.318600  1.0
  H  H154  1  0.543600  0.901900  0.681400  1.0
  H  H155  1  0.043600  0.598100  0.181400  1.0
  H  H156  1  0.956400  0.598100  0.818600  1.0
  H  H157  1  0.543600  0.098100  0.681400  1.0
  H  H158  1  0.456400  0.098100  0.318600  1.0
  H  H159  1  0.306400  0.268500  0.821200  1.0
  H  H160  1  0.693600  0.268500  0.178800  1.0
  H  H161  1  0.806400  0.768500  0.321200  1.0
  H  H162  1  0.193600  0.768500  0.678800  1.0
  H  H163  1  0.693600  0.731500  0.178800  1.0
  H  H164  1  0.306400  0.731500  0.821200  1.0
  H  H165  1  0.193600  0.231500  0.678800  1.0
  H  H166  1  0.806400  0.231500  0.321200  1.0
  H  H167  1  0.493700  0.170200  0.891400  1.0
  H  H168  1  0.506300  0.170200  0.108600  1.0
  H  H169  1  0.993700  0.670200  0.391400  1.0
  H  H170  1  0.006300  0.670200  0.608600  1.0
  H  H171  1  0.506300  0.829800  0.108600  1.0
  H  H172  1  0.493700  0.829800  0.891400  1.0
  H  H173  1  0.006300  0.329800  0.608600  1.0
  H  H174  1  0.993700  0.329800  0.391400  1.0
  H  H175  1  0.390000  0.078500  0.898400  1.0
  H  H176  1  0.610000  0.078500  0.101600  1.0
  H  H177  1  0.890000  0.578500  0.398400  1.0
  H  H178  1  0.110000  0.578500  0.601600  1.0
  H  H179  1  0.610000  0.921500  0.101600  1.0
  H  H180  1  0.390000  0.921500  0.898400  1.0
  H  H181  1  0.110000  0.421500  0.601600  1.0
  H  H182  1  0.890000  0.421500  0.398400  1.0
  H  H183  1  0.245400  0.084300  0.867700  1.0
  H  H184  1  0.754600  0.084300  0.132300  1.0
  H  H185  1  0.745400  0.584300  0.367700  1.0
  H  H186  1  0.254600  0.584300  0.632300  1.0
  H  H187  1  0.754600  0.915700  0.132300  1.0
  H  H188  1  0.245400  0.915700  0.867700  1.0
  H  H189  1  0.254600  0.415700  0.632300  1.0
  H  H190  1  0.745400  0.415700  0.367700  1.0
  H  H191  1  0.163900  0.336100  0.840300  1.0
  H  H192  1  0.836100  0.336100  0.159700  1.0
  H  H193  1  0.663900  0.836100  0.340300  1.0
  H  H194  1  0.336100  0.836100  0.659700  1.0
  H  H195  1  0.836100  0.663900  0.159700  1.0
  H  H196  1  0.163900  0.663900  0.840300  1.0
  H  H197  1  0.336100  0.163900  0.659700  1.0
  H  H198  1  0.663900  0.163900  0.340300  1.0
  H  H199  1  0.058200  0.373200  0.944800  1.0
  H  H200  1  0.941800  0.373200  0.055200  1.0
  H  H201  1  0.558200  0.873200  0.444800  1.0
  H  H202  1  0.441800  0.873200  0.555200  1.0
  H  H203  1  0.941800  0.626800  0.055200  1.0
  H  H204  1  0.058200  0.626800  0.944800  1.0
  H  H205  1  0.441800  0.126800  0.555200  1.0
  H  H206  1  0.558200  0.126800  0.444800  1.0
  H  H207  1  0.018500  0.254300  0.948300  1.0
  H  H208  1  0.981500  0.254300  0.051700  1.0
  H  H209  1  0.518500  0.754300  0.448300  1.0
  H  H210  1  0.481500  0.754300  0.551700  1.0
  H  H211  1  0.981500  0.745700  0.051700  1.0
  H  H212  1  0.018500  0.745700  0.948300  1.0
  H  H213  1  0.481500  0.245700  0.551700  1.0
  H  H214  1  0.518500  0.245700  0.448300  1.0
  H  H215  1  0.044200  0.180500  0.896300  1.0
  H  H216  1  0.955800  0.180500  0.103700  1.0
  H  H217  1  0.544200  0.680500  0.396300  1.0
  H  H218  1  0.455800  0.680500  0.603700  1.0
  H  H219  1  0.955800  0.819500  0.103700  1.0
  H  H220  1  0.044200  0.819500  0.896300  1.0
  H  H221  1  0.455800  0.319500  0.603700  1.0
  H  H222  1  0.544200  0.319500  0.396300  1.0
  H  H223  1  0.607600  0.233100  0.843000  1.0
  H  H224  1  0.392400  0.233100  0.157000  1.0
  H  H225  1  0.107600  0.733100  0.343000  1.0
  H  H226  1  0.892400  0.733100  0.657000  1.0
  H  H227  1  0.392400  0.766900  0.157000  1.0
  H  H228  1  0.607600  0.766900  0.843000  1.0
  H  H229  1  0.892400  0.266900  0.657000  1.0
  H  H230  1  0.107600  0.266900  0.343000  1.0
  H  H231  1  0.209100  0.134800  0.761100  1.0
  H  H232  1  0.790900  0.134800  0.238900  1.0
  H  H233  1  0.709100  0.634800  0.261100  1.0
  H  H234  1  0.290900  0.634800  0.738900  1.0
  H  H235  1  0.790900  0.865200  0.238900  1.0
  H  H236  1  0.209100  0.865200  0.761100  1.0
  H  H237  1  0.290900  0.365200  0.738900  1.0
  H  H238  1  0.709100  0.365200  0.261100  1.0
  H  H239  1  0.170200  0.070500  0.786200  1.0
  H  H240  1  0.829800  0.070500  0.213800  1.0
  H  H241  1  0.670200  0.570500  0.286200  1.0
  H  H242  1  0.329800  0.570500  0.713800  1.0
  H  H243  1  0.829800  0.929500  0.213800  1.0
  H  H244  1  0.170200  0.929500  0.786200  1.0
  H  H245  1  0.329800  0.429500  0.713800  1.0
  H  H246  1  0.670200  0.429500  0.286200  1.0
  H  H247  1  0.089800  0.133200  0.725000  1.0
  H  H248  1  0.910200  0.133200  0.275000  1.0
  H  H249  1  0.589800  0.633200  0.225000  1.0
  H  H250  1  0.410200  0.633200  0.775000  1.0
  H  H251  1  0.910200  0.866800  0.275000  1.0
  H  H252  1  0.089800  0.866800  0.725000  1.0
  H  H253  1  0.410200  0.366800  0.775000  1.0
  H  H254  1  0.589800  0.366800  0.225000  1.0
  H  H255  1  0.056200  0.064500  0.747300  1.0
  H  H256  1  0.943800  0.064500  0.252700  1.0
  H  H257  1  0.556200  0.564500  0.247300  1.0
  H  H258  1  0.443800  0.564500  0.752700  1.0
  H  H259  1  0.943800  0.935500  0.252700  1.0
  H  H260  1  0.056200  0.935500  0.747300  1.0
  H  H261  1  0.443800  0.435500  0.752700  1.0
  H  H262  1  0.556200  0.435500  0.247300  1.0
  H  H263  1  0.951500  0.111900  0.764500  1.0
  H  H264  1  0.048500  0.111900  0.235500  1.0
  H  H265  1  0.451500  0.611900  0.264500  1.0
  H  H266  1  0.548500  0.611900  0.735500  1.0
  H  H267  1  0.048500  0.888100  0.235500  1.0
  H  H268  1  0.951500  0.888100  0.764500  1.0
  H  H269  1  0.548500  0.388100  0.735500  1.0
  H  H270  1  0.451500  0.388100  0.264500  1.0
  H  H271  1  0.979700  0.177600  0.738700  1.0
  H  H272  1  0.020300  0.177600  0.261300  1.0
  H  H273  1  0.479700  0.677600  0.238700  1.0
  H  H274  1  0.520300  0.677600  0.761300  1.0
  H  H275  1  0.020300  0.822400  0.261300  1.0
  H  H276  1  0.979700  0.822400  0.738700  1.0
  H  H277  1  0.520300  0.322400  0.761300  1.0
  H  H278  1  0.479700  0.322400  0.238700  1.0
  H  H279  1  0.956100  0.176800  0.813100  1.0
  H  H280  1  0.043900  0.176800  0.186900  1.0
  H  H281  1  0.456100  0.676800  0.313100  1.0
  H  H282  1  0.543900  0.676800  0.686900  1.0
  H  H283  1  0.043900  0.823200  0.186900  1.0
  H  H284  1  0.956100  0.823200  0.813100  1.0
  H  H285  1  0.543900  0.323200  0.686900  1.0
  H  H286  1  0.456100  0.323200  0.313100  1.0
  H  H287  1  0.989700  0.242200  0.787400  1.0
  H  H288  1  0.010300  0.242200  0.212600  1.0
  H  H289  1  0.489700  0.742200  0.287400  1.0
  H  H290  1  0.510300  0.742200  0.712600  1.0
  H  H291  1  0.010300  0.757800  0.212600  1.0
  H  H292  1  0.989700  0.757800  0.787400  1.0
  H  H293  1  0.510300  0.257800  0.712600  1.0
  H  H294  1  0.489700  0.257800  0.287400  1.0
  H  H295  1  0.958200  0.395900  0.736100  1.0
  H  H296  1  0.041800  0.395900  0.263900  1.0
  H  H297  1  0.458200  0.895900  0.236100  1.0
  H  H298  1  0.541800  0.895900  0.763900  1.0
  H  H299  1  0.041800  0.604100  0.263900  1.0
  H  H300  1  0.958200  0.604100  0.736100  1.0
  H  H301  1  0.541800  0.104100  0.763900  1.0
  H  H302  1  0.458200  0.104100  0.236100  1.0
  H  H303  1  0.859200  0.399100  0.713800  1.0
  H  H304  1  0.140800  0.399100  0.286200  1.0
  H  H305  1  0.359200  0.899100  0.213800  1.0
  H  H306  1  0.640800  0.899100  0.786200  1.0
  H  H307  1  0.140800  0.600900  0.286200  1.0
  H  H308  1  0.859200  0.600900  0.713800  1.0
  H  H309  1  0.640800  0.100900  0.786200  1.0
  H  H310  1  0.359200  0.100900  0.213800  1.0
  H  H311  1  0.019000  0.450000  0.690800  1.0
  H  H312  1  0.981000  0.450000  0.309200  1.0
  H  H313  1  0.519000  0.950000  0.190800  1.0
  H  H314  1  0.481000  0.950000  0.809200  1.0
  H  H315  1  0.981000  0.550000  0.309200  1.0
  H  H316  1  0.019000  0.550000  0.690800  1.0
  H  H317  1  0.481000  0.050000  0.809200  1.0
  H  H318  1  0.519000  0.050000  0.190800  1.0
  H  H319  1  0.922000  0.450000  0.667800  1.0
  H  H320  1  0.078000  0.450000  0.332200  1.0
  H  H321  1  0.422000  0.950000  0.167800  1.0
  H  H322  1  0.578000  0.950000  0.832200  1.0
  H  H323  1  0.078000  0.550000  0.332200  1.0
  H  H324  1  0.922000  0.550000  0.667800  1.0
  H  H325  1  0.578000  0.050000  0.832200  1.0
  H  H326  1  0.422000  0.050000  0.167800  1.0
  Pd  Pd327  1  0.867840  0.500000  0.762220  1
  Pd  Pd328  1  0.132160  0.500000  0.237780  1
  Pd  Pd329  1  0.367840  0.000000  0.262220  1
  Pd  Pd330  1  0.632160  0.000000  0.737780  1
  Pd  Pd331  1  0.132300  0.185600  0.819880  1.0
  Pd  Pd332  1  0.867700  0.185600  0.180120  1.0
  Pd  Pd333  1  0.632300  0.685600  0.319880  1.0
  Pd  Pd334  1  0.367700  0.685600  0.680120  1.0
  Pd  Pd335  1  0.867700  0.814400  0.180120  1.0
  Pd  Pd336  1  0.132300  0.814400  0.819880  1.0
  Pd  Pd337  1  0.367700  0.314400  0.680120  1.0
  Pd  Pd338  1  0.632300  0.314400  0.319880  1.0
  Au  Au339  1  0.541030  0.500000  0.841910  1
  Au  Au340  1  0.458970  0.500000  0.158090  1
  Au  Au341  1  0.041030  0.000000  0.341910  1
  Au  Au342  1  0.958970  0.000000  0.658090  1
  Au  Au343  1  0.357420  0.441540  0.956720  1
  Au  Au344  1  0.642580  0.441540  0.043280  1
  Au  Au345  1  0.857420  0.941540  0.456720  1
  Au  Au346  1  0.142580  0.941540  0.543280  1
  Au  Au347  1  0.642580  0.558460  0.043280  1
  Au  Au348  1  0.357420  0.558460  0.956720  1
  Au  Au349  1  0.142580  0.058460  0.543280  1
  Au  Au350  1  0.857420  0.058460  0.456720  1
  Au  Au351  1  0.588760  0.457550  0.932360  1
  Au  Au352  1  0.411240  0.457550  0.067640  1
  Au  Au353  1  0.088760  0.957550  0.432360  1
  Au  Au354  1  0.911240  0.957550  0.567640  1
  Au  Au355  1  0.411240  0.542450  0.067640  1
  Au  Au356  1  0.588760  0.542450  0.932360  1
  Au  Au357  1  0.911240  0.042450  0.567640  1
  Au  Au358  1  0.088760  0.042450  0.432360  1
  Au  Au359  1  0.458300  0.389230  0.945900  1
  Au  Au360  1  0.541700  0.389230  0.054100  1
  Au  Au361  1  0.958300  0.889230  0.445900  1
  Au  Au362  1  0.041700  0.889230  0.554100  1
  Au  Au363  1  0.541700  0.610770  0.054100  1
  Au  Au364  1  0.458300  0.610770  0.945900  1
  Au  Au365  1  0.041700  0.110770  0.554100  1
  Au  Au366  1  0.958300  0.110770  0.445900  1
  Au  Au367  1  0.344050  0.411050  0.860850  1.0
  Au  Au368  1  0.655950  0.411050  0.139150  1.0
  Au  Au369  1  0.844050  0.911050  0.360850  1.0
  Au  Au370  1  0.155950  0.911050  0.639150  1.0
  Au  Au371  1  0.655950  0.588950  0.139150  1.0
  Au  Au372  1  0.344050  0.588950  0.860850  1.0
  Au  Au373  1  0.155950  0.088950  0.639150  1.0
  Au  Au374  1  0.844050  0.088950  0.360850  1.0
  C  C375  1  0.096000  0.500000  0.900000  1
  C  C376  1  0.904000  0.500000  0.100000  1
  C  C377  1  0.596000  0.000000  0.400000  1
  C  C378  1  0.404000  0.000000  0.600000  1
  C  C379  1  0.321600  0.261000  0.964600  1
  C  C380  1  0.678400  0.261000  0.035400  1
  C  C381  1  0.821600  0.761000  0.464600  1
  C  C382  1  0.178400  0.761000  0.535400  1
  C  C383  1  0.678400  0.739000  0.035400  1
  C  C384  1  0.321600  0.739000  0.964600  1
  C  C385  1  0.178400  0.239000  0.535400  1
  C  C386  1  0.821600  0.239000  0.464600  1
  C  C387  1  0.569700  0.289000  0.945700  1
  C  C388  1  0.430300  0.289000  0.054300  1
  C  C389  1  0.069700  0.789000  0.445700  1
  C  C390  1  0.930300  0.789000  0.554300  1
  C  C391  1  0.430300  0.711000  0.054300  1
  C  C392  1  0.569700  0.711000  0.945700  1
  C  C393  1  0.930300  0.211000  0.554300  1
  C  C394  1  0.069700  0.211000  0.445700  1
  C  C395  1  0.497100  0.246800  0.955100  1
  C  C396  1  0.502900  0.246800  0.044900  1
  C  C397  1  0.997100  0.746800  0.455100  1
  C  C398  1  0.002900  0.746800  0.544900  1
  C  C399  1  0.502900  0.753200  0.044900  1
  C  C400  1  0.497100  0.753200  0.955100  1
  C  C401  1  0.002900  0.253200  0.544900  1
  C  C402  1  0.997100  0.253200  0.455100  1
  C  C403  1  0.443100  0.351500  0.948100  1
  C  C404  1  0.556900  0.351500  0.051900  1
  C  C405  1  0.943100  0.851500  0.448100  1
  C  C406  1  0.056900  0.851500  0.551900  1
  C  C407  1  0.556900  0.648500  0.051900  1
  C  C408  1  0.443100  0.648500  0.948100  1
  C  C409  1  0.056900  0.148500  0.551900  1
  C  C410  1  0.943100  0.148500  0.448100  1
  C  C411  1  0.277100  0.276100  0.974100  1
  C  C412  1  0.722900  0.276100  0.025900  1
  C  C413  1  0.777100  0.776100  0.474100  1
  C  C414  1  0.222900  0.776100  0.525900  1
  C  C415  1  0.722900  0.723900  0.025900  1
  C  C416  1  0.277100  0.723900  0.974100  1
  C  C417  1  0.222900  0.223900  0.525900  1
  C  C418  1  0.777100  0.223900  0.474100  1
  C  C419  1  0.211400  0.462100  0.988400  1
  C  C420  1  0.788600  0.462100  0.011600  1
  C  C421  1  0.711400  0.962100  0.488400  1
  C  C422  1  0.288600  0.962100  0.511600  1
  C  C423  1  0.788600  0.537900  0.011600  1
  C  C424  1  0.211400  0.537900  0.988400  1
  C  C425  1  0.288600  0.037900  0.511600  1
  C  C426  1  0.711400  0.037900  0.488400  1
  C  C427  1  0.197100  0.391000  0.992100  1
  C  C428  1  0.802900  0.391000  0.007900  1
  C  C429  1  0.697100  0.891000  0.492100  1
  C  C430  1  0.302900  0.891000  0.507900  1
  C  C431  1  0.802900  0.609000  0.007900  1
  C  C432  1  0.197100  0.609000  0.992100  1
  C  C433  1  0.302900  0.109000  0.507900  1
  C  C434  1  0.697100  0.109000  0.492100  1
  C  C435  1  0.325300  0.402900  0.963300  1
  C  C436  1  0.674700  0.402900  0.036700  1
  C  C437  1  0.825300  0.902900  0.463300  1
  C  C438  1  0.174700  0.902900  0.536700  1
  C  C439  1  0.674700  0.597100  0.036700  1
  C  C440  1  0.325300  0.597100  0.963300  1
  C  C441  1  0.174700  0.097100  0.536700  1
  C  C442  1  0.825300  0.097100  0.463300  1
  C  C443  1  0.660500  0.323000  0.937500  1
  C  C444  1  0.339500  0.323000  0.062500  1
  C  C445  1  0.160500  0.823000  0.437500  1
  C  C446  1  0.839500  0.823000  0.562500  1
  C  C447  1  0.339500  0.677000  0.062500  1
  C  C448  1  0.660500  0.677000  0.937500  1
  C  C449  1  0.839500  0.177000  0.562500  1
  C  C450  1  0.160500  0.177000  0.437500  1
  C  C451  1  0.744000  0.355000  0.932000  1
  C  C452  1  0.256000  0.355000  0.068000  1
  C  C453  1  0.244000  0.855000  0.432000  1
  C  C454  1  0.756000  0.855000  0.568000  1
  C  C455  1  0.256000  0.645000  0.068000  1
  C  C456  1  0.744000  0.645000  0.932000  1
  C  C457  1  0.756000  0.145000  0.568000  1
  C  C458  1  0.244000  0.145000  0.432000  1
  C  C459  1  0.642000  0.436000  0.927000  1
  C  C460  1  0.358000  0.436000  0.073000  1
  C  C461  1  0.142000  0.936000  0.427000  1
  C  C462  1  0.858000  0.936000  0.573000  1
  C  C463  1  0.358000  0.564000  0.073000  1
  C  C464  1  0.642000  0.564000  0.927000  1
  C  C465  1  0.858000  0.064000  0.573000  1
  C  C466  1  0.142000  0.064000  0.427000  1
  C  C467  1  0.805200  0.478000  0.917200  1
  C  C468  1  0.194800  0.478000  0.082800  1
  C  C469  1  0.305200  0.978000  0.417200  1
  C  C470  1  0.694800  0.978000  0.582800  1
  C  C471  1  0.194800  0.522000  0.082800  1
  C  C472  1  0.805200  0.522000  0.917200  1
  C  C473  1  0.694800  0.022000  0.582800  1
  C  C474  1  0.305200  0.022000  0.417200  1
  C  C475  1  0.737700  0.411400  0.805100  1.0
  C  C476  1  0.262300  0.411400  0.194900  1.0
  C  C477  1  0.237700  0.911400  0.305100  1.0
  C  C478  1  0.762300  0.911400  0.694900  1.0
  C  C479  1  0.262300  0.588600  0.194900  1.0
  C  C480  1  0.737700  0.588600  0.805100  1.0
  C  C481  1  0.762300  0.088600  0.694900  1.0
  C  C482  1  0.237700  0.088600  0.305100  1.0
  C  C483  1  0.708100  0.360300  0.831500  1.0
  C  C484  1  0.291900  0.360300  0.168500  1.0
  C  C485  1  0.208100  0.860300  0.331500  1.0
  C  C486  1  0.791900  0.860300  0.668500  1.0
  C  C487  1  0.291900  0.639700  0.168500  1.0
  C  C488  1  0.708100  0.639700  0.831500  1.0
  C  C489  1  0.791900  0.139700  0.668500  1.0
  C  C490  1  0.208100  0.139700  0.331500  1.0
  C  C491  1  0.774700  0.323900  0.852700  1.0
  C  C492  1  0.225300  0.323900  0.147300  1.0
  C  C493  1  0.274700  0.823900  0.352700  1.0
  C  C494  1  0.725300  0.823900  0.647300  1.0
  C  C495  1  0.225300  0.676100  0.147300  1.0
  C  C496  1  0.774700  0.676100  0.852700  1.0
  C  C497  1  0.725300  0.176100  0.647300  1.0
  C  C498  1  0.274700  0.176100  0.352700  1.0
  C  C499  1  0.867900  0.340000  0.846900  1.0
  C  C500  1  0.132100  0.340000  0.153100  1.0
  C  C501  1  0.367900  0.840000  0.346900  1.0
  C  C502  1  0.632100  0.840000  0.653100  1.0
  C  C503  1  0.132100  0.660000  0.153100  1.0
  C  C504  1  0.867900  0.660000  0.846900  1.0
  C  C505  1  0.632100  0.160000  0.653100  1.0
  C  C506  1  0.367900  0.160000  0.346900  1.0
  C  C507  1  0.892800  0.390500  0.821400  1.0
  C  C508  1  0.107200  0.390500  0.178600  1.0
  C  C509  1  0.392800  0.890500  0.321400  1.0
  C  C510  1  0.607200  0.890500  0.678600  1.0
  C  C511  1  0.107200  0.609500  0.178600  1.0
  C  C512  1  0.892800  0.609500  0.821400  1.0
  C  C513  1  0.607200  0.109500  0.678600  1.0
  C  C514  1  0.392800  0.109500  0.321400  1.0
  C  C515  1  0.324500  0.230200  0.837600  1.0
  C  C516  1  0.675500  0.230200  0.162400  1.0
  C  C517  1  0.824500  0.730200  0.337600  1.0
  C  C518  1  0.175500  0.730200  0.662400  1.0
  C  C519  1  0.675500  0.769800  0.162400  1.0
  C  C520  1  0.324500  0.769800  0.837600  1.0
  C  C521  1  0.175500  0.269800  0.662400  1.0
  C  C522  1  0.824500  0.269800  0.337600  1.0
  C  C523  1  0.413100  0.230700  0.854300  1.0
  C  C524  1  0.586900  0.230700  0.145700  1.0
  C  C525  1  0.913100  0.730700  0.354300  1.0
  C  C526  1  0.086900  0.730700  0.645700  1.0
  C  C527  1  0.586900  0.769300  0.145700  1.0
  C  C528  1  0.413100  0.769300  0.854300  1.0
  C  C529  1  0.086900  0.269300  0.645700  1.0
  C  C530  1  0.913100  0.269300  0.354300  1.0
  C  C531  1  0.435100  0.172000  0.878300  1.0
  C  C532  1  0.564900  0.172000  0.121700  1.0
  C  C533  1  0.935100  0.672000  0.378300  1.0
  C  C534  1  0.064900  0.672000  0.621700  1.0
  C  C535  1  0.564900  0.828000  0.121700  1.0
  C  C536  1  0.435100  0.828000  0.878300  1.0
  C  C537  1  0.064900  0.328000  0.621700  1.0
  C  C538  1  0.935100  0.328000  0.378300  1.0
  C  C539  1  0.373900  0.118300  0.882900  1.0
  C  C540  1  0.626100  0.118300  0.117100  1.0
  C  C541  1  0.873900  0.618300  0.382900  1.0
  C  C542  1  0.126100  0.618300  0.617100  1.0
  C  C543  1  0.626100  0.881700  0.117100  1.0
  C  C544  1  0.373900  0.881700  0.882900  1.0
  C  C545  1  0.126100  0.381700  0.617100  1.0
  C  C546  1  0.873900  0.381700  0.382900  1.0
  C  C547  1  0.287800  0.122200  0.864800  1.0
  C  C548  1  0.712200  0.122200  0.135200  1.0
  C  C549  1  0.787800  0.622200  0.364800  1.0
  C  C550  1  0.212200  0.622200  0.635200  1.0
  C  C551  1  0.712200  0.877800  0.135200  1.0
  C  C552  1  0.287800  0.877800  0.864800  1.0
  C  C553  1  0.212200  0.377800  0.635200  1.0
  C  C554  1  0.787800  0.377800  0.364800  1.0
  C  C555  1  0.133100  0.320000  0.862500  1.0
  C  C556  1  0.866900  0.320000  0.137500  1.0
  C  C557  1  0.633100  0.820000  0.362500  1.0
  C  C558  1  0.366900  0.820000  0.637500  1.0
  C  C559  1  0.866900  0.680000  0.137500  1.0
  C  C560  1  0.133100  0.680000  0.862500  1.0
  C  C561  1  0.366900  0.180000  0.637500  1.0
  C  C562  1  0.633100  0.180000  0.362500  1.0
  C  C563  1  0.118800  0.368500  0.892600  1.0
  C  C564  1  0.881200  0.368500  0.107400  1.0
  C  C565  1  0.618800  0.868500  0.392600  1.0
  C  C566  1  0.381200  0.868500  0.607400  1.0
  C  C567  1  0.881200  0.631500  0.107400  1.0
  C  C568  1  0.118800  0.631500  0.892600  1.0
  C  C569  1  0.381200  0.131500  0.607400  1.0
  C  C570  1  0.618800  0.131500  0.392600  1.0
  C  C571  1  0.072200  0.342300  0.924200  1.0
  C  C572  1  0.927800  0.342300  0.075800  1.0
  C  C573  1  0.572200  0.842300  0.424200  1.0
  C  C574  1  0.427800  0.842300  0.575800  1.0
  C  C575  1  0.927800  0.657700  0.075800  1.0
  C  C576  1  0.072200  0.657700  0.924200  1.0
  C  C577  1  0.427800  0.157700  0.575800  1.0
  C  C578  1  0.572200  0.157700  0.424200  1.0
  C  C579  1  0.046900  0.272400  0.925900  1.0
  C  C580  1  0.953100  0.272400  0.074100  1.0
  C  C581  1  0.546900  0.772400  0.425900  1.0
  C  C582  1  0.453100  0.772400  0.574100  1.0
  C  C583  1  0.953100  0.727600  0.074100  1.0
  C  C584  1  0.046900  0.727600  0.925900  1.0
  C  C585  1  0.453100  0.227600  0.574100  1.0
  C  C586  1  0.546900  0.227600  0.425900  1.0
  C  C587  1  0.063500  0.228500  0.895000  1.0
  C  C588  1  0.936500  0.228500  0.105000  1.0
  C  C589  1  0.563500  0.728500  0.395000  1.0
  C  C590  1  0.436500  0.728500  0.605000  1.0
  C  C591  1  0.936500  0.771500  0.105000  1.0
  C  C592  1  0.063500  0.771500  0.895000  1.0
  C  C593  1  0.436500  0.271500  0.605000  1.0
  C  C594  1  0.563500  0.271500  0.395000  1.0
  C  C595  1  0.610800  0.346200  0.837500  1.0
  C  C596  1  0.389200  0.346200  0.162500  1.0
  C  C597  1  0.110800  0.846200  0.337500  1.0
  C  C598  1  0.889200  0.846200  0.662500  1.0
  C  C599  1  0.389200  0.653800  0.162500  1.0
  C  C600  1  0.610800  0.653800  0.837500  1.0
  C  C601  1  0.889200  0.153800  0.662500  1.0
  C  C602  1  0.110800  0.153800  0.337500  1.0
  C  C603  1  0.574600  0.276600  0.843100  1.0
  C  C604  1  0.425400  0.276600  0.156900  1.0
  C  C605  1  0.074600  0.776600  0.343100  1.0
  C  C606  1  0.925400  0.776600  0.656900  1.0
  C  C607  1  0.425400  0.723400  0.156900  1.0
  C  C608  1  0.574600  0.723400  0.843100  1.0
  C  C609  1  0.925400  0.223400  0.656900  1.0
  C  C610  1  0.074600  0.223400  0.343100  1.0
  C  C611  1  0.479900  0.286700  0.848900  1.0
  C  C612  1  0.520100  0.286700  0.151100  1.0
  C  C613  1  0.979900  0.786700  0.348900  1.0
  C  C614  1  0.020100  0.786700  0.651100  1.0
  C  C615  1  0.520100  0.713300  0.151100  1.0
  C  C616  1  0.479900  0.713300  0.848900  1.0
  C  C617  1  0.020100  0.213300  0.651100  1.0
  C  C618  1  0.979900  0.213300  0.348900  1.0
  C  C619  1  0.145200  0.442800  0.889000  1.0
  C  C620  1  0.854800  0.442800  0.111000  1.0
  C  C621  1  0.645200  0.942800  0.389000  1.0
  C  C622  1  0.354800  0.942800  0.611000  1.0
  C  C623  1  0.854800  0.557200  0.111000  1.0
  C  C624  1  0.145200  0.557200  0.889000  1.0
  C  C625  1  0.354800  0.057200  0.611000  1.0
  C  C626  1  0.645200  0.057200  0.389000  1.0
  C  C627  1  0.072700  0.115000  0.750700  1.0
  C  C628  1  0.927300  0.115000  0.249300  1.0
  C  C629  1  0.572700  0.615000  0.250700  1.0
  C  C630  1  0.427300  0.615000  0.749300  1.0
  C  C631  1  0.927300  0.885000  0.249300  1.0
  C  C632  1  0.072700  0.885000  0.750700  1.0
  C  C633  1  0.427300  0.385000  0.749300  1.0
  C  C634  1  0.572700  0.385000  0.250700  1.0
  C  C635  1  0.000800  0.148000  0.760800  1.0
  C  C636  1  0.999200  0.148000  0.239200  1.0
  C  C637  1  0.500800  0.648000  0.260800  1.0
  C  C638  1  0.499200  0.648000  0.739200  1.0
  C  C639  1  0.999200  0.852000  0.239200  1.0
  C  C640  1  0.000800  0.852000  0.760800  1.0
  C  C641  1  0.499200  0.352000  0.739200  1.0
  C  C642  1  0.500800  0.352000  0.260800  1.0
  C  C643  1  0.954000  0.466000  0.692000  1.0
  C  C644  1  0.046000  0.466000  0.308000  1.0
  C  C645  1  0.454000  0.966000  0.192000  1.0
  C  C646  1  0.546000  0.966000  0.808000  1.0
  C  C647  1  0.046000  0.534000  0.308000  1.0
  C  C648  1  0.954000  0.534000  0.692000  1.0
  C  C649  1  0.546000  0.034000  0.808000  1.0
  C  C650  1  0.454000  0.034000  0.192000  1.0
  N  N651  1  0.653900  0.500000  0.705900  1
  N  N652  1  0.346100  0.500000  0.294100  1
  N  N653  1  0.153900  0.000000  0.205900  1
  N  N654  1  0.846100  0.000000  0.794100  1
  N  N655  1  0.078800  0.000000  0.857800  1
  N  N656  1  0.921200  0.000000  0.142200  1
  N  N657  1  0.578800  0.500000  0.357800  1
  N  N658  1  0.421200  0.500000  0.642200  1
  N  N659  1  0.122200  0.348100  0.759700  1
  N  N660  1  0.877800  0.348100  0.240300  1
  N  N661  1  0.622200  0.848100  0.259700  1
  N  N662  1  0.377800  0.848100  0.740300  1
  N  N663  1  0.877800  0.651900  0.240300  1
  N  N664  1  0.122200  0.651900  0.759700  1
  N  N665  1  0.377800  0.151900  0.740300  1
  N  N666  1  0.622200  0.151900  0.259700  1
  N  N667  1  0.534500  0.356000  0.941500  1
  N  N668  1  0.465500  0.356000  0.058500  1
  N  N669  1  0.034500  0.856000  0.441500  1
  N  N670  1  0.965500  0.856000  0.558500  1
  N  N671  1  0.465500  0.644000  0.058500  1
  N  N672  1  0.534500  0.644000  0.941500  1
  N  N673  1  0.965500  0.144000  0.558500  1
  N  N674  1  0.034500  0.144000  0.441500  1
  N  N675  1  0.417500  0.286200  0.956500  1
  N  N676  1  0.582500  0.286200  0.043500  1
  N  N677  1  0.917500  0.786200  0.456500  1
  N  N678  1  0.082500  0.786200  0.543500  1
  N  N679  1  0.582500  0.713800  0.043500  1
  N  N680  1  0.417500  0.713800  0.956500  1
  N  N681  1  0.082500  0.213800  0.543500  1
  N  N682  1  0.917500  0.213800  0.456500  1
  N  N683  1  0.757500  0.287000  0.729500  1
  N  N684  1  0.242500  0.287000  0.270500  1
  N  N685  1  0.257500  0.787000  0.229500  1
  N  N686  1  0.742500  0.787000  0.770500  1
  N  N687  1  0.242500  0.713000  0.270500  1
  N  N688  1  0.757500  0.713000  0.729500  1
  N  N689  1  0.742500  0.213000  0.770500  1
  N  N690  1  0.257500  0.213000  0.229500  1
  N  N691  1  0.294000  0.468800  0.970000  1
  N  N692  1  0.706000  0.468800  0.030000  1
  N  N693  1  0.794000  0.968800  0.470000  1
  N  N694  1  0.206000  0.968800  0.530000  1
  N  N695  1  0.706000  0.531200  0.030000  1
  N  N696  1  0.294000  0.531200  0.970000  1
  N  N697  1  0.206000  0.031200  0.530000  1
  N  N698  1  0.794000  0.031200  0.470000  1
  N  N699  1  0.268200  0.354000  0.976200  1
  N  N700  1  0.731800  0.354000  0.023800  1
  N  N701  1  0.768200  0.854000  0.476200  1
  N  N702  1  0.231800  0.854000  0.523800  1
  N  N703  1  0.731800  0.646000  0.023800  1
  N  N704  1  0.268200  0.646000  0.976200  1
  N  N705  1  0.231800  0.146000  0.523800  1
  N  N706  1  0.768200  0.146000  0.476200  1
  N  N707  1  0.595300  0.376000  0.934300  1
  N  N708  1  0.404700  0.376000  0.065700  1
  N  N709  1  0.095300  0.876000  0.434300  1
  N  N710  1  0.904700  0.876000  0.565700  1
  N  N711  1  0.404700  0.624000  0.065700  1
  N  N712  1  0.595300  0.624000  0.934300  1
  N  N713  1  0.904700  0.124000  0.565700  1
  N  N714  1  0.095300  0.124000  0.434300  1
  N  N715  1  0.731800  0.426000  0.924800  1
  N  N716  1  0.268200  0.426000  0.075200  1
  N  N717  1  0.231800  0.926000  0.424800  1
  N  N718  1  0.768200  0.926000  0.575200  1
  N  N719  1  0.268200  0.574000  0.075200  1
  N  N720  1  0.731800  0.574000  0.924800  1
  N  N721  1  0.768200  0.074000  0.575200  1
  N  N722  1  0.231800  0.074000  0.424800  1
  N  N723  1  0.827400  0.424700  0.800000  1.0
  N  N724  1  0.172600  0.424700  0.200000  1.0
  N  N725  1  0.327400  0.924700  0.300000  1.0
  N  N726  1  0.672600  0.924700  0.700000  1.0
  N  N727  1  0.172600  0.575300  0.200000  1.0
  N  N728  1  0.827400  0.575300  0.800000  1.0
  N  N729  1  0.672600  0.075300  0.700000  1.0
  N  N730  1  0.327400  0.075300  0.300000  1.0
  N  N731  1  0.262600  0.177900  0.843400  1.0
  N  N732  1  0.737400  0.177900  0.156600  1.0
  N  N733  1  0.762600  0.677900  0.343400  1.0
  N  N734  1  0.237400  0.677900  0.656600  1.0
  N  N735  1  0.737400  0.822100  0.156600  1.0
  N  N736  1  0.262600  0.822100  0.843400  1.0
  N  N737  1  0.237400  0.322100  0.656600  1.0
  N  N738  1  0.762600  0.322100  0.343400  1.0
  N  N739  1  0.104700  0.250400  0.863700  1.0
  N  N740  1  0.895300  0.250400  0.136300  1.0
  N  N741  1  0.604700  0.750400  0.363700  1.0
  N  N742  1  0.395300  0.750400  0.636300  1.0
  N  N743  1  0.895300  0.749600  0.136300  1.0
  N  N744  1  0.104700  0.749600  0.863700  1.0
  N  N745  1  0.395300  0.249600  0.636300  1.0
  N  N746  1  0.604700  0.249600  0.363700  1.0
  N  N747  1  0.541400  0.394800  0.841600  1.0
  N  N748  1  0.458600  0.394800  0.158400  1.0
  N  N749  1  0.041400  0.894800  0.341600  1.0
  N  N750  1  0.958600  0.894800  0.658400  1.0
  N  N751  1  0.458600  0.605200  0.158400  1.0
  N  N752  1  0.541400  0.605200  0.841600  1.0
  N  N753  1  0.958600  0.105200  0.658400  1.0
  N  N754  1  0.041400  0.105200  0.341600  1.0
  N  N755  1  0.459300  0.356800  0.847100  1.0
  N  N756  1  0.540700  0.356800  0.152900  1.0
  N  N757  1  0.959300  0.856800  0.347100  1.0
  N  N758  1  0.040700  0.856800  0.652900  1.0
  N  N759  1  0.540700  0.643200  0.152900  1.0
  N  N760  1  0.459300  0.643200  0.847100  1.0
  N  N761  1  0.040700  0.143200  0.652900  1.0
  N  N762  1  0.959300  0.143200  0.347100  1.0
  N  N763  1  0.225900  0.463300  0.873800  1.0
  N  N764  1  0.774100  0.463300  0.126200  1.0
  N  N765  1  0.725900  0.963300  0.373800  1.0
  N  N766  1  0.274100  0.963300  0.626200  1.0
  N  N767  1  0.774100  0.536700  0.126200  1.0
  N  N768  1  0.225900  0.536700  0.873800  1.0
  N  N769  1  0.274100  0.036700  0.626200  1.0
  N  N770  1  0.725900  0.036700  0.373800  1.0
  N  N771  1  0.155600  0.118200  0.775900  1.0
  N  N772  1  0.844400  0.118200  0.224100  1.0
  N  N773  1  0.655600  0.618200  0.275900  1.0
  N  N774  1  0.344400  0.618200  0.724100  1.0
  N  N775  1  0.844400  0.881800  0.224100  1.0
  N  N776  1  0.155600  0.881800  0.775900  1.0
  N  N777  1  0.344400  0.381800  0.724100  1.0
  N  N778  1  0.655600  0.381800  0.275900  1.0
  N  N779  1  0.003200  0.192500  0.794700  1.0
  N  N780  1  0.996800  0.192500  0.205300  1.0
  N  N781  1  0.503200  0.692500  0.294700  1.0
  N  N782  1  0.496800  0.692500  0.705300  1.0
  N  N783  1  0.996800  0.807500  0.205300  1.0
  N  N784  1  0.003200  0.807500  0.794700  1.0
  N  N785  1  0.496800  0.307500  0.705300  1.0
  N  N786  1  0.503200  0.307500  0.294700  1.0
  N  N787  1  0.912100  0.427900  0.723600  1.0
  N  N788  1  0.087900  0.427900  0.276400  1.0
  N  N789  1  0.412100  0.927900  0.223600  1.0
  N  N790  1  0.587900  0.927900  0.776400  1.0
  N  N791  1  0.087900  0.572100  0.276400  1.0
  N  N792  1  0.912100  0.572100  0.723600  1.0
  N  N793  1  0.587900  0.072100  0.776400  1.0
  N  N794  1  0.412100  0.072100  0.223600  1.0
  O  O795  1  0.751000  0.500000  0.612000  1
  O  O796  1  0.249000  0.500000  0.388000  1
  O  O797  1  0.251000  0.000000  0.112000  1
  O  O798  1  0.749000  0.000000  0.888000  1
  O  O799  1  0.872000  0.152800  0.855900  1
  O  O800  1  0.128000  0.152800  0.144100  1
  O  O801  1  0.372000  0.652800  0.355900  1
  O  O802  1  0.628000  0.652800  0.644100  1
  O  O803  1  0.128000  0.847200  0.144100  1
  O  O804  1  0.872000  0.847200  0.855900  1
  O  O805  1  0.628000  0.347200  0.644100  1
  O  O806  1  0.372000  0.347200  0.355900  1
  O  O807  1  0.000000  0.461000  0.000000  1
  O  O808  1  0.500000  0.961000  0.500000  1
  O  O809  1  0.000000  0.539000  0.000000  1
  O  O810  1  0.500000  0.039000  0.500000  1
  O  O811  1  0.818000  0.200100  0.926000  1
  O  O812  1  0.182000  0.200100  0.074000  1
  O  O813  1  0.318000  0.700100  0.426000  1
  O  O814  1  0.682000  0.700100  0.574000  1
  O  O815  1  0.182000  0.799900  0.074000  1
  O  O816  1  0.818000  0.799900  0.926000  1
  O  O817  1  0.682000  0.299900  0.574000  1
  O  O818  1  0.318000  0.299900  0.426000  1
  O  O819  1  0.913600  0.000000  0.931600  1
  O  O820  1  0.086400  0.000000  0.068400  1
  O  O821  1  0.413600  0.500000  0.431600  1
  O  O822  1  0.586400  0.500000  0.568400  1
  O  O823  1  0.915000  0.126000  0.982000  1
  O  O824  1  0.085000  0.126000  0.018000  1
  O  O825  1  0.415000  0.626000  0.482000  1
  O  O826  1  0.585000  0.626000  0.518000  1
  O  O827  1  0.085000  0.874000  0.018000  1
  O  O828  1  0.915000  0.874000  0.982000  1
  O  O829  1  0.585000  0.374000  0.518000  1
  O  O830  1  0.415000  0.374000  0.482000  1
  O  O831  1  0.651600  0.124000  0.914600  1
  O  O832  1  0.348400  0.124000  0.085400  1
  O  O833  1  0.151600  0.624000  0.414600  1
  O  O834  1  0.848400  0.624000  0.585400  1
  O  O835  1  0.348400  0.876000  0.085400  1
  O  O836  1  0.651600  0.876000  0.914600  1
  O  O837  1  0.848400  0.376000  0.585400  1
  O  O838  1  0.151600  0.376000  0.414600  1
  O  O839  1  0.248000  0.000000  0.732000  1
  O  O840  1  0.752000  0.000000  0.268000  1
  O  O841  1  0.748000  0.500000  0.232000  1
  O  O842  1  0.252000  0.500000  0.768000  1
  O  O843  1  0.633400  0.500000  0.737400  1
  O  O844  1  0.366600  0.500000  0.262600  1
  O  O845  1  0.133400  0.000000  0.237400  1
  O  O846  1  0.866600  0.000000  0.762600  1
  O  O847  1  0.594000  0.500000  0.676000  1
  O  O848  1  0.406000  0.500000  0.324000  1
  O  O849  1  0.094000  0.000000  0.176000  1
  O  O850  1  0.906000  0.000000  0.824000  1
  O  O851  1  0.727600  0.500000  0.691600  1
  O  O852  1  0.272400  0.500000  0.308400  1
  O  O853  1  0.227600  0.000000  0.191600  1
  O  O854  1  0.772400  0.000000  0.808400  1
  O  O855  1  0.136100  0.000000  0.831500  1
  O  O856  1  0.863900  0.000000  0.168500  1
  O  O857  1  0.636100  0.500000  0.331500  1
  O  O858  1  0.363900  0.500000  0.668500  1
  O  O859  1  0.194200  0.324600  0.770200  1
  O  O860  1  0.805800  0.324600  0.229800  1
  O  O861  1  0.694200  0.824600  0.270200  1
  O  O862  1  0.305800  0.824600  0.729800  1
  O  O863  1  0.805800  0.675400  0.229800  1
  O  O864  1  0.194200  0.675400  0.770200  1
  O  O865  1  0.305800  0.175400  0.729800  1
  O  O866  1  0.694200  0.175400  0.270200  1
  O  O867  1  0.048700  0.332200  0.762700  1
  O  O868  1  0.951300  0.332200  0.237300  1
  O  O869  1  0.548700  0.832200  0.262700  1
  O  O870  1  0.451300  0.832200  0.737300  1
  O  O871  1  0.951300  0.667800  0.237300  1
  O  O872  1  0.048700  0.667800  0.762700  1
  O  O873  1  0.451300  0.167800  0.737300  1
  O  O874  1  0.548700  0.167800  0.262700  1
  O  O875  1  0.125200  0.380000  0.729200  1
  O  O876  1  0.874800  0.380000  0.270800  1
  O  O877  1  0.625200  0.880000  0.229200  1
  O  O878  1  0.374800  0.880000  0.770800  1
  O  O879  1  0.874800  0.620000  0.270800  1
  O  O880  1  0.125200  0.620000  0.729200  1
  O  O881  1  0.374800  0.120000  0.770800  1
  O  O882  1  0.625200  0.120000  0.229200  1
  O  O883  1  0.317700  0.395000  0.546700  1
  O  O884  1  0.682300  0.395000  0.453300  1
  O  O885  1  0.817700  0.895000  0.046700  1
  O  O886  1  0.182300  0.895000  0.953300  1
  O  O887  1  0.682300  0.605000  0.453300  1
  O  O888  1  0.317700  0.605000  0.546700  1
  O  O889  1  0.182300  0.105000  0.953300  1
  O  O890  1  0.817700  0.105000  0.046700  1
  O  O891  1  0.098000  0.409000  0.499000  1
  O  O892  1  0.902000  0.409000  0.501000  1
  O  O893  1  0.598000  0.909000  0.999000  1
  O  O894  1  0.402000  0.909000  0.001000  1
  O  O895  1  0.902000  0.591000  0.501000  1
  O  O896  1  0.098000  0.591000  0.499000  1
  O  O897  1  0.402000  0.091000  0.001000  1
  O  O898  1  0.598000  0.091000  0.999000  1
  O  O899  1  0.264000  0.500000  0.568000  1
  O  O900  1  0.736000  0.500000  0.432000  1
  O  O901  1  0.764000  0.000000  0.068000  1
  O  O902  1  0.236000  0.000000  0.932000  1
  O  O903  1  0.097600  0.405000  0.777600  1
  O  O904  1  0.902400  0.405000  0.222400  1
  O  O905  1  0.597600  0.905000  0.277600  1
  O  O906  1  0.402400  0.905000  0.722400  1
  O  O907  1  0.902400  0.595000  0.222400  1
  O  O908  1  0.097600  0.595000  0.777600  1
  O  O909  1  0.402400  0.095000  0.722400  1
  O  O910  1  0.597600  0.095000  0.277600  1
  O  O911  1  0.239000  0.411000  0.530000  1
  O  O912  1  0.761000  0.411000  0.470000  1
  O  O913  1  0.739000  0.911000  0.030000  1
  O  O914  1  0.261000  0.911000  0.970000  1
  O  O915  1  0.761000  0.589000  0.470000  1
  O  O916  1  0.239000  0.589000  0.530000  1
  O  O917  1  0.261000  0.089000  0.970000  1
  O  O918  1  0.739000  0.089000  0.030000  1
  O  O919  1  0.817800  0.260000  0.756800  1
  O  O920  1  0.182200  0.260000  0.243200  1
  O  O921  1  0.317800  0.760000  0.256800  1
  O  O922  1  0.682200  0.760000  0.743200  1
  O  O923  1  0.182200  0.740000  0.243200  1
  O  O924  1  0.817800  0.740000  0.756800  1
  O  O925  1  0.682200  0.240000  0.743200  1
  O  O926  1  0.317800  0.240000  0.256800  1
  O  O927  1  0.773100  0.330700  0.699100  1
  O  O928  1  0.226900  0.330700  0.300900  1
  O  O929  1  0.273100  0.830700  0.199100  1
  O  O930  1  0.726900  0.830700  0.800900  1
  O  O931  1  0.226900  0.669300  0.300900  1
  O  O932  1  0.773100  0.669300  0.699100  1
  O  O933  1  0.726900  0.169300  0.800900  1
  O  O934  1  0.273100  0.169300  0.199100  1
  O  O935  1  0.051700  0.056300  0.873100  1.0
  O  O936  1  0.948300  0.056300  0.126900  1.0
  O  O937  1  0.551700  0.556300  0.373100  1.0
  O  O938  1  0.448300  0.556300  0.626900  1.0
  O  O939  1  0.948300  0.943700  0.126900  1.0
  O  O940  1  0.051700  0.943700  0.873100  1.0
  O  O941  1  0.448300  0.443700  0.626900  1.0
  O  O942  1  0.551700  0.443700  0.373100  1.0
