
#######################################################################
#
#                 Cambridge Crystallographic Data Centre
#                                CCDC 
#
#######################################################################
#
# If this CIF has been generated from an entry in the Cambridge 
# Structural Database, then it will include bibliographic, chemical, 
# crystal, experimental, refinement or atomic coordinate data resulting 
# from the CCDC's data processing and validation procedures.
#
#######################################################################

data_HOHJOF
_chemical_formula_moiety         
'2(C45 H51 Au3 N18 Pd3 6+),2(C12 H15 Au3 N6),Ag1 1+,13(N1 O3 1-),28.75(H2 O1)'
_chemical_name_systematic        
'bis(tris(\m~4~-3,5-bis(Pyridin-3-yl)pyrazolyl)-tris(1,2-diaminoethane)-tri-gold(i)-tri-palladium(ii)) bis(tris(\m~2~-3-methylpyrazolyl)-tri-gold(i)) silver(i) tridecanitrate hydrate'
_symmetry_cell_setting           monoclinic
_symmetry_space_group_name_H-M   'C 2/m'
_symmetry_Int_Tables_number      12
_space_group_name_Hall           '-C 2y'
loop_
_symmetry_equiv_pos_site_id
_symmetry_equiv_pos_as_xyz
1 x,y,z
2 -x,y,-z
3 1/2+x,1/2+y,z
4 1/2-x,1/2+y,-z
5 -x,-y,-z
6 x,-y,z
7 1/2-x,1/2-y,-z
8 1/2+x,1/2-y,z
_cell_length_a                   37.169(14)
_cell_length_b                   18.900(7)
_cell_length_c                   14.433(6)
_cell_angle_alpha                90
_cell_angle_beta                 111.246(4)
_cell_angle_gamma                90
_cell_volume                     9449.98
_exptl_crystal_colour            'pale yellow'
_exptl_crystal_description       block
_cell_formula_units_Z            2
_exptl_crystal_recrystallization_method acetonitrile/tetrahydrofuran/water
loop_
_atom_site_label
_atom_site_type_symbol
_atom_site_fract_x
_atom_site_fract_y
_atom_site_fract_z
Au3 Au 0.15809(3) 0.5000 0.69912(8)
Au4 Au 0.13915(3) 0.41105(4) 0.48320(5)
Pd1 Pd 0.23778(8) 0.5000 1.10562(17)
Pd2 Pd 0.18012(6) 0.18560(9) 0.31242(12)
N3 N 0.2000(5) 0.4247(10) 1.0274(12)
C5 C 0.1949(7) 0.4114(11) 0.9326(15)
H6 H 0.2096 0.4372 0.9022
C6 C 0.1685(7) 0.3603(12) 0.8766(16)
C7 C 0.1473(12) 0.3239(19) 0.922(2)
H7 H 0.1292 0.2888 0.8872
C8 C 0.1531(12) 0.3400(19) 1.021(2)
H8 H 0.1389 0.3149 1.0533
C9 C 0.1786(10) 0.3905(13) 1.0714(17)
H9 H 0.1814 0.4019 1.1378
N4 N 0.1566(6) 0.1779(10) 0.4192(13)
C10 C 0.1624(8) 0.2302(12) 0.4869(16)
H10 H 0.1788 0.2685 0.4852
C11 C 0.1457(7) 0.2307(12) 0.5588(15)
C12 C 0.1217(7) 0.1720(12) 0.5568(18)
H11 H 0.1086 0.1702 0.6023
C13 C 0.1171(9) 0.1183(14) 0.491(2)
H12 H 0.1016 0.0785 0.4916
C14 C 0.1352(8) 0.1222(12) 0.4230(17)
H13 H 0.1323 0.0843 0.3777
N5 N 0.1363(7) 0.2504(10) 0.2410(14)
C15 C 0.1375(7) 0.3200(11) 0.2706(14)
H14 H 0.1597 0.3361 0.3236
C16 C 0.1074(8) 0.3685(13) 0.2262(16)
C17 C 0.0758(9) 0.3423(14) 0.148(2)
H15 H 0.0552 0.3732 0.1134
C18 C 0.0741(11) 0.2724(16) 0.121(2)
H16 H 0.0517 0.2543 0.0702
C19 C 0.1050(9) 0.2285(14) 0.1685(18)
H17 H 0.1037 0.1805 0.1479
N6 N 0.1584(5) 0.3948(8) 0.6998(12)
C20 C 0.1625(6) 0.3462(10) 0.7733(14)
C21 C 0.1569(7) 0.2766(11) 0.7315(15)
H18 H 0.1570 0.2331 0.7646
C22 C 0.1511(6) 0.2867(11) 0.6310(13)
N7 N 0.1529(5) 0.3568(8) 0.6122(12)
N8 N 0.1262(6) 0.4633(9) 0.3521(12)
C23 C 0.1110(7) 0.4428(11) 0.2562(14)
C24 C 0.1000(10) 0.5000 0.196(2)
H19 H 0.0872 0.5000 0.1254
N9 N 0.2241(6) 0.1182(11) 0.3797(14)
H20 H 0.2389 0.1348 0.4480
H21 H 0.2138 0.0705 0.3840
C25 C 0.2493(11) 0.115(2) 0.322(2)
H22 H 0.2750 0.1332 0.3648
H23 H 0.2527 0.0645 0.3089
C26 C 0.2392(12) 0.148(2) 0.240(3)
H24 H 0.2355 0.1119 0.1870
H25 H 0.2613 0.1776 0.2410
N10 N 0.2053(7) 0.1925(12) 0.2085(17)
H26 H 0.1869 0.1768 0.1430
H27 H 0.2126 0.2422 0.2023
N11 N 0.2764(7) 0.4279(14) 1.1885(16)
H28 H 0.2639 0.3959 1.2221
H29 H 0.2862 0.3991 1.1454
C27 C 0.3080(12) 0.466(2) 1.262(3)
H30 H 0.3092 0.4500 1.3282
H31 H 0.3322 0.4500 1.2542
N5E N 0.1363(7) 0.7496(10) 0.2410(14)
C15E C 0.1375(7) 0.6800(11) 0.2706(14)
H14E H 0.1597 0.6639 0.3236
C16E C 0.1074(8) 0.6315(13) 0.2262(16)
C17E C 0.0758(9) 0.6577(14) 0.148(2)
H15E H 0.0552 0.6268 0.1134
C18E C 0.0741(11) 0.7276(16) 0.121(2)
H16E H 0.0517 0.7457 0.0702
C19E C 0.1050(9) 0.7715(14) 0.1685(18)
H17E H 0.1037 0.8195 0.1479
N8E N 0.1262(6) 0.5367(9) 0.3521(12)
C23E C 0.1110(7) 0.5572(11) 0.2562(14)
N11E N 0.2764(7) 0.5721(14) 1.1885(16)
H28E H 0.2639 0.6041 1.2221
H29E H 0.2862 0.6009 1.1454
C27E C 0.3080(12) 0.534(2) 1.262(3)
H30E H 0.3092 0.5500 1.3282
H31E H 0.3322 0.5500 1.2542
Au4E Au 0.13915(3) 0.58895(4) 0.48320(5)
Pd2E Pd 0.18012(6) 0.81440(9) 0.31242(12)
N3E N 0.2000(5) 0.5753(10) 1.0274(12)
C5E C 0.1949(7) 0.5886(11) 0.9326(15)
H6E H 0.2096 0.5628 0.9022
C6E C 0.1685(7) 0.6397(12) 0.8766(16)
C7E C 0.1473(12) 0.6761(19) 0.922(2)
H7E H 0.1292 0.7112 0.8872
C8E C 0.1531(12) 0.6600(19) 1.021(2)
H8E H 0.1389 0.6851 1.0533
C9E C 0.1786(10) 0.6095(13) 1.0714(17)
H9E H 0.1814 0.5981 1.1378
N4E N 0.1566(6) 0.8221(10) 0.4192(13)
C10E C 0.1624(8) 0.7698(12) 0.4869(16)
H10E H 0.1788 0.7315 0.4852
C11E C 0.1457(7) 0.7693(12) 0.5588(15)
C12E C 0.1217(7) 0.8280(12) 0.5568(18)
H11E H 0.1086 0.8298 0.6023
C13E C 0.1171(9) 0.8817(14) 0.491(2)
H12E H 0.1016 0.9215 0.4916
C14E C 0.1352(8) 0.8778(12) 0.4230(17)
H13E H 0.1323 0.9157 0.3777
N6E N 0.1584(5) 0.6052(8) 0.6998(12)
C20E C 0.1625(6) 0.6538(10) 0.7733(14)
C21E C 0.1569(7) 0.7234(11) 0.7315(15)
H18E H 0.1570 0.7669 0.7646
C22E C 0.1511(6) 0.7133(11) 0.6310(13)
N7E N 0.1529(5) 0.6432(8) 0.6122(12)
N9E N 0.2241(6) 0.8818(11) 0.3797(14)
H20E H 0.2389 0.8652 0.4480
H21E H 0.2138 0.9295 0.3840
C25E C 0.2493(11) 0.885(2) 0.322(2)
H22E H 0.2750 0.8668 0.3648
H23E H 0.2527 0.9355 0.3089
C26E C 0.2392(12) 0.852(2) 0.240(3)
H24E H 0.2355 0.8881 0.1870
H25E H 0.2613 0.8224 0.2410
N10E N 0.2053(7) 0.8075(12) 0.2085(17)
H26E H 0.1869 0.8232 0.1430
H27E H 0.2126 0.7578 0.2023
O1 O 0.3880(13) 0.5000 0.139(3)
O2 O 0.1441(7) 0.1528(14) 0.0161(18)
O3 O 0.0000 0.461(3) 0.0000
O4 O 0.0740(10) 0.2001(18) 0.892(2)
O5 O 0.0684(13) 0.0000 0.982(3)
O6 O 0.0180(10) 0.126(2) 0.933(3)
O7 O 0.0854(12) 0.124(2) 0.737(3)
O8 O 0.2680(15) 0.0000 0.516(4)
N12 N 0.2941(19) 0.5000 0.948(5)
O9 O 0.2626(13) 0.5000 0.896(3)
O10 O 0.324(2) 0.5000 0.918(5)
O11 O 0.3084(13) 0.5000 1.036(4)
N13 N 0.1422(9) 0.0000 0.221(2)
O12 O 0.1685(7) 0.0000 0.3046(18)
O13 O 0.1269(7) 0.0563(13) 0.1786(17)
O13E O 0.1269(7) -0.0563(13) 0.1786(17)
N14 N 0.2403(7) 0.3481(13) 0.3625(18)
O14 O 0.2298(7) 0.3246(13) 0.4240(18)
O15 O 0.2373(10) 0.3322(19) 0.286(3)
O16 O 0.2708(12) 0.380(2) 0.396(3)
O17 O 0.4533(17) 0.395(3) 0.771(4)
O18 O 0.501(3) 0.409(6) 0.599(8)
O19 O 0.432(2) 0.5000 0.696(5)
Ag1 Ag 0.0000 0.5000 0.5000
Au1 Au 0.04328(8) 0.44154(18) 0.4007(3)
C1 C 0.0354(16) 0.261(3) 0.357(3)
H1 H 0.0308 0.3023 0.3129
H2 H 0.0126 0.2308 0.3364
H3 H 0.0577 0.2346 0.3550
N1 N 0.0585(16) 0.356(2) 0.593(3)
C2 C 0.0543(13) 0.289(3) 0.624(3)
H4 H 0.0572 0.2756 0.6900
C3 C 0.0449(14) 0.2468(19) 0.542(3)
H5 H 0.0402 0.1973 0.5418
N2 N 0.0435(9) 0.2862(19) 0.461(2)
C4 C 0.0519(17) 0.3515(19) 0.495(3)
Au2 Au 0.06764(7) 0.45755(16) 0.6564(3)
loop_
_geom_bond_atom_site_label_1
_geom_bond_atom_site_label_2
_geom_bond_site_symmetry_1
_geom_bond_site_symmetry_2
Au1 C4 1_555 1_555
C1 H1 1_555 1_555
H2 C1 1_555 1_555
H3 C1 1_555 1_555
N1 C2 1_555 1_555
C2 H4 1_555 1_555
C3 C2 1_555 1_555
H5 C3 1_555 1_555
N2 C1 1_555 1_555
C4 N1 1_555 1_555
Au2 N1 1_555 1_555
Au3 N6 1_555 1_555
Au4 N7 1_555 1_555
Pd1 N3 1_555 1_555
Pd2 N4 1_555 1_555
N3 C5 1_555 1_555
C5 H6 1_555 1_555
C6 C5 1_555 1_555
C7 C6 1_555 1_555
H7 C7 1_555 1_555
C8 C7 1_555 1_555
H8 C8 1_555 1_555
C9 N3 1_555 1_555
H9 C9 1_555 1_555
N4 C10 1_555 1_555
C10 H10 1_555 1_555
C11 C10 1_555 1_555
C12 C11 1_555 1_555
H11 C12 1_555 1_555
C13 C12 1_555 1_555
H12 C13 1_555 1_555
C14 N4 1_555 1_555
H13 C14 1_555 1_555
N5 Pd2 1_555 1_555
C15 N5 1_555 1_555
H14 C15 1_555 1_555
C16 C15 1_555 1_555
C17 C16 1_555 1_555
H15 C17 1_555 1_555
C18 C17 1_555 1_555
H16 C18 1_555 1_555
C19 N5 1_555 1_555
H17 C19 1_555 1_555
N6 C20 1_555 1_555
C20 C6 1_555 1_555
C21 C20 1_555 1_555
H18 C21 1_555 1_555
C22 C11 1_555 1_555
N7 N6 1_555 1_555
N8 Au4 1_555 1_555
C23 C16 1_555 1_555
C24 C23 1_555 1_555
H19 C24 1_555 1_555
N9 Pd2 1_555 1_555
H20 N9 1_555 1_555
H21 N9 1_555 1_555
C25 N9 1_555 1_555
H22 C25 1_555 1_555
H23 C25 1_555 1_555
C26 C25 1_555 1_555
H24 C26 1_555 1_555
H25 C26 1_555 1_555
N10 Pd2 1_555 1_555
H26 N10 1_555 1_555
H27 N10 1_555 1_555
N11 Pd1 1_555 1_555
H28 N11 1_555 1_555
H29 N11 1_555 1_555
C27 N11 1_555 1_555
H30 C27 1_555 1_555
H31 C27 1_555 1_555
N12 O9 1_555 1_555
O10 N12 1_555 1_555
O11 N12 1_555 1_555
N13 O12 1_555 1_555
O13 N13 1_555 1_555
N14 O14 1_555 1_555
O15 N14 1_555 1_555
O16 N14 1_555 1_555
N5E C15E 1_555 1_555
C15E H14E 1_555 1_555
C16E C15E 1_555 1_555
C17E C16E 1_555 1_555
H15E C17E 1_555 1_555
C18E C17E 1_555 1_555
H16E C18E 1_555 1_555
C19E N5E 1_555 1_555
H17E C19E 1_555 1_555
N8E N8 1_555 1_555
C23E C24 1_555 1_555
N11E Pd1 1_555 1_555
H28E N11E 1_555 1_555
H29E N11E 1_555 1_555
C27E C27 1_555 1_555
H30E C27E 1_555 1_555
H31E C27E 1_555 1_555
Au4E N8E 1_555 1_555
Pd2E N5E 1_555 1_555
N3E Pd1 1_555 1_555
C5E N3E 1_555 1_555
H6E C5E 1_555 1_555
C6E C5E 1_555 1_555
C7E C6E 1_555 1_555
H7E C7E 1_555 1_555
C8E C7E 1_555 1_555
H8E C8E 1_555 1_555
C9E N3E 1_555 1_555
H9E C9E 1_555 1_555
N4E Pd2E 1_555 1_555
C10E N4E 1_555 1_555
H10E C10E 1_555 1_555
C11E C10E 1_555 1_555
C12E C11E 1_555 1_555
H11E C12E 1_555 1_555
C13E C12E 1_555 1_555
H12E C13E 1_555 1_555
C14E N4E 1_555 1_555
H13E C14E 1_555 1_555
N6E Au3 1_555 1_555
C20E C6E 1_555 1_555
C21E C20E 1_555 1_555
H18E C21E 1_555 1_555
C22E C11E 1_555 1_555
N7E Au4E 1_555 1_555
N9E Pd2E 1_555 1_555
H20E N9E 1_555 1_555
H21E N9E 1_555 1_555
C25E N9E 1_555 1_555
H22E C25E 1_555 1_555
H23E C25E 1_555 1_555
C26E C25E 1_555 1_555
H24E C26E 1_555 1_555
H25E C26E 1_555 1_555
N10E Pd2E 1_555 1_555
H26E N10E 1_555 1_555
H27E N10E 1_555 1_555
O13E N13 1_555 1_555
C3 N2 1_555 1_555
N2 C4 1_555 1_555
C8 C9 1_555 1_555
C13 C14 1_555 1_555
C18 C19 1_555 1_555
C21 C22 1_555 1_555
C22 N7 1_555 1_555
N8 C23 1_555 1_555
C26 N10 1_555 1_555
C16E C23E 1_555 1_555
C18E C19E 1_555 1_555
N8E C23E 1_555 1_555
N11E C27E 1_555 1_555
C8E C9E 1_555 1_555
C13E C14E 1_555 1_555
N6E C20E 1_555 1_555
N6E N7E 1_555 1_555
C21E C22E 1_555 1_555
C22E N7E 1_555 1_555
C26E N10E 1_555 1_555

#END
