
#######################################################################
#
#                 Cambridge Crystallographic Data Centre
#                                CCDC 
#
#######################################################################
#
# If this CIF has been generated from an entry in the Cambridge 
# Structural Database, then it will include bibliographic, chemical, 
# crystal, experimental, refinement or atomic coordinate data resulting 
# from the CCDC's data processing and validation procedures.
#
#######################################################################

data_HOHJUL
_chemical_formula_moiety         
'C45 H51 Au3 N18 Pd3 6+,C18 H12,6(N1 O3 1-),C2 H3 N1,17.5(H2 O1)'
_chemical_name_systematic        
'tris(\m~4~-3,5-bis(Pyridin-3-yl)pyrazolyl)-tris(1,2-diaminoethane)-tri-gold(i)-tri-palladium(ii) triphenylene hexanitrate acetonitrile solvate hydrate'
_symmetry_cell_setting           orthorhombic
_symmetry_space_group_name_H-M   'P n m a'
_symmetry_Int_Tables_number      62
_space_group_name_Hall           '-P 2ac 2n'
loop_
_symmetry_equiv_pos_site_id
_symmetry_equiv_pos_as_xyz
1 x,y,z
2 1/2-x,-y,1/2+z
3 -x,1/2+y,-z
4 1/2+x,1/2-y,1/2-z
5 -x,-y,-z
6 1/2+x,y,1/2-z
7 x,1/2-y,z
8 1/2-x,1/2+y,1/2+z
_cell_length_a                   14.1734(15)
_cell_length_b                   19.427(2)
_cell_length_c                   32.499(3)
_cell_angle_alpha                90
_cell_angle_beta                 90
_cell_angle_gamma                90
_cell_volume                     8948.49
_exptl_crystal_colour            'pale yellow'
_exptl_crystal_description       block
_cell_formula_units_Z            4
loop_
_atom_site_label
_atom_site_type_symbol
_atom_site_fract_x
_atom_site_fract_y
_atom_site_fract_z
C24 C 0.4901(10) 0.7139(7) 0.1826(3)
H27 H 0.4332 0.6894 0.1777
C25 C 0.5736(10) 0.6780(8) 0.1898(3)
H28 H 0.5734 0.6291 0.1895
C26 C 0.6586(9) 0.7137(6) 0.1976(3)
C27 C 0.7454(10) 0.6759(7) 0.2049(3)
C28 C 0.7506(10) 0.6028(7) 0.2039(3)
H29 H 0.6958 0.5769 0.1974
C29 C 0.8333(11) 0.5691(7) 0.2123(3)
H30 H 0.8351 0.5203 0.2114
C30 C 0.9126(11) 0.6047(8) 0.2218(3)
H31 H 0.9694 0.5807 0.2278
C31 C 0.9114(10) 0.6752(7) 0.2229(3)
H32 H 0.9676 0.6994 0.2296
C32 C 0.8299(8) 0.7120(6) 0.2145(3)
C24F C 0.4901(10) 0.7861(7) 0.1826(3)
H27F H 0.4332 0.8106 0.1777
C25F C 0.5736(10) 0.8220(8) 0.1898(3)
H28F H 0.5734 0.8709 0.1895
C26F C 0.6586(9) 0.7863(6) 0.1976(3)
C27F C 0.7454(10) 0.8241(7) 0.2049(3)
C28F C 0.7506(10) 0.8972(7) 0.2039(3)
H29F H 0.6958 0.9231 0.1974
C29F C 0.8333(11) 0.9309(7) 0.2123(3)
H30F H 0.8351 0.9797 0.2114
C30F C 0.9126(11) 0.8953(8) 0.2218(3)
H31F H 0.9694 0.9193 0.2278
C31F C 0.9114(10) 0.8248(7) 0.2229(3)
H32F H 0.9676 0.8006 0.2296
C32F C 0.8299(8) 0.7880(6) 0.2145(3)
C33 C 0.0055(8) 0.7500 0.0243(3)
C34 C 0.1005(9) 0.7500 0.0418(4)
N10 N 0.1737(8) 0.7500 0.0553(3)
N11 N 0.1229(4) 0.5992(3) 0.0053(2)
O1 O 0.1112(4) 0.6303(3) -0.02722(16)
O2 O 0.0537(4) 0.5798(3) 0.02605(17)
O3 O 0.2039(4) 0.5869(4) 0.0178(2)
Au1 Au 0.91655(2) 0.66320(2) 0.11820(2)
Au2 Au 0.71739(3) 0.7500 0.09576(2)
Pd1 Pd 1.13233(4) 0.44759(3) 0.07778(2)
Pd2 Pd 0.37901(6) 0.7500 0.01206(3)
N1 N 0.7997(4) 0.6113(3) 0.10318(18)
C1 C 0.7789(5) 0.5431(4) 0.1042(2)
C2 C 0.6824(5) 0.5346(4) 0.0982(3)
H1 H 0.6483 0.4926 0.0980
C3 C 0.6469(5) 0.5997(4) 0.0928(2)
N2 N 0.7165(4) 0.6465(3) 0.09595(18)
C4 C 0.8465(5) 0.4884(4) 0.1111(2)
C5 C 0.8221(6) 0.4305(4) 0.1334(3)
H2 H 0.7609 0.4273 0.1452
C6 C 0.8851(6) 0.3775(5) 0.1387(3)
H3 H 0.8681 0.3378 0.1540
C7 C 0.9738(6) 0.3831(4) 0.1214(2)
H4 H 1.0174 0.3464 0.1247
N3 N 0.9997(4) 0.4386(3) 0.10009(19)
C8 C 0.9383(5) 0.4899(4) 0.0945(2)
H5 H 0.9573 0.5288 0.0789
C9 C 0.5471(6) 0.6166(5) 0.0871(2)
C10 C 0.4804(5) 0.5824(5) 0.1107(3)
H6 H 0.4996 0.5499 0.1309
C11 C 0.3870(5) 0.5961(6) 0.1048(3)
H7 H 0.3407 0.5715 0.1200
C12 C 0.3592(6) 0.6457(5) 0.0765(3)
H8 H 0.2942 0.6569 0.0738
N4 N 0.4236(4) 0.6781(4) 0.0526(2)
C13 C 0.5156(5) 0.6634(4) 0.0584(2)
H9 H 0.5610 0.6864 0.0418
N5 N 1.0335(4) 0.7155(3) 0.13540(17)
C14 C 1.1128(5) 0.6930(4) 0.1542(2)
C15 C 1.1625(7) 0.7500 0.1671(3)
H10 H 1.2200 0.7500 0.1821
C16 C 1.1398(5) 0.6210(4) 0.1574(2)
C17 C 1.1797(6) 0.5948(4) 0.1936(3)
H11 H 1.1859 0.6232 0.2172
C18 C 1.2096(7) 0.5277(5) 0.1947(3)
H12 H 1.2396 0.5100 0.2186
C19 C 1.1958(6) 0.4865(5) 0.1610(2)
H13 H 1.2130 0.4393 0.1625
N6 N 1.1588(4) 0.5109(3) 0.12571(18)
C20 C 1.1304(5) 0.5768(4) 0.1248(2)
H14 H 1.1022 0.5936 0.1003
N7 N 1.1079(5) 0.3834(4) 0.0305(2)
H15 H 1.1062 0.3353 0.0405
H16 H 1.0462 0.3942 0.0178
C21 C 1.1842(7) 0.3918(7) -0.0001(3)
H17 H 1.1701 0.4314 -0.0183
H18 H 1.1888 0.3500 -0.0173
C22 C 1.2753(8) 0.4037(7) 0.0219(4)
H19 H 1.2972 0.3602 0.0345
H20 H 1.3239 0.4192 0.0020
N8 N 1.2632(5) 0.4544(4) 0.0529(2)
H21 H 1.2722 0.5007 0.0409
H22 H 1.3112 0.4478 0.0747
N9 N 0.3332(6) 0.6803(5) -0.0293(2)
H23 H 0.3858 0.6497 -0.0377
H24 H 0.2827 0.6516 -0.0172
C23 C 0.2973(12) 0.7175(8) -0.0648(4)
H25 H 0.3342 0.7023 -0.0891
H26 H 0.2315 0.7023 -0.0693
N5F N 1.0335(4) 0.7845(3) 0.13540(17)
C14F C 1.1128(5) 0.8070(4) 0.1542(2)
C16F C 1.1398(5) 0.8790(4) 0.1574(2)
C17F C 1.1797(6) 0.9052(4) 0.1936(3)
H11F H 1.1859 0.8768 0.2172
C18F C 1.2096(7) 0.9723(5) 0.1947(3)
H12F H 1.2396 0.9900 0.2186
C19F C 1.1958(6) 1.0135(5) 0.1610(2)
H13F H 1.2130 1.0607 0.1625
N6F N 1.1588(4) 0.9891(3) 0.12571(18)
C20F C 1.1304(5) 0.9232(4) 0.1248(2)
H14F H 1.1022 0.9064 0.1003
N9F N 0.3332(6) 0.8197(5) -0.0293(2)
H23F H 0.3858 0.8503 -0.0377
H24F H 0.2827 0.8484 -0.0172
C23F C 0.2973(12) 0.7825(8) -0.0648(4)
H25F H 0.3342 0.7977 -0.0891
H26F H 0.2315 0.7977 -0.0693
Au1F Au 0.91655(2) 0.83680(2) 0.11820(2)
Pd1F Pd 1.13233(4) 1.05241(3) 0.07778(2)
N1F N 0.7997(4) 0.8887(3) 0.10318(18)
C1F C 0.7789(5) 0.9569(4) 0.1042(2)
C2F C 0.6824(5) 0.9654(4) 0.0982(3)
H1F H 0.6483 1.0074 0.0980
C3F C 0.6469(5) 0.9003(4) 0.0928(2)
N2F N 0.7165(4) 0.8535(3) 0.09595(18)
C4F C 0.8465(5) 1.0116(4) 0.1111(2)
C5F C 0.8221(6) 1.0695(4) 0.1334(3)
H2F H 0.7609 1.0727 0.1452
C6F C 0.8851(6) 1.1225(5) 0.1387(3)
H3F H 0.8681 1.1622 0.1540
C7F C 0.9738(6) 1.1169(4) 0.1214(2)
H4F H 1.0174 1.1536 0.1247
N3F N 0.9997(4) 1.0614(3) 0.10009(19)
C8F C 0.9383(5) 1.0101(4) 0.0945(2)
H5F H 0.9573 0.9712 0.0789
C9F C 0.5471(6) 0.8834(5) 0.0871(2)
C10F C 0.4804(5) 0.9176(5) 0.1107(3)
H6F H 0.4996 0.9501 0.1309
C11F C 0.3870(5) 0.9039(6) 0.1048(3)
H7F H 0.3407 0.9285 0.1200
C12F C 0.3592(6) 0.8543(5) 0.0765(3)
H8F H 0.2942 0.8431 0.0738
N4F N 0.4236(4) 0.8219(4) 0.0526(2)
C13F C 0.5156(5) 0.8366(4) 0.0584(2)
H9F H 0.5610 0.8136 0.0418
N7F N 1.1079(5) 1.1166(4) 0.0305(2)
H15F H 1.1062 1.1647 0.0405
H16F H 1.0462 1.1058 0.0178
C21F C 1.1842(7) 1.1082(7) -0.0001(3)
H17F H 1.1701 1.0686 -0.0183
H18F H 1.1888 1.1500 -0.0173
C22F C 1.2753(8) 1.0963(7) 0.0219(4)
H19F H 1.2972 1.1398 0.0345
H20F H 1.3239 1.0808 0.0020
N8F N 1.2632(5) 1.0456(4) 0.0529(2)
H21F H 1.2722 0.9993 0.0409
H22F H 1.3112 1.0522 0.0747
loop_
_geom_bond_atom_site_label_1
_geom_bond_atom_site_label_2
_geom_bond_site_symmetry_1
_geom_bond_site_symmetry_2
Au1 N1 1_555 1_555
Au2 N2 1_555 1_555
Pd1 N3 1_555 1_555
Pd2 N4 1_555 1_555
N1 C1 1_555 1_555
C1 C2 1_555 1_555
C2 H1 1_555 1_555
C3 C2 1_555 1_555
N2 N1 1_555 1_555
C4 C1 1_555 1_555
C5 C4 1_555 1_555
H2 C5 1_555 1_555
C6 C5 1_555 1_555
H3 C6 1_555 1_555
C7 C6 1_555 1_555
H4 C7 1_555 1_555
N3 C7 1_555 1_555
C8 C4 1_555 1_555
H5 C8 1_555 1_555
C9 C3 1_555 1_555
C10 C9 1_555 1_555
H6 C10 1_555 1_555
C11 C10 1_555 1_555
H7 C11 1_555 1_555
C12 C11 1_555 1_555
H8 C12 1_555 1_555
N4 C12 1_555 1_555
C13 C9 1_555 1_555
H9 C13 1_555 1_555
N5 Au1 1_555 1_555
C14 N5 1_555 1_555
C15 C14 1_555 1_555
H10 C15 1_555 1_555
C16 C14 1_555 1_555
C17 C16 1_555 1_555
H11 C17 1_555 1_555
C18 C17 1_555 1_555
H12 C18 1_555 1_555
C19 C18 1_555 1_555
H13 C19 1_555 1_555
N6 Pd1 1_555 1_555
C20 C16 1_555 1_555
H14 C20 1_555 1_555
N7 Pd1 1_555 1_555
H15 N7 1_555 1_555
H16 N7 1_555 1_555
C21 N7 1_555 1_555
H17 C21 1_555 1_555
H18 C21 1_555 1_555
C22 C21 1_555 1_555
H19 C22 1_555 1_555
H20 C22 1_555 1_555
N8 Pd1 1_555 1_555
H21 N8 1_555 1_555
H22 N8 1_555 1_555
N9 Pd2 1_555 1_555
H23 N9 1_555 1_555
H24 N9 1_555 1_555
C23 N9 1_555 1_555
H25 C23 1_555 1_555
H26 C23 1_555 1_555
C24 H27 1_555 1_555
C25 C24 1_555 1_555
H28 C25 1_555 1_555
C26 C25 1_555 1_555
C27 C26 1_555 1_555
C28 C27 1_555 1_555
H29 C28 1_555 1_555
C29 C28 1_555 1_555
H30 C29 1_555 1_555
C30 C29 1_555 1_555
H31 C30 1_555 1_555
C31 C30 1_555 1_555
H32 C31 1_555 1_555
C32 C27 1_555 1_555
C33 C34 1_555 1_555
C34 N10 1_555 1_555
N11 O1 1_555 1_555
O2 N11 1_555 1_555
O3 N11 1_555 1_555
N5F N5 1_555 1_555
C14F C15 1_555 1_555
C16F C14F 1_555 1_555
C17F C16F 1_555 1_555
H11F C17F 1_555 1_555
C18F C17F 1_555 1_555
H12F C18F 1_555 1_555
C19F C18F 1_555 1_555
H13F C19F 1_555 1_555
N6F C19F 1_555 1_555
C20F C16F 1_555 1_555
H14F C20F 1_555 1_555
N9F Pd2 1_555 1_555
H23F N9F 1_555 1_555
H24F N9F 1_555 1_555
C23F C23 1_555 1_555
H25F C23F 1_555 1_555
H26F C23F 1_555 1_555
Au1F N5F 1_555 1_555
Pd1F N6F 1_555 1_555
N1F Au1F 1_555 1_555
C1F N1F 1_555 1_555
C2F C1F 1_555 1_555
H1F C2F 1_555 1_555
C3F C2F 1_555 1_555
N2F Au2 1_555 1_555
C4F C1F 1_555 1_555
C5F C4F 1_555 1_555
H2F C5F 1_555 1_555
C6F C5F 1_555 1_555
H3F C6F 1_555 1_555
C7F C6F 1_555 1_555
H4F C7F 1_555 1_555
N3F Pd1F 1_555 1_555
C8F C4F 1_555 1_555
H5F C8F 1_555 1_555
C9F C3F 1_555 1_555
C10F C9F 1_555 1_555
H6F C10F 1_555 1_555
C11F C10F 1_555 1_555
H7F C11F 1_555 1_555
C12F C11F 1_555 1_555
H8F C12F 1_555 1_555
N4F Pd2 1_555 1_555
C13F C9F 1_555 1_555
H9F C13F 1_555 1_555
N7F Pd1F 1_555 1_555
H15F N7F 1_555 1_555
H16F N7F 1_555 1_555
C21F N7F 1_555 1_555
H17F C21F 1_555 1_555
H18F C21F 1_555 1_555
C22F C21F 1_555 1_555
H19F C22F 1_555 1_555
H20F C22F 1_555 1_555
N8F Pd1F 1_555 1_555
H21F N8F 1_555 1_555
H22F N8F 1_555 1_555
C24F C24 1_555 1_555
H27F C24F 1_555 1_555
C25F C24F 1_555 1_555
H28F C25F 1_555 1_555
C26F C26 1_555 1_555
C27F C26F 1_555 1_555
C28F C27F 1_555 1_555
H29F C28F 1_555 1_555
C29F C28F 1_555 1_555
H30F C29F 1_555 1_555
C30F C29F 1_555 1_555
H31F C30F 1_555 1_555
C31F C30F 1_555 1_555
H32F C31F 1_555 1_555
C32F C32 1_555 1_555
C3 N2 1_555 1_555
N3 C8 1_555 1_555
N4 C13 1_555 1_555
C19 N6 1_555 1_555
N6 C20 1_555 1_555
C22 N8 1_555 1_555
C31 C32 1_555 1_555
N5F C14F 1_555 1_555
N6F C20F 1_555 1_555
N9F C23F 1_555 1_555
N1F N2F 1_555 1_555
C3F N2F 1_555 1_555
C7F N3F 1_555 1_555
N3F C8F 1_555 1_555
C12F N4F 1_555 1_555
N4F C13F 1_555 1_555
C22F N8F 1_555 1_555
C25F C26F 1_555 1_555
C27F C32F 1_555 1_555
C31F C32F 1_555 1_555

#END
