
#######################################################################
#
#                 Cambridge Crystallographic Data Centre
#                                CCDC 
#
#######################################################################
#
# If this CIF has been generated from an entry in the Cambridge 
# Structural Database, then it will include bibliographic, chemical, 
# crystal, experimental, refinement or atomic coordinate data resulting 
# from the CCDC's data processing and validation procedures.
#
#######################################################################

data_HOJBUF
_chemical_formula_moiety         
'C102 H90 Fe2 N18 O3 4+,4(C1 F3 O3 S1 1-),x(C2 H3 N1)'
_chemical_name_systematic        
'tris(\m-N-(4-(bis(4-((pyridin-2-ylmethylene)amino)phenyl)amino)phenyl)butanamide)-di-iron tetrakis(trifluoromethanesulfonate) acetonitrile solvate'
_symmetry_cell_setting           monoclinic
_symmetry_space_group_name_H-M   'C 2/c'
_symmetry_Int_Tables_number      15
_space_group_name_Hall           '-C 2yn'
loop_
_symmetry_equiv_pos_site_id
_symmetry_equiv_pos_as_xyz
1 x,y,z
2 -x,y,1/2-z
3 1/2+x,1/2+y,z
4 1/2-x,1/2+y,1/2-z
5 -x,-y,-z
6 x,-y,1/2+z
7 1/2-x,1/2-y,-z
8 1/2+x,1/2-y,1/2+z
_cell_length_a                   47.203(3)
_cell_length_b                   12.9869(9)
_cell_length_c                   39.414(3)
_cell_angle_alpha                90
_cell_angle_beta                 92.370(4)
_cell_angle_gamma                90
_cell_volume                     24140.9
_exptl_crystal_colour            purple
_exptl_crystal_description       blade
_cell_formula_units_Z            8
loop_
_atom_site_label
_atom_site_type_symbol
_atom_site_fract_x
_atom_site_fract_y
_atom_site_fract_z
Fe1 Fe 0.37184(3) 0.05984(12) 0.26031(3)
Fe2 Fe 0.38414(3) 0.39816(12) 0.52720(3)
N1 N 0.40220(16) 0.0736(7) 0.2271(2)
N2 N 0.38276(16) 0.2056(6) 0.26874(19)
N3 N 0.36640(17) -0.0863(7) 0.2505(2)
N4 N 0.40034(15) 0.0022(7) 0.2939(2)
N5 N 0.34119(15) 0.1027(6) 0.22754(18)
N6 N 0.33966(17) 0.0588(6) 0.29086(19)
N7 N 0.34891(16) 0.4026(6) 0.49977(19)
N8 N 0.35720(18) 0.3638(7) 0.5633(2)
N9 N 0.40907(17) 0.4428(7) 0.49056(19)
N10 N 0.38096(17) 0.5513(7) 0.5336(2)
N11 N 0.39211(18) 0.2490(7) 0.5211(2)
N12 N 0.41759(17) 0.3858(7) 0.5585(2)
N13 N 0.33941(16) -0.0368(6) 0.4308(2)
N14 N 0.46698(17) 0.2130(7) 0.3938(2)
N15 N 0.33419(17) 0.4851(6) 0.35915(19)
N16 N 0.27241(16) 0.8209(6) 0.3035(2)
H1 H 0.2736 0.8252 0.2813
N17 N 0.2624(2) -0.3372(7) 0.4722(2)
H2 H 0.2458 -0.3289 0.4616
N18 N 0.58331(17) 0.1269(7) 0.3925(2)
H3 H 0.5926 0.1736 0.3812
C1 C 0.4114(2) 0.0010(10) 0.2058(3)
H4 H 0.4019 -0.0632 0.2040
C2 C 0.4352(2) 0.0199(10) 0.1861(3)
H5 H 0.4419 -0.0321 0.1715
C3 C 0.4485(2) 0.1118(10) 0.1881(3)
H6 H 0.4643 0.1251 0.1746
C4 C 0.4394(2) 0.1837(10) 0.2091(3)
H7 H 0.4486 0.2488 0.2109
C5 C 0.4157(2) 0.1604(9) 0.2286(2)
C6 C 0.4039(2) 0.2385(8) 0.2521(2)
H8 H 0.4113 0.3063 0.2545
C7 C 0.3707(2) 0.2778(8) 0.2920(2)
C8 C 0.3429(2) 0.3120(7) 0.2851(2)
H9 H 0.3323 0.2888 0.2656
C9 C 0.3311(2) 0.3814(7) 0.3079(2)
H10 H 0.3124 0.4062 0.3033
C10 C 0.3458(2) 0.4144(7) 0.3366(2)
C11 C 0.3740(2) 0.3817(8) 0.3429(2)
H11 H 0.3848 0.4092 0.3617
C12 C 0.3865(2) 0.3073(8) 0.3211(2)
H12 H 0.4048 0.2793 0.3263
C13 C 0.3367(2) 0.4647(8) 0.3949(3)
C14 C 0.3436(2) 0.5449(8) 0.4176(3)
H13 H 0.3455 0.6135 0.4097
C15 C 0.3475(2) 0.5224(8) 0.4523(3)
H14 H 0.3527 0.5755 0.4679
C16 C 0.34401(19) 0.4249(8) 0.4635(2)
C17 C 0.3367(2) 0.3455(9) 0.4406(3)
H15 H 0.3346 0.2770 0.4486
C18 C 0.3325(2) 0.3672(8) 0.4066(3)
H16 H 0.3266 0.3142 0.3913
C19 C 0.3254(2) 0.3832(8) 0.5167(3)
H17 H 0.3071 0.3838 0.5058
C20 C 0.3296(2) 0.3616(9) 0.5522(3)
C21 C 0.3088(3) 0.3399(11) 0.5732(3)
H18 H 0.2898 0.3361 0.5642
C22 C 0.3141(3) 0.3226(11) 0.6078(3)
H19 H 0.2993 0.3120 0.6231
C23 C 0.3420(3) 0.3223(11) 0.6181(3)
H20 H 0.3471 0.3052 0.6409
C24 C 0.3630(2) 0.3462(9) 0.5961(3)
H21 H 0.3821 0.3502 0.6046
C25 C 0.3188(2) 0.5726(8) 0.3471(2)
C26 C 0.3262(2) 0.6187(7) 0.3161(2)
H22 H 0.3418 0.5929 0.3043
C27 C 0.3109(2) 0.7003(8) 0.3028(2)
H23 H 0.3162 0.7309 0.2822
C28 C 0.2877(2) 0.7387(8) 0.3193(2)
C29 C 0.2814(2) 0.6942(8) 0.3501(2)
H24 H 0.2661 0.7210 0.3623
C30 C 0.2965(2) 0.6134(7) 0.3635(2)
H25 H 0.2915 0.5850 0.3847
C31 C 0.2564(2) 0.8929(8) 0.3179(3)
C32 C 0.2416(2) 0.9685(8) 0.2941(3)
H26 H 0.2427 1.0381 0.3043
H27 H 0.2515 0.9703 0.2725
C33 C 0.2113(2) 0.9407(10) 0.2872(3)
H28 H 0.2019 0.9314 0.3090
H29 H 0.2102 0.8745 0.2747
C34 C 0.1959(2) 1.0224(9) 0.2666(3)
H30 H 0.2043 1.0281 0.2443
H31 H 0.1976 1.0886 0.2785
H32 H 0.1759 1.0037 0.2635
C35 C 0.3480(2) -0.1347(9) 0.2273(3)
H33 H 0.3347 -0.0935 0.2146
C36 C 0.3479(2) -0.2379(9) 0.2218(3)
H34 H 0.3351 -0.2670 0.2052
C37 C 0.3661(2) -0.2998(9) 0.2402(3)
H35 H 0.3664 -0.3720 0.2365
C38 C 0.3842(2) -0.2552(9) 0.2643(3)
H36 H 0.3968 -0.2972 0.2777
C39 C 0.3841(2) -0.1515(9) 0.2691(3)
C40 C 0.4018(2) -0.0963(9) 0.2931(3)
H37 H 0.4145 -0.1321 0.3083
C41 C 0.4177(2) 0.0562(8) 0.3195(2)
C42 C 0.4409(2) 0.1118(8) 0.3102(3)
H38 H 0.4454 0.1171 0.2869
C43 C 0.4578(2) 0.1599(8) 0.3349(2)
H39 H 0.4746 0.1937 0.3288
C44 C 0.4505(2) 0.1598(8) 0.3687(2)
C45 C 0.4276(2) 0.1017(9) 0.3774(3)
H40 H 0.4230 0.0966 0.4006
C46 C 0.4112(2) 0.0499(9) 0.3526(3)
H41 H 0.3954 0.0101 0.3589
C47 C 0.4530(2) 0.2707(9) 0.4194(3)
C48 C 0.4277(2) 0.3175(9) 0.4106(3)
H42 H 0.4201 0.3122 0.3879
C49 C 0.4132(2) 0.3716(9) 0.4340(3)
H43 H 0.3956 0.4029 0.4275
C50 C 0.4237(2) 0.3813(8) 0.4669(3)
C51 C 0.4493(2) 0.3361(9) 0.4756(3)
H44 H 0.4573 0.3442 0.4980
C52 C 0.4639(2) 0.2782(9) 0.4518(3)
H45 H 0.4812 0.2447 0.4583
C53 C 0.4131(2) 0.5379(9) 0.4892(3)
H46 H 0.4259 0.5656 0.4736
C54 C 0.3975(2) 0.6085(9) 0.5126(3)
C55 C 0.3990(3) 0.7143(10) 0.5131(3)
H47 H 0.4111 0.7501 0.4985
C56 C 0.3826(2) 0.7664(10) 0.5349(3)
H48 H 0.3829 0.8395 0.5358
C57 C 0.3656(2) 0.7104(10) 0.5554(3)
H49 H 0.3536 0.7451 0.5704
C58 C 0.3659(2) 0.6052(9) 0.5547(3)
H50 H 0.3546 0.5690 0.5702
C59 C 0.4969(2) 0.1932(9) 0.3964(3)
C60 C 0.5160(2) 0.2659(10) 0.3923(3)
H51 H 0.5095 0.3345 0.3888
C61 C 0.5451(2) 0.2478(9) 0.3928(3)
H52 H 0.5582 0.3028 0.3907
C62 C 0.5543(2) 0.1460(9) 0.3965(3)
C63 C 0.5344(2) 0.0711(10) 0.4021(3)
H53 H 0.5404 0.0028 0.4072
C64 C 0.5983(2) 0.0463(10) 0.4038(3)
C65 C 0.6278(2) 0.0322(10) 0.3920(3)
H54 H 0.6265 0.0028 0.3688
H55 H 0.6366 0.1011 0.3903
C66 C 0.6462(3) -0.0312(12) 0.4124(4)
H56 H 0.6370 -0.0984 0.4163
H57 H 0.6503 0.0021 0.4346
C67 C 0.6739(3) -0.0478(13) 0.3942(5)
H58 H 0.6706 -0.0946 0.3750
H59 H 0.6881 -0.0779 0.4101
H60 H 0.6809 0.0184 0.3860
C68 C 0.3434(2) 0.1328(8) 0.1947(2)
H61 H 0.3615 0.1332 0.1851
C69 C 0.3209(2) 0.1616(9) 0.1757(3)
H62 H 0.3233 0.1801 0.1527
C70 C 0.2943(2) 0.1653(8) 0.1885(2)
H63 H 0.2783 0.1860 0.1747
C71 C 0.2914(2) 0.1378(8) 0.2221(3)
H64 H 0.2734 0.1386 0.2319
C72 C 0.3150(2) 0.1097(7) 0.2407(2)
C73 C 0.3155(2) 0.0818(8) 0.2764(3)
H65 H 0.2986 0.0806 0.2887
C74 C 0.34053(19) 0.0341(8) 0.3270(2)
C75 C 0.3403(2) 0.1090(8) 0.3509(2)
H66 H 0.3396 0.1788 0.3436
C76 C 0.3411(2) 0.0890(8) 0.3845(2)
H67 H 0.3421 0.1438 0.4005
C77 C 0.5064(2) 0.0926(11) 0.4006(3)
H68 H 0.4930 0.0384 0.4025
C78 C 0.34055(19) -0.0143(8) 0.3956(2)
C79 C 0.34065(19) -0.0925(8) 0.3714(2)
H69 H 0.3407 -0.1627 0.3782
C80 C 0.3407(2) -0.0668(8) 0.3376(2)
H70 H 0.3408 -0.1201 0.3211
C81 C 0.3525(2) 0.0329(8) 0.4548(3)
C82 C 0.3807(2) 0.0576(8) 0.4515(3)
H71 H 0.3914 0.0243 0.4348
C83 C 0.3931(2) 0.1296(9) 0.4723(2)
H72 H 0.4122 0.1495 0.4688
C84 C 0.3786(2) 0.1755(8) 0.4987(2)
C85 C 0.3509(2) 0.1457(8) 0.5032(2)
H73 H 0.3408 0.1727 0.5216
C86 C 0.3376(2) 0.0748(8) 0.4805(3)
H74 H 0.3184 0.0563 0.4830
C87 C 0.4133(2) 0.2159(9) 0.5383(3)
H75 H 0.4194 0.1464 0.5367
C88 C 0.4283(2) 0.2901(9) 0.5610(3)
C89 C 0.4507(3) 0.2642(9) 0.5836(3)
H76 H 0.4579 0.1959 0.5848
C90 C 0.4626(3) 0.3441(11) 0.6048(3)
H77 H 0.4775 0.3296 0.6210
C91 C 0.4524(3) 0.4390(11) 0.6012(3)
H78 H 0.4604 0.4934 0.6146
C92 C 0.4305(2) 0.4591(9) 0.5784(3)
H79 H 0.4239 0.5280 0.5764
C93 C 0.3199(2) -0.1145(7) 0.4417(2)
C94 C 0.2941(2) -0.1306(8) 0.4241(3)
H80 H 0.2892 -0.0900 0.4046
C95 C 0.2756(2) -0.2056(9) 0.4347(3)
H81 H 0.2581 -0.2171 0.4224
C96 C 0.2825(2) -0.2637(8) 0.4632(3)
C97 C 0.3075(2) -0.2459(8) 0.4812(3)
H82 H 0.3118 -0.2846 0.5012
C98 C 0.3268(2) -0.1708(8) 0.4705(3)
H83 H 0.3442 -0.1594 0.4829
C99 C 0.2631(3) -0.4147(10) 0.4929(4)
C100 C 0.2374(3) -0.4837(9) 0.4922(3)
H84 H 0.2213 -0.4475 0.4804
H85 H 0.2320 -0.4973 0.5158
C101 C 0.2424(3) -0.5861(11) 0.4744(4)
H86 H 0.2562 -0.6269 0.4884
H87 H 0.2244 -0.6250 0.4729
C102 C 0.2533(3) -0.5752(13) 0.4397(4)
H88 H 0.2428 -0.5204 0.4276
H89 H 0.2506 -0.6402 0.4274
H90 H 0.2735 -0.5578 0.4413
O1 O 0.25232(16) 0.8926(6) 0.34895(19)
O2 O 0.2847(2) -0.4319(7) 0.5116(2)
O3 O 0.58864(18) -0.0170(8) 0.4241(3)
S1 S 0.23497(6) 0.2926(2) 0.29705(7)
O4 O 0.21893(14) 0.3401(6) 0.26943(16)
O5 O 0.21815(14) 0.2314(5) 0.32044(17)
O6 O 0.26123(14) 0.2463(5) 0.28825(16)
C103 C 0.2469(2) 0.4005(8) 0.3226(3)
F1 F 0.26442(14) 0.3743(5) 0.34832(16)
F2 F 0.25968(12) 0.4725(5) 0.30475(16)
F3 F 0.22488(14) 0.4501(5) 0.33666(16)
S2 S 0.62233(8) 0.3660(3) 0.35509(9)
O7 O 0.60195(17) 0.4258(7) 0.3732(2)
O8 O 0.61364(17) 0.2625(6) 0.3474(2)
O9 O 0.65234(17) 0.3803(8) 0.3655(2)
C104 C 0.6209(3) 0.4308(10) 0.3115(3)
F4 F 0.6302(2) 0.5250(6) 0.3163(2)
F5 F 0.5933(2) 0.4235(8) 0.3006(2)
F6 F 0.63865(19) 0.3754(6) 0.29251(18)
S3 S 0.40882(14) 0.7663(5) 0.41575(18)
O10 O 0.4364(3) 0.7360(11) 0.4341(4)
O11 O 0.3830(3) 0.7478(10) 0.4294(3)
O12 O 0.4126(3) 0.8672(10) 0.4019(4)
C105 C 0.4082(4) 0.6854(14) 0.3738(4)
F7 F 0.3855(3) 0.7128(11) 0.3570(3)
F8 F 0.4075(3) 0.5909(10) 0.3856(3)
F9 F 0.4318(3) 0.7030(11) 0.3589(4)
N19 N 0.2760(3) 0.1562(11) 0.4390(3)
C106 C 0.2719(3) 0.1438(11) 0.4092(4)
C107 C 0.2670(3) 0.1275(11) 0.3743(4)
H91 H 0.2832 0.1526 0.3619
H92 H 0.2498 0.1647 0.3665
H93 H 0.2644 0.0537 0.3699
N20 N 0.4019(4) 0.7748(18) 0.1610(5)
C108 C 0.4163(6) 0.726(3) 0.1748(7)
C109 C 0.4362(5) 0.6571(19) 0.1933(6)
H94 H 0.4318 0.6557 0.2174
H95 H 0.4556 0.6819 0.1909
H96 H 0.4344 0.5875 0.1838
loop_
_geom_bond_atom_site_label_1
_geom_bond_atom_site_label_2
_geom_bond_site_symmetry_1
_geom_bond_site_symmetry_2
Fe1 N1 1_555 1_555
Fe2 N7 1_555 1_555
N1 C1 1_555 1_555
N2 Fe1 1_555 1_555
N3 Fe1 1_555 1_555
N4 Fe1 1_555 1_555
N5 Fe1 1_555 1_555
N6 Fe1 1_555 1_555
N7 C16 1_555 1_555
N8 Fe2 1_555 1_555
N9 Fe2 1_555 1_555
N10 Fe2 1_555 1_555
N11 Fe2 1_555 1_555
N12 Fe2 1_555 1_555
N13 C78 1_555 1_555
N14 C44 1_555 1_555
N15 C10 1_555 1_555
N16 H1 1_555 1_555
N17 H2 1_555 1_555
N18 H3 1_555 1_555
C1 H4 1_555 1_555
C2 C1 1_555 1_555
H5 C2 1_555 1_555
C3 C2 1_555 1_555
H6 C3 1_555 1_555
C4 C3 1_555 1_555
H7 C4 1_555 1_555
C5 N1 1_555 1_555
C6 N2 1_555 1_555
H8 C6 1_555 1_555
C7 N2 1_555 1_555
C8 C7 1_555 1_555
H9 C8 1_555 1_555
C9 C8 1_555 1_555
H10 C9 1_555 1_555
C10 C9 1_555 1_555
C11 C10 1_555 1_555
H11 C11 1_555 1_555
C12 C7 1_555 1_555
H12 C12 1_555 1_555
C13 N15 1_555 1_555
C14 C13 1_555 1_555
H13 C14 1_555 1_555
C15 C14 1_555 1_555
H14 C15 1_555 1_555
C16 C15 1_555 1_555
C17 C16 1_555 1_555
H15 C17 1_555 1_555
C18 C13 1_555 1_555
H16 C18 1_555 1_555
C19 N7 1_555 1_555
H17 C19 1_555 1_555
C20 N8 1_555 1_555
C21 C20 1_555 1_555
H18 C21 1_555 1_555
C22 C21 1_555 1_555
H19 C22 1_555 1_555
C23 C22 1_555 1_555
H20 C23 1_555 1_555
C24 N8 1_555 1_555
H21 C24 1_555 1_555
C25 N15 1_555 1_555
C26 C25 1_555 1_555
H22 C26 1_555 1_555
C27 C26 1_555 1_555
H23 C27 1_555 1_555
C28 N16 1_555 1_555
C29 C28 1_555 1_555
H24 C29 1_555 1_555
C30 C25 1_555 1_555
H25 C30 1_555 1_555
C31 N16 1_555 1_555
C32 C31 1_555 1_555
H26 C32 1_555 1_555
H27 C32 1_555 1_555
C33 C32 1_555 1_555
H28 C33 1_555 1_555
H29 C33 1_555 1_555
C34 C33 1_555 1_555
H30 C34 1_555 1_555
H31 C34 1_555 1_555
H32 C34 1_555 1_555
C35 N3 1_555 1_555
H33 C35 1_555 1_555
C36 C35 1_555 1_555
H34 C36 1_555 1_555
C37 C36 1_555 1_555
H35 C37 1_555 1_555
C38 C37 1_555 1_555
H36 C38 1_555 1_555
C39 N3 1_555 1_555
C40 N4 1_555 1_555
H37 C40 1_555 1_555
C41 N4 1_555 1_555
C42 C41 1_555 1_555
H38 C42 1_555 1_555
C43 C42 1_555 1_555
H39 C43 1_555 1_555
C44 C43 1_555 1_555
C45 C44 1_555 1_555
H40 C45 1_555 1_555
C46 C41 1_555 1_555
H41 C46 1_555 1_555
C47 N14 1_555 1_555
C48 C47 1_555 1_555
H42 C48 1_555 1_555
C49 C48 1_555 1_555
H43 C49 1_555 1_555
C50 N9 1_555 1_555
C51 C50 1_555 1_555
H44 C51 1_555 1_555
C52 C47 1_555 1_555
H45 C52 1_555 1_555
C53 N9 1_555 1_555
H46 C53 1_555 1_555
C54 N10 1_555 1_555
C55 C54 1_555 1_555
H47 C55 1_555 1_555
C56 C55 1_555 1_555
H48 C56 1_555 1_555
C57 C56 1_555 1_555
H49 C57 1_555 1_555
C58 N10 1_555 1_555
H50 C58 1_555 1_555
C59 N14 1_555 1_555
C60 C59 1_555 1_555
H51 C60 1_555 1_555
C61 C60 1_555 1_555
H52 C61 1_555 1_555
C62 N18 1_555 1_555
C63 C62 1_555 1_555
H53 C63 1_555 1_555
C64 N18 1_555 1_555
C65 C64 1_555 1_555
H54 C65 1_555 1_555
H55 C65 1_555 1_555
C66 C65 1_555 1_555
H56 C66 1_555 1_555
H57 C66 1_555 1_555
C67 C66 1_555 1_555
H58 C67 1_555 1_555
H59 C67 1_555 1_555
H60 C67 1_555 1_555
C68 N5 1_555 1_555
H61 C68 1_555 1_555
C69 C68 1_555 1_555
H62 C69 1_555 1_555
C70 C69 1_555 1_555
H63 C70 1_555 1_555
C71 C70 1_555 1_555
H64 C71 1_555 1_555
C72 N5 1_555 1_555
C73 N6 1_555 1_555
H65 C73 1_555 1_555
C74 N6 1_555 1_555
C75 C74 1_555 1_555
H66 C75 1_555 1_555
C76 C75 1_555 1_555
H67 C76 1_555 1_555
C77 C59 1_555 1_555
H68 C77 1_555 1_555
C78 C76 1_555 1_555
C79 C78 1_555 1_555
H69 C79 1_555 1_555
C80 C74 1_555 1_555
H70 C80 1_555 1_555
C81 N13 1_555 1_555
C82 C81 1_555 1_555
H71 C82 1_555 1_555
C83 C82 1_555 1_555
H72 C83 1_555 1_555
C84 N11 1_555 1_555
C85 C84 1_555 1_555
H73 C85 1_555 1_555
C86 C81 1_555 1_555
H74 C86 1_555 1_555
C87 N11 1_555 1_555
H75 C87 1_555 1_555
C88 N12 1_555 1_555
C89 C88 1_555 1_555
H76 C89 1_555 1_555
C90 C89 1_555 1_555
H77 C90 1_555 1_555
C91 C90 1_555 1_555
H78 C91 1_555 1_555
C92 N12 1_555 1_555
H79 C92 1_555 1_555
C93 N13 1_555 1_555
C94 C93 1_555 1_555
H80 C94 1_555 1_555
C95 C94 1_555 1_555
H81 C95 1_555 1_555
C96 N17 1_555 1_555
C97 C96 1_555 1_555
H82 C97 1_555 1_555
C98 C93 1_555 1_555
H83 C98 1_555 1_555
C99 N17 1_555 1_555
C100 C99 1_555 1_555
H84 C100 1_555 1_555
H85 C100 1_555 1_555
C101 C100 1_555 1_555
H86 C101 1_555 1_555
H87 C101 1_555 1_555
C102 C101 1_555 1_555
H88 C102 1_555 1_555
H89 C102 1_555 1_555
H90 C102 1_555 1_555
O1 C31 1_555 1_555
O2 C99 1_555 1_555
O3 C64 1_555 1_555
S1 O4 1_555 1_555
O5 S1 1_555 1_555
O6 S1 1_555 1_555
C103 S1 1_555 1_555
F1 C103 1_555 1_555
F2 C103 1_555 1_555
F3 C103 1_555 1_555
S2 O7 1_555 1_555
O8 S2 1_555 1_555
O9 S2 1_555 1_555
C104 S2 1_555 1_555
F4 C104 1_555 1_555
F5 C104 1_555 1_555
F6 C104 1_555 1_555
S3 O10 1_555 1_555
O11 S3 1_555 1_555
O12 S3 1_555 1_555
C105 S3 1_555 1_555
F7 C105 1_555 1_555
F8 C105 1_555 1_555
F9 C105 1_555 1_555
N19 C106 1_555 1_555
C106 C107 1_555 1_555
C107 H91 1_555 1_555
H92 C107 1_555 1_555
H93 C107 1_555 1_555
N20 C108 1_555 1_555
C108 C109 1_555 1_555
C109 H94 1_555 1_555
H95 C109 1_555 1_555
H96 C109 1_555 1_555
C4 C5 1_555 1_555
C5 C6 1_555 1_555
C11 C12 1_555 1_555
C17 C18 1_555 1_555
C19 C20 1_555 1_555
C23 C24 1_555 1_555
C27 C28 1_555 1_555
C29 C30 1_555 1_555
C38 C39 1_555 1_555
C39 C40 1_555 1_555
C45 C46 1_555 1_555
C49 C50 1_555 1_555
C51 C52 1_555 1_555
C53 C54 1_555 1_555
C57 C58 1_555 1_555
C61 C62 1_555 1_555
C63 C77 1_555 1_555
C71 C72 1_555 1_555
C72 C73 1_555 1_555
C79 C80 1_555 1_555
C83 C84 1_555 1_555
C85 C86 1_555 1_555
C87 C88 1_555 1_555
C91 C92 1_555 1_555
C95 C96 1_555 1_555
C97 C98 1_555 1_555

#END
