
#######################################################################
#
#                 Cambridge Crystallographic Data Centre
#                                CCDC 
#
#######################################################################
#
# If this CIF has been generated from an entry in the Cambridge 
# Structural Database, then it will include bibliographic, chemical, 
# crystal, experimental, refinement or atomic coordinate data resulting 
# from the CCDC's data processing and validation procedures.
#
#######################################################################

data_HOJBOZ
_chemical_formula_moiety         
'C96 H78 Fe2 N18 O3 4+,4(C1 F3 O3 S1 1-),x(C2 H3 N1)'
_chemical_name_systematic        
'tris(\m-N-(4-(bis(4-((pyridin-2-ylmethylene)amino)phenyl)amino)phenyl)acetamide)-di-iron tetrakis(trifluoromethanesulfonate) acetonitrile solvate'
_symmetry_cell_setting           monoclinic
_symmetry_space_group_name_H-M   'P 21/n'
_symmetry_Int_Tables_number      14
_space_group_name_Hall           '-P 2yn'
loop_
_symmetry_equiv_pos_site_id
_symmetry_equiv_pos_as_xyz
1 x,y,z
2 1/2-x,1/2+y,1/2-z
3 -x,-y,-z
4 1/2+x,1/2-y,1/2+z
_cell_length_a                   12.0651(4)
_cell_length_b                   20.7223(6)
_cell_length_c                   45.3163(14)
_cell_angle_alpha                90
_cell_angle_beta                 96.757(2)
_cell_angle_gamma                90
_cell_volume                     11251.1
_exptl_crystal_colour            purple
_exptl_crystal_description       plate
_cell_formula_units_Z            4
loop_
_atom_site_label
_atom_site_type_symbol
_atom_site_fract_x
_atom_site_fract_y
_atom_site_fract_z
Fe1 Fe 0.77249(13) 0.11312(6) 0.11438(3)
Fe2 Fe 0.38728(9) 0.60350(5) 0.15408(2)
N1 N 0.8358(6) 0.1693(3) 0.14670(13)
N2 N 0.7190(7) 0.0562(4) 0.08071(15)
N3 N 0.7509(6) 0.1780(3) 0.08241(13)
N4 N 0.6176(7) 0.1211(3) 0.12493(13)
N5 N 0.3488(5) 0.5278(3) 0.17699(11)
N6 N 0.6180(6) 0.3224(3) 0.22515(12)
N7 N 0.2233(5) 0.6181(3) 0.15310(13)
N8 N 0.8292(5) 0.4477(3) 0.09111(12)
N9 N 0.2839(6) 0.3006(3) 0.08430(14)
N10 N 0.5515(5) 0.5880(3) 0.16040(11)
N11 N 0.6747(6) 0.2821(3) 0.34869(12)
H1 H 0.6276 0.3046 0.3580
N12 N 0.4223(5) 0.6503(3) 0.19198(11)
N13 N 0.3653(4) 0.5622(3) 0.11485(11)
N14 N 1.1574(6) 0.5626(4) 0.02898(16)
H2 H 1.1962 0.5343 0.0199
N15 N 0.4099(5) 0.6800(3) 0.13001(12)
N16 N -0.0687(7) 0.2265(4) -0.00069(17)
H3 H -0.0882 0.2559 -0.0143
O1 O 0.8181(5) 0.2120(3) 0.35565(12)
O2 O 1.1442(8) 0.6671(4) 0.03947(15)
O3 O -0.1156(7) 0.1242(4) 0.0127(2)
N17 N 0.9128(10) 0.0955(7) 0.1070(3)
C1 C 0.9563(12) 0.0635(8) 0.0852(3)
H4 H 0.9071 0.0489 0.0686
C2 C 1.0688(12) 0.0507(8) 0.0857(3)
H5 H 1.0957 0.0259 0.0704
C3 C 1.1409(11) 0.0748(9) 0.1087(3)
H6 H 1.2187 0.0668 0.1096
C4 C 1.0991(10) 0.1109(9) 0.1307(3)
H7 H 1.1477 0.1279 0.1468
C5 C 0.9849(10) 0.1217(9) 0.1286(3)
C6 C 0.9390(12) 0.1644(17) 0.1498(5)
H8 H 0.9850 0.1868 0.1649
C7 C 0.7803(7) 0.2084(4) 0.16716(15)
C8 C 0.7470(7) 0.1809(4) 0.19246(14)
H9 H 0.7629 0.1369 0.1972
C9 C 0.6892(7) 0.2193(4) 0.21090(14)
H10 H 0.6609 0.1998 0.2274
C10 C 0.6721(8) 0.2821(4) 0.20625(14)
C11 C 0.7088(8) 0.3083(4) 0.18053(17)
H11 H 0.6964 0.3528 0.1762
C12 C 0.7610(8) 0.2720(4) 0.16200(18)
H12 H 0.7850 0.2913 0.1448
C13 C 0.5515(7) 0.3736(4) 0.21388(14)
C14 C 0.4730(8) 0.3645(4) 0.18897(17)
H13 H 0.4646 0.3229 0.1802
C15 C 0.4066(8) 0.4151(4) 0.17660(18)
H14 H 0.3538 0.4080 0.1597
C16 C 0.4189(6) 0.4765(4) 0.18944(14)
C17 C 0.4903(7) 0.4848(4) 0.21451(15)
H15 H 0.4927 0.5254 0.2243
C18 C 0.5602(7) 0.4357(4) 0.22641(15)
H16 H 0.6139 0.4441 0.2430
C19 C 0.2468(7) 0.5256(4) 0.18227(17)
H17 H 0.2207 0.4926 0.1943
C20 C 0.1717(7) 0.5765(4) 0.16889(16)
C21 C 0.0604(7) 0.5829(5) 0.1727(2)
H18 H 0.0258 0.5530 0.1847
C22 C 0.0004(8) 0.6332(5) 0.1589(2)
H19 H -0.0764 0.6388 0.1611
C23 C 0.0522(7) 0.6739(5) 0.14243(18)
H20 H 0.0121 0.7087 0.1326
C24 C 0.1616(7) 0.6660(4) 0.13953(18)
H21 H 0.1963 0.6955 0.1274
C25 C 0.6332(8) 0.3097(4) 0.25672(15)
C26 C 0.7374(8) 0.2964(4) 0.27095(16)
H22 H 0.7992 0.2946 0.2598
C27 C 0.7539(7) 0.2855(4) 0.30124(16)
H23 H 0.8267 0.2764 0.3107
C28 C 0.6633(7) 0.2878(4) 0.31794(15)
C29 C 0.5566(7) 0.3011(4) 0.30307(15)
H24 H 0.4938 0.3022 0.3139
C30 C 0.5424(7) 0.3125(4) 0.27300(14)
H25 H 0.4703 0.3224 0.2633
C31 C 0.7500(8) 0.2457(5) 0.36619(17)
C32 C 0.7450(10) 0.2489(6) 0.39914(17)
H26 H 0.7352 0.2939 0.4050
H27 H 0.8145 0.2319 0.4096
H28 H 0.6819 0.2231 0.4042
C33 C 0.7017(10) -0.0081(5) 0.0816(2)
H29 H 0.7182 -0.0303 0.1000
C34 C 0.6597(10) -0.0432(6) 0.0560(2)
H30 H 0.6482 -0.0885 0.0570
C35 C 0.6355(10) -0.0110(6) 0.0294(2)
H31 H 0.6066 -0.0336 0.0120
C36 C 0.6545(9) 0.0560(5) 0.0287(2)
H32 H 0.6394 0.0792 0.0106
C37 C 0.6950(9) 0.0876(4) 0.05431(19)
C38 C 0.7151(8) 0.1551(4) 0.05673(18)
H33 H 0.7025 0.1825 0.0398
C39 C 0.7708(8) 0.2472(4) 0.08457(16)
C40 C 0.8769(7) 0.2690(4) 0.09323(16)
H34 H 0.9364 0.2393 0.0978
C41 C 0.8971(7) 0.3368(4) 0.09533(15)
H35 H 0.9706 0.3524 0.1010
C42 C 0.8106(7) 0.3795(4) 0.08911(14)
C43 C 0.7044(7) 0.3561(4) 0.07991(16)
H36 H 0.6446 0.3854 0.0749
C44 C 0.6852(7) 0.2911(4) 0.07796(17)
H37 H 0.6117 0.2758 0.0720
C45 C 0.7582(6) 0.4842(4) 0.10863(13)
C46 C 0.7099(6) 0.5408(4) 0.09779(13)
H38 H 0.7226 0.5558 0.0787
C47 C 0.6407(6) 0.5769(4) 0.11512(13)
H39 H 0.6085 0.6167 0.1081
C48 C 0.6215(6) 0.5519(4) 0.14284(13)
C49 C 0.6690(6) 0.4946(4) 0.15290(14)
H40 H 0.6542 0.4775 0.1715
C50 C 0.7386(6) 0.4620(4) 0.13584(14)
H41 H 0.7734 0.4232 0.1432
C51 C 0.6002(7) 0.6120(3) 0.18438(14)
H42 H 0.6783 0.6069 0.1897
C52 C 0.5315(7) 0.6474(3) 0.20330(14)
C53 C 0.5753(7) 0.6749(4) 0.23065(15)
H43 H 0.6523 0.6719 0.2379
C54 C 0.4984(8) 0.7071(4) 0.24657(17)
H44 H 0.5229 0.7262 0.2653
C55 C 0.3907(8) 0.7108(4) 0.23535(19)
H45 H 0.3389 0.7329 0.2459
C56 C 0.3562(7) 0.6825(4) 0.20872(18)
H46 H 0.2793 0.6859 0.2014
C57 C 0.9115(6) 0.4784(4) 0.07627(15)
C58 C 0.9497(7) 0.4476(4) 0.05195(14)
H47 H 0.9206 0.4066 0.0456
C59 C 1.0306(7) 0.4770(5) 0.03709(17)
H48 H 1.0567 0.4557 0.0207
C60 C 1.0738(6) 0.5369(5) 0.04574(17)
C61 C 1.0371(7) 0.5669(5) 0.07025(17)
H49 H 1.0661 0.6079 0.0766
C62 C 0.9577(6) 0.5367(4) 0.08558(15)
H50 H 0.9352 0.5568 0.1028
C63 C 1.1827(8) 0.6237(6) 0.0256(2)
C64 C 1.2616(8) 0.6395(7) 0.0031(2)
H51 H 1.2333 0.6769 -0.0087
H52 H 1.2673 0.6024 -0.0100
H53 H 1.3355 0.6496 0.0135
N18 N 0.8037(13) 0.0494(6) 0.1476(3)
C65 C 0.8891(13) 0.0087(8) 0.1556(3)
H54 H 0.9521 0.0099 0.1448
C66 C 0.8890(13) -0.0349(8) 0.1787(3)
H55 H 0.9554 -0.0564 0.1866
C67 C 0.7896(13) -0.0458(6) 0.1899(3)
H56 H 0.7828 -0.0805 0.2032
C68 C 0.6993(12) -0.0059(6) 0.1815(3)
H57 H 0.6334 -0.0089 0.1910
C69 C 0.7074(12) 0.0387(6) 0.1589(3)
C70 C 0.6143(17) 0.0839(7) 0.1486(3)
H58 H 0.5511 0.0860 0.1592
C71 C 0.5326(8) 0.1664(4) 0.11450(16)
C72 C 0.4823(8) 0.1634(4) 0.08663(18)
H59 H 0.5047 0.1311 0.0737
C73 C 0.3985(8) 0.2060(4) 0.07596(17)
H60 H 0.3643 0.2027 0.0560
C74 C 0.3649(7) 0.2534(4) 0.09450(18)
C75 C 0.4180(8) 0.2548(5) 0.12350(19)
H61 H 0.3954 0.2864 0.1368
C76 C 0.5002(8) 0.2132(5) 0.13362(19)
H62 H 0.5352 0.2161 0.1535
C77 C 0.3038(6) 0.3658(4) 0.09312(16)
C78 C 0.2218(7) 0.4035(4) 0.10271(17)
H63 H 0.1507 0.3855 0.1047
C79 C 0.2426(7) 0.4684(4) 0.10952(16)
H64 H 0.1847 0.4937 0.1161
C80 C 0.3451(6) 0.4975(4) 0.10703(15)
C81 C 0.4275(7) 0.4580(5) 0.0972(2)
H65 H 0.4990 0.4754 0.0951
C82 C 0.4052(7) 0.3934(5) 0.0903(2)
H66 H 0.4621 0.3677 0.0834
C83 C 0.3745(6) 0.6023(4) 0.09273(16)
H67 H 0.3639 0.5882 0.0726
C84 C 0.4013(6) 0.6683(4) 0.10029(15)
C85 C 0.4151(8) 0.7170(5) 0.08008(18)
H68 H 0.4096 0.7074 0.0594
C86 C 0.4371(8) 0.7796(4) 0.08995(18)
H69 H 0.4425 0.8141 0.0763
C87 C 0.4504(8) 0.7897(4) 0.11928(18)
H70 H 0.4719 0.8312 0.1268
C88 C 0.4333(7) 0.7405(4) 0.13863(16)
H71 H 0.4384 0.7502 0.1592
C89 C 0.1935(8) 0.2827(4) 0.06479(19)
C90 C 0.1388(8) 0.2249(5) 0.06648(19)
H72 H 0.1622 0.1972 0.0827
C91 C 0.0524(8) 0.2048(5) 0.0461(2)
H73 H 0.0174 0.1644 0.0484
C92 C 0.0163(7) 0.2448(5) 0.0218(2)
C93 C 0.0679(8) 0.3034(5) 0.0202(2)
H74 H 0.0432 0.3316 0.0043
C94 C 0.1538(8) 0.3227(5) 0.0407(2)
H75 H 0.1872 0.3638 0.0387
C95 C -0.1247(9) 0.1695(7) -0.0042(3)
C96 C -0.2086(10) 0.1688(7) -0.0336(3)
H76 H -0.2465 0.1270 -0.0356
H77 H -0.1674 0.1759 -0.0507
H78 H -0.2639 0.2032 -0.0327
S1 S 0.8436(3) 0.55882(14) 0.24545(5)
O4 O 0.8625(6) 0.5991(3) 0.22052(14)
O5 O 0.7309(6) 0.5502(3) 0.24968(15)
O6 O 0.9172(6) 0.5703(4) 0.27183(14)
C109 C 0.8841(8) 0.4812(6) 0.23389(19)
F1 F 0.9939(6) 0.4789(3) 0.23007(14)
F2 F 0.8769(6) 0.4358(3) 0.25453(12)
F3 F 0.8323(6) 0.4615(3) 0.20856(13)
S2 S 0.1432(4) 0.2809(3) 0.17163(10)
O7 O 0.0881(9) 0.2765(6) 0.1428(2)
O8 O 0.1188(12) 0.2284(7) 0.1924(3)
O9 O 0.2610(10) 0.2983(8) 0.1742(3)
C110 C 0.0792(13) 0.3543(7) 0.1886(3)
F4 F 0.1355(9) 0.3666(5) 0.2142(2)
F5 F 0.0775(9) 0.4021(5) 0.1690(2)
F6 F -0.0282(9) 0.3384(6) 0.1915(3)
S4 S 0.5230(8) 0.8208(5) 0.0054(2)
O13 O 0.4942(13) 0.8542(8) 0.0302(3)
O14 O 0.5628(15) 0.8700(9) -0.0168(4)
O15 O 0.4468(14) 0.7792(8) -0.0106(4)
C112 C 0.6599(15) 0.7761(9) 0.0181(4)
F10 F 0.6148(14) 0.7307(8) 0.0356(3)
F11 F 0.6930(11) 0.7470(7) -0.0050(3)
F12 F 0.7292(12) 0.8147(8) 0.0335(3)
S6 S 0.4732(8) 0.3652(5) 0.39705(19)
O19 O 0.5541(14) 0.3755(9) 0.3800(4)
O20 O 0.4432(15) 0.4114(8) 0.4200(4)
O21 O 0.4486(15) 0.2972(8) 0.4060(4)
F16 F 0.3623(13) 0.4416(7) 0.3526(3)
F17 F 0.3276(12) 0.3347(7) 0.3461(3)
C114 C 0.3421(16) 0.3839(10) 0.3650(4)
F18 F 0.2553(13) 0.3872(8) 0.3821(3)
N21 N 0.3535(12) 0.1024(7) 0.1775(3)
C116 C 0.3742(14) 0.1412(9) 0.1969(4)
C117 C 0.3946(13) 0.1789(9) 0.2240(3)
H89 H 0.3733 0.1537 0.2407
H90 H 0.3501 0.2186 0.2219
H91 H 0.4740 0.1899 0.2276
N22 N 0.2589(13) 0.5549(7) 0.2490(3)
C118 C 0.3255(16) 0.5510(9) 0.2671(4)
C119 C 0.4215(16) 0.5641(10) 0.2878(4)
H92 H 0.4226 0.6099 0.2931
H93 H 0.4891 0.5535 0.2787
H94 H 0.4189 0.5378 0.3057
N19? N 0.9507(11) 0.1082(8) 0.1132(3)
C97? C 0.9988(12) 0.0698(8) 0.0944(4)
H79? H 0.9518 0.0476 0.0794
C98? C 1.1125(13) 0.0607(9) 0.0957(4)
H80? H 1.1428 0.0333 0.0819
C99? C 1.1809(11) 0.0924(9) 0.1175(4)
H81? H 1.2596 0.0874 0.1189
C100? C 1.1340(11) 0.1317(9) 0.1373(3)
H82? H 1.1799 0.1541 0.1525
C101? C 1.0185(12) 0.1380(9) 0.1347(3)
C102? C 0.9414(12) 0.1679(19) 0.1538(6)
H83? H 0.9716 0.1869 0.1721
N20? N 0.7547(13) 0.0392(6) 0.1411(3)
C103? C 0.8348(15) -0.0053(8) 0.1482(4)
H84? H 0.8969 -0.0062 0.1371
C104? C 0.8311(16) -0.0497(9) 0.1708(4)
H85? H 0.8940 -0.0757 0.1773
C105? C 0.7336(17) -0.0549(8) 0.1835(4)
H86? H 0.7266 -0.0867 0.1983
C106? C 0.6457(14) -0.0136(7) 0.1748(3)
H87? H 0.5772 -0.0174 0.1831
C107? C 0.6593(13) 0.0335(7) 0.1536(3)
C108? C 0.5700(18) 0.0809(7) 0.1425(4)
H88? H 0.4952 0.0819 0.1471
S3? S 0.1883(7) 0.2899(4) 0.19550(17)
O10? O 0.2430(15) 0.3204(9) 0.2218(3)
O11? O 0.2337(18) 0.2976(13) 0.1668(4)
O12? O 0.1430(19) 0.2306(10) 0.2000(5)
C111? C 0.0603(16) 0.3491(10) 0.1863(4)
F7? F -0.0030(13) 0.3323(8) 0.1624(3)
F8? F 0.0089(13) 0.3471(8) 0.2112(4)
F9? F 0.0964(14) 0.4082(8) 0.1850(4)
S5? S 0.5374(7) 0.7977(4) 0.01277(15)
O16? O 0.4164(12) 0.7903(9) 0.0111(4)
F13? F 0.5530(14) 0.6757(8) 0.0237(3)
F14? F 0.6095(15) 0.6980(9) -0.0176(3)
O17? O 0.5868(14) 0.8142(9) 0.0425(3)
C113? C 0.6090(16) 0.7154(9) 0.0086(4)
F15? F 0.7215(14) 0.7180(10) 0.0193(4)
O18? O 0.5896(16) 0.8416(9) -0.0067(4)
S7? S 0.4146(12) 0.3710(7) 0.3845(3)
F19? F 0.629(2) 0.3810(15) 0.4156(6)
O22? O 0.317(2) 0.3444(17) 0.3951(7)
C115? C 0.526(2) 0.3777(15) 0.4231(6)
O23? O 0.400(3) 0.4355(13) 0.3732(8)
F20? F 0.523(3) 0.4223(15) 0.4426(7)
F21? F 0.528(3) 0.3191(14) 0.4361(6)
O24? O 0.487(3) 0.3342(16) 0.3694(7)
loop_
_geom_bond_atom_site_label_1
_geom_bond_atom_site_label_2
_geom_bond_site_symmetry_1
_geom_bond_site_symmetry_2
Fe1 N1 1_555 1_555
Fe2 N5 1_555 1_555
N1 C6 1_555 1_555
N2 Fe1 1_555 1_555
N3 Fe1 1_555 1_555
N4 Fe1 1_555 1_555
N5 C16 1_555 1_555
N6 C10 1_555 1_555
N7 Fe2 1_555 1_555
N8 C42 1_555 1_555
N9 C74 1_555 1_555
N10 Fe2 1_555 1_555
N11 H1 1_555 1_555
N12 Fe2 1_555 1_555
N13 Fe2 1_555 1_555
N14 H2 1_555 1_555
N15 Fe2 1_555 1_555
N16 H3 1_555 1_555
O1 C31 1_555 1_555
O2 C63 1_555 1_555
O3 C95 1_555 1_555
N17 Fe1 1_555 1_555
C1 N17 1_555 1_555
H4 C1 1_555 1_555
C2 C1 1_555 1_555
H5 C2 1_555 1_555
C3 C2 1_555 1_555
H6 C3 1_555 1_555
C4 C3 1_555 1_555
H7 C4 1_555 1_555
C5 N17 1_555 1_555
C6 C5 1_555 1_555
H8 C6 1_555 1_555
C7 N1 1_555 1_555
C8 C7 1_555 1_555
H9 C8 1_555 1_555
C9 C8 1_555 1_555
H10 C9 1_555 1_555
C10 C9 1_555 1_555
C11 C10 1_555 1_555
H11 C11 1_555 1_555
C12 C7 1_555 1_555
H12 C12 1_555 1_555
C13 N6 1_555 1_555
C14 C13 1_555 1_555
H13 C14 1_555 1_555
C15 C14 1_555 1_555
H14 C15 1_555 1_555
C16 C15 1_555 1_555
C17 C16 1_555 1_555
H15 C17 1_555 1_555
C18 C13 1_555 1_555
H16 C18 1_555 1_555
C19 N5 1_555 1_555
H17 C19 1_555 1_555
C20 N7 1_555 1_555
C21 C20 1_555 1_555
H18 C21 1_555 1_555
C22 C21 1_555 1_555
H19 C22 1_555 1_555
C23 C22 1_555 1_555
H20 C23 1_555 1_555
C24 N7 1_555 1_555
H21 C24 1_555 1_555
C25 N6 1_555 1_555
C26 C25 1_555 1_555
H22 C26 1_555 1_555
C27 C26 1_555 1_555
H23 C27 1_555 1_555
C28 N11 1_555 1_555
C29 C28 1_555 1_555
H24 C29 1_555 1_555
C30 C25 1_555 1_555
H25 C30 1_555 1_555
C31 N11 1_555 1_555
C32 C31 1_555 1_555
H26 C32 1_555 1_555
H27 C32 1_555 1_555
H28 C32 1_555 1_555
C33 N2 1_555 1_555
H29 C33 1_555 1_555
C34 C33 1_555 1_555
H30 C34 1_555 1_555
C35 C34 1_555 1_555
H31 C35 1_555 1_555
C36 C35 1_555 1_555
H32 C36 1_555 1_555
C37 N2 1_555 1_555
C38 N3 1_555 1_555
H33 C38 1_555 1_555
C39 N3 1_555 1_555
C40 C39 1_555 1_555
H34 C40 1_555 1_555
C41 C40 1_555 1_555
H35 C41 1_555 1_555
C42 C41 1_555 1_555
C43 C42 1_555 1_555
H36 C43 1_555 1_555
C44 C39 1_555 1_555
H37 C44 1_555 1_555
C45 N8 1_555 1_555
C46 C45 1_555 1_555
H38 C46 1_555 1_555
C47 C46 1_555 1_555
H39 C47 1_555 1_555
C48 N10 1_555 1_555
C49 C48 1_555 1_555
H40 C49 1_555 1_555
C50 C45 1_555 1_555
H41 C50 1_555 1_555
C51 N10 1_555 1_555
H42 C51 1_555 1_555
C52 N12 1_555 1_555
C53 C52 1_555 1_555
H43 C53 1_555 1_555
C54 C53 1_555 1_555
H44 C54 1_555 1_555
C55 C54 1_555 1_555
H45 C55 1_555 1_555
C56 N12 1_555 1_555
H46 C56 1_555 1_555
C57 N8 1_555 1_555
C58 C57 1_555 1_555
H47 C58 1_555 1_555
C59 C58 1_555 1_555
H48 C59 1_555 1_555
C60 N14 1_555 1_555
C61 C60 1_555 1_555
H49 C61 1_555 1_555
C62 C57 1_555 1_555
H50 C62 1_555 1_555
C63 N14 1_555 1_555
C64 C63 1_555 1_555
H51 C64 1_555 1_555
H52 C64 1_555 1_555
H53 C64 1_555 1_555
N18 Fe1 1_555 1_555
C65 N18 1_555 1_555
H54 C65 1_555 1_555
C66 C65 1_555 1_555
H55 C66 1_555 1_555
C67 C66 1_555 1_555
H56 C67 1_555 1_555
C68 C67 1_555 1_555
H57 C68 1_555 1_555
C69 N18 1_555 1_555
C70 N4 1_555 1_555
H58 C70 1_555 1_555
C71 N4 1_555 1_555
C72 C71 1_555 1_555
H59 C72 1_555 1_555
C73 C72 1_555 1_555
H60 C73 1_555 1_555
C74 C73 1_555 1_555
C75 C74 1_555 1_555
H61 C75 1_555 1_555
C76 C71 1_555 1_555
H62 C76 1_555 1_555
C77 N9 1_555 1_555
C78 C77 1_555 1_555
H63 C78 1_555 1_555
C79 C78 1_555 1_555
H64 C79 1_555 1_555
C80 N13 1_555 1_555
C81 C80 1_555 1_555
H65 C81 1_555 1_555
C82 C77 1_555 1_555
H66 C82 1_555 1_555
C83 N13 1_555 1_555
H67 C83 1_555 1_555
C84 N15 1_555 1_555
C85 C84 1_555 1_555
H68 C85 1_555 1_555
C86 C85 1_555 1_555
H69 C86 1_555 1_555
C87 C86 1_555 1_555
H70 C87 1_555 1_555
C88 N15 1_555 1_555
H71 C88 1_555 1_555
C89 N9 1_555 1_555
C90 C89 1_555 1_555
H72 C90 1_555 1_555
C91 C90 1_555 1_555
H73 C91 1_555 1_555
C92 N16 1_555 1_555
C93 C92 1_555 1_555
H74 C93 1_555 1_555
C94 C89 1_555 1_555
H75 C94 1_555 1_555
C95 N16 1_555 1_555
C96 C95 1_555 1_555
H76 C96 1_555 1_555
H77 C96 1_555 1_555
H78 C96 1_555 1_555
S1 O4 1_555 1_555
O5 S1 1_555 1_555
O6 S1 1_555 1_555
C109 S1 1_555 1_555
F1 C109 1_555 1_555
F2 C109 1_555 1_555
F3 C109 1_555 1_555
S2 O7 1_555 1_555
O8 S2 1_555 1_555
O9 S2 1_555 1_555
C110 S2 1_555 1_555
F4 C110 1_555 1_555
F5 C110 1_555 1_555
F6 C110 1_555 1_555
S4 O13 1_555 1_555
O14 S4 1_555 1_555
O15 S4 1_555 1_555
C112 S4 1_555 1_555
F10 C112 1_555 1_555
F11 C112 1_555 1_555
F12 C112 1_555 1_555
S6 O19 1_555 1_555
O20 S6 1_555 1_555
O21 S6 1_555 1_555
F16 C114 1_555 1_555
F17 C114 1_555 1_555
C114 S6 1_555 1_555
F18 C114 1_555 1_555
N21 C116 1_555 1_555
C116 C117 1_555 1_555
C117 H89 1_555 1_555
H90 C117 1_555 1_555
H91 C117 1_555 1_555
N22 C118 1_555 1_555
C118 C119 1_555 1_555
C119 H92 1_555 1_555
H93 C119 1_555 1_555
H94 C119 1_555 1_555
C4 C5 1_555 1_555
C11 C12 1_555 1_555
C17 C18 1_555 1_555
C19 C20 1_555 1_555
C23 C24 1_555 1_555
C27 C28 1_555 1_555
C29 C30 1_555 1_555
C36 C37 1_555 1_555
C37 C38 1_555 1_555
C43 C44 1_555 1_555
C47 C48 1_555 1_555
C49 C50 1_555 1_555
C51 C52 1_555 1_555
C55 C56 1_555 1_555
C59 C60 1_555 1_555
C61 C62 1_555 1_555
C68 C69 1_555 1_555
C69 C70 1_555 1_555
C75 C76 1_555 1_555
C79 C80 1_555 1_555
C81 C82 1_555 1_555
C83 C84 1_555 1_555
C87 C88 1_555 1_555
C91 C92 1_555 1_555
C93 C94 1_555 1_555

#END
