# generated using pymatgen
data_Fe2H96C109S3N20(O4F3)3
_symmetry_space_group_name_H-M   'P 1'
_cell_length_a   12.98690000
_cell_length_b   24.47847412
_cell_length_c   39.41400000
_cell_angle_alpha   92.28504569
_cell_angle_beta   90.00000000
_cell_angle_gamma   105.38310651
_symmetry_Int_Tables_number   1
_chemical_formula_structural   Fe2H96C109S3N20(O4F3)3
_chemical_formula_sum   'Fe8 H384 C436 S12 N80 O48 F36'
_cell_volume   12070.46408359
_cell_formula_units_Z   4
loop_
 _symmetry_equiv_pos_site_id
 _symmetry_equiv_pos_as_xyz
  1  'x, y, z'
loop_
 _atom_site_type_symbol
 _atom_site_label
 _atom_site_symmetry_multiplicity
 _atom_site_fract_x
 _atom_site_fract_y
 _atom_site_fract_z
 _atom_site_occupancy
  C  C1  1  0.587600  0.177200  0.794200  1
  C  C2  1  0.410400  0.822800  0.705800  1
  C  C3  1  0.412400  0.822800  0.205800  1
  C  C4  1  0.589600  0.177200  0.294200  1
  C  C5  1  0.544900  0.129600  0.813900  1
  C  C6  1  0.415300  0.870400  0.686100  1
  C  C7  1  0.455100  0.870400  0.186100  1
  C  C8  1  0.584700  0.129600  0.313900  1
  C  C9  1  0.439700  0.103000  0.811900  1
  C  C10  1  0.336700  0.897000  0.688100  1
  C  C11  1  0.560300  0.897000  0.188100  1
  C  C12  1  0.663300  0.103000  0.311900  1
  C  C13  1  0.376900  0.121200  0.790900  1
  C  C14  1  0.255700  0.878800  0.709100  1
  C  C15  1  0.623100  0.878800  0.209100  1
  C  C16  1  0.744300  0.121200  0.290900  1
  C  C17  1  0.423900  0.168600  0.771400  1
  C  C18  1  0.255300  0.831400  0.728600  1
  C  C19  1  0.576100  0.831400  0.228600  1
  C  C20  1  0.744700  0.168600  0.271400  1
  C  C21  1  0.357600  0.192200  0.747900  1
  C  C22  1  0.165400  0.807800  0.752100  1
  C  C23  1  0.642400  0.807800  0.252100  1
  C  C24  1  0.834600  0.192200  0.247900  1
  C  C25  1  0.351500  0.258600  0.708000  1
  C  C26  1  0.092900  0.741400  0.792000  1
  C  C27  1  0.648500  0.741400  0.292000  1
  C  C28  1  0.907100  0.258600  0.208000  1
  C  C29  1  0.345100  0.314200  0.714900  1
  C  C30  1  0.030900  0.685800  0.785100  1
  C  C31  1  0.654900  0.685800  0.285100  1
  C  C32  1  0.969100  0.314200  0.214900  1
  C  C33  1  0.287500  0.337800  0.692100  1
  C  C34  1  0.949700  0.662200  0.807900  1
  C  C35  1  0.712500  0.662200  0.307900  1
  C  C36  1  0.050300  0.337800  0.192100  1
  C  C37  1  0.239800  0.308400  0.663400  1
  C  C38  1  0.931400  0.691600  0.836600  1
  C  C39  1  0.760200  0.691600  0.336600  1
  C  C40  1  0.068600  0.308400  0.163400  1
  C  C41  1  0.244300  0.252000  0.657100  1
  C  C42  1  0.992300  0.748000  0.842900  1
  C  C43  1  0.755700  0.748000  0.342900  1
  C  C44  1  0.007700  0.252000  0.157100  1
  C  C45  1  0.306200  0.227000  0.678900  1
  C  C46  1  0.079200  0.773000  0.821100  1
  C  C47  1  0.693800  0.773000  0.321100  1
  C  C48  1  0.920800  0.227000  0.178900  1
  C  C49  1  0.198600  0.326600  0.605100  1
  C  C50  1  0.872000  0.673400  0.894900  1
  C  C51  1  0.801400  0.673400  0.394900  1
  C  C52  1  0.128000  0.326600  0.105100  1
  C  C53  1  0.111500  0.312800  0.582400  1
  C  C54  1  0.798700  0.687200  0.917600  1
  C  C55  1  0.888500  0.687200  0.417600  1
  C  C56  1  0.201300  0.312800  0.082400  1
  C  C57  1  0.130100  0.305000  0.547700  1
  C  C58  1  0.825100  0.695000  0.952300  1
  C  C59  1  0.869900  0.695000  0.452300  1
  C  C60  1  0.174900  0.305000  0.047700  1
  C  C61  1  0.231090  0.311980  0.536500  1
  C  C62  1  0.919110  0.688020  0.963500  1
  C  C63  1  0.768910  0.688020  0.463500  1
  C  C64  1  0.080890  0.311980  0.036500  1
  C  C65  1  0.317800  0.326600  0.559400  1
  C  C66  1  0.991200  0.673400  0.940600  1
  C  C67  1  0.682200  0.673400  0.440600  1
  C  C68  1  0.008800  0.326600  0.059400  1
  C  C69  1  0.300300  0.335000  0.593400  1
  C  C70  1  0.965300  0.665000  0.906600  1
  C  C71  1  0.699700  0.665000  0.406600  1
  C  C72  1  0.034700  0.335000  0.093400  1
  C  C73  1  0.291400  0.349200  0.483300  1
  C  C74  1  0.942200  0.650800  0.016700  1
  C  C75  1  0.708600  0.650800  0.516700  1
  C  C76  1  0.057800  0.349200  0.983300  1
  C  C77  1  0.308800  0.340800  0.447800  1
  C  C78  1  0.968000  0.659200  0.052200  1
  C  C79  1  0.691200  0.659200  0.552200  1
  C  C80  1  0.032000  0.340800  0.947800  1
  C  C81  1  0.351300  0.382400  0.426800  1
  C  C82  1  0.968900  0.617600  0.073200  1
  C  C83  1  0.648700  0.617600  0.573200  1
  C  C84  1  0.031100  0.382400  0.926800  1
  C  C85  1  0.363300  0.371800  0.392200  1
  C  C86  1  0.991500  0.628200  0.107800  1
  C  C87  1  0.636700  0.628200  0.607800  1
  C  C88  1  0.008500  0.371800  0.892200  1
  C  C89  1  0.335700  0.316000  0.381900  1
  C  C90  1  0.019700  0.684000  0.118100  1
  C  C91  1  0.664300  0.684000  0.618100  1
  C  C92  1  0.980300  0.316000  0.881900  1
  C  C93  1  0.290800  0.274000  0.403900  1
  C  C94  1  0.016800  0.726000  0.096100  1
  C  C95  1  0.709200  0.726000  0.596100  1
  C  C96  1  0.983200  0.274000  0.903900  1
  C  C97  1  0.108600  0.362400  0.652900  1
  C  C98  1  0.746200  0.637600  0.847100  1
  C  C99  1  0.891400  0.637600  0.347100  1
  C  C100  1  0.253800  0.362400  0.152900  1
  C  C101  1  0.055100  0.347600  0.683900  1
  C  C102  1  0.707500  0.652400  0.816100  1
  C  C103  1  0.944900  0.652400  0.316100  1
  C  C104  1  0.292500  0.347600  0.183900  1
  C  C105  1  0.988800  0.378200  0.697200  1
  C  C106  1  0.610600  0.621800  0.802800  1
  C  C107  1  0.011200  0.621800  0.302800  1
  C  C108  1  0.389400  0.378200  0.197200  1
  C  C109  1  0.973600  0.424600  0.680700  1
  C  C110  1  0.549000  0.575400  0.819300  1
  C  C111  1  0.026400  0.575400  0.319300  1
  C  C112  1  0.451000  0.424600  0.180700  1
  C  C113  1  0.024400  0.437200  0.649900  1
  C  C114  1  0.587200  0.562800  0.850100  1
  C  C115  1  0.975600  0.562800  0.350100  1
  C  C116  1  0.412800  0.437200  0.149900  1
  C  C117  1  0.090100  0.407000  0.636500  1
  C  C118  1  0.683100  0.593000  0.863500  1
  C  C119  1  0.909900  0.593000  0.363500  1
  C  C120  1  0.316900  0.407000  0.136500  1
  C  C121  1  0.850700  0.487200  0.682100  1
  C  C122  1  0.363500  0.512800  0.817900  1
  C  C123  1  0.149300  0.512800  0.317900  1
  C  C124  1  0.636500  0.487200  0.182100  1
  C  C125  1  0.789900  0.516800  0.705900  1
  C  C126  1  0.273100  0.483200  0.794100  1
  C  C127  1  0.210100  0.483200  0.294100  1
  C  C128  1  0.726900  0.516800  0.205900  1
  C  C129  1  0.848000  0.577400  0.712800  1
  C  C130  1  0.270600  0.422600  0.787200  1
  C  C131  1  0.152000  0.422600  0.287200  1
  C  C132  1  0.729400  0.577400  0.212800  1
  C  C133  1  0.781700  0.608200  0.733400  1
  C  C134  1  0.173500  0.391800  0.766600  1
  C  C135  1  0.218300  0.391800  0.266600  1
  C  C136  1  0.826500  0.608200  0.233400  1
  C  C137  1  0.786700  0.304000  0.772700  1
  C  C138  1  0.482700  0.696000  0.727300  1
  C  C139  1  0.213300  0.696000  0.227300  1
  C  C140  1  0.517300  0.304000  0.272700  1
  C  C141  1  0.890000  0.304200  0.778200  1
  C  C142  1  0.585800  0.695800  0.721800  1
  C  C143  1  0.110000  0.695800  0.221800  1
  C  C144  1  0.414200  0.304200  0.278200  1
  C  C145  1  0.933700  0.267800  0.759800  1
  C  C146  1  0.665900  0.732200  0.740200  1
  C  C147  1  0.066300  0.732200  0.240200  1
  C  C148  1  0.334100  0.267800  0.259800  1
  C  C149  1  0.871000  0.231600  0.735700  1
  C  C150  1  0.639400  0.768400  0.764300  1
  C  C151  1  0.129000  0.768400  0.264300  1
  C  C152  1  0.360600  0.231600  0.235700  1
  C  C153  1  0.767400  0.231800  0.730900  1
  C  C154  1  0.535600  0.768200  0.769100  1
  C  C155  1  0.232600  0.768200  0.269100  1
  C  C156  1  0.464400  0.231800  0.230900  1
  C  C157  1  0.694500  0.196400  0.706900  1
  C  C158  1  0.498100  0.803600  0.793100  1
  C  C159  1  0.305500  0.803600  0.293100  1
  C  C160  1  0.501900  0.196400  0.206900  1
  C  C161  1  0.526100  0.164600  0.680500  1
  C  C162  1  0.361500  0.835400  0.819500  1
  C  C163  1  0.473900  0.835400  0.319500  1
  C  C164  1  0.638500  0.164600  0.180500  1
  C  C165  1  0.447300  0.118200  0.689800  1
  C  C166  1  0.329100  0.881800  0.810200  1
  C  C167  1  0.552700  0.881800  0.310200  1
  C  C168  1  0.670900  0.118200  0.189800  1
  C  C169  1  0.382300  0.084400  0.665100  1
  C  C170  1  0.297900  0.915600  0.834900  1
  C  C171  1  0.617700  0.915600  0.334900  1
  C  C172  1  0.702100  0.084400  0.165100  1
  C  C173  1  0.389700  0.099000  0.631300  1
  C  C174  1  0.290700  0.901000  0.868700  1
  C  C175  1  0.610300  0.901000  0.368700  1
  C  C176  1  0.709300  0.099000  0.131300  1
  C  C177  1  0.470700  0.144800  0.622600  1
  C  C178  1  0.325900  0.855200  0.877400  1
  C  C179  1  0.529300  0.855200  0.377400  1
  C  C180  1  0.674100  0.144800  0.122600  1
  C  C181  1  0.538900  0.177600  0.647400  1
  C  C182  1  0.361300  0.822400  0.852600  1
  C  C183  1  0.461100  0.822400  0.352600  1
  C  C184  1  0.638700  0.177600  0.147400  1
  C  C185  1  0.276300  0.094000  0.580600  1
  C  C186  1  0.182300  0.906000  0.919400  1
  C  C187  1  0.723700  0.906000  0.419400  1
  C  C188  1  0.817700  0.094000  0.080600  1
  C  C189  1  0.254800  0.144600  0.589400  1
  C  C190  1  0.110200  0.855400  0.910600  1
  C  C191  1  0.745200  0.855400  0.410600  1
  C  C192  1  0.889800  0.144600  0.089400  1
  C  C193  1  0.215200  0.173600  0.566000  1
  C  C194  1  0.041600  0.826400  0.934000  1
  C  C195  1  0.784800  0.826400  0.434000  1
  C  C196  1  0.958400  0.173600  0.066000  1
  C  C197  1  0.195000  0.152600  0.533100  1
  C  C198  1  0.042400  0.847400  0.966900  1
  C  C199  1  0.805000  0.847400  0.466900  1
  C  C200  1  0.957600  0.152600  0.033100  1
  C  C201  1  0.214600  0.101400  0.524400  1
  C  C202  1  0.113200  0.898600  0.975600  1
  C  C203  1  0.785400  0.898600  0.475600  1
  C  C204  1  0.886800  0.101400  0.024400  1
  C  C205  1  0.257900  0.072200  0.548200  1
  C  C206  1  0.185700  0.927800  0.951800  1
  C  C207  1  0.742100  0.927800  0.451800  1
  C  C208  1  0.814300  0.072200  0.048200  1
  C  C209  1  0.049000  0.173800  0.510800  1
  C  C210  1  0.875200  0.826200  0.989200  1
  C  C211  1  0.951000  0.826200  0.489200  1
  C  C212  1  0.124800  0.173800  0.010800  1
  C  C213  1  0.994000  0.205000  0.487400  1
  C  C214  1  0.789000  0.795000  0.012600  1
  C  C215  1  0.006000  0.795000  0.512600  1
  C  C216  1  0.211000  0.205000  0.987400  1
  C  C217  1  0.886700  0.202000  0.486900  1
  C  C218  1  0.684700  0.798000  0.013100  1
  C  C219  1  0.113300  0.798000  0.513100  1
  C  C220  1  0.315300  0.202000  0.986900  1
  C  C221  1  0.851000  0.234800  0.465100  1
  C  C222  1  0.616200  0.765200  0.034900  1
  C  C223  1  0.149000  0.765200  0.534900  1
  C  C224  1  0.383800  0.234800  0.965100  1
  C  C225  1  0.924000  0.268800  0.444600  1
  C  C226  1  0.655200  0.731200  0.055400  1
  C  C227  1  0.076000  0.731200  0.555400  1
  C  C228  1  0.344800  0.268800  0.944600  1
  C  C229  1  0.028900  0.268200  0.445300  1
  C  C230  1  0.760700  0.731800  0.054700  1
  C  C231  1  0.971100  0.731800  0.554700  1
  C  C232  1  0.239300  0.268200  0.945300  1
  C  C233  1  0.309900  0.006200  0.603600  1
  C  C234  1  0.303700  0.993800  0.896400  1
  C  C235  1  0.690100  0.993800  0.396400  1
  C  C236  1  0.696300  0.006200  0.103600  1
  C  C237  1  0.218100  0.968000  0.607700  1
  C  C238  1  0.250100  0.032000  0.892300  1
  C  C239  1  0.781900  0.032000  0.392300  1
  C  C240  1  0.749900  0.968000  0.107700  1
  C  C241  1  0.207100  0.909800  0.607200  1
  C  C242  1  0.297300  0.090200  0.892800  1
  C  C243  1  0.792900  0.090200  0.392800  1
  C  C244  1  0.702700  0.909800  0.107200  1
  C  C245  1  0.299700  0.891400  0.603500  1
  C  C246  1  0.408300  0.108600  0.896500  1
  C  C247  1  0.700300  0.108600  0.396500  1
  C  C248  1  0.591700  0.891400  0.103500  1
  C  C249  1  0.394500  0.931200  0.597900  1
  C  C250  1  0.463300  0.068800  0.902100  1
  C  C251  1  0.605500  0.068800  0.402100  1
  C  C252  1  0.536700  0.931200  0.097900  1
  C  C253  1  0.355400  0.803400  0.596200  1
  C  C254  1  0.552000  0.196600  0.903800  1
  C  C255  1  0.644600  0.196600  0.403800  1
  C  C256  1  0.448000  0.803400  0.096200  1
  C  C257  1  0.340000  0.744400  0.608000  1
  C  C258  1  0.595600  0.255600  0.892000  1
  C  C259  1  0.660000  0.255600  0.392000  1
  C  C260  1  0.404400  0.744400  0.108000  1
  C  C261  1  0.385000  0.707600  0.587600  1
  C  C262  1  0.677400  0.292400  0.912400  1
  C  C263  1  0.615000  0.292400  0.412400  1
  C  C264  1  0.322600  0.707600  0.087600  1
  C  C265  1  0.373900  0.652200  0.605800  1
  C  C266  1  0.721700  0.347800  0.894200  1
  C  C267  1  0.626100  0.347800  0.394200  1
  C  C268  1  0.278300  0.652200  0.105800  1
  C  C269  1  0.523800  0.313200  0.805300  1
  C  C270  1  0.210600  0.686800  0.694700  1
  C  C271  1  0.476200  0.686800  0.194700  1
  C  C272  1  0.789400  0.313200  0.305300  1
  C  C273  1  0.517500  0.358200  0.824300  1
  C  C274  1  0.159300  0.641800  0.675700  1
  C  C275  1  0.482500  0.641800  0.175700  1
  C  C276  1  0.840700  0.358200  0.324300  1
  C  C277  1  0.540400  0.411400  0.811500  1
  C  C278  1  0.129000  0.588600  0.688500  1
  C  C279  1  0.459600  0.588600  0.188500  1
  C  C280  1  0.871000  0.411400  0.311500  1
  C  C281  1  0.570800  0.417200  0.777900  1
  C  C282  1  0.153600  0.582800  0.722100  1
  C  C283  1  0.429200  0.582800  0.222100  1
  C  C284  1  0.846400  0.417200  0.277900  1
  C  C285  1  0.575300  0.370000  0.759300  1
  C  C286  1  0.205300  0.630000  0.740700  1
  C  C287  1  0.424700  0.630000  0.240700  1
  C  C288  1  0.794700  0.370000  0.259300  1
  C  C289  1  0.602700  0.369000  0.723600  1
  C  C290  1  0.233700  0.631000  0.776400  1
  C  C291  1  0.397300  0.631000  0.276400  1
  C  C292  1  0.766300  0.369000  0.223600  1
  C  C293  1  0.625370  0.318940  0.673000  1
  C  C294  1  0.306430  0.681060  0.827000  1
  C  C295  1  0.374630  0.681060  0.327000  1
  C  C296  1  0.693570  0.318940  0.173000  1
  C  C297  1  0.550700  0.319400  0.649100  1
  C  C298  1  0.231300  0.680600  0.850900  1
  C  C299  1  0.449300  0.680600  0.350900  1
  C  C300  1  0.768700  0.319400  0.149100  1
  C  C301  1  0.569900  0.317800  0.615500  1
  C  C302  1  0.252100  0.682200  0.884500  1
  C  C303  1  0.430100  0.682200  0.384500  1
  C  C304  1  0.747900  0.317800  0.115500  1
  C  C305  1  0.401000  0.987200  0.599400  1
  C  C306  1  0.413800  0.012800  0.900600  1
  C  C307  1  0.599000  0.012800  0.400600  1
  C  C308  1  0.586200  0.987200  0.099400  1
  C  C309  1  0.673750  0.318900  0.604400  1
  C  C310  1  0.354850  0.681100  0.895600  1
  C  C311  1  0.326250  0.681100  0.395600  1
  C  C312  1  0.645150  0.318900  0.104400  1
  C  C313  1  0.751850  0.318700  0.628600  1
  C  C314  1  0.433150  0.681300  0.871400  1
  C  C315  1  0.248150  0.681300  0.371400  1
  C  C316  1  0.566850  0.318700  0.128600  1
  C  C317  1  0.726100  0.318600  0.662400  1
  C  C318  1  0.407500  0.681400  0.837600  1
  C  C319  1  0.273900  0.681400  0.337600  1
  C  C320  1  0.592500  0.318600  0.162400  1
  C  C321  1  0.614600  0.295000  0.545200  1
  C  C322  1  0.319600  0.705000  0.954800  1
  C  C323  1  0.385400  0.705000  0.454800  1
  C  C324  1  0.680400  0.295000  0.045200  1
  C  C325  1  0.561700  0.238600  0.548500  1
  C  C326  1  0.323100  0.761400  0.951500  1
  C  C327  1  0.438300  0.761400  0.451500  1
  C  C328  1  0.676900  0.238600  0.048500  1
  C  C329  1  0.477300  0.213800  0.527700  1
  C  C330  1  0.263500  0.786200  0.972300  1
  C  C331  1  0.522700  0.786200  0.472300  1
  C  C332  1  0.736500  0.213800  0.027700  1
  C  C333  1  0.445900  0.242800  0.501300  1
  C  C334  1  0.203100  0.757200  0.998700  1
  C  C335  1  0.554100  0.757200  0.498700  1
  C  C336  1  0.796900  0.242800  0.001300  1
  C  C337  1  0.503400  0.298200  0.496800  1
  C  C338  1  0.205200  0.701800  0.003200  1
  C  C339  1  0.496600  0.701800  0.503200  1
  C  C340  1  0.794800  0.298200  0.996800  1
  C  C341  1  0.587600  0.324800  0.519500  1
  C  C342  1  0.262800  0.675200  0.980500  1
  C  C343  1  0.412400  0.675200  0.480500  1
  C  C344  1  0.737200  0.324800  0.019500  1
  C  C345  1  0.370800  0.173400  0.461700  1
  C  C346  1  0.197400  0.826600  0.038300  1
  C  C347  1  0.629200  0.826600  0.538300  1
  C  C348  1  0.802600  0.173400  0.961700  1
  C  C349  1  0.281600  0.143400  0.439000  1
  C  C350  1  0.138200  0.856600  0.061000  1
  C  C351  1  0.718400  0.856600  0.561000  1
  C  C352  1  0.861800  0.143400  0.939000  1
  C  C353  1  0.285100  0.098600  0.416400  1
  C  C354  1  0.186500  0.901400  0.083600  1
  C  C355  1  0.714900  0.901400  0.583600  1
  C  C356  1  0.813500  0.098600  0.916400  1
  C  C357  1  0.193300  0.074800  0.395200  1
  C  C358  1  0.118500  0.925200  0.104800  1
  C  C359  1  0.806700  0.925200  0.604800  1
  C  C360  1  0.881500  0.074800  0.895200  1
  C  C361  1  0.108600  0.095200  0.398800  1
  C  C362  1  0.013400  0.904800  0.101200  1
  C  C363  1  0.891400  0.904800  0.601200  1
  C  C364  1  0.986600  0.095200  0.898800  1
  C  C365  1  0.110400  0.139000  0.421600  1
  C  C366  1  0.971400  0.861000  0.078400  1
  C  C367  1  0.889600  0.861000  0.578400  1
  C  C368  1  0.028600  0.139000  0.921600  1
  C  C369  1  0.794600  0.360200  0.558300  1
  C  C370  1  0.434400  0.639800  0.941700  1
  C  C371  1  0.205400  0.639800  0.441700  1
  C  C372  1  0.565600  0.360200  0.058300  1
  C  C373  1  0.836500  0.411800  0.575900  1
  C  C374  1  0.424700  0.588200  0.924100  1
  C  C375  1  0.163500  0.588200  0.424100  1
  C  C376  1  0.575300  0.411800  0.075900  1
  C  C377  1  0.930000  0.448800  0.565300  1
  C  C378  1  0.481200  0.551200  0.934700  1
  C  C379  1  0.070000  0.551200  0.434700  1
  C  C380  1  0.518800  0.448800  0.065300  1
  C  C381  1  0.981200  0.435000  0.536800  1
  C  C382  1  0.546200  0.565000  0.963200  1
  C  C383  1  0.018800  0.565000  0.463200  1
  C  C384  1  0.453800  0.435000  0.036800  1
  C  C385  1  0.938400  0.385000  0.518800  1
  C  C386  1  0.553400  0.615000  0.981200  1
  C  C387  1  0.061600  0.615000  0.481200  1
  C  C388  1  0.446600  0.385000  0.018800  1
  C  C389  1  0.844000  0.346400  0.529500  1
  C  C390  1  0.497600  0.653600  0.970500  1
  C  C391  1  0.156000  0.653600  0.470500  1
  C  C392  1  0.502400  0.346400  0.029500  1
  C  C393  1  0.151600  0.473800  0.507100  1
  C  C394  1  0.677800  0.526200  0.992900  1
  C  C395  1  0.848400  0.526200  0.492900  1
  C  C396  1  0.322200  0.473800  0.007100  1
  C  C397  1  0.246300  0.525200  0.507800  1
  C  C398  1  0.721100  0.474800  0.992200  1
  C  C399  1  0.753700  0.474800  0.492200  1
  C  C400  1  0.278900  0.525200  0.007800  1
  C  C401  1  0.343700  0.515200  0.525600  1
  C  C402  1  0.828500  0.484800  0.974400  1
  C  C403  1  0.656300  0.484800  0.474400  1
  C  C404  1  0.171500  0.515200  0.025600  1
  C  C405  1  0.321900  0.493400  0.560300  1
  C  C406  1  0.828500  0.506600  0.939700  1
  C  C407  1  0.678100  0.506600  0.439700  1
  C  C408  1  0.171500  0.493400  0.060300  1
  C  C409  1  0.352600  0.506200  0.677400  1
  C  C410  1  0.846400  0.493800  0.822600  1
  C  C411  1  0.647400  0.493800  0.322600  1
  C  C412  1  0.153600  0.506200  0.177400  1
  C  C413  1  0.948300  0.758200  0.688500  1
  C  C414  1  0.190100  0.241800  0.811500  1
  C  C415  1  0.051700  0.241800  0.311500  1
  C  C416  1  0.809900  0.758200  0.188500  1
  C  C417  1  0.906400  0.183600  0.626200  1
  C  C418  1  0.722800  0.816400  0.873800  1
  C  C419  1  0.093600  0.816400  0.373800  1
  C  C420  1  0.277200  0.183600  0.126200  1
  C  C421  1  0.584300  0.456200  0.590800  1
  C  C422  1  0.128100  0.543800  0.909200  1
  C  C423  1  0.415700  0.543800  0.409200  1
  C  C424  1  0.871900  0.456200  0.090800  1
  C  C425  1  0.605500  0.466000  0.625700  1
  C  C426  1  0.139500  0.534000  0.874300  1
  C  C427  1  0.394500  0.534000  0.374300  1
  C  C428  1  0.860500  0.466000  0.125700  1
  C  C429  1  0.857700  0.167400  0.825200  1
  C  C430  1  0.690300  0.832600  0.674800  1
  C  C431  1  0.142300  0.832600  0.174800  1
  C  C432  1  0.309700  0.167400  0.325200  1
  C  C433  1  0.906700  0.127600  0.806700  1
  C  C434  1  0.779100  0.872400  0.693300  1
  C  C435  1  0.093300  0.872400  0.193300  1
  C  C436  1  0.220900  0.127600  0.306700  1
  F  F437  1  0.361280  0.471160  0.651680  1
  F  F438  1  0.890120  0.528840  0.848320  1
  F  F439  1  0.638720  0.528840  0.348320  1
  F  F440  1  0.109880  0.471160  0.151680  1
  F  F441  1  0.267820  0.480640  0.695250  1
  F  F442  1  0.787180  0.519360  0.804750  1
  F  F443  1  0.732180  0.519360  0.304750  1
  F  F444  1  0.212820  0.480640  0.195250  1
  F  F445  1  0.325020  0.550240  0.663340  1
  F  F446  1  0.774780  0.449760  0.836660  1
  F  F447  1  0.674980  0.449760  0.336660  1
  F  F448  1  0.225220  0.550240  0.163340  1
  F  F449  1  0.844800  0.739600  0.683700  1
  F  F450  1  0.105200  0.260400  0.816300  1
  F  F451  1  0.155200  0.260400  0.316300  1
  F  F452  1  0.894800  0.739600  0.183700  1
  F  F453  1  0.983200  0.813400  0.699400  1
  F  F454  1  0.169800  0.186600  0.800600  1
  F  F455  1  0.016800  0.186600  0.300600  1
  F  F456  1  0.830200  0.813400  0.199400  1
  F  F457  1  0.985950  0.722700  0.707490  1
  F  F458  1  0.263250  0.277300  0.792510  1
  F  F459  1  0.014050  0.277300  0.292510  1
  F  F460  1  0.736750  0.722700  0.207490  1
  F  F461  1  0.901700  0.229000  0.643000  1
  F  F462  1  0.672700  0.771000  0.857000  1
  F  F463  1  0.098300  0.771000  0.357000  1
  F  F464  1  0.327300  0.229000  0.143000  1
  F  F465  1  0.001600  0.185000  0.614400  1
  F  F466  1  0.816600  0.815000  0.885600  1
  F  F467  1  0.998400  0.815000  0.385600  1
  F  F468  1  0.183400  0.185000  0.114400  1
  F  F469  1  0.865200  0.136400  0.641100  1
  F  F470  1  0.728800  0.863600  0.858900  1
  F  F471  1  0.134800  0.863600  0.358900  1
  F  F472  1  0.271200  0.136400  0.141100  1
  Fe  Fe473  1  0.568320  0.256320  0.739690  1
  Fe  Fe474  1  0.312000  0.743680  0.760310  1
  Fe  Fe475  1  0.431680  0.743680  0.260310  1
  Fe  Fe476  1  0.688000  0.256320  0.239690  1
  Fe  Fe477  1  0.217700  0.231720  0.472800  1
  Fe  Fe478  1  0.985980  0.768280  0.027200  1
  Fe  Fe479  1  0.782300  0.768280  0.527200  1
  Fe  Fe480  1  0.014020  0.231720  0.972800  1
  H  H481  1  0.901200  0.452800  0.718700  1
  H  H482  1  0.448400  0.547200  0.781300  1
  H  H483  1  0.098800  0.547200  0.281300  1
  H  H484  1  0.551600  0.452800  0.218700  1
  H  H485  1  0.083100  0.508400  0.538400  1
  H  H486  1  0.574700  0.491600  0.961600  1
  H  H487  1  0.916900  0.491600  0.461600  1
  H  H488  1  0.425300  0.508400  0.038400  1
  H  H489  1  0.233800  0.814800  0.618800  1
  H  H490  1  0.419000  0.185200  0.881200  1
  H  H491  1  0.766200  0.185200  0.381200  1
  H  H492  1  0.581000  0.814800  0.118800  1
  H  H493  1  0.661300  0.196200  0.796000  1
  H  H494  1  0.465100  0.803800  0.704000  1
  H  H495  1  0.338700  0.803800  0.204000  1
  H  H496  1  0.534900  0.196200  0.296000  1
  H  H497  1  0.590200  0.116200  0.828500  1
  H  H498  1  0.474000  0.883800  0.671500  1
  H  H499  1  0.409800  0.883800  0.171500  1
  H  H500  1  0.526000  0.116200  0.328500  1
  H  H501  1  0.410600  0.071400  0.825400  1
  H  H502  1  0.339200  0.928600  0.674600  1
  H  H503  1  0.589400  0.928600  0.174600  1
  H  H504  1  0.660800  0.071400  0.325400  1
  H  H505  1  0.302600  0.102800  0.789100  1
  H  H506  1  0.199800  0.897200  0.710900  1
  H  H507  1  0.697400  0.897200  0.210900  1
  H  H508  1  0.800200  0.102800  0.289100  1
  H  H509  1  0.282400  0.177400  0.745500  1
  H  H510  1  0.105000  0.822600  0.754500  1
  H  H511  1  0.717600  0.822600  0.254500  1
  H  H512  1  0.895000  0.177400  0.245500  1
  H  H513  1  0.378900  0.335400  0.734400  1
  H  H514  1  0.043500  0.664600  0.765600  1
  H  H515  1  0.621100  0.664600  0.265600  1
  H  H516  1  0.956500  0.335400  0.234400  1
  H  H517  1  0.281400  0.375200  0.696700  1
  H  H518  1  0.906200  0.624800  0.803300  1
  H  H519  1  0.718600  0.624800  0.303300  1
  H  H520  1  0.093800  0.375200  0.196700  1
  H  H521  1  0.206000  0.230400  0.638300  1
  H  H522  1  0.975600  0.769600  0.861700  1
  H  H523  1  0.794000  0.769600  0.361700  1
  H  H524  1  0.024400  0.230400  0.138300  1
  H  H525  1  0.315900  0.190400  0.673700  1
  H  H526  1  0.125500  0.809600  0.826300  1
  H  H527  1  0.684100  0.809600  0.326300  1
  H  H528  1  0.874500  0.190400  0.173700  1
  H  H529  1  0.041000  0.309000  0.590300  1
  H  H530  1  0.732000  0.691000  0.909700  1
  H  H531  1  0.959000  0.691000  0.409700  1
  H  H532  1  0.268000  0.309000  0.090300  1
  H  H533  1  0.071800  0.294600  0.532100  1
  H  H534  1  0.777200  0.705400  0.967900  1
  H  H535  1  0.928200  0.705400  0.467900  1
  H  H536  1  0.222800  0.294600  0.032100  1
  H  H537  1  0.388400  0.330800  0.551400  1
  H  H538  1  0.057600  0.669200  0.948600  1
  H  H539  1  0.611600  0.669200  0.448600  1
  H  H540  1  0.942400  0.330800  0.051400  1
  H  H541  1  0.359200  0.346800  0.608700  1
  H  H542  1  0.012400  0.653200  0.891300  1
  H  H543  1  0.640800  0.653200  0.391300  1
  H  H544  1  0.987600  0.346800  0.108700  1
  H  H545  1  0.309100  0.385800  0.494200  1
  H  H546  1  0.923300  0.614200  0.005800  1
  H  H547  1  0.690900  0.614200  0.505800  1
  H  H548  1  0.076700  0.385800  0.994200  1
  H  H549  1  0.374100  0.420400  0.435800  1
  H  H550  1  0.953700  0.579600  0.064200  1
  H  H551  1  0.625900  0.579600  0.564200  1
  H  H552  1  0.046300  0.420400  0.935800  1
  H  H553  1  0.388700  0.401400  0.376900  1
  H  H554  1  0.987300  0.598600  0.123100  1
  H  H555  1  0.611300  0.598600  0.623100  1
  H  H556  1  0.012700  0.401400  0.876900  1
  H  H557  1  0.347700  0.305800  0.359100  1
  H  H558  1  0.041900  0.694200  0.140900  1
  H  H559  1  0.652300  0.694200  0.640900  1
  H  H560  1  0.958100  0.305800  0.859100  1
  H  H561  1  0.267700  0.235800  0.395400  1
  H  H562  1  0.031900  0.764200  0.104600  1
  H  H563  1  0.732300  0.764200  0.604600  1
  H  H564  1  0.968100  0.235800  0.895400  1
  H  H565  1  0.065300  0.316400  0.695700  1
  H  H566  1  0.748900  0.683600  0.804300  1
  H  H567  1  0.934700  0.683600  0.304300  1
  H  H568  1  0.251100  0.316400  0.195700  1
  H  H569  1  0.952900  0.367600  0.717800  1
  H  H570  1  0.585300  0.632400  0.782200  1
  H  H571  1  0.047100  0.632400  0.282200  1
  H  H572  1  0.414700  0.367600  0.217800  1
  H  H573  1  0.012900  0.467800  0.637700  1
  H  H574  1  0.545100  0.532200  0.862300  1
  H  H575  1  0.987100  0.532200  0.362300  1
  H  H576  1  0.454900  0.467800  0.137700  1
  H  H577  1  0.123500  0.417000  0.615300  1
  H  H578  1  0.706500  0.583000  0.884700  1
  H  H579  1  0.876500  0.583000  0.384700  1
  H  H580  1  0.293500  0.417000  0.115300  1
  H  H581  1  0.719200  0.514600  0.695700  1
  H  H582  1  0.204600  0.485400  0.804300  1
  H  H583  1  0.280800  0.485400  0.304300  1
  H  H584  1  0.795400  0.514600  0.195700  1
  H  H585  1  0.778200  0.497000  0.727500  1
  H  H586  1  0.281200  0.503000  0.772500  1
  H  H587  1  0.221800  0.503000  0.272500  1
  H  H588  1  0.718800  0.497000  0.227500  1
  H  H589  1  0.866700  0.596200  0.691000  1
  H  H590  1  0.270500  0.403800  0.809000  1
  H  H591  1  0.133300  0.403800  0.309000  1
  H  H592  1  0.729500  0.596200  0.191000  1
  H  H593  1  0.915300  0.579600  0.725300  1
  H  H594  1  0.335700  0.420400  0.774700  1
  H  H595  1  0.084700  0.420400  0.274700  1
  H  H596  1  0.664300  0.579600  0.225300  1
  H  H597  1  0.767600  0.591400  0.755700  1
  H  H598  1  0.176200  0.408600  0.744300  1
  H  H599  1  0.232400  0.408600  0.244300  1
  H  H600  1  0.823800  0.591400  0.255700  1
  H  H601  1  0.713800  0.604800  0.721500  1
  H  H602  1  0.109000  0.395200  0.778500  1
  H  H603  1  0.286200  0.395200  0.278500  1
  H  H604  1  0.891000  0.604800  0.221500  1
  H  H605  1  0.820400  0.648200  0.736500  1
  H  H606  1  0.172200  0.351800  0.763500  1
  H  H607  1  0.179600  0.351800  0.263500  1
  H  H608  1  0.827800  0.648200  0.236500  1
  H  H609  1  0.758800  0.330600  0.785400  1
  H  H610  1  0.428200  0.669400  0.714600  1
  H  H611  1  0.241200  0.669400  0.214600  1
  H  H612  1  0.571800  0.330600  0.285400  1
  H  H613  1  0.931900  0.329800  0.794800  1
  H  H614  1  0.602100  0.670200  0.705200  1
  H  H615  1  0.068100  0.670200  0.205200  1
  H  H616  1  0.397900  0.329800  0.294800  1
  H  H617  1  0.005600  0.267200  0.763500  1
  H  H618  1  0.738400  0.732800  0.736500  1
  H  H619  1  0.994400  0.732800  0.236500  1
  H  H620  1  0.261600  0.267200  0.263500  1
  H  H621  1  0.900400  0.206400  0.722300  1
  H  H622  1  0.694000  0.793600  0.777700  1
  H  H623  1  0.099600  0.793600  0.277700  1
  H  H624  1  0.306000  0.206400  0.222300  1
  H  H625  1  0.717600  0.171000  0.691700  1
  H  H626  1  0.546600  0.829000  0.808300  1
  H  H627  1  0.282400  0.829000  0.308300  1
  H  H628  1  0.453400  0.171000  0.191700  1
  H  H629  1  0.437500  0.109200  0.713100  1
  H  H630  1  0.328300  0.890800  0.786900  1
  H  H631  1  0.562500  0.890800  0.286900  1
  H  H632  1  0.671700  0.109200  0.213100  1
  H  H633  1  0.331700  0.050800  0.671200  1
  H  H634  1  0.280900  0.949200  0.828800  1
  H  H635  1  0.668300  0.949200  0.328800  1
  H  H636  1  0.719100  0.050800  0.171200  1
  H  H637  1  0.480400  0.154000  0.599400  1
  H  H638  1  0.326400  0.846000  0.900600  1
  H  H639  1  0.519600  0.846000  0.400600  1
  H  H640  1  0.673600  0.154000  0.099400  1
  H  H641  1  0.594500  0.209200  0.641100  1
  H  H642  1  0.385300  0.790800  0.858900  1
  H  H643  1  0.405500  0.790800  0.358900  1
  H  H644  1  0.614700  0.209200  0.141100  1
  H  H645  1  0.267700  0.159800  0.612100  1
  H  H646  1  0.107900  0.840200  0.887900  1
  H  H647  1  0.732300  0.840200  0.387900  1
  H  H648  1  0.892100  0.159800  0.112100  1
  H  H649  1  0.201500  0.208800  0.572500  1
  H  H650  1  0.992700  0.791200  0.927500  1
  H  H651  1  0.798500  0.791200  0.427500  1
  H  H652  1  0.007300  0.208800  0.072500  1
  H  H653  1  0.198500  0.085400  0.502000  1
  H  H654  1  0.113100  0.914600  0.998000  1
  H  H655  1  0.801500  0.914600  0.498000  1
  H  H656  1  0.886900  0.085400  0.002000  1
  H  H657  1  0.274100  0.037600  0.541700  1
  H  H658  1  0.236500  0.962400  0.958300  1
  H  H659  1  0.725900  0.962400  0.458300  1
  H  H660  1  0.763500  0.037600  0.041700  1
  H  H661  1  0.008500  0.148200  0.526400  1
  H  H662  1  0.860300  0.851800  0.973600  1
  H  H663  1  0.991500  0.851800  0.473600  1
  H  H664  1  0.139700  0.148200  0.026400  1
  H  H665  1  0.838800  0.177800  0.501500  1
  H  H666  1  0.661000  0.822200  0.998500  1
  H  H667  1  0.161200  0.822200  0.498500  1
  H  H668  1  0.339000  0.177800  0.001500  1
  H  H669  1  0.777600  0.234200  0.464200  1
  H  H670  1  0.543400  0.765800  0.035800  1
  H  H671  1  0.222400  0.765800  0.535800  1
  H  H672  1  0.456600  0.234200  0.964200  1
  H  H673  1  0.901300  0.292800  0.429600  1
  H  H674  1  0.608500  0.707200  0.070400  1
  H  H675  1  0.098700  0.707200  0.570400  1
  H  H676  1  0.391500  0.292800  0.929600  1
  H  H677  1  0.076400  0.290800  0.429800  1
  H  H678  1  0.785600  0.709200  0.070200  1
  H  H679  1  0.923600  0.709200  0.570200  1
  H  H680  1  0.214400  0.290800  0.929800  1
  H  H681  1  0.156000  0.981000  0.611200  1
  H  H682  1  0.175000  0.019000  0.888800  1
  H  H683  1  0.844000  0.019000  0.388800  1
  H  H684  1  0.825000  0.981000  0.111200  1
  H  H685  1  0.139000  0.883600  0.609300  1
  H  H686  1  0.255400  0.116400  0.890700  1
  H  H687  1  0.861000  0.116400  0.390700  1
  H  H688  1  0.744600  0.883600  0.109300  1
  H  H689  1  0.456800  0.919200  0.592800  1
  H  H690  1  0.537600  0.080800  0.907200  1
  H  H691  1  0.543200  0.080800  0.407200  1
  H  H692  1  0.462400  0.919200  0.092800  1
  H  H693  1  0.370700  0.747000  0.631200  1
  H  H694  1  0.623700  0.253000  0.868800  1
  H  H695  1  0.629300  0.253000  0.368800  1
  H  H696  1  0.376300  0.747000  0.131200  1
  H  H697  1  0.262300  0.726800  0.609700  1
  H  H698  1  0.535500  0.273200  0.890300  1
  H  H699  1  0.737700  0.273200  0.390300  1
  H  H700  1  0.464500  0.726800  0.109700  1
  H  H701  1  0.461400  0.726000  0.583700  1
  H  H702  1  0.735400  0.274000  0.916300  1
  H  H703  1  0.538600  0.274000  0.416300  1
  H  H704  1  0.264600  0.726000  0.083700  1
  H  H705  1  0.347600  0.699400  0.565400  1
  H  H706  1  0.648200  0.300600  0.934600  1
  H  H707  1  0.652400  0.300600  0.434600  1
  H  H708  1  0.351800  0.699400  0.065400  1
  H  H709  1  0.424000  0.658800  0.625000  1
  H  H710  1  0.765200  0.341200  0.875000  1
  H  H711  1  0.576000  0.341200  0.375000  1
  H  H712  1  0.234800  0.658800  0.125000  1
  H  H713  1  0.389800  0.623800  0.589900  1
  H  H714  1  0.766000  0.376200  0.910100  1
  H  H715  1  0.610200  0.376200  0.410100  1
  H  H716  1  0.234000  0.623800  0.089900  1
  H  H717  1  0.300700  0.638200  0.614000  1
  H  H718  1  0.662500  0.361800  0.886000  1
  H  H719  1  0.699300  0.361800  0.386000  1
  H  H720  1  0.337500  0.638200  0.114000  1
  H  H721  1  0.505300  0.277000  0.814900  1
  H  H722  1  0.228300  0.723000  0.685100  1
  H  H723  1  0.494700  0.723000  0.185100  1
  H  H724  1  0.771700  0.277000  0.314900  1
  H  H725  1  0.496600  0.353400  0.847300  1
  H  H726  1  0.143200  0.646600  0.652700  1
  H  H727  1  0.503400  0.646600  0.152700  1
  H  H728  1  0.856800  0.353400  0.347300  1
  H  H729  1  0.535700  0.443400  0.825300  1
  H  H730  1  0.092300  0.556600  0.674700  1
  H  H731  1  0.464300  0.556600  0.174700  1
  H  H732  1  0.907700  0.443400  0.325300  1
  H  H733  1  0.588000  0.453200  0.768100  1
  H  H734  1  0.134800  0.546800  0.731900  1
  H  H735  1  0.412000  0.546800  0.231900  1
  H  H736  1  0.865200  0.453200  0.268100  1
  H  H737  1  0.620800  0.402800  0.711300  1
  H  H738  1  0.218000  0.597200  0.788700  1
  H  H739  1  0.379200  0.597200  0.288700  1
  H  H740  1  0.782000  0.402800  0.211300  1
  H  H741  1  0.481600  0.320800  0.656400  1
  H  H742  1  0.160800  0.679200  0.843600  1
  H  H743  1  0.518400  0.679200  0.343600  1
  H  H744  1  0.839200  0.320800  0.156400  1
  H  H745  1  0.514100  0.315800  0.599500  1
  H  H746  1  0.198300  0.684200  0.900500  1
  H  H747  1  0.485900  0.684200  0.400500  1
  H  H748  1  0.801700  0.315800  0.099500  1
  H  H749  1  0.468600  0.014000  0.597500  1
  H  H750  1  0.454600  0.986000  0.902500  1
  H  H751  1  0.531400  0.986000  0.402500  1
  H  H752  1  0.545400  0.014000  0.097500  1
  H  H753  1  0.822000  0.318600  0.621800  1
  H  H754  1  0.503400  0.681400  0.878200  1
  H  H755  1  0.178000  0.681400  0.378200  1
  H  H756  1  0.496600  0.318600  0.121800  1
  H  H757  1  0.779300  0.318400  0.678900  1
  H  H758  1  0.460900  0.681600  0.821100  1
  H  H759  1  0.220700  0.681600  0.321100  1
  H  H760  1  0.539100  0.318400  0.178900  1
  H  H761  1  0.584300  0.217200  0.565200  1
  H  H762  1  0.367100  0.782800  0.934800  1
  H  H763  1  0.415700  0.782800  0.434800  1
  H  H764  1  0.632900  0.217200  0.065200  1
  H  H765  1  0.438300  0.175600  0.531200  1
  H  H766  1  0.262700  0.824400  0.968800  1
  H  H767  1  0.561700  0.824400  0.468800  1
  H  H768  1  0.737300  0.175600  0.031200  1
  H  H769  1  0.486500  0.318400  0.478400  1
  H  H770  1  0.168100  0.681600  0.021600  1
  H  H771  1  0.513500  0.681600  0.521600  1
  H  H772  1  0.831900  0.318400  0.978400  1
  H  H773  1  0.625300  0.363200  0.517000  1
  H  H774  1  0.262100  0.636800  0.983000  1
  H  H775  1  0.374700  0.636800  0.483000  1
  H  H776  1  0.737900  0.363200  0.017000  1
  H  H777  1  0.434200  0.161200  0.463300  1
  H  H778  1  0.273000  0.838800  0.036700  1
  H  H779  1  0.565800  0.838800  0.536700  1
  H  H780  1  0.727000  0.161200  0.963300  1
  H  H781  1  0.346200  0.084200  0.415200  1
  H  H782  1  0.262000  0.915800  0.084800  1
  H  H783  1  0.653800  0.915800  0.584800  1
  H  H784  1  0.738000  0.084200  0.915200  1
  H  H785  1  0.192900  0.045000  0.379000  1
  H  H786  1  0.147900  0.955000  0.121000  1
  H  H787  1  0.807100  0.955000  0.621000  1
  H  H788  1  0.852100  0.045000  0.879000  1
  H  H789  1  0.046200  0.079200  0.385400  1
  H  H790  1  0.967000  0.920800  0.114600  1
  H  H791  1  0.953800  0.920800  0.614600  1
  H  H792  1  0.033000  0.079200  0.885400  1
  H  H793  1  0.048100  0.152200  0.423600  1
  H  H794  1  0.895900  0.847800  0.076400  1
  H  H795  1  0.951900  0.847800  0.576400  1
  H  H796  1  0.104100  0.152200  0.923600  1
  H  H797  1  0.800800  0.421600  0.595400  1
  H  H798  1  0.379200  0.578400  0.904600  1
  H  H799  1  0.199200  0.578400  0.404600  1
  H  H800  1  0.620800  0.421600  0.095400  1
  H  H801  1  0.959000  0.483800  0.577600  1
  H  H802  1  0.475200  0.516200  0.922400  1
  H  H803  1  0.041000  0.516200  0.422400  1
  H  H804  1  0.524800  0.483800  0.077600  1
  H  H805  1  0.972800  0.376400  0.498800  1
  H  H806  1  0.596400  0.623600  0.001200  1
  H  H807  1  0.027200  0.623600  0.501200  1
  H  H808  1  0.403600  0.376400  0.998800  1
  H  H809  1  0.815200  0.311600  0.517100  1
  H  H810  1  0.503600  0.688400  0.982900  1
  H  H811  1  0.184800  0.688400  0.482900  1
  H  H812  1  0.496400  0.311600  0.017100  1
  H  H813  1  0.226200  0.557400  0.519600  1
  H  H814  1  0.668800  0.442600  0.980400  1
  H  H815  1  0.773800  0.442600  0.480400  1
  H  H816  1  0.331200  0.557400  0.019600  1
  H  H817  1  0.265300  0.536000  0.484200  1
  H  H818  1  0.729300  0.464000  0.015800  1
  H  H819  1  0.734700  0.464000  0.515800  1
  H  H820  1  0.270700  0.536000  0.984200  1
  H  H821  1  0.370700  0.487600  0.511600  1
  H  H822  1  0.883100  0.512400  0.988400  1
  H  H823  1  0.629300  0.512400  0.488400  1
  H  H824  1  0.116900  0.487600  0.011600  1
  H  H825  1  0.400600  0.551200  0.527100  1
  H  H826  1  0.849400  0.448800  0.972900  1
  H  H827  1  0.599400  0.448800  0.472900  1
  H  H828  1  0.150600  0.551200  0.027100  1
  H  H829  1  0.277600  0.514400  0.572400  1
  H  H830  1  0.763200  0.485600  0.927600  1
  H  H831  1  0.722400  0.485600  0.427600  1
  H  H832  1  0.236800  0.514400  0.072400  1
  H  H833  1  0.389600  0.498800  0.572600  1
  H  H834  1  0.890800  0.501200  0.927400  1
  H  H835  1  0.610400  0.501200  0.427400  1
  H  H836  1  0.109200  0.498800  0.072600  1
  H  H837  1  0.284300  0.453000  0.558700  1
  H  H838  1  0.831300  0.547000  0.941300  1
  H  H839  1  0.715700  0.547000  0.441300  1
  H  H840  1  0.168700  0.453000  0.058700  1
  H  H841  1  0.564200  0.433600  0.638100  1
  H  H842  1  0.130600  0.566400  0.861900  1
  H  H843  1  0.435800  0.566400  0.361900  1
  H  H844  1  0.869400  0.433600  0.138100  1
  H  H845  1  0.585500  0.500400  0.633500  1
  H  H846  1  0.085100  0.499600  0.866500  1
  H  H847  1  0.414500  0.499600  0.366500  1
  H  H848  1  0.914900  0.500400  0.133500  1
  H  H849  1  0.681900  0.471200  0.630100  1
  H  H850  1  0.210700  0.528800  0.869900  1
  H  H851  1  0.318100  0.528800  0.369900  1
  H  H852  1  0.789300  0.471200  0.130100  1
  H  H853  1  0.912500  0.136400  0.782600  1
  H  H854  1  0.776100  0.863600  0.717400  1
  H  H855  1  0.087500  0.863600  0.217400  1
  H  H856  1  0.223900  0.136400  0.282600  1
  H  H857  1  0.862500  0.088800  0.809100  1
  H  H858  1  0.773700  0.911200  0.690900  1
  H  H859  1  0.137500  0.911200  0.190900  1
  H  H860  1  0.226300  0.088800  0.309100  1
  H  H861  1  0.978100  0.131200  0.816200  1
  H  H862  1  0.846900  0.868800  0.683800  1
  H  H863  1  0.021900  0.868800  0.183800  1
  H  H864  1  0.153100  0.131200  0.316200  1
  N  N865  1  0.524200  0.195600  0.772900  1
  N  N866  1  0.328600  0.804400  0.727100  1
  N  N867  1  0.475800  0.804400  0.227100  1
  N  N868  1  0.671400  0.195600  0.272900  1
  N  N869  1  0.411640  0.234480  0.731260  1
  N  N870  1  0.177160  0.765520  0.768740  1
  N  N871  1  0.588360  0.765520  0.268740  1
  N  N872  1  0.822840  0.234480  0.231260  1
  N  N873  1  0.719900  0.267200  0.749500  1
  N  N874  1  0.452700  0.732800  0.750500  1
  N  N875  1  0.280100  0.732800  0.250500  1
  N  N876  1  0.547300  0.267200  0.249500  1
  N  N877  1  0.597460  0.199320  0.706100  1
  N  N878  1  0.398140  0.800680  0.793900  1
  N  N879  1  0.402540  0.800680  0.293900  1
  N  N880  1  0.601860  0.199320  0.206100  1
  N  N881  1  0.556110  0.317620  0.772460  1
  N  N882  1  0.238490  0.682380  0.727540  1
  N  N883  1  0.443890  0.682380  0.227540  1
  N  N884  1  0.761510  0.317620  0.272460  1
  N  N885  1  0.601540  0.320680  0.709140  1
  N  N886  1  0.280860  0.679320  0.790860  1
  N  N887  1  0.398460  0.679320  0.290860  1
  N  N888  1  0.719140  0.320680  0.209140  1
  N  N889  1  0.248490  0.302180  0.500230  1
  N  N890  1  0.946310  0.697820  0.999770  1
  N  N891  1  0.751510  0.697820  0.499770  1
  N  N892  1  0.053690  0.302180  0.000230  1
  N  N893  1  0.279000  0.285600  0.436700  1
  N  N894  1  0.993400  0.714400  0.063300  1
  N  N895  1  0.721000  0.714400  0.563300  1
  N  N896  1  0.006600  0.285600  0.936700  1
  N  N897  1  0.148130  0.181860  0.509440  1
  N  N898  1  0.966270  0.818140  0.990560  1
  N  N899  1  0.851870  0.818140  0.490560  1
  N  N900  1  0.033730  0.181860  0.009440  1
  N  N901  1  0.067740  0.238080  0.466400  1
  N  N902  1  0.829660  0.761920  0.033600  1
  N  N903  1  0.932260  0.761920  0.533600  1
  N  N904  1  0.170340  0.238080  0.966400  1
  N  N905  1  0.358890  0.215780  0.478900  1
  N  N906  1  0.143110  0.784220  0.021100  1
  N  N907  1  0.641110  0.784220  0.521100  1
  N  N908  1  0.856890  0.215780  0.978900  1
  N  N909  1  0.196610  0.164820  0.441500  1
  N  N910  1  0.031790  0.835180  0.058500  1
  N  N911  1  0.803390  0.835180  0.558500  1
  N  N912  1  0.968210  0.164820  0.941500  1
  N  N913  1  0.697390  0.321180  0.569200  1
  N  N914  1  0.376210  0.678820  0.930800  1
  N  N915  1  0.302610  0.678820  0.430800  1
  N  N916  1  0.623790  0.321180  0.069200  1
  N  N917  1  0.320020  0.066040  0.606200  1
  N  N918  1  0.253980  0.933960  0.893800  1
  N  N919  1  0.679980  0.933960  0.393800  1
  N  N920  1  0.746020  0.066040  0.106200  1
  N  N921  1  0.180710  0.331620  0.640850  1
  N  N922  1  0.849090  0.668380  0.859150  1
  N  N923  1  0.819290  0.668380  0.359150  1
  N  N924  1  0.150910  0.331620  0.140850  1
  N  N925  1  0.906690  0.455180  0.696500  1
  N  N926  1  0.451510  0.544820  0.803500  1
  N  N927  1  0.093310  0.544820  0.303500  1
  N  N928  1  0.548490  0.455180  0.196500  1
  N  N929  1  0.074800  0.475200  0.527800  1
  N  N930  1  0.599600  0.524800  0.972200  1
  N  N931  1  0.925200  0.524800  0.472200  1
  N  N932  1  0.400400  0.475200  0.027800  1
  N  N933  1  0.289790  0.833380  0.607500  1
  N  N934  1  0.456410  0.166620  0.892500  1
  N  N935  1  0.710210  0.166620  0.392500  1
  N  N936  1  0.543590  0.833380  0.107500  1
  N  N937  1  0.567800  0.448000  0.561000  1
  N  N938  1  0.119800  0.552000  0.939000  1
  N  N939  1  0.432200  0.552000  0.439000  1
  N  N940  1  0.880200  0.448000  0.061000  1
  N  N941  1  0.823300  0.196200  0.839000  1
  N  N942  1  0.627100  0.803800  0.661000  1
  N  N943  1  0.176700  0.803800  0.161000  1
  N  N944  1  0.372900  0.196200  0.339000  1
  O  O945  1  0.855080  0.495360  0.651050  1
  O  O946  1  0.359720  0.504640  0.848950  1
  O  O947  1  0.144920  0.504640  0.348950  1
  O  O948  1  0.640280  0.495360  0.151050  1
  O  O949  1  0.147200  0.430600  0.488400  1
  O  O950  1  0.716600  0.569400  0.011600  1
  O  O951  1  0.852800  0.569400  0.511600  1
  O  O952  1  0.283400  0.430600  0.988400  1
  O  O953  1  0.428360  0.822720  0.575900  1
  O  O954  1  0.605640  0.177280  0.924100  1
  O  O955  1  0.571640  0.177280  0.424100  1
  O  O956  1  0.394360  0.822720  0.075900  1
  O  O957  1  0.440970  0.562140  0.730570  1
  O  O958  1  0.878830  0.437860  0.769430  1
  O  O959  1  0.559030  0.437860  0.269430  1
  O  O960  1  0.121170  0.562140  0.230570  1
  O  O961  1  0.550450  0.563700  0.679560  1
  O  O962  1  0.986750  0.436300  0.820440  1
  O  O963  1  0.449550  0.436300  0.320440  1
  O  O964  1  0.013250  0.563700  0.179560  1
  O  O965  1  0.492470  0.477540  0.711750  1
  O  O966  1  0.014930  0.522460  0.788250  1
  O  O967  1  0.507530  0.522460  0.288250  1
  O  O968  1  0.985070  0.477540  0.211750  1
  O  O969  1  0.972250  0.796100  0.626800  1
  O  O970  1  0.176150  0.203900  0.873200  1
  O  O971  1  0.027750  0.203900  0.373200  1
  O  O972  1  0.823850  0.796100  0.126800  1
  O  O973  1  0.123860  0.772720  0.652600  1
  O  O974  1  0.351140  0.227280  0.847400  1
  O  O975  1  0.876140  0.227280  0.347400  1
  O  O976  1  0.648860  0.772720  0.152600  1
  O  O977  1  0.967360  0.695320  0.634500  1
  O  O978  1  0.272040  0.304680  0.865500  1
  O  O979  1  0.032640  0.304680  0.365500  1
  O  O980  1  0.727960  0.695320  0.134500  1
  O  O981  1  0.827600  0.127200  0.565900  1
  O  O982  1  0.700400  0.872800  0.934100  1
  O  O983  1  0.172400  0.872800  0.434100  1
  O  O984  1  0.299600  0.127200  0.065900  1
  O  O985  1  0.869200  0.234000  0.570600  1
  O  O986  1  0.635200  0.766000  0.929400  1
  O  O987  1  0.130800  0.766000  0.429400  1
  O  O988  1  0.364800  0.234000  0.070600  1
  O  O989  1  0.720200  0.174800  0.598100  1
  O  O990  1  0.545400  0.825200  0.901900  1
  O  O991  1  0.279800  0.825200  0.401900  1
  O  O992  1  0.454600  0.174800  0.098100  1
  S  S993  1  0.472430  0.530060  0.702950  1
  S  S994  1  0.942370  0.469940  0.797050  1
  S  S995  1  0.527570  0.469940  0.297050  1
  S  S996  1  0.057630  0.530060  0.202950  1
  S  S997  1  0.011670  0.755340  0.644910  1
  S  S998  1  0.256330  0.244660  0.855090  1
  S  S999  1  0.988330  0.244660  0.355090  1
  S  S1000  1  0.743670  0.755340  0.144910  1
  S  S1001  1  0.824880  0.182360  0.584250  1
  S  S1002  1  0.642520  0.817640  0.915750  1
  S  S1003  1  0.175120  0.817640  0.415750  1
  S  S1004  1  0.357480  0.182360  0.084250  1
