# generated using pymatgen
data_Fe2H94C119S7N22(O8F7)3
_symmetry_space_group_name_H-M   'P 1'
_cell_length_a   12.06510000
_cell_length_b   20.72230000
_cell_length_c   45.31630000
_cell_angle_alpha   90.00000000
_cell_angle_beta   96.75700000
_cell_angle_gamma   90.00000000
_symmetry_Int_Tables_number   1
_chemical_formula_structural   Fe2H94C119S7N22(O8F7)3
_chemical_formula_sum   'Fe8 H376 C476 S28 N88 O96 F84'
_cell_volume   11251.13226400
_cell_formula_units_Z   4
loop_
 _symmetry_equiv_pos_site_id
 _symmetry_equiv_pos_as_xyz
  1  'x, y, z'
loop_
 _atom_site_type_symbol
 _atom_site_label
 _atom_site_symmetry_multiplicity
 _atom_site_fract_x
 _atom_site_fract_y
 _atom_site_fract_z
 _atom_site_occupancy
  Fe  Fe1  1  0.772490  0.113120  0.114380  1
  Fe  Fe2  1  0.727510  0.613120  0.385620  1
  Fe  Fe3  1  0.227510  0.886880  0.885620  1
  Fe  Fe4  1  0.272490  0.386880  0.614380  1
  Fe  Fe5  1  0.387280  0.603500  0.154080  1
  Fe  Fe6  1  0.112720  0.103500  0.345920  1
  Fe  Fe7  1  0.612720  0.396500  0.845920  1
  Fe  Fe8  1  0.887280  0.896500  0.654080  1
  H  H9  1  0.627600  0.304600  0.358000  1
  H  H10  1  0.872400  0.804600  0.142000  1
  H  H11  1  0.372400  0.695400  0.642000  1
  H  H12  1  0.127600  0.195400  0.858000  1
  H  H13  1  0.196200  0.534300  0.019900  1
  H  H14  1  0.303800  0.034300  0.480100  1
  H  H15  1  0.803800  0.465700  0.980100  1
  H  H16  1  0.696200  0.965700  0.519900  1
  H  H17  1  0.911800  0.255900  0.985700  1
  H  H18  1  0.588200  0.755900  0.514300  1
  H  H19  1  0.088200  0.744100  0.014300  1
  H  H20  1  0.411800  0.244100  0.485700  1
  H  H21  1  0.907100  0.048900  0.068600  1
  H  H22  1  0.592900  0.548900  0.431400  1
  H  H23  1  0.092900  0.951100  0.931400  1
  H  H24  1  0.407100  0.451100  0.568600  1
  H  H25  1  0.095700  0.025900  0.070400  1
  H  H26  1  0.404300  0.525900  0.429600  1
  H  H27  1  0.904300  0.974100  0.929600  1
  H  H28  1  0.595700  0.474100  0.570400  1
  H  H29  1  0.218700  0.066800  0.109600  1
  H  H30  1  0.281300  0.566800  0.390400  1
  H  H31  1  0.781300  0.933200  0.890400  1
  H  H32  1  0.718700  0.433200  0.609600  1
  H  H33  1  0.147700  0.127900  0.146800  1
  H  H34  1  0.352300  0.627900  0.353200  1
  H  H35  1  0.852300  0.872100  0.853200  1
  H  H36  1  0.647700  0.372100  0.646800  1
  H  H37  1  0.985000  0.186800  0.164900  1
  H  H38  1  0.515000  0.686800  0.335100  1
  H  H39  1  0.015000  0.813200  0.835100  1
  H  H40  1  0.485000  0.313200  0.664900  1
  H  H41  1  0.762900  0.136900  0.197200  1
  H  H42  1  0.737100  0.636900  0.302800  1
  H  H43  1  0.237100  0.863100  0.802800  1
  H  H44  1  0.262900  0.363100  0.697200  1
  H  H45  1  0.660900  0.199800  0.227400  1
  H  H46  1  0.839100  0.699800  0.272600  1
  H  H47  1  0.339100  0.800200  0.772600  1
  H  H48  1  0.160900  0.300200  0.727400  1
  H  H49  1  0.696400  0.352800  0.176200  1
  H  H50  1  0.803600  0.852800  0.323800  1
  H  H51  1  0.303600  0.647200  0.823800  1
  H  H52  1  0.196400  0.147200  0.676200  1
  H  H53  1  0.785000  0.291300  0.144800  1
  H  H54  1  0.715000  0.791300  0.355200  1
  H  H55  1  0.215000  0.708700  0.855200  1
  H  H56  1  0.285000  0.208700  0.644800  1
  H  H57  1  0.464600  0.322900  0.180200  1
  H  H58  1  0.035400  0.822900  0.319800  1
  H  H59  1  0.535400  0.677100  0.819800  1
  H  H60  1  0.964600  0.177100  0.680200  1
  H  H61  1  0.353800  0.408000  0.159700  1
  H  H62  1  0.146200  0.908000  0.340300  1
  H  H63  1  0.646200  0.592000  0.840300  1
  H  H64  1  0.853800  0.092000  0.659700  1
  H  H65  1  0.492700  0.525400  0.224300  1
  H  H66  1  0.007300  0.025400  0.275700  1
  H  H67  1  0.507300  0.474600  0.775700  1
  H  H68  1  0.992700  0.974600  0.724300  1
  H  H69  1  0.613900  0.444100  0.243000  1
  H  H70  1  0.886100  0.944100  0.257000  1
  H  H71  1  0.386100  0.555900  0.757000  1
  H  H72  1  0.113900  0.055900  0.743000  1
  H  H73  1  0.220700  0.492600  0.194300  1
  H  H74  1  0.279300  0.992600  0.305700  1
  H  H75  1  0.779300  0.507400  0.805700  1
  H  H76  1  0.720700  0.007400  0.694300  1
  H  H77  1  0.025800  0.553000  0.184700  1
  H  H78  1  0.474200  0.053000  0.315300  1
  H  H79  1  0.974200  0.447000  0.815300  1
  H  H80  1  0.525800  0.947000  0.684700  1
  H  H81  1  0.923600  0.638800  0.161100  1
  H  H82  1  0.576400  0.138800  0.338900  1
  H  H83  1  0.076400  0.361200  0.838900  1
  H  H84  1  0.423600  0.861200  0.661100  1
  H  H85  1  0.012100  0.708700  0.132600  1
  H  H86  1  0.487900  0.208700  0.367400  1
  H  H87  1  0.987900  0.291300  0.867400  1
  H  H88  1  0.512100  0.791300  0.632600  1
  H  H89  1  0.196300  0.695500  0.127400  1
  H  H90  1  0.303700  0.195500  0.372600  1
  H  H91  1  0.803700  0.304500  0.872600  1
  H  H92  1  0.696300  0.804500  0.627400  1
  H  H93  1  0.799200  0.294600  0.259800  1
  H  H94  1  0.700800  0.794600  0.240200  1
  H  H95  1  0.200800  0.705400  0.740200  1
  H  H96  1  0.299200  0.205400  0.759800  1
  H  H97  1  0.826700  0.276400  0.310700  1
  H  H98  1  0.673300  0.776400  0.189300  1
  H  H99  1  0.173300  0.723600  0.689300  1
  H  H100  1  0.326700  0.223600  0.810700  1
  H  H101  1  0.493800  0.302200  0.313900  1
  H  H102  1  0.006200  0.802200  0.186100  1
  H  H103  1  0.506200  0.697800  0.686100  1
  H  H104  1  0.993800  0.197800  0.813900  1
  H  H105  1  0.470300  0.322400  0.263300  1
  H  H106  1  0.029700  0.822400  0.236700  1
  H  H107  1  0.529700  0.677600  0.736700  1
  H  H108  1  0.970300  0.177600  0.763300  1
  H  H109  1  0.735200  0.293900  0.405000  1
  H  H110  1  0.764800  0.793900  0.095000  1
  H  H111  1  0.264800  0.706100  0.595000  1
  H  H112  1  0.235200  0.206100  0.905000  1
  H  H113  1  0.814500  0.231900  0.409600  1
  H  H114  1  0.685500  0.731900  0.090400  1
  H  H115  1  0.185500  0.768100  0.590400  1
  H  H116  1  0.314500  0.268100  0.909600  1
  H  H117  1  0.681900  0.223100  0.404200  1
  H  H118  1  0.818100  0.723100  0.095800  1
  H  H119  1  0.318100  0.776900  0.595800  1
  H  H120  1  0.181900  0.276900  0.904200  1
  H  H121  1  0.718200  0.969700  0.100000  1
  H  H122  1  0.781800  0.469700  0.400000  1
  H  H123  1  0.281800  0.030300  0.900000  1
  H  H124  1  0.218200  0.530300  0.600000  1
  H  H125  1  0.648200  0.911500  0.057000  1
  H  H126  1  0.851800  0.411500  0.443000  1
  H  H127  1  0.351800  0.088500  0.943000  1
  H  H128  1  0.148200  0.588500  0.557000  1
  H  H129  1  0.606600  0.966400  0.012000  1
  H  H130  1  0.893400  0.466400  0.488000  1
  H  H131  1  0.393400  0.033600  0.988000  1
  H  H132  1  0.106600  0.533600  0.512000  1
  H  H133  1  0.639400  0.079200  0.010600  1
  H  H134  1  0.860600  0.579200  0.489400  1
  H  H135  1  0.360600  0.920800  0.989400  1
  H  H136  1  0.139400  0.420800  0.510600  1
  H  H137  1  0.702500  0.182500  0.039800  1
  H  H138  1  0.797500  0.682500  0.460200  1
  H  H139  1  0.297500  0.817500  0.960200  1
  H  H140  1  0.202500  0.317500  0.539800  1
  H  H141  1  0.936400  0.239300  0.097800  1
  H  H142  1  0.563600  0.739300  0.402200  1
  H  H143  1  0.063600  0.760700  0.902200  1
  H  H144  1  0.436400  0.260700  0.597800  1
  H  H145  1  0.970600  0.352400  0.101000  1
  H  H146  1  0.529400  0.852400  0.399000  1
  H  H147  1  0.029400  0.647600  0.899000  1
  H  H148  1  0.470600  0.147600  0.601000  1
  H  H149  1  0.644600  0.385400  0.074900  1
  H  H150  1  0.855400  0.885400  0.425100  1
  H  H151  1  0.355400  0.614600  0.925100  1
  H  H152  1  0.144600  0.114600  0.574900  1
  H  H153  1  0.611700  0.275800  0.072000  1
  H  H154  1  0.888300  0.775800  0.428000  1
  H  H155  1  0.388300  0.724200  0.928000  1
  H  H156  1  0.111700  0.224200  0.572000  1
  H  H157  1  0.722600  0.555800  0.078700  1
  H  H158  1  0.777400  0.055800  0.421300  1
  H  H159  1  0.277400  0.444200  0.921300  1
  H  H160  1  0.222600  0.944200  0.578700  1
  H  H161  1  0.608500  0.616700  0.108100  1
  H  H162  1  0.891500  0.116700  0.391900  1
  H  H163  1  0.391500  0.383300  0.891900  1
  H  H164  1  0.108500  0.883300  0.608100  1
  H  H165  1  0.654200  0.477500  0.171500  1
  H  H166  1  0.845800  0.977500  0.328500  1
  H  H167  1  0.345800  0.522500  0.828500  1
  H  H168  1  0.154200  0.022500  0.671500  1
  H  H169  1  0.773400  0.423200  0.143200  1
  H  H170  1  0.726600  0.923200  0.356800  1
  H  H171  1  0.226600  0.576800  0.856800  1
  H  H172  1  0.273400  0.076800  0.643200  1
  H  H173  1  0.678300  0.606900  0.189700  1
  H  H174  1  0.821700  0.106900  0.310300  1
  H  H175  1  0.321700  0.393100  0.810300  1
  H  H176  1  0.178300  0.893100  0.689700  1
  H  H177  1  0.652300  0.671900  0.237900  1
  H  H178  1  0.847700  0.171900  0.262100  1
  H  H179  1  0.347700  0.328100  0.762100  1
  H  H180  1  0.152300  0.828100  0.737900  1
  H  H181  1  0.522900  0.726200  0.265300  1
  H  H182  1  0.977100  0.226200  0.234700  1
  H  H183  1  0.477100  0.273800  0.734700  1
  H  H184  1  0.022900  0.773800  0.765300  1
  H  H185  1  0.338900  0.732900  0.245900  1
  H  H186  1  0.161100  0.232900  0.254100  1
  H  H187  1  0.661100  0.267100  0.754100  1
  H  H188  1  0.838900  0.767100  0.745900  1
  H  H189  1  0.279300  0.685900  0.201400  1
  H  H190  1  0.220700  0.185900  0.298600  1
  H  H191  1  0.720700  0.314100  0.798600  1
  H  H192  1  0.779300  0.814100  0.701400  1
  H  H193  1  0.920600  0.406600  0.045600  1
  H  H194  1  0.579400  0.906600  0.454400  1
  H  H195  1  0.079400  0.593400  0.954400  1
  H  H196  1  0.420600  0.093400  0.545600  1
  H  H197  1  0.056700  0.455700  0.020700  1
  H  H198  1  0.443300  0.955700  0.479300  1
  H  H199  1  0.943300  0.544300  0.979300  1
  H  H200  1  0.556700  0.044300  0.520700  1
  H  H201  1  0.066100  0.607900  0.076600  1
  H  H202  1  0.433900  0.107900  0.423400  1
  H  H203  1  0.933900  0.392100  0.923400  1
  H  H204  1  0.566100  0.892100  0.576600  1
  H  H205  1  0.935200  0.556800  0.102800  1
  H  H206  1  0.564800  0.056800  0.397200  1
  H  H207  1  0.064800  0.443200  0.897200  1
  H  H208  1  0.435200  0.943200  0.602800  1
  H  H209  1  0.233300  0.676900  0.991300  1
  H  H210  1  0.266700  0.176900  0.508700  1
  H  H211  1  0.766700  0.323100  0.008700  1
  H  H212  1  0.733300  0.823100  0.491300  1
  H  H213  1  0.267300  0.602400  0.990000  1
  H  H214  1  0.232700  0.102400  0.510000  1
  H  H215  1  0.732700  0.397600  0.010000  1
  H  H216  1  0.767300  0.897600  0.490000  1
  H  H217  1  0.335500  0.649600  0.013500  1
  H  H218  1  0.164500  0.149600  0.486500  1
  H  H219  1  0.664500  0.350400  0.986500  1
  H  H220  1  0.835500  0.850400  0.513500  1
  H  H221  1  0.952100  0.009900  0.144800  1
  H  H222  1  0.547900  0.509900  0.355200  1
  H  H223  1  0.047900  0.990100  0.855200  1
  H  H224  1  0.452100  0.490100  0.644800  1
  H  H225  1  0.955400  0.943600  0.186600  1
  H  H226  1  0.544600  0.443600  0.313400  1
  H  H227  1  0.044600  0.056400  0.813400  1
  H  H228  1  0.455400  0.556400  0.686600  1
  H  H229  1  0.782800  0.919500  0.203200  1
  H  H230  1  0.717200  0.419500  0.296800  1
  H  H231  1  0.217200  0.080500  0.796800  1
  H  H232  1  0.282800  0.580500  0.703200  1
  H  H233  1  0.633400  0.991100  0.191000  1
  H  H234  1  0.866600  0.491100  0.309000  1
  H  H235  1  0.366600  0.008900  0.809000  1
  H  H236  1  0.133400  0.508900  0.691000  1
  H  H237  1  0.551100  0.086000  0.159200  1
  H  H238  1  0.948900  0.586000  0.340800  1
  H  H239  1  0.448900  0.914000  0.840800  1
  H  H240  1  0.051100  0.414000  0.659200  1
  H  H241  1  0.504700  0.131100  0.073700  1
  H  H242  1  0.995300  0.631100  0.426300  1
  H  H243  1  0.495300  0.868900  0.926300  1
  H  H244  1  0.004700  0.368900  0.573700  1
  H  H245  1  0.364300  0.202700  0.056000  1
  H  H246  1  0.135700  0.702700  0.444000  1
  H  H247  1  0.635700  0.797300  0.944000  1
  H  H248  1  0.864300  0.297300  0.556000  1
  H  H249  1  0.395400  0.286400  0.136800  1
  H  H250  1  0.104600  0.786400  0.363200  1
  H  H251  1  0.604600  0.713600  0.863200  1
  H  H252  1  0.895400  0.213600  0.636800  1
  H  H253  1  0.535200  0.216100  0.153500  1
  H  H254  1  0.964800  0.716100  0.346500  1
  H  H255  1  0.464800  0.783900  0.846500  1
  H  H256  1  0.035200  0.283900  0.653500  1
  H  H257  1  0.150700  0.385500  0.104700  1
  H  H258  1  0.349300  0.885500  0.395300  1
  H  H259  1  0.849300  0.614500  0.895300  1
  H  H260  1  0.650700  0.114500  0.604700  1
  H  H261  1  0.184700  0.493700  0.116100  1
  H  H262  1  0.315300  0.993700  0.383900  1
  H  H263  1  0.815300  0.506300  0.883900  1
  H  H264  1  0.684700  0.006300  0.616100  1
  H  H265  1  0.499000  0.475400  0.095100  1
  H  H266  1  0.001000  0.975400  0.404900  1
  H  H267  1  0.501000  0.524600  0.904900  1
  H  H268  1  0.999000  0.024600  0.595100  1
  H  H269  1  0.462100  0.367700  0.083400  1
  H  H270  1  0.037900  0.867700  0.416600  1
  H  H271  1  0.537900  0.632300  0.916600  1
  H  H272  1  0.962100  0.132300  0.583400  1
  H  H273  1  0.363900  0.588200  0.072600  1
  H  H274  1  0.136100  0.088200  0.427400  1
  H  H275  1  0.636100  0.411800  0.927400  1
  H  H276  1  0.863900  0.911800  0.572600  1
  H  H277  1  0.409600  0.707400  0.059400  1
  H  H278  1  0.090400  0.207400  0.440600  1
  H  H279  1  0.590400  0.292600  0.940600  1
  H  H280  1  0.909600  0.792600  0.559400  1
  H  H281  1  0.442500  0.814100  0.076300  1
  H  H282  1  0.057500  0.314100  0.423700  1
  H  H283  1  0.557500  0.185900  0.923700  1
  H  H284  1  0.942500  0.685900  0.576300  1
  H  H285  1  0.471900  0.831200  0.126800  1
  H  H286  1  0.028100  0.331200  0.373200  1
  H  H287  1  0.528100  0.168800  0.873200  1
  H  H288  1  0.971900  0.668800  0.626800  1
  H  H289  1  0.438400  0.750200  0.159200  1
  H  H290  1  0.061600  0.250200  0.340800  1
  H  H291  1  0.561600  0.249800  0.840800  1
  H  H292  1  0.938400  0.749800  0.659200  1
  H  H293  1  0.162200  0.197200  0.082700  1
  H  H294  1  0.337800  0.697200  0.417300  1
  H  H295  1  0.837800  0.802800  0.917300  1
  H  H296  1  0.662200  0.302800  0.582700  1
  H  H297  1  0.017400  0.164400  0.048400  1
  H  H298  1  0.482600  0.664400  0.451600  1
  H  H299  1  0.982600  0.835600  0.951600  1
  H  H300  1  0.517400  0.335600  0.548400  1
  H  H301  1  0.043200  0.331600  0.004300  1
  H  H302  1  0.456800  0.831600  0.495700  1
  H  H303  1  0.956800  0.668400  0.995700  1
  H  H304  1  0.543200  0.168400  0.504300  1
  H  H305  1  0.187200  0.363800  0.038700  1
  H  H306  1  0.312800  0.863800  0.461300  1
  H  H307  1  0.812800  0.636200  0.961300  1
  H  H308  1  0.687200  0.136200  0.538700  1
  H  H309  1  0.753500  0.127000  0.964400  1
  H  H310  1  0.746500  0.627000  0.535600  1
  H  H311  1  0.246500  0.873000  0.035600  1
  H  H312  1  0.253500  0.373000  0.464400  1
  H  H313  1  0.832600  0.175900  0.949300  1
  H  H314  1  0.667400  0.675900  0.550700  1
  H  H315  1  0.167400  0.824100  0.050700  1
  H  H316  1  0.332600  0.324100  0.449300  1
  H  H317  1  0.736100  0.203200  0.967300  1
  H  H318  1  0.763900  0.703200  0.532700  1
  H  H319  1  0.263900  0.796800  0.032700  1
  H  H320  1  0.236100  0.296800  0.467300  1
  H  H321  1  0.373300  0.153700  0.240700  1
  H  H322  1  0.126700  0.653700  0.259300  1
  H  H323  1  0.626700  0.846300  0.759300  1
  H  H324  1  0.873300  0.346300  0.740700  1
  H  H325  1  0.350100  0.218600  0.221900  1
  H  H326  1  0.149900  0.718600  0.278100  1
  H  H327  1  0.649900  0.781400  0.778100  1
  H  H328  1  0.850100  0.281400  0.721900  1
  H  H329  1  0.474000  0.189900  0.227600  1
  H  H330  1  0.026000  0.689900  0.272400  1
  H  H331  1  0.526000  0.810100  0.772400  1
  H  H332  1  0.974000  0.310100  0.727600  1
  H  H333  1  0.422600  0.609900  0.293100  1
  H  H334  1  0.077400  0.109900  0.206900  1
  H  H335  1  0.577400  0.390100  0.706900  1
  H  H336  1  0.922600  0.890100  0.793100  1
  H  H337  1  0.489100  0.553500  0.278700  1
  H  H338  1  0.010900  0.053500  0.221300  1
  H  H339  1  0.510900  0.446500  0.721300  1
  H  H340  1  0.989100  0.946500  0.778700  1
  H  H341  1  0.418900  0.537800  0.305700  1
  H  H342  1  0.081100  0.037800  0.194300  1
  H  H343  1  0.581100  0.462200  0.694300  1
  H  H344  1  0.918900  0.962200  0.805700  1
  H  H345  1  0.951800  0.047600  0.079400  1
  H  H346  1  0.548200  0.547600  0.420600  1
  H  H347  1  0.048200  0.952400  0.920600  1
  H  H348  1  0.451800  0.452400  0.579400  1
  H  H349  1  0.142800  0.033300  0.081900  1
  H  H350  1  0.357200  0.533300  0.418100  1
  H  H351  1  0.857200  0.966700  0.918100  1
  H  H352  1  0.642800  0.466700  0.581900  1
  H  H353  1  0.259600  0.087400  0.118900  1
  H  H354  1  0.240400  0.587400  0.381100  1
  H  H355  1  0.740400  0.912600  0.881100  1
  H  H356  1  0.759600  0.412600  0.618900  1
  H  H357  1  0.179900  0.154100  0.152500  1
  H  H358  1  0.320100  0.654100  0.347500  1
  H  H359  1  0.820100  0.845900  0.847500  1
  H  H360  1  0.679900  0.345900  0.652500  1
  H  H361  1  0.971600  0.186900  0.172100  1
  H  H362  1  0.528400  0.686900  0.327900  1
  H  H363  1  0.028400  0.813100  0.827900  1
  H  H364  1  0.471600  0.313100  0.672100  1
  H  H365  1  0.896900  0.993800  0.137100  1
  H  H366  1  0.603100  0.493800  0.362900  1
  H  H367  1  0.103100  0.006200  0.862900  1
  H  H368  1  0.396900  0.506200  0.637100  1
  H  H369  1  0.894000  0.924300  0.177300  1
  H  H370  1  0.606000  0.424300  0.322700  1
  H  H371  1  0.106000  0.075700  0.822700  1
  H  H372  1  0.394000  0.575700  0.677300  1
  H  H373  1  0.726600  0.913300  0.198300  1
  H  H374  1  0.773400  0.413300  0.301700  1
  H  H375  1  0.273400  0.086700  0.801700  1
  H  H376  1  0.226600  0.586700  0.698300  1
  H  H377  1  0.577200  0.982600  0.183100  1
  H  H378  1  0.922800  0.482600  0.316900  1
  H  H379  1  0.422800  0.017400  0.816900  1
  H  H380  1  0.077200  0.517400  0.683100  1
  H  H381  1  0.495200  0.081900  0.147100  1
  H  H382  1  0.004800  0.581900  0.352900  1
  H  H383  1  0.504800  0.918100  0.852900  1
  H  H384  1  0.995200  0.418100  0.647100  1
  C  C385  1  0.956300  0.063500  0.085200  1
  C  C386  1  0.543700  0.563500  0.414800  1
  C  C387  1  0.043700  0.936500  0.914800  1
  C  C388  1  0.456300  0.436500  0.585200  1
  C  C389  1  0.068800  0.050700  0.085700  1
  C  C390  1  0.431200  0.550700  0.414300  1
  C  C391  1  0.931200  0.949300  0.914300  1
  C  C392  1  0.568800  0.449300  0.585700  1
  C  C393  1  0.140900  0.074800  0.108700  1
  C  C394  1  0.359100  0.574800  0.391300  1
  C  C395  1  0.859100  0.925200  0.891300  1
  C  C396  1  0.640900  0.425200  0.608700  1
  C  C397  1  0.099100  0.110900  0.130700  1
  C  C398  1  0.400900  0.610900  0.369300  1
  C  C399  1  0.900900  0.889100  0.869300  1
  C  C400  1  0.599100  0.389100  0.630700  1
  C  C401  1  0.984900  0.121700  0.128600  1
  C  C402  1  0.515100  0.621700  0.371400  1
  C  C403  1  0.015100  0.878300  0.871400  1
  C  C404  1  0.484900  0.378300  0.628600  1
  C  C405  1  0.939000  0.164400  0.149800  1
  C  C406  1  0.561000  0.664400  0.350200  1
  C  C407  1  0.061000  0.835600  0.850200  1
  C  C408  1  0.439000  0.335600  0.649800  1
  C  C409  1  0.780300  0.208400  0.167160  1
  C  C410  1  0.719700  0.708400  0.332840  1
  C  C411  1  0.219700  0.791600  0.832840  1
  C  C412  1  0.280300  0.291600  0.667160  1
  C  C413  1  0.747000  0.180900  0.192460  1
  C  C414  1  0.753000  0.680900  0.307540  1
  C  C415  1  0.253000  0.819100  0.807540  1
  C  C416  1  0.247000  0.319100  0.692460  1
  C  C417  1  0.689200  0.219300  0.210900  1
  C  C418  1  0.810800  0.719300  0.289100  1
  C  C419  1  0.310800  0.780700  0.789100  1
  C  C420  1  0.189200  0.280700  0.710900  1
  C  C421  1  0.672100  0.282100  0.206250  1
  C  C422  1  0.827900  0.782100  0.293750  1
  C  C423  1  0.327900  0.717900  0.793750  1
  C  C424  1  0.172100  0.217900  0.706250  1
  C  C425  1  0.708800  0.308300  0.180530  1
  C  C426  1  0.791200  0.808300  0.319470  1
  C  C427  1  0.291200  0.691700  0.819470  1
  C  C428  1  0.208800  0.191700  0.680530  1
  C  C429  1  0.761000  0.272000  0.162000  1
  C  C430  1  0.739000  0.772000  0.338000  1
  C  C431  1  0.239000  0.728000  0.838000  1
  C  C432  1  0.261000  0.228000  0.662000  1
  C  C433  1  0.551500  0.373600  0.213880  1
  C  C434  1  0.948500  0.873600  0.286120  1
  C  C435  1  0.448500  0.626400  0.786120  1
  C  C436  1  0.051500  0.126400  0.713880  1
  C  C437  1  0.473000  0.364500  0.188970  1
  C  C438  1  0.027000  0.864500  0.311030  1
  C  C439  1  0.527000  0.635500  0.811030  1
  C  C440  1  0.973000  0.135500  0.688970  1
  C  C441  1  0.406600  0.415100  0.176600  1
  C  C442  1  0.093400  0.915100  0.323400  1
  C  C443  1  0.593400  0.584900  0.823400  1
  C  C444  1  0.906600  0.084900  0.676600  1
  C  C445  1  0.418900  0.476500  0.189440  1
  C  C446  1  0.081100  0.976500  0.310560  1
  C  C447  1  0.581100  0.523500  0.810560  1
  C  C448  1  0.918900  0.023500  0.689440  1
  C  C449  1  0.490300  0.484800  0.214510  1
  C  C450  1  0.009700  0.984800  0.285490  1
  C  C451  1  0.509700  0.515200  0.785490  1
  C  C452  1  0.990300  0.015200  0.714510  1
  C  C453  1  0.560200  0.435700  0.226410  1
  C  C454  1  0.939800  0.935700  0.273590  1
  C  C455  1  0.439800  0.564300  0.773590  1
  C  C456  1  0.060200  0.064300  0.726410  1
  C  C457  1  0.246800  0.525600  0.182270  1
  C  C458  1  0.253200  0.025600  0.317730  1
  C  C459  1  0.753200  0.474400  0.817730  1
  C  C460  1  0.746800  0.974400  0.682270  1
  C  C461  1  0.171700  0.576500  0.168890  1
  C  C462  1  0.328300  0.076500  0.331110  1
  C  C463  1  0.828300  0.423500  0.831110  1
  C  C464  1  0.671700  0.923500  0.668890  1
  C  C465  1  0.060400  0.582900  0.172700  1
  C  C466  1  0.439600  0.082900  0.327300  1
  C  C467  1  0.939600  0.417100  0.827300  1
  C  C468  1  0.560400  0.917100  0.672700  1
  C  C469  1  0.000400  0.633200  0.158900  1
  C  C470  1  0.499600  0.133200  0.341100  1
  C  C471  1  0.999600  0.366800  0.841100  1
  C  C472  1  0.500400  0.866800  0.658900  1
  C  C473  1  0.052200  0.673900  0.142430  1
  C  C474  1  0.447800  0.173900  0.357570  1
  C  C475  1  0.947800  0.326100  0.857570  1
  C  C476  1  0.552200  0.826100  0.642430  1
  C  C477  1  0.161600  0.666000  0.139530  1
  C  C478  1  0.338400  0.166000  0.360470  1
  C  C479  1  0.838400  0.334000  0.860470  1
  C  C480  1  0.661600  0.834000  0.639530  1
  C  C481  1  0.633200  0.309700  0.256720  1
  C  C482  1  0.866800  0.809700  0.243280  1
  C  C483  1  0.366800  0.690300  0.743280  1
  C  C484  1  0.133200  0.190300  0.756720  1
  C  C485  1  0.737400  0.296400  0.270950  1
  C  C486  1  0.762600  0.796400  0.229050  1
  C  C487  1  0.262600  0.703600  0.729050  1
  C  C488  1  0.237400  0.203600  0.770950  1
  C  C489  1  0.753900  0.285500  0.301240  1
  C  C490  1  0.746100  0.785500  0.198760  1
  C  C491  1  0.246100  0.714500  0.698760  1
  C  C492  1  0.253900  0.214500  0.801240  1
  C  C493  1  0.663300  0.287800  0.317940  1
  C  C494  1  0.836700  0.787800  0.182060  1
  C  C495  1  0.336700  0.712200  0.682060  1
  C  C496  1  0.163300  0.212200  0.817940  1
  C  C497  1  0.556600  0.301100  0.303070  1
  C  C498  1  0.943400  0.801100  0.196930  1
  C  C499  1  0.443400  0.698900  0.696930  1
  C  C500  1  0.056600  0.198900  0.803070  1
  C  C501  1  0.542400  0.312500  0.273000  1
  C  C502  1  0.957600  0.812500  0.227000  1
  C  C503  1  0.457600  0.687500  0.727000  1
  C  C504  1  0.042400  0.187500  0.773000  1
  C  C505  1  0.750000  0.245700  0.366190  1
  C  C506  1  0.750000  0.745700  0.133810  1
  C  C507  1  0.250000  0.754300  0.633810  1
  C  C508  1  0.250000  0.254300  0.866190  1
  C  C509  1  0.745000  0.248900  0.399140  1
  C  C510  1  0.755000  0.748900  0.100860  1
  C  C511  1  0.255000  0.751100  0.600860  1
  C  C512  1  0.245000  0.251100  0.899140  1
  C  C513  1  0.701700  0.991900  0.081600  1
  C  C514  1  0.798300  0.491900  0.418400  1
  C  C515  1  0.298300  0.008100  0.918400  1
  C  C516  1  0.201700  0.508100  0.581600  1
  C  C517  1  0.659700  0.956800  0.056000  1
  C  C518  1  0.840300  0.456800  0.444000  1
  C  C519  1  0.340300  0.043200  0.944000  1
  C  C520  1  0.159700  0.543200  0.556000  1
  C  C521  1  0.635500  0.989000  0.029400  1
  C  C522  1  0.864500  0.489000  0.470600  1
  C  C523  1  0.364500  0.011000  0.970600  1
  C  C524  1  0.135500  0.511000  0.529400  1
  C  C525  1  0.654500  0.056000  0.028700  1
  C  C526  1  0.845500  0.556000  0.471300  1
  C  C527  1  0.345500  0.944000  0.971300  1
  C  C528  1  0.154500  0.444000  0.528700  1
  C  C529  1  0.695000  0.087600  0.054310  1
  C  C530  1  0.805000  0.587600  0.445690  1
  C  C531  1  0.305000  0.912400  0.945690  1
  C  C532  1  0.195000  0.412400  0.554310  1
  C  C533  1  0.715100  0.155100  0.056730  1
  C  C534  1  0.784900  0.655100  0.443270  1
  C  C535  1  0.284900  0.844900  0.943270  1
  C  C536  1  0.215100  0.344900  0.556730  1
  C  C537  1  0.770800  0.247200  0.084570  1
  C  C538  1  0.729200  0.747200  0.415430  1
  C  C539  1  0.229200  0.752800  0.915430  1
  C  C540  1  0.270800  0.252800  0.584570  1
  C  C541  1  0.876900  0.269000  0.093230  1
  C  C542  1  0.623100  0.769000  0.406770  1
  C  C543  1  0.123100  0.731000  0.906770  1
  C  C544  1  0.376900  0.231000  0.593230  1
  C  C545  1  0.897100  0.336800  0.095330  1
  C  C546  1  0.602900  0.836800  0.404670  1
  C  C547  1  0.102900  0.663200  0.904670  1
  C  C548  1  0.397100  0.163200  0.595330  1
  C  C549  1  0.810600  0.379500  0.089110  1
  C  C550  1  0.689400  0.879500  0.410890  1
  C  C551  1  0.189400  0.620500  0.910890  1
  C  C552  1  0.310600  0.120500  0.589110  1
  C  C553  1  0.704400  0.356100  0.079910  1
  C  C554  1  0.795600  0.856100  0.420090  1
  C  C555  1  0.295600  0.643900  0.920090  1
  C  C556  1  0.204400  0.143900  0.579910  1
  C  C557  1  0.685200  0.291100  0.077960  1
  C  C558  1  0.814800  0.791100  0.422040  1
  C  C559  1  0.314800  0.708900  0.922040  1
  C  C560  1  0.185200  0.208900  0.577960  1
  C  C561  1  0.758200  0.484200  0.108630  1
  C  C562  1  0.741800  0.984200  0.391370  1
  C  C563  1  0.241800  0.515800  0.891370  1
  C  C564  1  0.258200  0.015800  0.608630  1
  C  C565  1  0.709900  0.540800  0.097790  1
  C  C566  1  0.790100  0.040800  0.402210  1
  C  C567  1  0.290100  0.459200  0.902210  1
  C  C568  1  0.209900  0.959200  0.597790  1
  C  C569  1  0.640700  0.576900  0.115120  1
  C  C570  1  0.859300  0.076900  0.384880  1
  C  C571  1  0.359300  0.423100  0.884880  1
  C  C572  1  0.140700  0.923100  0.615120  1
  C  C573  1  0.621500  0.551900  0.142840  1
  C  C574  1  0.878500  0.051900  0.357160  1
  C  C575  1  0.378500  0.448100  0.857160  1
  C  C576  1  0.121500  0.948100  0.642840  1
  C  C577  1  0.669000  0.494600  0.152900  1
  C  C578  1  0.831000  0.994600  0.347100  1
  C  C579  1  0.331000  0.505400  0.847100  1
  C  C580  1  0.169000  0.005400  0.652900  1
  C  C581  1  0.738600  0.462000  0.135840  1
  C  C582  1  0.761400  0.962000  0.364160  1
  C  C583  1  0.261400  0.538000  0.864160  1
  C  C584  1  0.238600  0.038000  0.635840  1
  C  C585  1  0.600200  0.612000  0.184380  1
  C  C586  1  0.899800  0.112000  0.315620  1
  C  C587  1  0.399800  0.388000  0.815620  1
  C  C588  1  0.100200  0.888000  0.684380  1
  C  C589  1  0.531500  0.647400  0.203300  1
  C  C590  1  0.968500  0.147400  0.296700  1
  C  C591  1  0.468500  0.352600  0.796700  1
  C  C592  1  0.031500  0.852600  0.703300  1
  C  C593  1  0.575300  0.674900  0.230650  1
  C  C594  1  0.924700  0.174900  0.269350  1
  C  C595  1  0.424700  0.325100  0.769350  1
  C  C596  1  0.075300  0.825100  0.730650  1
  C  C597  1  0.498400  0.707100  0.246570  1
  C  C598  1  0.001600  0.207100  0.253430  1
  C  C599  1  0.501600  0.292900  0.753430  1
  C  C600  1  0.998400  0.792900  0.746570  1
  C  C601  1  0.390700  0.710800  0.235350  1
  C  C602  1  0.109300  0.210800  0.264650  1
  C  C603  1  0.609300  0.289200  0.764650  1
  C  C604  1  0.890700  0.789200  0.735350  1
  C  C605  1  0.356200  0.682500  0.208720  1
  C  C606  1  0.143800  0.182500  0.291280  1
  C  C607  1  0.643800  0.317500  0.791280  1
  C  C608  1  0.856200  0.817500  0.708720  1
  C  C609  1  0.911500  0.478400  0.076270  1
  C  C610  1  0.588500  0.978400  0.423730  1
  C  C611  1  0.088500  0.521600  0.923730  1
  C  C612  1  0.411500  0.021600  0.576270  1
  C  C613  1  0.949700  0.447600  0.051950  1
  C  C614  1  0.550300  0.947600  0.448050  1
  C  C615  1  0.050300  0.552400  0.948050  1
  C  C616  1  0.449700  0.052400  0.551950  1
  C  C617  1  0.030600  0.477000  0.037090  1
  C  C618  1  0.469400  0.977000  0.462910  1
  C  C619  1  0.969400  0.523000  0.962910  1
  C  C620  1  0.530600  0.023000  0.537090  1
  C  C621  1  0.073800  0.536900  0.045740  1
  C  C622  1  0.426200  0.036900  0.454260  1
  C  C623  1  0.926200  0.463100  0.954260  1
  C  C624  1  0.573800  0.963100  0.545740  1
  C  C625  1  0.037100  0.566900  0.070250  1
  C  C626  1  0.462900  0.066900  0.429750  1
  C  C627  1  0.962900  0.433100  0.929750  1
  C  C628  1  0.537100  0.933100  0.570250  1
  C  C629  1  0.957700  0.536700  0.085580  1
  C  C630  1  0.542300  0.036700  0.414420  1
  C  C631  1  0.042300  0.463300  0.914420  1
  C  C632  1  0.457700  0.963300  0.585580  1
  C  C633  1  0.182700  0.623700  0.025600  1
  C  C634  1  0.317300  0.123700  0.474400  1
  C  C635  1  0.817300  0.376300  0.974400  1
  C  C636  1  0.682700  0.876300  0.525600  1
  C  C637  1  0.261600  0.639500  0.003100  1
  C  C638  1  0.238400  0.139500  0.496900  1
  C  C639  1  0.738400  0.360500  0.996900  1
  C  C640  1  0.761600  0.860500  0.503100  1
  C  C641  1  0.889100  0.008700  0.155600  1
  C  C642  1  0.610900  0.508700  0.344400  1
  C  C643  1  0.110900  0.991300  0.844400  1
  C  C644  1  0.389100  0.491300  0.655600  1
  C  C645  1  0.889000  0.965100  0.178700  1
  C  C646  1  0.611000  0.465100  0.321300  1
  C  C647  1  0.111000  0.034900  0.821300  1
  C  C648  1  0.389000  0.534900  0.678700  1
  C  C649  1  0.789600  0.954200  0.189900  1
  C  C650  1  0.710400  0.454200  0.310100  1
  C  C651  1  0.210400  0.045800  0.810100  1
  C  C652  1  0.289600  0.545800  0.689900  1
  C  C653  1  0.699300  0.994100  0.181500  1
  C  C654  1  0.800700  0.494100  0.318500  1
  C  C655  1  0.300700  0.005900  0.818500  1
  C  C656  1  0.199300  0.505900  0.681500  1
  C  C657  1  0.707400  0.038700  0.158900  1
  C  C658  1  0.792600  0.538700  0.341100  1
  C  C659  1  0.292600  0.961300  0.841100  1
  C  C660  1  0.207400  0.461300  0.658900  1
  C  C661  1  0.614300  0.083900  0.148600  1
  C  C662  1  0.885700  0.583900  0.351400  1
  C  C663  1  0.385700  0.916100  0.851400  1
  C  C664  1  0.114300  0.416100  0.648600  1
  C  C665  1  0.532600  0.166400  0.114500  1
  C  C666  1  0.967400  0.666400  0.385500  1
  C  C667  1  0.467400  0.833600  0.885500  1
  C  C668  1  0.032600  0.333600  0.614500  1
  C  C669  1  0.482300  0.163400  0.086630  1
  C  C670  1  0.017700  0.663400  0.413370  1
  C  C671  1  0.517700  0.836600  0.913370  1
  C  C672  1  0.982300  0.336600  0.586630  1
  C  C673  1  0.398500  0.206000  0.075960  1
  C  C674  1  0.101500  0.706000  0.424040  1
  C  C675  1  0.601500  0.794000  0.924040  1
  C  C676  1  0.898500  0.294000  0.575960  1
  C  C677  1  0.364900  0.253400  0.094500  1
  C  C678  1  0.135100  0.753400  0.405500  1
  C  C679  1  0.635100  0.746600  0.905500  1
  C  C680  1  0.864900  0.246600  0.594500  1
  C  C681  1  0.418000  0.254800  0.123500  1
  C  C682  1  0.082000  0.754800  0.376500  1
  C  C683  1  0.582000  0.745200  0.876500  1
  C  C684  1  0.918000  0.245200  0.623500  1
  C  C685  1  0.500200  0.213200  0.133620  1
  C  C686  1  0.999800  0.713200  0.366380  1
  C  C687  1  0.499800  0.786800  0.866380  1
  C  C688  1  0.000200  0.286800  0.633620  1
  C  C689  1  0.303800  0.365800  0.093120  1
  C  C690  1  0.196200  0.865800  0.406880  1
  C  C691  1  0.696200  0.634200  0.906880  1
  C  C692  1  0.803800  0.134200  0.593120  1
  C  C693  1  0.221800  0.403500  0.102710  1
  C  C694  1  0.278200  0.903500  0.397290  1
  C  C695  1  0.778200  0.596500  0.897290  1
  C  C696  1  0.721800  0.096500  0.602710  1
  C  C697  1  0.242600  0.468400  0.109520  1
  C  C698  1  0.257400  0.968400  0.390480  1
  C  C699  1  0.757400  0.531600  0.890480  1
  C  C700  1  0.742600  0.031600  0.609520  1
  C  C701  1  0.345100  0.497500  0.107030  1
  C  C702  1  0.154900  0.997500  0.392970  1
  C  C703  1  0.654900  0.502500  0.892970  1
  C  C704  1  0.845100  0.002500  0.607030  1
  C  C705  1  0.427500  0.458000  0.097200  1
  C  C706  1  0.072500  0.958000  0.402800  1
  C  C707  1  0.572500  0.542000  0.902800  1
  C  C708  1  0.927500  0.042000  0.597200  1
  C  C709  1  0.405200  0.393400  0.090300  1
  C  C710  1  0.094800  0.893400  0.409700  1
  C  C711  1  0.594800  0.606600  0.909700  1
  C  C712  1  0.905200  0.106600  0.590300  1
  C  C713  1  0.374500  0.602300  0.092730  1
  C  C714  1  0.125500  0.102300  0.407270  1
  C  C715  1  0.625500  0.397700  0.907270  1
  C  C716  1  0.874500  0.897700  0.592730  1
  C  C717  1  0.401300  0.668300  0.100290  1
  C  C718  1  0.098700  0.168300  0.399710  1
  C  C719  1  0.598700  0.331700  0.899710  1
  C  C720  1  0.901300  0.831700  0.600290  1
  C  C721  1  0.415100  0.717000  0.080080  1
  C  C722  1  0.084900  0.217000  0.419920  1
  C  C723  1  0.584900  0.283000  0.919920  1
  C  C724  1  0.915100  0.783000  0.580080  1
  C  C725  1  0.437100  0.779600  0.089950  1
  C  C726  1  0.062900  0.279600  0.410050  1
  C  C727  1  0.562900  0.220400  0.910050  1
  C  C728  1  0.937100  0.720400  0.589950  1
  C  C729  1  0.450400  0.789700  0.119280  1
  C  C730  1  0.049600  0.289700  0.380720  1
  C  C731  1  0.549600  0.210300  0.880720  1
  C  C732  1  0.950400  0.710300  0.619280  1
  C  C733  1  0.433300  0.740500  0.138630  1
  C  C734  1  0.066700  0.240500  0.361370  1
  C  C735  1  0.566700  0.259500  0.861370  1
  C  C736  1  0.933300  0.759500  0.638630  1
  C  C737  1  0.193500  0.282700  0.064790  1
  C  C738  1  0.306500  0.782700  0.435210  1
  C  C739  1  0.806500  0.717300  0.935210  1
  C  C740  1  0.693500  0.217300  0.564790  1
  C  C741  1  0.138800  0.224900  0.066480  1
  C  C742  1  0.361200  0.724900  0.433520  1
  C  C743  1  0.861200  0.775100  0.933520  1
  C  C744  1  0.638800  0.275100  0.566480  1
  C  C745  1  0.052400  0.204800  0.046100  1
  C  C746  1  0.447600  0.704800  0.453900  1
  C  C747  1  0.947600  0.795200  0.953900  1
  C  C748  1  0.552400  0.295200  0.546100  1
  C  C749  1  0.016300  0.244800  0.021800  1
  C  C750  1  0.483700  0.744800  0.478200  1
  C  C751  1  0.983700  0.755200  0.978200  1
  C  C752  1  0.516300  0.255200  0.521800  1
  C  C753  1  0.067900  0.303400  0.020200  1
  C  C754  1  0.432100  0.803400  0.479800  1
  C  C755  1  0.932100  0.696600  0.979800  1
  C  C756  1  0.567900  0.196600  0.520200  1
  C  C757  1  0.153800  0.322700  0.040700  1
  C  C758  1  0.346200  0.822700  0.459300  1
  C  C759  1  0.846200  0.677300  0.959300  1
  C  C760  1  0.653800  0.177300  0.540700  1
  C  C761  1  0.875300  0.169500  0.995800  1
  C  C762  1  0.624700  0.669500  0.504200  1
  C  C763  1  0.124700  0.830500  0.004200  1
  C  C764  1  0.375300  0.330500  0.495800  1
  C  C765  1  0.791400  0.168800  0.966400  1
  C  C766  1  0.708600  0.668800  0.533600  1
  C  C767  1  0.208600  0.831200  0.033600  1
  C  C768  1  0.291400  0.331200  0.466400  1
  C  C769  1  0.884100  0.481200  0.233890  1
  C  C770  1  0.615900  0.981200  0.266110  1
  C  C771  1  0.115900  0.518800  0.766110  1
  C  C772  1  0.384100  0.018800  0.733890  1
  C  C773  1  0.079200  0.354300  0.188600  1
  C  C774  1  0.420800  0.854300  0.311400  1
  C  C775  1  0.920800  0.645700  0.811400  1
  C  C776  1  0.579200  0.145700  0.688600  1
  C  C777  1  0.659900  0.776100  0.018100  1
  C  C778  1  0.840100  0.276100  0.481900  1
  C  C779  1  0.340100  0.223900  0.981900  1
  C  C780  1  0.159900  0.723900  0.518100  1
  C  C781  1  0.342100  0.383900  0.365000  1
  C  C782  1  0.157900  0.883900  0.135000  1
  C  C783  1  0.657900  0.616100  0.635000  1
  C  C784  1  0.842100  0.116100  0.865000  1
  C  C785  1  0.374200  0.141200  0.196900  1
  C  C786  1  0.125800  0.641200  0.303100  1
  C  C787  1  0.625800  0.858800  0.803100  1
  C  C788  1  0.874200  0.358800  0.696900  1
  C  C789  1  0.394600  0.178900  0.224000  1
  C  C790  1  0.105400  0.678900  0.276000  1
  C  C791  1  0.605400  0.821100  0.776000  1
  C  C792  1  0.894600  0.321100  0.724000  1
  C  C793  1  0.325500  0.551000  0.267100  1
  C  C794  1  0.174500  0.051000  0.232900  1
  C  C795  1  0.674500  0.449000  0.732900  1
  C  C796  1  0.825500  0.949000  0.767100  1
  C  C797  1  0.421500  0.564100  0.287800  1
  C  C798  1  0.078500  0.064100  0.212200  1
  C  C799  1  0.578500  0.435900  0.712200  1
  C  C800  1  0.921500  0.935900  0.787800  1
  C  C801  1  0.998800  0.069800  0.094400  1
  C  C802  1  0.501200  0.569800  0.405600  1
  C  C803  1  0.001200  0.930200  0.905600  1
  C  C804  1  0.498800  0.430200  0.594400  1
  C  C805  1  0.112500  0.060700  0.095700  1
  C  C806  1  0.387500  0.560700  0.404300  1
  C  C807  1  0.887500  0.939300  0.904300  1
  C  C808  1  0.612500  0.439300  0.595700  1
  C  C809  1  0.180900  0.092400  0.117500  1
  C  C810  1  0.319100  0.592400  0.382500  1
  C  C811  1  0.819100  0.907600  0.882500  1
  C  C812  1  0.680900  0.407600  0.617500  1
  C  C813  1  0.134000  0.131700  0.137300  1
  C  C814  1  0.366000  0.631700  0.362700  1
  C  C815  1  0.866000  0.868300  0.862700  1
  C  C816  1  0.634000  0.368300  0.637300  1
  C  C817  1  0.018500  0.138000  0.134700  1
  C  C818  1  0.481500  0.638000  0.365300  1
  C  C819  1  0.981500  0.862000  0.865300  1
  C  C820  1  0.518500  0.362000  0.634700  1
  C  C821  1  0.941400  0.167900  0.153800  1
  C  C822  1  0.558600  0.667900  0.346200  1
  C  C823  1  0.058600  0.832100  0.846200  1
  C  C824  1  0.441400  0.332100  0.653800  1
  C  C825  1  0.834800  0.994700  0.148200  1
  C  C826  1  0.665200  0.494700  0.351800  1
  C  C827  1  0.165200  0.005300  0.851800  1
  C  C828  1  0.334800  0.505300  0.648200  1
  C  C829  1  0.831100  0.950300  0.170800  1
  C  C830  1  0.668900  0.450300  0.329200  1
  C  C831  1  0.168900  0.049700  0.829200  1
  C  C832  1  0.331100  0.549700  0.670800  1
  C  C833  1  0.733600  0.945100  0.183500  1
  C  C834  1  0.766400  0.445100  0.316500  1
  C  C835  1  0.266400  0.054900  0.816500  1
  C  C836  1  0.233600  0.554900  0.683500  1
  C  C837  1  0.645700  0.986400  0.174800  1
  C  C838  1  0.854300  0.486400  0.325200  1
  C  C839  1  0.354300  0.013600  0.825200  1
  C  C840  1  0.145700  0.513600  0.674800  1
  C  C841  1  0.659300  0.033500  0.153600  1
  C  C842  1  0.840700  0.533500  0.346400  1
  C  C843  1  0.340700  0.966500  0.846400  1
  C  C844  1  0.159300  0.466500  0.653600  1
  C  C845  1  0.570000  0.080900  0.142500  1
  C  C846  1  0.930000  0.580900  0.357500  1
  C  C847  1  0.430000  0.919100  0.857500  1
  C  C848  1  0.070000  0.419100  0.642500  1
  C  C849  1  0.060300  0.349100  0.186300  1
  C  C850  1  0.439700  0.849100  0.313700  1
  C  C851  1  0.939700  0.650900  0.813700  1
  C  C852  1  0.560300  0.150900  0.686300  1
  C  C853  1  0.609000  0.715400  0.008600  1
  C  C854  1  0.891000  0.215400  0.491400  1
  C  C855  1  0.391000  0.284600  0.991400  1
  C  C856  1  0.109000  0.784600  0.508600  1
  C  C857  1  0.526000  0.377700  0.423100  1
  C  C858  1  0.974000  0.877700  0.076900  1
  C  C859  1  0.474000  0.622300  0.576900  1
  C  C860  1  0.026000  0.122300  0.923100  1
  S  S861  1  0.843600  0.558820  0.245450  1
  S  S862  1  0.656400  0.058820  0.254550  1
  S  S863  1  0.156400  0.441180  0.754550  1
  S  S864  1  0.343600  0.941180  0.745450  1
  S  S865  1  0.143200  0.280900  0.171630  1
  S  S866  1  0.356800  0.780900  0.328370  1
  S  S867  1  0.856800  0.719100  0.828370  1
  S  S868  1  0.643200  0.219100  0.671630  1
  S  S869  1  0.523000  0.820800  0.005400  1
  S  S870  1  0.977000  0.320800  0.494600  1
  S  S871  1  0.477000  0.179200  0.994600  1
  S  S872  1  0.023000  0.679200  0.505400  1
  S  S873  1  0.473200  0.365200  0.397050  1
  S  S874  1  0.026800  0.865200  0.102950  1
  S  S875  1  0.526800  0.634800  0.602950  1
  S  S876  1  0.973200  0.134800  0.897050  1
  S  S877  1  0.188300  0.289900  0.195500  1
  S  S878  1  0.311700  0.789900  0.304500  1
  S  S879  1  0.811700  0.710100  0.804500  1
  S  S880  1  0.688300  0.210100  0.695500  1
  S  S881  1  0.537400  0.797700  0.012770  1
  S  S882  1  0.962600  0.297700  0.487230  1
  S  S883  1  0.462600  0.202300  0.987230  1
  S  S884  1  0.037400  0.702300  0.512770  1
  S  S885  1  0.414600  0.371000  0.384500  1
  S  S886  1  0.085400  0.871000  0.115500  1
  S  S887  1  0.585400  0.629000  0.615500  1
  S  S888  1  0.914600  0.129000  0.884500  1
  N  N889  1  0.835800  0.169300  0.146700  1
  N  N890  1  0.664200  0.669300  0.353300  1
  N  N891  1  0.164200  0.830700  0.853300  1
  N  N892  1  0.335800  0.330700  0.646700  1
  N  N893  1  0.719000  0.056200  0.080710  1
  N  N894  1  0.781000  0.556200  0.419290  1
  N  N895  1  0.281000  0.943800  0.919290  1
  N  N896  1  0.219000  0.443800  0.580710  1
  N  N897  1  0.750900  0.178000  0.082410  1
  N  N898  1  0.749100  0.678000  0.417590  1
  N  N899  1  0.249100  0.822000  0.917590  1
  N  N900  1  0.250900  0.322000  0.582410  1
  N  N901  1  0.617600  0.121100  0.124930  1
  N  N902  1  0.882400  0.621100  0.375070  1
  N  N903  1  0.382400  0.878900  0.875070  1
  N  N904  1  0.117600  0.378900  0.624930  1
  N  N905  1  0.348800  0.527800  0.176990  1
  N  N906  1  0.151200  0.027800  0.323010  1
  N  N907  1  0.651200  0.472200  0.823010  1
  N  N908  1  0.848800  0.972200  0.676990  1
  N  N909  1  0.618000  0.322400  0.225150  1
  N  N910  1  0.882000  0.822400  0.274850  1
  N  N911  1  0.382000  0.677600  0.774850  1
  N  N912  1  0.118000  0.177600  0.725150  1
  N  N913  1  0.223300  0.618100  0.153100  1
  N  N914  1  0.276700  0.118100  0.346900  1
  N  N915  1  0.776700  0.381900  0.846900  1
  N  N916  1  0.723300  0.881900  0.653100  1
  N  N917  1  0.829200  0.447700  0.091110  1
  N  N918  1  0.670800  0.947700  0.408890  1
  N  N919  1  0.170800  0.552300  0.908890  1
  N  N920  1  0.329200  0.052300  0.591110  1
  N  N921  1  0.283900  0.300600  0.084300  1
  N  N922  1  0.216100  0.800600  0.415700  1
  N  N923  1  0.716100  0.699400  0.915700  1
  N  N924  1  0.783900  0.199400  0.584300  1
  N  N925  1  0.551500  0.588000  0.160400  1
  N  N926  1  0.948500  0.088000  0.339600  1
  N  N927  1  0.448500  0.412000  0.839600  1
  N  N928  1  0.051500  0.912000  0.660400  1
  N  N929  1  0.674700  0.282100  0.348690  1
  N  N930  1  0.825300  0.782100  0.151310  1
  N  N931  1  0.325300  0.717900  0.651310  1
  N  N932  1  0.174700  0.217900  0.848690  1
  N  N933  1  0.422300  0.650300  0.191980  1
  N  N934  1  0.077700  0.150300  0.308020  1
  N  N935  1  0.577700  0.349700  0.808020  1
  N  N936  1  0.922300  0.849700  0.691980  1
  N  N937  1  0.365300  0.562200  0.114850  1
  N  N938  1  0.134700  0.062200  0.385150  1
  N  N939  1  0.634700  0.437800  0.885150  1
  N  N940  1  0.865300  0.937800  0.614850  1
  N  N941  1  0.157400  0.562600  0.028980  1
  N  N942  1  0.342600  0.062600  0.471020  1
  N  N943  1  0.842600  0.437400  0.971020  1
  N  N944  1  0.657400  0.937400  0.528980  1
  N  N945  1  0.409900  0.680000  0.130010  1
  N  N946  1  0.090100  0.180000  0.369990  1
  N  N947  1  0.590100  0.320000  0.869990  1
  N  N948  1  0.909900  0.820000  0.630010  1
  N  N949  1  0.931300  0.226500  0.999310  1
  N  N950  1  0.568700  0.726500  0.500690  1
  N  N951  1  0.068700  0.773500  0.000690  1
  N  N952  1  0.431300  0.273500  0.499310  1
  N  N953  1  0.912800  0.095500  0.107000  1
  N  N954  1  0.587200  0.595500  0.393000  1
  N  N955  1  0.087200  0.904500  0.893000  1
  N  N956  1  0.412800  0.404500  0.607000  1
  N  N957  1  0.803700  0.049400  0.147600  1
  N  N958  1  0.696300  0.549400  0.352400  1
  N  N959  1  0.196300  0.950600  0.852400  1
  N  N960  1  0.303700  0.450600  0.647600  1
  N  N961  1  0.353500  0.102400  0.177500  1
  N  N962  1  0.146500  0.602400  0.322500  1
  N  N963  1  0.646500  0.897600  0.822500  1
  N  N964  1  0.853500  0.397600  0.677500  1
  N  N965  1  0.258900  0.554900  0.249000  1
  N  N966  1  0.241100  0.054900  0.251000  1
  N  N967  1  0.741100  0.445100  0.751000  1
  N  N968  1  0.758900  0.945100  0.749000  1
  N  N969  1  0.950700  0.108200  0.113200  1
  N  N970  1  0.549300  0.608200  0.386800  1
  N  N971  1  0.049300  0.891800  0.886800  1
  N  N972  1  0.450700  0.391800  0.613200  1
  N  N973  1  0.754700  0.039200  0.141100  1
  N  N974  1  0.745300  0.539200  0.358900  1
  N  N975  1  0.245300  0.960800  0.858900  1
  N  N976  1  0.254700  0.460800  0.641100  1
  O  O977  1  0.818100  0.212000  0.355650  1
  O  O978  1  0.681900  0.712000  0.144350  1
  O  O979  1  0.181900  0.788000  0.644350  1
  O  O980  1  0.318100  0.288000  0.855650  1
  O  O981  1  0.144200  0.667100  0.039470  1
  O  O982  1  0.355800  0.167100  0.460530  1
  O  O983  1  0.855800  0.332900  0.960530  1
  O  O984  1  0.644200  0.832900  0.539470  1
  O  O985  1  0.884400  0.124200  0.012700  1
  O  O986  1  0.615600  0.624200  0.487300  1
  O  O987  1  0.115600  0.875800  0.987300  1
  O  O988  1  0.384400  0.375800  0.512700  1
  O  O989  1  0.862500  0.599100  0.220520  1
  O  O990  1  0.637500  0.099100  0.279480  1
  O  O991  1  0.137500  0.400900  0.779480  1
  O  O992  1  0.362500  0.900900  0.720520  1
  O  O993  1  0.730900  0.550200  0.249680  1
  O  O994  1  0.769100  0.050200  0.250320  1
  O  O995  1  0.269100  0.449800  0.750320  1
  O  O996  1  0.230900  0.949800  0.749680  1
  O  O997  1  0.917200  0.570300  0.271830  1
  O  O998  1  0.582800  0.070300  0.228170  1
  O  O999  1  0.082800  0.429700  0.728170  1
  O  O1000  1  0.417200  0.929700  0.771830  1
  O  O1001  1  0.088100  0.276500  0.142800  1
  O  O1002  1  0.411900  0.776500  0.357200  1
  O  O1003  1  0.911900  0.723500  0.857200  1
  O  O1004  1  0.588100  0.223500  0.642800  1
  O  O1005  1  0.118800  0.228400  0.192400  1
  O  O1006  1  0.381200  0.728400  0.307600  1
  O  O1007  1  0.881200  0.771600  0.807600  1
  O  O1008  1  0.618800  0.271600  0.692400  1
  O  O1009  1  0.261000  0.298300  0.174200  1
  O  O1010  1  0.239000  0.798300  0.325800  1
  O  O1011  1  0.739000  0.701700  0.825800  1
  O  O1012  1  0.761000  0.201700  0.674200  1
  O  O1013  1  0.494200  0.854200  0.030200  1
  O  O1014  1  0.005800  0.354200  0.469800  1
  O  O1015  1  0.505800  0.145800  0.969800  1
  O  O1016  1  0.994200  0.645800  0.530200  1
  O  O1017  1  0.562800  0.870000  0.983200  1
  O  O1018  1  0.937200  0.370000  0.516800  1
  O  O1019  1  0.437200  0.130000  0.016800  1
  O  O1020  1  0.062800  0.630000  0.483200  1
  O  O1021  1  0.446800  0.779200  0.989400  1
  O  O1022  1  0.053200  0.279200  0.510600  1
  O  O1023  1  0.553200  0.220800  0.010600  1
  O  O1024  1  0.946800  0.720800  0.489400  1
  O  O1025  1  0.554100  0.375500  0.380000  1
  O  O1026  1  0.945900  0.875500  0.120000  1
  O  O1027  1  0.445900  0.624500  0.620000  1
  O  O1028  1  0.054100  0.124500  0.880000  1
  O  O1029  1  0.443200  0.411400  0.420000  1
  O  O1030  1  0.056800  0.911400  0.080000  1
  O  O1031  1  0.556800  0.588600  0.580000  1
  O  O1032  1  0.943200  0.088600  0.920000  1
  O  O1033  1  0.448600  0.297200  0.406000  1
  O  O1034  1  0.051400  0.797200  0.094000  1
  O  O1035  1  0.551400  0.702800  0.594000  1
  O  O1036  1  0.948600  0.202800  0.906000  1
  O  O1037  1  0.243000  0.320400  0.221800  1
  O  O1038  1  0.257000  0.820400  0.278200  1
  O  O1039  1  0.757000  0.679600  0.778200  1
  O  O1040  1  0.743000  0.179600  0.721800  1
  O  O1041  1  0.233700  0.297600  0.166800  1
  O  O1042  1  0.266300  0.797600  0.333200  1
  O  O1043  1  0.766300  0.702400  0.833200  1
  O  O1044  1  0.733700  0.202400  0.666800  1
  O  O1045  1  0.143000  0.230600  0.200000  1
  O  O1046  1  0.357000  0.730600  0.300000  1
  O  O1047  1  0.857000  0.769400  0.800000  1
  O  O1048  1  0.643000  0.269400  0.700000  1
  O  O1049  1  0.416400  0.790300  0.011100  1
  O  O1050  1  0.083600  0.290300  0.488900  1
  O  O1051  1  0.583600  0.209700  0.988900  1
  O  O1052  1  0.916400  0.709700  0.511100  1
  O  O1053  1  0.586800  0.814200  0.042500  1
  O  O1054  1  0.913200  0.314200  0.457500  1
  O  O1055  1  0.413200  0.185800  0.957500  1
  O  O1056  1  0.086800  0.685800  0.542500  1
  O  O1057  1  0.589600  0.841600  0.993300  1
  O  O1058  1  0.910400  0.341600  0.506700  1
  O  O1059  1  0.410400  0.158400  0.006700  1
  O  O1060  1  0.089600  0.658400  0.493300  1
  O  O1061  1  0.317000  0.344400  0.395100  1
  O  O1062  1  0.183000  0.844400  0.104900  1
  O  O1063  1  0.683000  0.655600  0.604900  1
  O  O1064  1  0.817000  0.155600  0.895100  1
  O  O1065  1  0.400000  0.435500  0.373200  1
  O  O1066  1  0.100000  0.935500  0.126800  1
  O  O1067  1  0.600000  0.564500  0.626800  1
  O  O1068  1  0.900000  0.064500  0.873200  1
  O  O1069  1  0.487000  0.334200  0.369400  1
  O  O1070  1  0.013000  0.834200  0.130600  1
  O  O1071  1  0.513000  0.665800  0.630600  1
  O  O1072  1  0.987000  0.165800  0.869400  1
  F  F1073  1  0.993900  0.478900  0.230070  1
  F  F1074  1  0.506100  0.978900  0.269930  1
  F  F1075  1  0.006100  0.521100  0.769930  1
  F  F1076  1  0.493900  0.021100  0.730070  1
  F  F1077  1  0.876900  0.435800  0.254530  1
  F  F1078  1  0.623100  0.935800  0.245470  1
  F  F1079  1  0.123100  0.564200  0.745470  1
  F  F1080  1  0.376900  0.064200  0.754530  1
  F  F1081  1  0.832300  0.461500  0.208560  1
  F  F1082  1  0.667700  0.961500  0.291440  1
  F  F1083  1  0.167700  0.538500  0.791440  1
  F  F1084  1  0.332300  0.038500  0.708560  1
  F  F1085  1  0.135500  0.366600  0.214200  1
  F  F1086  1  0.364500  0.866600  0.285800  1
  F  F1087  1  0.864500  0.633400  0.785800  1
  F  F1088  1  0.635500  0.133400  0.714200  1
  F  F1089  1  0.077500  0.402100  0.169000  1
  F  F1090  1  0.422500  0.902100  0.331000  1
  F  F1091  1  0.922500  0.597900  0.831000  1
  F  F1092  1  0.577500  0.097900  0.669000  1
  F  F1093  1  0.971800  0.338400  0.191500  1
  F  F1094  1  0.528200  0.838400  0.308500  1
  F  F1095  1  0.028200  0.661600  0.808500  1
  F  F1096  1  0.471800  0.161600  0.691500  1
  F  F1097  1  0.614800  0.730700  0.035600  1
  F  F1098  1  0.885200  0.230700  0.464400  1
  F  F1099  1  0.385200  0.269300  0.964400  1
  F  F1100  1  0.114800  0.769300  0.535600  1
  F  F1101  1  0.693000  0.747000  0.995000  1
  F  F1102  1  0.807000  0.247000  0.505000  1
  F  F1103  1  0.307000  0.253000  0.005000  1
  F  F1104  1  0.193000  0.753000  0.495000  1
  F  F1105  1  0.729200  0.814700  0.033500  1
  F  F1106  1  0.770800  0.314700  0.466500  1
  F  F1107  1  0.270800  0.185300  0.966500  1
  F  F1108  1  0.229200  0.685300  0.533500  1
  F  F1109  1  0.362300  0.441600  0.352600  1
  F  F1110  1  0.137700  0.941600  0.147400  1
  F  F1111  1  0.637700  0.558400  0.647400  1
  F  F1112  1  0.862300  0.058400  0.852600  1
  F  F1113  1  0.327600  0.334700  0.346100  1
  F  F1114  1  0.172400  0.834700  0.153900  1
  F  F1115  1  0.672400  0.665300  0.653900  1
  F  F1116  1  0.827600  0.165300  0.846100  1
  F  F1117  1  0.255300  0.387200  0.382100  1
  F  F1118  1  0.244700  0.887200  0.117900  1
  F  F1119  1  0.744700  0.612800  0.617900  1
  F  F1120  1  0.755300  0.112800  0.882100  1
  F  F1121  1  0.997000  0.332300  0.162400  1
  F  F1122  1  0.503000  0.832300  0.337600  1
  F  F1123  1  0.003000  0.667700  0.837600  1
  F  F1124  1  0.497000  0.167700  0.662400  1
  F  F1125  1  0.008900  0.347100  0.211200  1
  F  F1126  1  0.491100  0.847100  0.288800  1
  F  F1127  1  0.991100  0.652900  0.788800  1
  F  F1128  1  0.508900  0.152900  0.711200  1
  F  F1129  1  0.096400  0.408200  0.185000  1
  F  F1130  1  0.403600  0.908200  0.315000  1
  F  F1131  1  0.903600  0.591800  0.815000  1
  F  F1132  1  0.596400  0.091800  0.685000  1
  F  F1133  1  0.553000  0.675700  0.023700  1
  F  F1134  1  0.947000  0.175700  0.476300  1
  F  F1135  1  0.447000  0.324300  0.976300  1
  F  F1136  1  0.053000  0.824300  0.523700  1
  F  F1137  1  0.609500  0.698000  0.982400  1
  F  F1138  1  0.890500  0.198000  0.517600  1
  F  F1139  1  0.390500  0.302000  0.017600  1
  F  F1140  1  0.109500  0.802000  0.482400  1
  F  F1141  1  0.721500  0.718000  0.019300  1
  F  F1142  1  0.778500  0.218000  0.480700  1
  F  F1143  1  0.278500  0.282000  0.980700  1
  F  F1144  1  0.221500  0.782000  0.519300  1
  F  F1145  1  0.629000  0.381000  0.415600  1
  F  F1146  1  0.871000  0.881000  0.084400  1
  F  F1147  1  0.371000  0.619000  0.584400  1
  F  F1148  1  0.129000  0.119000  0.915600  1
  F  F1149  1  0.523000  0.422300  0.442600  1
  F  F1150  1  0.977000  0.922300  0.057400  1
  F  F1151  1  0.477000  0.577700  0.557400  1
  F  F1152  1  0.023000  0.077700  0.942600  1
  F  F1153  1  0.528000  0.319100  0.436100  1
  F  F1154  1  0.972000  0.819100  0.063900  1
  F  F1155  1  0.472000  0.680900  0.563900  1
  F  F1156  1  0.028000  0.180900  0.936100  1
