# generated using pymatgen
data_Fe4H144C197S9N64(OF)27
_symmetry_space_group_name_H-M   'P 1'
_cell_length_a   21.15170000
_cell_length_b   30.40100000
_cell_length_c   34.67200000
_cell_angle_alpha   90.00000000
_cell_angle_beta   90.00000000
_cell_angle_gamma   90.00000000
_symmetry_Int_Tables_number   1
_chemical_formula_structural   Fe4H144C197S9N64(OF)27
_chemical_formula_sum   'Fe16 H576 C788 S36 N256 O108 F108'
_cell_volume   22295.23434070
_cell_formula_units_Z   4
loop_
 _symmetry_equiv_pos_site_id
 _symmetry_equiv_pos_as_xyz
  1  'x, y, z'
loop_
 _atom_site_type_symbol
 _atom_site_label
 _atom_site_symmetry_multiplicity
 _atom_site_fract_x
 _atom_site_fract_y
 _atom_site_fract_z
 _atom_site_occupancy
  Fe  Fe1  1  0.085310  0.255210  0.442360  1
  Fe  Fe2  1  0.085310  0.244790  0.057640  1
  Fe  Fe3  1  0.414690  0.744790  0.942360  1
  Fe  Fe4  1  0.414690  0.755210  0.557640  1
  Fe  Fe5  1  0.914690  0.744790  0.557640  1
  Fe  Fe6  1  0.914690  0.755210  0.942360  1
  Fe  Fe7  1  0.585310  0.255210  0.057640  1
  Fe  Fe8  1  0.585310  0.244790  0.442360  1
  Fe  Fe9  1  0.183620  0.582960  0.294960  1
  Fe  Fe10  1  0.183620  0.917040  0.205040  1
  Fe  Fe11  1  0.316380  0.417040  0.794960  1
  Fe  Fe12  1  0.316380  0.082960  0.705040  1
  Fe  Fe13  1  0.816380  0.417040  0.705040  1
  Fe  Fe14  1  0.816380  0.082960  0.794960  1
  Fe  Fe15  1  0.683620  0.582960  0.205040  1
  Fe  Fe16  1  0.683620  0.917040  0.294960  1
  H  H17  1  0.123100  0.157200  0.447500  1
  H  H18  1  0.123100  0.342800  0.052500  1
  H  H19  1  0.376900  0.842800  0.947500  1
  H  H20  1  0.376900  0.657200  0.552500  1
  H  H21  1  0.876900  0.842800  0.552500  1
  H  H22  1  0.876900  0.657200  0.947500  1
  H  H23  1  0.623100  0.157200  0.052500  1
  H  H24  1  0.623100  0.342800  0.447500  1
  H  H25  1  0.107500  0.093400  0.408800  1
  H  H26  1  0.107500  0.406600  0.091200  1
  H  H27  1  0.392500  0.906600  0.908800  1
  H  H28  1  0.392500  0.593400  0.591200  1
  H  H29  1  0.892500  0.906600  0.591200  1
  H  H30  1  0.892500  0.593400  0.908800  1
  H  H31  1  0.607500  0.093400  0.091200  1
  H  H32  1  0.607500  0.406600  0.408800  1
  H  H33  1  0.056800  0.101300  0.348800  1
  H  H34  1  0.056800  0.398700  0.151200  1
  H  H35  1  0.443200  0.898700  0.848800  1
  H  H36  1  0.443200  0.601300  0.651200  1
  H  H37  1  0.943200  0.898700  0.651200  1
  H  H38  1  0.943200  0.601300  0.848800  1
  H  H39  1  0.556800  0.101300  0.151200  1
  H  H40  1  0.556800  0.398700  0.348800  1
  H  H41  1  0.018300  0.169300  0.332500  1
  H  H42  1  0.018300  0.330700  0.167500  1
  H  H43  1  0.481700  0.830700  0.832500  1
  H  H44  1  0.481700  0.669300  0.667500  1
  H  H45  1  0.981700  0.830700  0.667500  1
  H  H46  1  0.981700  0.669300  0.832500  1
  H  H47  1  0.518300  0.169300  0.167500  1
  H  H48  1  0.518300  0.330700  0.332500  1
  H  H49  1  0.005500  0.253100  0.347200  1
  H  H50  1  0.005500  0.246900  0.152800  1
  H  H51  1  0.494500  0.746900  0.847200  1
  H  H52  1  0.494500  0.753100  0.652800  1
  H  H53  1  0.994500  0.746900  0.652800  1
  H  H54  1  0.994500  0.753100  0.847200  1
  H  H55  1  0.505500  0.253100  0.152800  1
  H  H56  1  0.505500  0.246900  0.347200  1
  H  H57  1  0.946400  0.319900  0.431600  1
  H  H58  1  0.946400  0.180100  0.068400  1
  H  H59  1  0.553600  0.680100  0.931600  1
  H  H60  1  0.553600  0.819900  0.568400  1
  H  H61  1  0.053600  0.680100  0.568400  1
  H  H62  1  0.053600  0.819900  0.931600  1
  H  H63  1  0.446400  0.319900  0.068400  1
  H  H64  1  0.446400  0.180100  0.431600  1
  H  H65  1  0.906400  0.389800  0.418900  1
  H  H66  1  0.906400  0.110200  0.081100  1
  H  H67  1  0.593600  0.610200  0.918900  1
  H  H68  1  0.593600  0.889800  0.581100  1
  H  H69  1  0.093600  0.610200  0.581100  1
  H  H70  1  0.093600  0.889800  0.918900  1
  H  H71  1  0.406400  0.389800  0.081100  1
  H  H72  1  0.406400  0.110200  0.418900  1
  H  H73  1  0.023400  0.398900  0.327600  1
  H  H74  1  0.023400  0.101100  0.172400  1
  H  H75  1  0.476600  0.601100  0.827600  1
  H  H76  1  0.476600  0.898900  0.672400  1
  H  H77  1  0.976600  0.601100  0.672400  1
  H  H78  1  0.976600  0.898900  0.827600  1
  H  H79  1  0.523400  0.398900  0.172400  1
  H  H80  1  0.523400  0.101100  0.327600  1
  H  H81  1  0.067300  0.331200  0.342500  1
  H  H82  1  0.067300  0.168800  0.157500  1
  H  H83  1  0.432700  0.668800  0.842500  1
  H  H84  1  0.432700  0.831200  0.657500  1
  H  H85  1  0.932700  0.668800  0.657500  1
  H  H86  1  0.932700  0.831200  0.842500  1
  H  H87  1  0.567300  0.331200  0.157500  1
  H  H88  1  0.567300  0.168800  0.342500  1
  H  H89  1  0.945200  0.504600  0.308500  1
  H  H90  1  0.945200  0.995400  0.191500  1
  H  H91  1  0.554800  0.495400  0.808500  1
  H  H92  1  0.554800  0.004600  0.691500  1
  H  H93  1  0.054800  0.495400  0.691500  1
  H  H94  1  0.054800  0.004600  0.808500  1
  H  H95  1  0.445200  0.504600  0.191500  1
  H  H96  1  0.445200  0.995400  0.308500  1
  H  H97  1  0.019300  0.557700  0.297200  1
  H  H98  1  0.019300  0.942300  0.202800  1
  H  H99  1  0.480700  0.442300  0.797200  1
  H  H100  1  0.480700  0.057700  0.702800  1
  H  H101  1  0.980700  0.442300  0.702800  1
  H  H102  1  0.980700  0.057700  0.797200  1
  H  H103  1  0.519300  0.557700  0.202800  1
  H  H104  1  0.519300  0.942300  0.297200  1
  H  H105  1  0.115500  0.519200  0.392700  1
  H  H106  1  0.115500  0.980800  0.107300  1
  H  H107  1  0.384500  0.480800  0.892700  1
  H  H108  1  0.384500  0.019200  0.607300  1
  H  H109  1  0.884500  0.480800  0.607300  1
  H  H110  1  0.884500  0.019200  0.892700  1
  H  H111  1  0.615500  0.519200  0.107300  1
  H  H112  1  0.615500  0.980800  0.392700  1
  H  H113  1  0.040600  0.464000  0.403100  1
  H  H114  1  0.040600  0.036000  0.096900  1
  H  H115  1  0.459400  0.536000  0.903100  1
  H  H116  1  0.459400  0.964000  0.596900  1
  H  H117  1  0.959400  0.536000  0.596900  1
  H  H118  1  0.959400  0.964000  0.903100  1
  H  H119  1  0.540600  0.464000  0.096900  1
  H  H120  1  0.540600  0.036000  0.403100  1
  H  H121  1  0.093500  0.609200  0.382600  1
  H  H122  1  0.093500  0.890800  0.117400  1
  H  H123  1  0.406500  0.390800  0.882600  1
  H  H124  1  0.406500  0.109200  0.617400  1
  H  H125  1  0.906500  0.390800  0.617400  1
  H  H126  1  0.906500  0.109200  0.882600  1
  H  H127  1  0.593500  0.609200  0.117400  1
  H  H128  1  0.593500  0.890800  0.382600  1
  H  H129  1  0.152200  0.683100  0.403000  1
  H  H130  1  0.152200  0.816900  0.097000  1
  H  H131  1  0.347800  0.316900  0.903000  1
  H  H132  1  0.347800  0.183100  0.597000  1
  H  H133  1  0.847800  0.316900  0.597000  1
  H  H134  1  0.847800  0.183100  0.903000  1
  H  H135  1  0.652200  0.683100  0.097000  1
  H  H136  1  0.652200  0.816900  0.403000  1
  H  H137  1  0.232900  0.731900  0.389900  1
  H  H138  1  0.232900  0.768100  0.110100  1
  H  H139  1  0.267100  0.268100  0.889900  1
  H  H140  1  0.267100  0.231900  0.610100  1
  H  H141  1  0.767100  0.268100  0.610100  1
  H  H142  1  0.767100  0.231900  0.889900  1
  H  H143  1  0.732900  0.731900  0.110100  1
  H  H144  1  0.732900  0.768100  0.389900  1
  H  H145  1  0.300200  0.719300  0.338600  1
  H  H146  1  0.300200  0.780700  0.161400  1
  H  H147  1  0.199800  0.280700  0.838600  1
  H  H148  1  0.199800  0.219300  0.661400  1
  H  H149  1  0.699800  0.280700  0.661400  1
  H  H150  1  0.699800  0.219300  0.838600  1
  H  H151  1  0.800200  0.719300  0.161400  1
  H  H152  1  0.800200  0.780700  0.338600  1
  H  H153  1  0.276700  0.662100  0.294400  1
  H  H154  1  0.276700  0.837900  0.205600  1
  H  H155  1  0.223300  0.337900  0.794400  1
  H  H156  1  0.223300  0.162100  0.705600  1
  H  H157  1  0.723300  0.337900  0.705600  1
  H  H158  1  0.723300  0.162100  0.794400  1
  H  H159  1  0.776700  0.662100  0.205600  1
  H  H160  1  0.776700  0.837900  0.294400  1
  H  H161  1  0.850500  0.392100  0.343300  1
  H  H162  1  0.850500  0.107900  0.156700  1
  H  H163  1  0.649500  0.607900  0.843300  1
  H  H164  1  0.649500  0.892100  0.656700  1
  H  H165  1  0.149500  0.607900  0.656700  1
  H  H166  1  0.149500  0.892100  0.843300  1
  H  H167  1  0.350500  0.392100  0.156700  1
  H  H168  1  0.350500  0.107900  0.343300  1
  H  H169  1  0.742800  0.406800  0.334800  1
  H  H170  1  0.742800  0.093200  0.165200  1
  H  H171  1  0.757200  0.593200  0.834800  1
  H  H172  1  0.757200  0.906800  0.665200  1
  H  H173  1  0.257200  0.593200  0.665200  1
  H  H174  1  0.257200  0.906800  0.834800  1
  H  H175  1  0.242800  0.406800  0.165200  1
  H  H176  1  0.242800  0.093200  0.334800  1
  H  H177  1  0.772300  0.533900  0.365200  1
  H  H178  1  0.772300  0.966100  0.134800  1
  H  H179  1  0.727700  0.466100  0.865200  1
  H  H180  1  0.727700  0.033900  0.634800  1
  H  H181  1  0.227700  0.466100  0.634800  1
  H  H182  1  0.227700  0.033900  0.865200  1
  H  H183  1  0.272300  0.533900  0.134800  1
  H  H184  1  0.272300  0.966100  0.365200  1
  H  H185  1  0.880000  0.519200  0.373800  1
  H  H186  1  0.880000  0.980800  0.126200  1
  H  H187  1  0.620000  0.480800  0.873800  1
  H  H188  1  0.620000  0.019200  0.626200  1
  H  H189  1  0.120000  0.480800  0.626200  1
  H  H190  1  0.120000  0.019200  0.873800  1
  H  H191  1  0.380000  0.519200  0.126200  1
  H  H192  1  0.380000  0.980800  0.373800  1
  H  H193  1  0.081200  0.211800  0.523700  1
  H  H194  1  0.081200  0.288200  0.976300  1
  H  H195  1  0.418800  0.788200  0.023700  1
  H  H196  1  0.418800  0.711800  0.476300  1
  H  H197  1  0.918800  0.788200  0.476300  1
  H  H198  1  0.918800  0.711800  0.023700  1
  H  H199  1  0.581200  0.211800  0.976300  1
  H  H200  1  0.581200  0.288200  0.523700  1
  H  H201  1  0.156000  0.174200  0.561600  1
  H  H202  1  0.156000  0.325800  0.938400  1
  H  H203  1  0.344000  0.825800  0.061600  1
  H  H204  1  0.344000  0.674200  0.438400  1
  H  H205  1  0.844000  0.825800  0.438400  1
  H  H206  1  0.844000  0.674200  0.061600  1
  H  H207  1  0.656000  0.174200  0.938400  1
  H  H208  1  0.656000  0.325800  0.561600  1
  H  H209  1  0.257700  0.168500  0.541800  1
  H  H210  1  0.257700  0.331500  0.958200  1
  H  H211  1  0.242300  0.831500  0.041800  1
  H  H212  1  0.242300  0.668500  0.458200  1
  H  H213  1  0.742300  0.831500  0.458200  1
  H  H214  1  0.742300  0.668500  0.041800  1
  H  H215  1  0.757700  0.168500  0.958200  1
  H  H216  1  0.757700  0.331500  0.541800  1
  H  H217  1  0.291700  0.205100  0.485500  1
  H  H218  1  0.291700  0.294900  0.014500  1
  H  H219  1  0.208300  0.794900  0.985500  1
  H  H220  1  0.208300  0.705100  0.514500  1
  H  H221  1  0.708300  0.794900  0.514500  1
  H  H222  1  0.708300  0.705100  0.985500  1
  H  H223  1  0.791700  0.205100  0.014500  1
  H  H224  1  0.791700  0.294900  0.485500  1
  H  H225  1  0.255900  0.250900  0.425200  1
  H  H226  1  0.255900  0.249100  0.074800  1
  H  H227  1  0.244100  0.749100  0.925200  1
  H  H228  1  0.244100  0.750900  0.574800  1
  H  H229  1  0.744100  0.749100  0.574800  1
  H  H230  1  0.744100  0.750900  0.925200  1
  H  H231  1  0.755900  0.250900  0.074800  1
  H  H232  1  0.755900  0.249100  0.425200  1
  H  H233  1  0.201000  0.347900  0.404200  1
  H  H234  1  0.201000  0.152100  0.095800  1
  H  H235  1  0.299000  0.652100  0.904200  1
  H  H236  1  0.299000  0.847900  0.595800  1
  H  H237  1  0.799000  0.652100  0.595800  1
  H  H238  1  0.799000  0.847900  0.904200  1
  H  H239  1  0.701000  0.347900  0.095800  1
  H  H240  1  0.701000  0.152100  0.404200  1
  H  H241  1  0.228100  0.383000  0.348600  1
  H  H242  1  0.228100  0.117000  0.151400  1
  H  H243  1  0.271900  0.617000  0.848600  1
  H  H244  1  0.271900  0.883000  0.651400  1
  H  H245  1  0.771900  0.617000  0.651400  1
  H  H246  1  0.771900  0.883000  0.848600  1
  H  H247  1  0.728100  0.383000  0.151400  1
  H  H248  1  0.728100  0.117000  0.348600  1
  H  H249  1  0.194500  0.271500  0.290600  1
  H  H250  1  0.194500  0.228500  0.209400  1
  H  H251  1  0.305500  0.728500  0.790600  1
  H  H252  1  0.305500  0.771500  0.709400  1
  H  H253  1  0.805500  0.728500  0.709400  1
  H  H254  1  0.805500  0.771500  0.790600  1
  H  H255  1  0.694500  0.271500  0.209400  1
  H  H256  1  0.694500  0.228500  0.290600  1
  H  H257  1  0.169100  0.236900  0.348100  1
  H  H258  1  0.169100  0.263100  0.151900  1
  H  H259  1  0.330900  0.763100  0.848100  1
  H  H260  1  0.330900  0.736900  0.651900  1
  H  H261  1  0.830900  0.763100  0.651900  1
  H  H262  1  0.830900  0.736900  0.848100  1
  H  H263  1  0.669100  0.236900  0.151900  1
  H  H264  1  0.669100  0.263100  0.348100  1
  H  H265  1  0.120800  0.390800  0.295900  1
  H  H266  1  0.120800  0.109200  0.204100  1
  H  H267  1  0.379200  0.609200  0.795900  1
  H  H268  1  0.379200  0.890800  0.704100  1
  H  H269  1  0.879200  0.609200  0.704100  1
  H  H270  1  0.879200  0.890800  0.795900  1
  H  H271  1  0.620800  0.390800  0.204100  1
  H  H272  1  0.620800  0.109200  0.295900  1
  H  H273  1  0.090200  0.466000  0.292500  1
  H  H274  1  0.090200  0.034000  0.207500  1
  H  H275  1  0.409800  0.534000  0.792500  1
  H  H276  1  0.409800  0.966000  0.707500  1
  H  H277  1  0.909800  0.534000  0.707500  1
  H  H278  1  0.909800  0.966000  0.792500  1
  H  H279  1  0.590200  0.466000  0.207500  1
  H  H280  1  0.590200  0.034000  0.292500  1
  H  H281  1  0.255700  0.493400  0.240600  1
  H  H282  1  0.255700  0.006600  0.259400  1
  H  H283  1  0.244300  0.506600  0.740600  1
  H  H284  1  0.244300  0.993400  0.759400  1
  H  H285  1  0.744300  0.506600  0.759400  1
  H  H286  1  0.744300  0.993400  0.740600  1
  H  H287  1  0.755700  0.493400  0.259400  1
  H  H288  1  0.755700  0.006600  0.240600  1
  H  H289  1  0.288200  0.420600  0.248800  1
  H  H290  1  0.288200  0.079400  0.251200  1
  H  H291  1  0.211800  0.579400  0.748800  1
  H  H292  1  0.211800  0.920600  0.751200  1
  H  H293  1  0.711800  0.579400  0.751200  1
  H  H294  1  0.711800  0.920600  0.748800  1
  H  H295  1  0.788200  0.420600  0.251200  1
  H  H296  1  0.788200  0.079400  0.248800  1
  H  H297  1  0.092300  0.521100  0.222200  1
  H  H298  1  0.092300  0.978900  0.277800  1
  H  H299  1  0.407700  0.478900  0.722200  1
  H  H300  1  0.407700  0.021100  0.777800  1
  H  H301  1  0.907700  0.478900  0.777800  1
  H  H302  1  0.907700  0.021100  0.722200  1
  H  H303  1  0.592300  0.521100  0.277800  1
  H  H304  1  0.592300  0.978900  0.222200  1
  H  H305  1  0.020100  0.582600  0.197000  1
  H  H306  1  0.020100  0.917400  0.303000  1
  H  H307  1  0.479900  0.417400  0.697000  1
  H  H308  1  0.479900  0.082600  0.803000  1
  H  H309  1  0.979900  0.417400  0.803000  1
  H  H310  1  0.979900  0.082600  0.697000  1
  H  H311  1  0.520100  0.582600  0.303000  1
  H  H312  1  0.520100  0.917400  0.197000  1
  H  H313  1  0.986700  0.656900  0.204000  1
  H  H314  1  0.986700  0.843100  0.296000  1
  H  H315  1  0.513300  0.343100  0.704000  1
  H  H316  1  0.513300  0.156900  0.796000  1
  H  H317  1  0.013300  0.343100  0.796000  1
  H  H318  1  0.013300  0.156900  0.704000  1
  H  H319  1  0.486700  0.656900  0.296000  1
  H  H320  1  0.486700  0.843100  0.204000  1
  H  H321  1  0.037300  0.702300  0.248100  1
  H  H322  1  0.037300  0.797700  0.251900  1
  H  H323  1  0.462700  0.297700  0.748100  1
  H  H324  1  0.462700  0.202300  0.751900  1
  H  H325  1  0.962700  0.297700  0.751900  1
  H  H326  1  0.962700  0.202300  0.748100  1
  H  H327  1  0.537300  0.702300  0.251900  1
  H  H328  1  0.537300  0.797700  0.248100  1
  H  H329  1  0.123400  0.674200  0.284400  1
  H  H330  1  0.123400  0.825800  0.215600  1
  H  H331  1  0.376600  0.325800  0.784400  1
  H  H332  1  0.376600  0.174200  0.715600  1
  H  H333  1  0.876600  0.325800  0.715600  1
  H  H334  1  0.876600  0.174200  0.784400  1
  H  H335  1  0.623400  0.674200  0.215600  1
  H  H336  1  0.623400  0.825800  0.284400  1
  H  H337  1  0.201400  0.342800  0.204900  1
  H  H338  1  0.201400  0.157200  0.295100  1
  H  H339  1  0.298600  0.657200  0.704900  1
  H  H340  1  0.298600  0.842800  0.795100  1
  H  H341  1  0.798600  0.657200  0.795100  1
  H  H342  1  0.798600  0.842800  0.704900  1
  H  H343  1  0.701400  0.342800  0.295100  1
  H  H344  1  0.701400  0.157200  0.204900  1
  H  H345  1  0.266000  0.311700  0.157400  1
  H  H346  1  0.266000  0.188300  0.342600  1
  H  H347  1  0.234000  0.688300  0.657400  1
  H  H348  1  0.234000  0.811700  0.842600  1
  H  H349  1  0.734000  0.688300  0.842600  1
  H  H350  1  0.734000  0.811700  0.657400  1
  H  H351  1  0.766000  0.311700  0.342600  1
  H  H352  1  0.766000  0.188300  0.157400  1
  H  H353  1  0.401700  0.288900  0.237500  1
  H  H354  1  0.401700  0.211100  0.262500  1
  H  H355  1  0.098300  0.711100  0.737500  1
  H  H356  1  0.098300  0.788900  0.762500  1
  H  H357  1  0.598300  0.711100  0.762500  1
  H  H358  1  0.598300  0.788900  0.737500  1
  H  H359  1  0.901700  0.288900  0.262500  1
  H  H360  1  0.901700  0.211100  0.237500  1
  H  H361  1  0.337100  0.320000  0.285000  1
  H  H362  1  0.337100  0.180000  0.215000  1
  H  H363  1  0.162900  0.680000  0.785000  1
  H  H364  1  0.162900  0.820000  0.715000  1
  H  H365  1  0.662900  0.680000  0.715000  1
  H  H366  1  0.662900  0.820000  0.785000  1
  H  H367  1  0.837100  0.320000  0.215000  1
  H  H368  1  0.837100  0.180000  0.285000  1
  H  H369  1  0.974200  0.186000  0.450500  1
  H  H370  1  0.974200  0.314000  0.049500  1
  H  H371  1  0.525800  0.814000  0.950500  1
  H  H372  1  0.525800  0.686000  0.549500  1
  H  H373  1  0.025800  0.814000  0.549500  1
  H  H374  1  0.025800  0.686000  0.950500  1
  H  H375  1  0.474200  0.186000  0.049500  1
  H  H376  1  0.474200  0.314000  0.450500  1
  H  H377  1  0.884500  0.181200  0.492800  1
  H  H378  1  0.884500  0.318800  0.007200  1
  H  H379  1  0.615500  0.818800  0.992800  1
  H  H380  1  0.615500  0.681200  0.507200  1
  H  H381  1  0.115500  0.818800  0.507200  1
  H  H382  1  0.115500  0.681200  0.992800  1
  H  H383  1  0.384500  0.181200  0.007200  1
  H  H384  1  0.384500  0.318800  0.492800  1
  H  H385  1  0.871300  0.232800  0.539300  1
  H  H386  1  0.871300  0.267200  0.960700  1
  H  H387  1  0.628700  0.767200  0.039300  1
  H  H388  1  0.628700  0.732800  0.460700  1
  H  H389  1  0.128700  0.767200  0.460700  1
  H  H390  1  0.128700  0.732800  0.039300  1
  H  H391  1  0.371300  0.232800  0.960700  1
  H  H392  1  0.371300  0.267200  0.539300  1
  H  H393  1  0.932300  0.293800  0.540000  1
  H  H394  1  0.932300  0.206200  0.960000  1
  H  H395  1  0.567700  0.706200  0.040000  1
  H  H396  1  0.567700  0.793800  0.460000  1
  H  H397  1  0.067700  0.706200  0.460000  1
  H  H398  1  0.067700  0.793800  0.040000  1
  H  H399  1  0.432300  0.293800  0.960000  1
  H  H400  1  0.432300  0.206200  0.540000  1
  H  H401  1  0.030400  0.335500  0.514800  1
  H  H402  1  0.030400  0.164500  0.985200  1
  H  H403  1  0.469600  0.664500  0.014800  1
  H  H404  1  0.469600  0.835500  0.485200  1
  H  H405  1  0.969600  0.664500  0.485200  1
  H  H406  1  0.969600  0.835500  0.014800  1
  H  H407  1  0.530400  0.335500  0.985200  1
  H  H408  1  0.530400  0.164500  0.514800  1
  H  H409  1  0.198300  0.318000  0.496800  1
  H  H410  1  0.198300  0.182000  0.003200  1
  H  H411  1  0.301700  0.682000  0.996800  1
  H  H412  1  0.301700  0.818000  0.503200  1
  H  H413  1  0.801700  0.682000  0.503200  1
  H  H414  1  0.801700  0.818000  0.996800  1
  H  H415  1  0.698300  0.318000  0.003200  1
  H  H416  1  0.698300  0.182000  0.496800  1
  H  H417  1  0.267400  0.377800  0.491500  1
  H  H418  1  0.267400  0.122200  0.008500  1
  H  H419  1  0.232600  0.622200  0.991500  1
  H  H420  1  0.232600  0.877800  0.508500  1
  H  H421  1  0.732600  0.622200  0.508500  1
  H  H422  1  0.732600  0.877800  0.991500  1
  H  H423  1  0.767400  0.377800  0.008500  1
  H  H424  1  0.767400  0.122200  0.491500  1
  H  H425  1  0.128300  0.449300  0.442600  1
  H  H426  1  0.128300  0.050700  0.057400  1
  H  H427  1  0.371700  0.550700  0.942600  1
  H  H428  1  0.371700  0.949300  0.557400  1
  H  H429  1  0.871700  0.550700  0.557400  1
  H  H430  1  0.871700  0.949300  0.942600  1
  H  H431  1  0.628300  0.449300  0.057400  1
  H  H432  1  0.628300  0.050700  0.442600  1
  H  H433  1  0.063500  0.389000  0.443000  1
  H  H434  1  0.063500  0.111000  0.057000  1
  H  H435  1  0.436500  0.611000  0.943000  1
  H  H436  1  0.436500  0.889000  0.557000  1
  H  H437  1  0.936500  0.611000  0.557000  1
  H  H438  1  0.936500  0.889000  0.943000  1
  H  H439  1  0.563500  0.389000  0.057000  1
  H  H440  1  0.563500  0.111000  0.443000  1
  H  H441  1  0.247100  0.542100  0.449800  1
  H  H442  1  0.247100  0.957900  0.050200  1
  H  H443  1  0.252900  0.457900  0.949800  1
  H  H444  1  0.252900  0.042100  0.550200  1
  H  H445  1  0.752900  0.457900  0.550200  1
  H  H446  1  0.752900  0.042100  0.949800  1
  H  H447  1  0.747100  0.542100  0.050200  1
  H  H448  1  0.747100  0.957900  0.449800  1
  H  H449  1  0.243900  0.580200  0.391200  1
  H  H450  1  0.243900  0.919800  0.108800  1
  H  H451  1  0.256100  0.419800  0.891200  1
  H  H452  1  0.256100  0.080200  0.608800  1
  H  H453  1  0.756100  0.419800  0.608800  1
  H  H454  1  0.756100  0.080200  0.891200  1
  H  H455  1  0.743900  0.580200  0.108800  1
  H  H456  1  0.743900  0.919800  0.391200  1
  H  H457  1  0.249600  0.465800  0.334600  1
  H  H458  1  0.249600  0.034200  0.165400  1
  H  H459  1  0.250400  0.534200  0.834600  1
  H  H460  1  0.250400  0.965800  0.665400  1
  H  H461  1  0.750400  0.534200  0.665400  1
  H  H462  1  0.750400  0.965800  0.834600  1
  H  H463  1  0.749600  0.465800  0.165400  1
  H  H464  1  0.749600  0.034200  0.334600  1
  H  H465  1  0.255400  0.428200  0.392300  1
  H  H466  1  0.255400  0.071800  0.107700  1
  H  H467  1  0.244600  0.571800  0.892300  1
  H  H468  1  0.244600  0.928200  0.607700  1
  H  H469  1  0.744600  0.571800  0.607700  1
  H  H470  1  0.744600  0.928200  0.892300  1
  H  H471  1  0.755400  0.428200  0.107700  1
  H  H472  1  0.755400  0.071800  0.392300  1
  H  H473  1  0.339400  0.536100  0.313900  1
  H  H474  1  0.339400  0.963900  0.186100  1
  H  H475  1  0.160600  0.463900  0.813900  1
  H  H476  1  0.160600  0.036100  0.686100  1
  H  H477  1  0.660600  0.463900  0.686100  1
  H  H478  1  0.660600  0.036100  0.813900  1
  H  H479  1  0.839400  0.536100  0.186100  1
  H  H480  1  0.839400  0.963900  0.313900  1
  H  H481  1  0.398300  0.560800  0.250100  1
  H  H482  1  0.398300  0.939200  0.249900  1
  H  H483  1  0.101700  0.439200  0.750100  1
  H  H484  1  0.101700  0.060800  0.749900  1
  H  H485  1  0.601700  0.439200  0.749900  1
  H  H486  1  0.601700  0.060800  0.750100  1
  H  H487  1  0.898300  0.560800  0.249900  1
  H  H488  1  0.898300  0.939200  0.250100  1
  H  H489  1  0.393900  0.598100  0.192800  1
  H  H490  1  0.393900  0.901900  0.307200  1
  H  H491  1  0.106100  0.401900  0.692800  1
  H  H492  1  0.106100  0.098100  0.807200  1
  H  H493  1  0.606100  0.401900  0.807200  1
  H  H494  1  0.606100  0.098100  0.692800  1
  H  H495  1  0.893900  0.598100  0.307200  1
  H  H496  1  0.893900  0.901900  0.192800  1
  H  H497  1  0.297200  0.630200  0.174100  1
  H  H498  1  0.297200  0.869800  0.325900  1
  H  H499  1  0.202800  0.369800  0.674100  1
  H  H500  1  0.202800  0.130200  0.825900  1
  H  H501  1  0.702800  0.369800  0.825900  1
  H  H502  1  0.702800  0.130200  0.674100  1
  H  H503  1  0.797200  0.630200  0.325900  1
  H  H504  1  0.797200  0.869800  0.174100  1
  H  H505  1  0.207300  0.623200  0.213700  1
  H  H506  1  0.207300  0.876800  0.286300  1
  H  H507  1  0.292700  0.376800  0.713700  1
  H  H508  1  0.292700  0.123200  0.786300  1
  H  H509  1  0.792700  0.376800  0.786300  1
  H  H510  1  0.792700  0.123200  0.713700  1
  H  H511  1  0.707300  0.623200  0.286300  1
  H  H512  1  0.707300  0.876800  0.213700  1
  H  H513  1  0.239400  0.442200  0.537000  1
  H  H514  1  0.239400  0.057800  0.963000  1
  H  H515  1  0.260600  0.557800  0.037000  1
  H  H516  1  0.260600  0.942200  0.463000  1
  H  H517  1  0.760600  0.557800  0.463000  1
  H  H518  1  0.760600  0.942200  0.037000  1
  H  H519  1  0.739400  0.442200  0.963000  1
  H  H520  1  0.739400  0.057800  0.537000  1
  H  H521  1  0.310700  0.461200  0.585800  1
  H  H522  1  0.310700  0.038800  0.914200  1
  H  H523  1  0.189300  0.538800  0.085800  1
  H  H524  1  0.189300  0.961200  0.414200  1
  H  H525  1  0.689300  0.538800  0.414200  1
  H  H526  1  0.689300  0.961200  0.085800  1
  H  H527  1  0.810700  0.461200  0.914200  1
  H  H528  1  0.810700  0.038800  0.585800  1
  H  H529  1  0.425300  0.518200  0.506600  1
  H  H530  1  0.425300  0.981800  0.993400  1
  H  H531  1  0.074700  0.481800  0.006600  1
  H  H532  1  0.074700  0.018200  0.493400  1
  H  H533  1  0.574700  0.481800  0.493400  1
  H  H534  1  0.574700  0.018200  0.006600  1
  H  H535  1  0.925300  0.518200  0.993400  1
  H  H536  1  0.925300  0.981800  0.506600  1
  H  H537  1  0.354000  0.499100  0.457700  1
  H  H538  1  0.354000  0.000900  0.042300  1
  H  H539  1  0.146000  0.500900  0.957700  1
  H  H540  1  0.146000  0.999100  0.542300  1
  H  H541  1  0.646000  0.500900  0.542300  1
  H  H542  1  0.646000  0.999100  0.957700  1
  H  H543  1  0.854000  0.499100  0.042300  1
  H  H544  1  0.854000  0.000900  0.457700  1
  H  H545  1  0.126900  0.402800  0.549300  1
  H  H546  1  0.126900  0.097200  0.950700  1
  H  H547  1  0.373100  0.597200  0.049300  1
  H  H548  1  0.373100  0.902800  0.450700  1
  H  H549  1  0.873100  0.597200  0.450700  1
  H  H550  1  0.873100  0.902800  0.049300  1
  H  H551  1  0.626900  0.402800  0.950700  1
  H  H552  1  0.626900  0.097200  0.549300  1
  H  H553  1  0.108000  0.451200  0.563400  1
  H  H554  1  0.108000  0.048800  0.936600  1
  H  H555  1  0.392000  0.548800  0.063400  1
  H  H556  1  0.392000  0.951200  0.436600  1
  H  H557  1  0.892000  0.548800  0.436600  1
  H  H558  1  0.892000  0.951200  0.063400  1
  H  H559  1  0.608000  0.451200  0.936600  1
  H  H560  1  0.608000  0.048800  0.563400  1
  H  H561  1  0.058900  0.422500  0.538700  1
  H  H562  1  0.058900  0.077500  0.961300  1
  H  H563  1  0.441100  0.577500  0.038700  1
  H  H564  1  0.441100  0.922500  0.461300  1
  H  H565  1  0.941100  0.577500  0.461300  1
  H  H566  1  0.941100  0.922500  0.038700  1
  H  H567  1  0.558900  0.422500  0.961300  1
  H  H568  1  0.558900  0.077500  0.538700  1
  H  H569  1  0.239300  0.561000  0.572000  1
  H  H570  1  0.239300  0.939000  0.928000  1
  H  H571  1  0.260700  0.439000  0.072000  1
  H  H572  1  0.260700  0.061000  0.428000  1
  H  H573  1  0.760700  0.439000  0.428000  1
  H  H574  1  0.760700  0.061000  0.072000  1
  H  H575  1  0.739300  0.561000  0.928000  1
  H  H576  1  0.739300  0.939000  0.572000  1
  H  H577  1  0.286900  0.579700  0.540100  1
  H  H578  1  0.286900  0.920300  0.959900  1
  H  H579  1  0.213100  0.420300  0.040100  1
  H  H580  1  0.213100  0.079700  0.459900  1
  H  H581  1  0.713100  0.420300  0.459900  1
  H  H582  1  0.713100  0.079700  0.040100  1
  H  H583  1  0.786900  0.579700  0.959900  1
  H  H584  1  0.786900  0.920300  0.540100  1
  H  H585  1  0.212300  0.586300  0.535000  1
  H  H586  1  0.212300  0.913700  0.965000  1
  H  H587  1  0.287700  0.413700  0.035000  1
  H  H588  1  0.287700  0.086300  0.465000  1
  H  H589  1  0.787700  0.413700  0.465000  1
  H  H590  1  0.787700  0.086300  0.035000  1
  H  H591  1  0.712300  0.586300  0.965000  1
  H  H592  1  0.712300  0.913700  0.535000  1
  C  C593  1  0.101000  0.160000  0.423800  1
  C  C594  1  0.101000  0.340000  0.076200  1
  C  C595  1  0.399000  0.840000  0.923800  1
  C  C596  1  0.399000  0.660000  0.576200  1
  C  C597  1  0.899000  0.840000  0.576200  1
  C  C598  1  0.899000  0.660000  0.923800  1
  C  C599  1  0.601000  0.160000  0.076200  1
  C  C600  1  0.601000  0.340000  0.423800  1
  C  C601  1  0.092500  0.121300  0.400300  1
  C  C602  1  0.092500  0.378700  0.099700  1
  C  C603  1  0.407500  0.878700  0.900300  1
  C  C604  1  0.407500  0.621300  0.599700  1
  C  C605  1  0.907500  0.878700  0.599700  1
  C  C606  1  0.907500  0.621300  0.900300  1
  C  C607  1  0.592500  0.121300  0.099700  1
  C  C608  1  0.592500  0.378700  0.400300  1
  C  C609  1  0.062200  0.125700  0.365500  1
  C  C610  1  0.062200  0.374300  0.134500  1
  C  C611  1  0.437800  0.874300  0.865500  1
  C  C612  1  0.437800  0.625700  0.634500  1
  C  C613  1  0.937800  0.874300  0.634500  1
  C  C614  1  0.937800  0.625700  0.865500  1
  C  C615  1  0.562200  0.125700  0.134500  1
  C  C616  1  0.562200  0.374300  0.365500  1
  C  C617  1  0.040700  0.165700  0.356100  1
  C  C618  1  0.040700  0.334300  0.143900  1
  C  C619  1  0.459300  0.834300  0.856100  1
  C  C620  1  0.459300  0.665700  0.643900  1
  C  C621  1  0.959300  0.834300  0.643900  1
  C  C622  1  0.959300  0.665700  0.856100  1
  C  C623  1  0.540700  0.165700  0.143900  1
  C  C624  1  0.540700  0.334300  0.356100  1
  C  C625  1  0.050000  0.201600  0.379600  1
  C  C626  1  0.050000  0.298400  0.120400  1
  C  C627  1  0.450000  0.798400  0.879600  1
  C  C628  1  0.450000  0.701600  0.620400  1
  C  C629  1  0.950000  0.798400  0.620400  1
  C  C630  1  0.950000  0.701600  0.879600  1
  C  C631  1  0.550000  0.201600  0.120400  1
  C  C632  1  0.550000  0.298400  0.379600  1
  C  C633  1  0.026300  0.246300  0.370700  1
  C  C634  1  0.026300  0.253700  0.129300  1
  C  C635  1  0.473700  0.753700  0.870700  1
  C  C636  1  0.473700  0.746300  0.629300  1
  C  C637  1  0.973700  0.753700  0.629300  1
  C  C638  1  0.973700  0.746300  0.870700  1
  C  C639  1  0.526300  0.246300  0.129300  1
  C  C640  1  0.526300  0.253700  0.370700  1
  C  C641  1  0.012400  0.319100  0.389700  1
  C  C642  1  0.012400  0.180900  0.110300  1
  C  C643  1  0.487600  0.680900  0.889700  1
  C  C644  1  0.487600  0.819100  0.610300  1
  C  C645  1  0.987600  0.680900  0.610300  1
  C  C646  1  0.987600  0.819100  0.889700  1
  C  C647  1  0.512400  0.319100  0.110300  1
  C  C648  1  0.512400  0.180900  0.389700  1
  C  C649  1  0.963700  0.336600  0.411000  1
  C  C650  1  0.963700  0.163400  0.089000  1
  C  C651  1  0.536300  0.663400  0.911000  1
  C  C652  1  0.536300  0.836600  0.589000  1
  C  C653  1  0.036300  0.663400  0.589000  1
  C  C654  1  0.036300  0.836600  0.911000  1
  C  C655  1  0.463700  0.336600  0.089000  1
  C  C656  1  0.463700  0.163400  0.411000  1
  C  C657  1  0.939300  0.378000  0.403300  1
  C  C658  1  0.939300  0.122000  0.096700  1
  C  C659  1  0.560700  0.622000  0.903300  1
  C  C660  1  0.560700  0.878000  0.596700  1
  C  C661  1  0.060700  0.622000  0.596700  1
  C  C662  1  0.060700  0.878000  0.903300  1
  C  C663  1  0.439300  0.378000  0.096700  1
  C  C664  1  0.439300  0.122000  0.403300  1
  C  C665  1  0.963200  0.402200  0.372500  1
  C  C666  1  0.963200  0.097800  0.127500  1
  C  C667  1  0.536800  0.597800  0.872500  1
  C  C668  1  0.536800  0.902200  0.627500  1
  C  C669  1  0.036800  0.597800  0.627500  1
  C  C670  1  0.036800  0.902200  0.872500  1
  C  C671  1  0.463200  0.402200  0.127500  1
  C  C672  1  0.463200  0.097800  0.372500  1
  C  C673  1  0.009000  0.383500  0.349700  1
  C  C674  1  0.009000  0.116500  0.150300  1
  C  C675  1  0.491000  0.616500  0.849700  1
  C  C676  1  0.491000  0.883500  0.650300  1
  C  C677  1  0.991000  0.616500  0.650300  1
  C  C678  1  0.991000  0.883500  0.849700  1
  C  C679  1  0.509000  0.383500  0.150300  1
  C  C680  1  0.509000  0.116500  0.349700  1
  C  C681  1  0.034600  0.342900  0.358200  1
  C  C682  1  0.034600  0.157100  0.141800  1
  C  C683  1  0.465400  0.657100  0.858200  1
  C  C684  1  0.465400  0.842900  0.641800  1
  C  C685  1  0.965400  0.657100  0.641800  1
  C  C686  1  0.965400  0.842900  0.858200  1
  C  C687  1  0.534600  0.342900  0.141800  1
  C  C688  1  0.534600  0.157100  0.358200  1
  C  C689  1  0.985000  0.478500  0.357200  1
  C  C690  1  0.985000  0.021500  0.142800  1
  C  C691  1  0.515000  0.521500  0.857200  1
  C  C692  1  0.515000  0.978500  0.642800  1
  C  C693  1  0.015000  0.521500  0.642800  1
  C  C694  1  0.015000  0.978500  0.857200  1
  C  C695  1  0.485000  0.478500  0.142800  1
  C  C696  1  0.485000  0.021500  0.357200  1
  C  C697  1  0.980200  0.507300  0.325500  1
  C  C698  1  0.980200  0.992700  0.174500  1
  C  C699  1  0.519800  0.492700  0.825500  1
  C  C700  1  0.519800  0.007300  0.674500  1
  C  C701  1  0.019800  0.492700  0.674500  1
  C  C702  1  0.019800  0.007300  0.825500  1
  C  C703  1  0.480200  0.507300  0.174500  1
  C  C704  1  0.480200  0.992700  0.325500  1
  C  C705  1  0.023800  0.538700  0.318700  1
  C  C706  1  0.023800  0.961300  0.181300  1
  C  C707  1  0.476200  0.461300  0.818700  1
  C  C708  1  0.476200  0.038700  0.681300  1
  C  C709  1  0.976200  0.461300  0.681300  1
  C  C710  1  0.976200  0.038700  0.818700  1
  C  C711  1  0.523800  0.538700  0.181300  1
  C  C712  1  0.523800  0.961300  0.318700  1
  C  C713  1  0.075700  0.543200  0.343300  1
  C  C714  1  0.075700  0.956800  0.156700  1
  C  C715  1  0.424300  0.456800  0.843300  1
  C  C716  1  0.424300  0.043200  0.656700  1
  C  C717  1  0.924300  0.456800  0.656700  1
  C  C718  1  0.924300  0.043200  0.843300  1
  C  C719  1  0.575700  0.543200  0.156700  1
  C  C720  1  0.575700  0.956800  0.343300  1
  C  C721  1  0.081100  0.515700  0.375300  1
  C  C722  1  0.081100  0.984300  0.124700  1
  C  C723  1  0.418900  0.484300  0.875300  1
  C  C724  1  0.418900  0.015700  0.624700  1
  C  C725  1  0.918900  0.484300  0.624700  1
  C  C726  1  0.918900  0.015700  0.875300  1
  C  C727  1  0.581100  0.515700  0.124700  1
  C  C728  1  0.581100  0.984300  0.375300  1
  C  C729  1  0.036100  0.483200  0.381700  1
  C  C730  1  0.036100  0.016800  0.118300  1
  C  C731  1  0.463900  0.516800  0.881700  1
  C  C732  1  0.463900  0.983200  0.618300  1
  C  C733  1  0.963900  0.516800  0.618300  1
  C  C734  1  0.963900  0.983200  0.881700  1
  C  C735  1  0.536100  0.483200  0.118300  1
  C  C736  1  0.536100  0.016800  0.381700  1
  C  C737  1  0.122600  0.608400  0.361700  1
  C  C738  1  0.122600  0.891600  0.138300  1
  C  C739  1  0.377400  0.391600  0.861700  1
  C  C740  1  0.377400  0.108400  0.638300  1
  C  C741  1  0.877400  0.391600  0.638300  1
  C  C742  1  0.877400  0.108400  0.861700  1
  C  C743  1  0.622600  0.608400  0.138300  1
  C  C744  1  0.622600  0.891600  0.361700  1
  C  C745  1  0.169200  0.641900  0.357300  1
  C  C746  1  0.169200  0.858100  0.142700  1
  C  C747  1  0.330800  0.358100  0.857300  1
  C  C748  1  0.330800  0.141900  0.642700  1
  C  C749  1  0.830800  0.358100  0.642700  1
  C  C750  1  0.830800  0.141900  0.857300  1
  C  C751  1  0.669200  0.641900  0.142700  1
  C  C752  1  0.669200  0.858100  0.357300  1
  C  C753  1  0.178900  0.678400  0.381300  1
  C  C754  1  0.178900  0.821600  0.118700  1
  C  C755  1  0.321100  0.321600  0.881300  1
  C  C756  1  0.321100  0.178400  0.618700  1
  C  C757  1  0.821100  0.321600  0.618700  1
  C  C758  1  0.821100  0.178400  0.881300  1
  C  C759  1  0.678900  0.678400  0.118700  1
  C  C760  1  0.678900  0.821600  0.381300  1
  C  C761  1  0.226500  0.707100  0.373700  1
  C  C762  1  0.226500  0.792900  0.126300  1
  C  C763  1  0.273500  0.292900  0.873700  1
  C  C764  1  0.273500  0.207100  0.626300  1
  C  C765  1  0.773500  0.292900  0.626300  1
  C  C766  1  0.773500  0.207100  0.873700  1
  C  C767  1  0.726500  0.707100  0.126300  1
  C  C768  1  0.726500  0.792900  0.373700  1
  C  C769  1  0.265000  0.700500  0.342900  1
  C  C770  1  0.265000  0.799500  0.157100  1
  C  C771  1  0.235000  0.299500  0.842900  1
  C  C772  1  0.235000  0.200500  0.657100  1
  C  C773  1  0.735000  0.299500  0.657100  1
  C  C774  1  0.735000  0.200500  0.842900  1
  C  C775  1  0.765000  0.700500  0.157100  1
  C  C776  1  0.765000  0.799500  0.342900  1
  C  C777  1  0.252400  0.665300  0.317300  1
  C  C778  1  0.252400  0.834700  0.182700  1
  C  C779  1  0.247600  0.334700  0.817300  1
  C  C780  1  0.247600  0.165300  0.682700  1
  C  C781  1  0.747600  0.334700  0.682700  1
  C  C782  1  0.747600  0.165300  0.817300  1
  C  C783  1  0.752400  0.665300  0.182700  1
  C  C784  1  0.752400  0.834700  0.317300  1
  C  C785  1  0.875400  0.454240  0.359340  1
  C  C786  1  0.875400  0.045760  0.140660  1
  C  C787  1  0.624600  0.545760  0.859340  1
  C  C788  1  0.624600  0.954240  0.640660  1
  C  C789  1  0.124600  0.545760  0.640660  1
  C  C790  1  0.124600  0.954240  0.859340  1
  C  C791  1  0.375400  0.454240  0.140660  1
  C  C792  1  0.375400  0.045760  0.359340  1
  C  C793  1  0.834600  0.420880  0.347760  1
  C  C794  1  0.834600  0.079120  0.152240  1
  C  C795  1  0.665400  0.579120  0.847760  1
  C  C796  1  0.665400  0.920880  0.652240  1
  C  C797  1  0.165400  0.579120  0.652240  1
  C  C798  1  0.165400  0.920880  0.847760  1
  C  C799  1  0.334600  0.420880  0.152240  1
  C  C800  1  0.334600  0.079120  0.347760  1
  C  C801  1  0.770700  0.429600  0.342700  1
  C  C802  1  0.770700  0.070400  0.157300  1
  C  C803  1  0.729300  0.570400  0.842700  1
  C  C804  1  0.729300  0.929600  0.657300  1
  C  C805  1  0.229300  0.570400  0.657300  1
  C  C806  1  0.229300  0.929600  0.842700  1
  C  C807  1  0.270700  0.429600  0.157300  1
  C  C808  1  0.270700  0.070400  0.342700  1
  C  C809  1  0.747400  0.471800  0.349200  1
  C  C810  1  0.747400  0.028200  0.150800  1
  C  C811  1  0.752600  0.528200  0.849200  1
  C  C812  1  0.752600  0.971800  0.650800  1
  C  C813  1  0.252600  0.528200  0.650800  1
  C  C814  1  0.252600  0.971800  0.849200  1
  C  C815  1  0.247400  0.471800  0.150800  1
  C  C816  1  0.247400  0.028200  0.349200  1
  C  C817  1  0.788200  0.505130  0.360800  1
  C  C818  1  0.788200  0.994870  0.139200  1
  C  C819  1  0.711800  0.494870  0.860800  1
  C  C820  1  0.711800  0.005130  0.639200  1
  C  C821  1  0.211800  0.494870  0.639200  1
  C  C822  1  0.211800  0.005130  0.860800  1
  C  C823  1  0.288200  0.505130  0.139200  1
  C  C824  1  0.288200  0.994870  0.360800  1
  C  C825  1  0.852100  0.496360  0.365840  1
  C  C826  1  0.852100  0.003640  0.134160  1
  C  C827  1  0.647900  0.503640  0.865840  1
  C  C828  1  0.647900  0.996360  0.634160  1
  C  C829  1  0.147900  0.503640  0.634160  1
  C  C830  1  0.147900  0.996360  0.865840  1
  C  C831  1  0.352100  0.496360  0.134160  1
  C  C832  1  0.352100  0.003640  0.365840  1
  C  C833  1  0.123900  0.209900  0.515300  1
  C  C834  1  0.123900  0.290100  0.984700  1
  C  C835  1  0.376100  0.790100  0.015300  1
  C  C836  1  0.376100  0.709900  0.484700  1
  C  C837  1  0.876100  0.790100  0.484700  1
  C  C838  1  0.876100  0.709900  0.015300  1
  C  C839  1  0.623900  0.209900  0.984700  1
  C  C840  1  0.623900  0.290100  0.515300  1
  C  C841  1  0.168700  0.187500  0.538000  1
  C  C842  1  0.168700  0.312500  0.962000  1
  C  C843  1  0.331300  0.812500  0.038000  1
  C  C844  1  0.331300  0.687500  0.462000  1
  C  C845  1  0.831300  0.812500  0.462000  1
  C  C846  1  0.831300  0.687500  0.038000  1
  C  C847  1  0.668700  0.187500  0.962000  1
  C  C848  1  0.668700  0.312500  0.538000  1
  C  C849  1  0.228400  0.184800  0.526700  1
  C  C850  1  0.228400  0.315200  0.973300  1
  C  C851  1  0.271600  0.815200  0.026700  1
  C  C852  1  0.271600  0.684800  0.473300  1
  C  C853  1  0.771600  0.815200  0.473300  1
  C  C854  1  0.771600  0.684800  0.026700  1
  C  C855  1  0.728400  0.184800  0.973300  1
  C  C856  1  0.728400  0.315200  0.526700  1
  C  C857  1  0.248600  0.205600  0.493200  1
  C  C858  1  0.248600  0.294400  0.006800  1
  C  C859  1  0.251400  0.794400  0.993200  1
  C  C860  1  0.251400  0.705600  0.506800  1
  C  C861  1  0.751400  0.794400  0.506800  1
  C  C862  1  0.751400  0.705600  0.993200  1
  C  C863  1  0.748600  0.205600  0.006800  1
  C  C864  1  0.748600  0.294400  0.493200  1
  C  C865  1  0.202400  0.227300  0.471200  1
  C  C866  1  0.202400  0.272700  0.028800  1
  C  C867  1  0.297600  0.772700  0.971200  1
  C  C868  1  0.297600  0.727300  0.528800  1
  C  C869  1  0.797600  0.772700  0.528800  1
  C  C870  1  0.797600  0.727300  0.971200  1
  C  C871  1  0.702400  0.227300  0.028800  1
  C  C872  1  0.702400  0.272700  0.471200  1
  C  C873  1  0.214200  0.249500  0.435300  1
  C  C874  1  0.214200  0.250500  0.064700  1
  C  C875  1  0.285800  0.750500  0.935300  1
  C  C876  1  0.285800  0.749500  0.564700  1
  C  C877  1  0.785800  0.750500  0.564700  1
  C  C878  1  0.785800  0.749500  0.935300  1
  C  C879  1  0.714200  0.249500  0.064700  1
  C  C880  1  0.714200  0.250500  0.435300  1
  C  C881  1  0.182000  0.288200  0.381200  1
  C  C882  1  0.182000  0.211800  0.118800  1
  C  C883  1  0.318000  0.711800  0.881200  1
  C  C884  1  0.318000  0.788200  0.618800  1
  C  C885  1  0.818000  0.711800  0.618800  1
  C  C886  1  0.818000  0.788200  0.881200  1
  C  C887  1  0.682000  0.288200  0.118800  1
  C  C888  1  0.682000  0.211800  0.381200  1
  C  C889  1  0.199800  0.332100  0.380600  1
  C  C890  1  0.199800  0.167900  0.119400  1
  C  C891  1  0.300200  0.667900  0.880600  1
  C  C892  1  0.300200  0.832100  0.619400  1
  C  C893  1  0.800200  0.667900  0.619400  1
  C  C894  1  0.800200  0.832100  0.880600  1
  C  C895  1  0.699800  0.332100  0.119400  1
  C  C896  1  0.699800  0.167900  0.380600  1
  C  C897  1  0.215300  0.353000  0.347800  1
  C  C898  1  0.215300  0.147000  0.152200  1
  C  C899  1  0.284700  0.647000  0.847800  1
  C  C900  1  0.284700  0.853000  0.652200  1
  C  C901  1  0.784700  0.647000  0.652200  1
  C  C902  1  0.784700  0.853000  0.847800  1
  C  C903  1  0.715300  0.353000  0.152200  1
  C  C904  1  0.715300  0.147000  0.347800  1
  C  C905  1  0.212800  0.331300  0.312700  1
  C  C906  1  0.212800  0.168700  0.187300  1
  C  C907  1  0.287200  0.668700  0.812700  1
  C  C908  1  0.287200  0.831300  0.687300  1
  C  C909  1  0.787200  0.668700  0.687300  1
  C  C910  1  0.787200  0.831300  0.812700  1
  C  C911  1  0.712800  0.331300  0.187300  1
  C  C912  1  0.712800  0.168700  0.312700  1
  C  C913  1  0.195900  0.287900  0.314000  1
  C  C914  1  0.195900  0.212100  0.186000  1
  C  C915  1  0.304100  0.712100  0.814000  1
  C  C916  1  0.304100  0.787900  0.686000  1
  C  C917  1  0.804100  0.712100  0.686000  1
  C  C918  1  0.804100  0.787900  0.814000  1
  C  C919  1  0.695900  0.287900  0.186000  1
  C  C920  1  0.695900  0.212100  0.314000  1
  C  C921  1  0.180700  0.267100  0.348400  1
  C  C922  1  0.180700  0.232900  0.151600  1
  C  C923  1  0.319300  0.732900  0.848400  1
  C  C924  1  0.319300  0.767100  0.651600  1
  C  C925  1  0.819300  0.732900  0.651600  1
  C  C926  1  0.819300  0.767100  0.848400  1
  C  C927  1  0.680700  0.267100  0.151600  1
  C  C928  1  0.680700  0.232900  0.348400  1
  C  C929  1  0.208300  0.398900  0.273200  1
  C  C930  1  0.208300  0.101100  0.226800  1
  C  C931  1  0.291700  0.601100  0.773200  1
  C  C932  1  0.291700  0.898900  0.726800  1
  C  C933  1  0.791700  0.601100  0.726800  1
  C  C934  1  0.791700  0.898900  0.773200  1
  C  C935  1  0.708300  0.398900  0.226800  1
  C  C936  1  0.708300  0.101100  0.273200  1
  C  C937  1  0.149200  0.412000  0.285600  1
  C  C938  1  0.149200  0.088000  0.214400  1
  C  C939  1  0.350800  0.588000  0.785600  1
  C  C940  1  0.350800  0.912000  0.714400  1
  C  C941  1  0.850800  0.588000  0.714400  1
  C  C942  1  0.850800  0.912000  0.785600  1
  C  C943  1  0.649200  0.412000  0.214400  1
  C  C944  1  0.649200  0.088000  0.285600  1
  C  C945  1  0.130300  0.456800  0.283200  1
  C  C946  1  0.130300  0.043200  0.216800  1
  C  C947  1  0.369700  0.543200  0.783200  1
  C  C948  1  0.369700  0.956800  0.716800  1
  C  C949  1  0.869700  0.543200  0.716800  1
  C  C950  1  0.869700  0.956800  0.783200  1
  C  C951  1  0.630300  0.456800  0.216800  1
  C  C952  1  0.630300  0.043200  0.283200  1
  C  C953  1  0.171400  0.486300  0.267000  1
  C  C954  1  0.171400  0.013700  0.233000  1
  C  C955  1  0.328600  0.513700  0.767000  1
  C  C956  1  0.328600  0.986300  0.733000  1
  C  C957  1  0.828600  0.513700  0.733000  1
  C  C958  1  0.828600  0.986300  0.767000  1
  C  C959  1  0.671400  0.486300  0.233000  1
  C  C960  1  0.671400  0.013700  0.267000  1
  C  C961  1  0.228700  0.472900  0.253100  1
  C  C962  1  0.228700  0.027100  0.246900  1
  C  C963  1  0.271300  0.527100  0.753100  1
  C  C964  1  0.271300  0.972900  0.746900  1
  C  C965  1  0.771300  0.527100  0.746900  1
  C  C966  1  0.771300  0.972900  0.753100  1
  C  C967  1  0.728700  0.472900  0.246900  1
  C  C968  1  0.728700  0.027100  0.253100  1
  C  C969  1  0.247300  0.429300  0.257300  1
  C  C970  1  0.247300  0.070700  0.242700  1
  C  C971  1  0.252700  0.570700  0.757300  1
  C  C972  1  0.252700  0.929300  0.742700  1
  C  C973  1  0.752700  0.570700  0.742700  1
  C  C974  1  0.752700  0.929300  0.757300  1
  C  C975  1  0.747300  0.429300  0.242700  1
  C  C976  1  0.747300  0.070700  0.257300  1
  C  C977  1  0.109400  0.542600  0.239200  1
  C  C978  1  0.109400  0.957400  0.260800  1
  C  C979  1  0.390600  0.457400  0.739200  1
  C  C980  1  0.390600  0.042600  0.760800  1
  C  C981  1  0.890600  0.457400  0.760800  1
  C  C982  1  0.890600  0.042600  0.739200  1
  C  C983  1  0.609400  0.542600  0.260800  1
  C  C984  1  0.609400  0.957400  0.239200  1
  C  C985  1  0.088000  0.588100  0.237600  1
  C  C986  1  0.088000  0.911900  0.262400  1
  C  C987  1  0.412000  0.411900  0.737600  1
  C  C988  1  0.412000  0.088100  0.762400  1
  C  C989  1  0.912000  0.411900  0.762400  1
  C  C990  1  0.912000  0.088100  0.737600  1
  C  C991  1  0.588000  0.588100  0.262400  1
  C  C992  1  0.588000  0.911900  0.237600  1
  C  C993  1  0.039900  0.601800  0.214900  1
  C  C994  1  0.039900  0.898200  0.285100  1
  C  C995  1  0.460100  0.398200  0.714900  1
  C  C996  1  0.460100  0.101800  0.785100  1
  C  C997  1  0.960100  0.398200  0.785100  1
  C  C998  1  0.960100  0.101800  0.714900  1
  C  C999  1  0.539900  0.601800  0.285100  1
  C  C1000  1  0.539900  0.898200  0.214900  1
  C  C1001  1  0.020600  0.645800  0.219100  1
  C  C1002  1  0.020600  0.854200  0.280900  1
  C  C1003  1  0.479400  0.354200  0.719100  1
  C  C1004  1  0.479400  0.145800  0.780900  1
  C  C1005  1  0.979400  0.354200  0.780900  1
  C  C1006  1  0.979400  0.145800  0.719100  1
  C  C1007  1  0.520600  0.645800  0.280900  1
  C  C1008  1  0.520600  0.854200  0.219100  1
  C  C1009  1  0.050500  0.672600  0.244900  1
  C  C1010  1  0.050500  0.827400  0.255100  1
  C  C1011  1  0.449500  0.327400  0.744900  1
  C  C1012  1  0.449500  0.172600  0.755100  1
  C  C1013  1  0.949500  0.327400  0.755100  1
  C  C1014  1  0.949500  0.172600  0.744900  1
  C  C1015  1  0.550500  0.672600  0.255100  1
  C  C1016  1  0.550500  0.827400  0.244900  1
  C  C1017  1  0.101700  0.655500  0.266900  1
  C  C1018  1  0.101700  0.844500  0.233100  1
  C  C1019  1  0.398300  0.344500  0.766900  1
  C  C1020  1  0.398300  0.155500  0.733100  1
  C  C1021  1  0.898300  0.344500  0.733100  1
  C  C1022  1  0.898300  0.155500  0.766900  1
  C  C1023  1  0.601700  0.655500  0.233100  1
  C  C1024  1  0.601700  0.844500  0.266900  1
  C  C1025  1  0.263100  0.334300  0.249440  1
  C  C1026  1  0.263100  0.165700  0.250560  1
  C  C1027  1  0.236900  0.665700  0.749440  1
  C  C1028  1  0.236900  0.834300  0.750560  1
  C  C1029  1  0.736900  0.665700  0.750560  1
  C  C1030  1  0.736900  0.834300  0.749440  1
  C  C1031  1  0.763100  0.334300  0.250560  1
  C  C1032  1  0.763100  0.165700  0.249440  1
  C  C1033  1  0.242000  0.331800  0.211540  1
  C  C1034  1  0.242000  0.168200  0.288460  1
  C  C1035  1  0.258000  0.668200  0.711540  1
  C  C1036  1  0.258000  0.831800  0.788460  1
  C  C1037  1  0.758000  0.668200  0.788460  1
  C  C1038  1  0.758000  0.831800  0.711540  1
  C  C1039  1  0.742000  0.331800  0.288460  1
  C  C1040  1  0.742000  0.168200  0.211540  1
  C  C1041  1  0.280400  0.313400  0.183300  1
  C  C1042  1  0.280400  0.186600  0.316700  1
  C  C1043  1  0.219600  0.686600  0.683300  1
  C  C1044  1  0.219600  0.813400  0.816700  1
  C  C1045  1  0.719600  0.686600  0.816700  1
  C  C1046  1  0.719600  0.813400  0.683300  1
  C  C1047  1  0.780400  0.313400  0.316700  1
  C  C1048  1  0.780400  0.186600  0.183300  1
  C  C1049  1  0.339900  0.297400  0.193000  1
  C  C1050  1  0.339900  0.202600  0.307000  1
  C  C1051  1  0.160100  0.702600  0.693000  1
  C  C1052  1  0.160100  0.797400  0.807000  1
  C  C1053  1  0.660100  0.702600  0.807000  1
  C  C1054  1  0.660100  0.797400  0.693000  1
  C  C1055  1  0.839900  0.297400  0.307000  1
  C  C1056  1  0.839900  0.202600  0.193000  1
  C  C1057  1  0.361000  0.299900  0.230900  1
  C  C1058  1  0.361000  0.200100  0.269100  1
  C  C1059  1  0.139000  0.700100  0.730900  1
  C  C1060  1  0.139000  0.799900  0.769100  1
  C  C1061  1  0.639000  0.700100  0.769100  1
  C  C1062  1  0.639000  0.799900  0.730900  1
  C  C1063  1  0.861000  0.299900  0.269100  1
  C  C1064  1  0.861000  0.200100  0.230900  1
  C  C1065  1  0.322600  0.318300  0.259110  1
  C  C1066  1  0.322600  0.181700  0.240890  1
  C  C1067  1  0.177400  0.681700  0.759110  1
  C  C1068  1  0.177400  0.818300  0.740890  1
  C  C1069  1  0.677400  0.681700  0.740890  1
  C  C1070  1  0.677400  0.818300  0.759110  1
  C  C1071  1  0.822600  0.318300  0.240890  1
  C  C1072  1  0.822600  0.181700  0.259110  1
  C  C1073  1  0.966900  0.208300  0.469200  1
  C  C1074  1  0.966900  0.291700  0.030800  1
  C  C1075  1  0.533100  0.791700  0.969200  1
  C  C1076  1  0.533100  0.708300  0.530800  1
  C  C1077  1  0.033100  0.791700  0.530800  1
  C  C1078  1  0.033100  0.708300  0.969200  1
  C  C1079  1  0.466900  0.208300  0.030800  1
  C  C1080  1  0.466900  0.291700  0.469200  1
  C  C1081  1  0.913200  0.205100  0.494800  1
  C  C1082  1  0.913200  0.294900  0.005200  1
  C  C1083  1  0.586800  0.794900  0.994800  1
  C  C1084  1  0.586800  0.705100  0.505200  1
  C  C1085  1  0.086800  0.794900  0.505200  1
  C  C1086  1  0.086800  0.705100  0.994800  1
  C  C1087  1  0.413200  0.205100  0.005200  1
  C  C1088  1  0.413200  0.294900  0.494800  1
  C  C1089  1  0.904500  0.235800  0.521100  1
  C  C1090  1  0.904500  0.264200  0.978900  1
  C  C1091  1  0.595500  0.764200  0.021100  1
  C  C1092  1  0.595500  0.735800  0.478900  1
  C  C1093  1  0.095500  0.764200  0.478900  1
  C  C1094  1  0.095500  0.735800  0.021100  1
  C  C1095  1  0.404500  0.235800  0.978900  1
  C  C1096  1  0.404500  0.264200  0.521100  1
  C  C1097  1  0.941500  0.270800  0.522300  1
  C  C1098  1  0.941500  0.229200  0.977700  1
  C  C1099  1  0.558500  0.729200  0.022300  1
  C  C1100  1  0.558500  0.770800  0.477700  1
  C  C1101  1  0.058500  0.729200  0.477700  1
  C  C1102  1  0.058500  0.770800  0.022300  1
  C  C1103  1  0.441500  0.270800  0.977700  1
  C  C1104  1  0.441500  0.229200  0.522300  1
  C  C1105  1  0.994200  0.274500  0.497800  1
  C  C1106  1  0.994200  0.225500  0.002200  1
  C  C1107  1  0.505800  0.725500  0.997800  1
  C  C1108  1  0.505800  0.774500  0.502200  1
  C  C1109  1  0.005800  0.725500  0.502200  1
  C  C1110  1  0.005800  0.774500  0.997800  1
  C  C1111  1  0.494200  0.274500  0.002200  1
  C  C1112  1  0.494200  0.225500  0.497800  1
  C  C1113  1  0.035800  0.311500  0.497500  1
  C  C1114  1  0.035800  0.188500  0.002500  1
  C  C1115  1  0.464200  0.688500  0.997500  1
  C  C1116  1  0.464200  0.811500  0.502500  1
  C  C1117  1  0.964200  0.688500  0.502500  1
  C  C1118  1  0.964200  0.811500  0.997500  1
  C  C1119  1  0.535800  0.311500  0.002500  1
  C  C1120  1  0.535800  0.188500  0.497500  1
  C  C1121  1  0.123500  0.347200  0.470400  1
  C  C1122  1  0.123500  0.152800  0.029600  1
  C  C1123  1  0.376500  0.652800  0.970400  1
  C  C1124  1  0.376500  0.847200  0.529600  1
  C  C1125  1  0.876500  0.652800  0.529600  1
  C  C1126  1  0.876500  0.847200  0.970400  1
  C  C1127  1  0.623500  0.347200  0.029600  1
  C  C1128  1  0.623500  0.152800  0.470400  1
  C  C1129  1  0.184400  0.344400  0.484900  1
  C  C1130  1  0.184400  0.155600  0.015100  1
  C  C1131  1  0.315600  0.655600  0.984900  1
  C  C1132  1  0.315600  0.844400  0.515100  1
  C  C1133  1  0.815600  0.655600  0.515100  1
  C  C1134  1  0.815600  0.844400  0.984900  1
  C  C1135  1  0.684400  0.344400  0.015100  1
  C  C1136  1  0.684400  0.155600  0.484900  1
  C  C1137  1  0.225400  0.380400  0.482000  1
  C  C1138  1  0.225400  0.119600  0.018000  1
  C  C1139  1  0.274600  0.619600  0.982000  1
  C  C1140  1  0.274600  0.880400  0.518000  1
  C  C1141  1  0.774600  0.619600  0.518000  1
  C  C1142  1  0.774600  0.880400  0.982000  1
  C  C1143  1  0.725400  0.380400  0.018000  1
  C  C1144  1  0.725400  0.119600  0.482000  1
  C  C1145  1  0.206000  0.419200  0.465800  1
  C  C1146  1  0.206000  0.080800  0.034200  1
  C  C1147  1  0.294000  0.580800  0.965800  1
  C  C1148  1  0.294000  0.919200  0.534200  1
  C  C1149  1  0.794000  0.580800  0.534200  1
  C  C1150  1  0.794000  0.919200  0.965800  1
  C  C1151  1  0.706000  0.419200  0.034200  1
  C  C1152  1  0.706000  0.080800  0.465800  1
  C  C1153  1  0.143600  0.422200  0.452600  1
  C  C1154  1  0.143600  0.077800  0.047400  1
  C  C1155  1  0.356400  0.577800  0.952600  1
  C  C1156  1  0.356400  0.922200  0.547400  1
  C  C1157  1  0.856400  0.577800  0.547400  1
  C  C1158  1  0.856400  0.922200  0.952600  1
  C  C1159  1  0.643600  0.422200  0.047400  1
  C  C1160  1  0.643600  0.077800  0.452600  1
  C  C1161  1  0.104700  0.386800  0.453800  1
  C  C1162  1  0.104700  0.113200  0.046200  1
  C  C1163  1  0.395300  0.613200  0.953800  1
  C  C1164  1  0.395300  0.886800  0.546200  1
  C  C1165  1  0.895300  0.613200  0.546200  1
  C  C1166  1  0.895300  0.886800  0.953800  1
  C  C1167  1  0.604700  0.386800  0.046200  1
  C  C1168  1  0.604700  0.113200  0.453800  1
  C  C1169  1  0.248000  0.480100  0.427100  1
  C  C1170  1  0.248000  0.019900  0.072900  1
  C  C1171  1  0.252000  0.519900  0.927100  1
  C  C1172  1  0.252000  0.980100  0.572900  1
  C  C1173  1  0.752000  0.519900  0.572900  1
  C  C1174  1  0.752000  0.980100  0.927100  1
  C  C1175  1  0.748000  0.480100  0.072900  1
  C  C1176  1  0.748000  0.019900  0.427100  1
  C  C1177  1  0.247200  0.526200  0.426200  1
  C  C1178  1  0.247200  0.973800  0.073800  1
  C  C1179  1  0.252800  0.473800  0.926200  1
  C  C1180  1  0.252800  0.026200  0.573800  1
  C  C1181  1  0.752800  0.473800  0.573800  1
  C  C1182  1  0.752800  0.026200  0.926200  1
  C  C1183  1  0.747200  0.526200  0.073800  1
  C  C1184  1  0.747200  0.973800  0.426200  1
  C  C1185  1  0.246400  0.549000  0.391300  1
  C  C1186  1  0.246400  0.951000  0.108700  1
  C  C1187  1  0.253600  0.451000  0.891300  1
  C  C1188  1  0.253600  0.049000  0.608700  1
  C  C1189  1  0.753600  0.451000  0.608700  1
  C  C1190  1  0.753600  0.049000  0.891300  1
  C  C1191  1  0.746400  0.549000  0.108700  1
  C  C1192  1  0.746400  0.951000  0.391300  1
  C  C1193  1  0.249400  0.526100  0.356900  1
  C  C1194  1  0.249400  0.973900  0.143100  1
  C  C1195  1  0.250600  0.473900  0.856900  1
  C  C1196  1  0.250600  0.026100  0.643100  1
  C  C1197  1  0.750600  0.473900  0.643100  1
  C  C1198  1  0.750600  0.026100  0.856900  1
  C  C1199  1  0.749400  0.526100  0.143100  1
  C  C1200  1  0.749400  0.973900  0.356900  1
  C  C1201  1  0.250100  0.481900  0.358100  1
  C  C1202  1  0.250100  0.018100  0.141900  1
  C  C1203  1  0.249900  0.518100  0.858100  1
  C  C1204  1  0.249900  0.981900  0.641900  1
  C  C1205  1  0.749900  0.518100  0.641900  1
  C  C1206  1  0.749900  0.981900  0.858100  1
  C  C1207  1  0.750100  0.481900  0.141900  1
  C  C1208  1  0.750100  0.018100  0.358100  1
  C  C1209  1  0.251700  0.459400  0.392700  1
  C  C1210  1  0.251700  0.040600  0.107300  1
  C  C1211  1  0.248300  0.540600  0.892700  1
  C  C1212  1  0.248300  0.959400  0.607300  1
  C  C1213  1  0.748300  0.540600  0.607300  1
  C  C1214  1  0.748300  0.959400  0.892700  1
  C  C1215  1  0.751700  0.459400  0.107300  1
  C  C1216  1  0.751700  0.040600  0.392700  1
  C  C1217  1  0.303500  0.550700  0.303500  1
  C  C1218  1  0.303500  0.949300  0.196500  1
  C  C1219  1  0.196500  0.449300  0.803500  1
  C  C1220  1  0.196500  0.050700  0.696500  1
  C  C1221  1  0.696500  0.449300  0.696500  1
  C  C1222  1  0.696500  0.050700  0.803500  1
  C  C1223  1  0.803500  0.550700  0.196500  1
  C  C1224  1  0.803500  0.949300  0.303500  1
  C  C1225  1  0.307900  0.573000  0.266800  1
  C  C1226  1  0.307900  0.927000  0.233200  1
  C  C1227  1  0.192100  0.427000  0.766800  1
  C  C1228  1  0.192100  0.073000  0.733200  1
  C  C1229  1  0.692100  0.427000  0.733200  1
  C  C1230  1  0.692100  0.073000  0.766800  1
  C  C1231  1  0.807900  0.573000  0.233200  1
  C  C1232  1  0.807900  0.927000  0.266800  1
  C  C1233  1  0.360200  0.574800  0.242500  1
  C  C1234  1  0.360200  0.925200  0.257500  1
  C  C1235  1  0.139800  0.425200  0.742500  1
  C  C1236  1  0.139800  0.074800  0.757500  1
  C  C1237  1  0.639800  0.425200  0.757500  1
  C  C1238  1  0.639800  0.074800  0.742500  1
  C  C1239  1  0.860200  0.574800  0.257500  1
  C  C1240  1  0.860200  0.925200  0.242500  1
  C  C1241  1  0.357600  0.595900  0.208900  1
  C  C1242  1  0.357600  0.904100  0.291100  1
  C  C1243  1  0.142400  0.404100  0.708900  1
  C  C1244  1  0.142400  0.095900  0.791100  1
  C  C1245  1  0.642400  0.404100  0.791100  1
  C  C1246  1  0.642400  0.095900  0.708900  1
  C  C1247  1  0.857600  0.595900  0.291100  1
  C  C1248  1  0.857600  0.904100  0.208900  1
  C  C1249  1  0.300200  0.614900  0.197900  1
  C  C1250  1  0.300200  0.885100  0.302100  1
  C  C1251  1  0.199800  0.385100  0.697900  1
  C  C1252  1  0.199800  0.114900  0.802100  1
  C  C1253  1  0.699800  0.385100  0.802100  1
  C  C1254  1  0.699800  0.114900  0.697900  1
  C  C1255  1  0.800200  0.614900  0.302100  1
  C  C1256  1  0.800200  0.885100  0.197900  1
  C  C1257  1  0.246700  0.611500  0.222000  1
  C  C1258  1  0.246700  0.888500  0.278000  1
  C  C1259  1  0.253300  0.388500  0.722000  1
  C  C1260  1  0.253300  0.111500  0.778000  1
  C  C1261  1  0.753300  0.388500  0.778000  1
  C  C1262  1  0.753300  0.111500  0.722000  1
  C  C1263  1  0.746700  0.611500  0.278000  1
  C  C1264  1  0.746700  0.888500  0.222000  1
  C  C1265  1  0.290000  0.468900  0.492770  1
  C  C1266  1  0.290000  0.031100  0.007230  1
  C  C1267  1  0.210000  0.531100  0.992770  1
  C  C1268  1  0.210000  0.968900  0.507230  1
  C  C1269  1  0.710000  0.531100  0.507230  1
  C  C1270  1  0.710000  0.968900  0.992770  1
  C  C1271  1  0.790000  0.468900  0.007230  1
  C  C1272  1  0.790000  0.031100  0.492770  1
  C  C1273  1  0.277200  0.457600  0.530830  1
  C  C1274  1  0.277200  0.042400  0.969170  1
  C  C1275  1  0.222800  0.542400  0.030830  1
  C  C1276  1  0.222800  0.957600  0.469170  1
  C  C1277  1  0.722800  0.542400  0.469170  1
  C  C1278  1  0.722800  0.957600  0.030830  1
  C  C1279  1  0.777200  0.457600  0.969170  1
  C  C1280  1  0.777200  0.042400  0.530830  1
  C  C1281  1  0.319500  0.468900  0.559840  1
  C  C1282  1  0.319500  0.031100  0.940160  1
  C  C1283  1  0.180500  0.531100  0.059840  1
  C  C1284  1  0.180500  0.968900  0.440160  1
  C  C1285  1  0.680500  0.531100  0.440160  1
  C  C1286  1  0.680500  0.968900  0.059840  1
  C  C1287  1  0.819500  0.468900  0.940160  1
  C  C1288  1  0.819500  0.031100  0.559840  1
  C  C1289  1  0.374700  0.491500  0.550800  1
  C  C1290  1  0.374700  0.008500  0.949200  1
  C  C1291  1  0.125300  0.508500  0.050800  1
  C  C1292  1  0.125300  0.991500  0.449200  1
  C  C1293  1  0.625300  0.508500  0.449200  1
  C  C1294  1  0.625300  0.991500  0.050800  1
  C  C1295  1  0.874700  0.491500  0.949200  1
  C  C1296  1  0.874700  0.008500  0.550800  1
  C  C1297  1  0.387500  0.502700  0.512700  1
  C  C1298  1  0.387500  0.997300  0.987300  1
  C  C1299  1  0.112500  0.497300  0.012700  1
  C  C1300  1  0.112500  0.002700  0.487300  1
  C  C1301  1  0.612500  0.497300  0.487300  1
  C  C1302  1  0.612500  0.002700  0.012700  1
  C  C1303  1  0.887500  0.502700  0.987300  1
  C  C1304  1  0.887500  0.997300  0.512700  1
  C  C1305  1  0.345200  0.491400  0.483730  1
  C  C1306  1  0.345200  0.008600  0.016270  1
  C  C1307  1  0.154800  0.508600  0.983730  1
  C  C1308  1  0.154800  0.991400  0.516270  1
  C  C1309  1  0.654800  0.508600  0.516270  1
  C  C1310  1  0.654800  0.991400  0.983730  1
  C  C1311  1  0.845200  0.491400  0.016270  1
  C  C1312  1  0.845200  0.008600  0.483730  1
  C  C1313  1  0.458000  0.419700  0.266000  1
  C  C1314  1  0.458000  0.080300  0.234000  1
  C  C1315  1  0.042000  0.580300  0.766000  1
  C  C1316  1  0.042000  0.919700  0.734000  1
  C  C1317  1  0.542000  0.580300  0.734000  1
  C  C1318  1  0.542000  0.919700  0.766000  1
  C  C1319  1  0.958000  0.419700  0.234000  1
  C  C1320  1  0.958000  0.080300  0.266000  1
  C  C1321  1  0.081100  0.554900  0.496300  1
  C  C1322  1  0.081100  0.945100  0.003700  1
  C  C1323  1  0.418900  0.445100  0.996300  1
  C  C1324  1  0.418900  0.054900  0.503700  1
  C  C1325  1  0.918900  0.445100  0.503700  1
  C  C1326  1  0.918900  0.054900  0.996300  1
  C  C1327  1  0.581100  0.554900  0.003700  1
  C  C1328  1  0.581100  0.945100  0.496300  1
  C  C1329  1  0.324800  0.329600  0.630200  1
  C  C1330  1  0.324800  0.170400  0.869800  1
  C  C1331  1  0.175200  0.670400  0.130200  1
  C  C1332  1  0.175200  0.829600  0.369800  1
  C  C1333  1  0.675200  0.670400  0.369800  1
  C  C1334  1  0.675200  0.829600  0.130200  1
  C  C1335  1  0.824800  0.329600  0.869800  1
  C  C1336  1  0.824800  0.170400  0.630200  1
  C  C1337  1  0.066300  0.403100  0.594000  1
  C  C1338  1  0.066300  0.096900  0.906000  1
  C  C1339  1  0.433700  0.596900  0.094000  1
  C  C1340  1  0.433700  0.903100  0.406000  1
  C  C1341  1  0.933700  0.596900  0.406000  1
  C  C1342  1  0.933700  0.903100  0.094000  1
  C  C1343  1  0.566300  0.403100  0.906000  1
  C  C1344  1  0.566300  0.096900  0.594000  1
  C  C1345  1  0.092100  0.421400  0.558400  1
  C  C1346  1  0.092100  0.078600  0.941600  1
  C  C1347  1  0.407900  0.578600  0.058400  1
  C  C1348  1  0.407900  0.921400  0.441600  1
  C  C1349  1  0.907900  0.578600  0.441600  1
  C  C1350  1  0.907900  0.921400  0.058400  1
  C  C1351  1  0.592100  0.421400  0.941600  1
  C  C1352  1  0.592100  0.078600  0.558400  1
  C  C1353  1  0.247000  0.585000  0.553700  1
  C  C1354  1  0.247000  0.915000  0.946300  1
  C  C1355  1  0.253000  0.415000  0.053700  1
  C  C1356  1  0.253000  0.085000  0.446300  1
  C  C1357  1  0.753000  0.415000  0.446300  1
  C  C1358  1  0.753000  0.085000  0.053700  1
  C  C1359  1  0.747000  0.585000  0.946300  1
  C  C1360  1  0.747000  0.915000  0.553700  1
  C  C1361  1  0.250500  0.623300  0.572900  1
  C  C1362  1  0.250500  0.876700  0.927100  1
  C  C1363  1  0.249500  0.376700  0.072900  1
  C  C1364  1  0.249500  0.123300  0.427100  1
  C  C1365  1  0.749500  0.376700  0.427100  1
  C  C1366  1  0.749500  0.123300  0.072900  1
  C  C1367  1  0.750500  0.623300  0.927100  1
  C  C1368  1  0.750500  0.876700  0.572900  1
  C  C1369  1  0.337800  0.331000  0.623300  1
  C  C1370  1  0.337800  0.169000  0.876700  1
  C  C1371  1  0.162200  0.669000  0.123300  1
  C  C1372  1  0.162200  0.831000  0.376700  1
  C  C1373  1  0.662200  0.669000  0.376700  1
  C  C1374  1  0.662200  0.831000  0.123300  1
  C  C1375  1  0.837800  0.331000  0.876700  1
  C  C1376  1  0.837800  0.169000  0.623300  1
  C  C1377  1  0.044900  0.275800  0.242220  0.5
  S  S1378  1  0.044900  0.275800  0.242220  0.5
  C  C1379  1  0.044900  0.224200  0.257780  0.5
  S  S1380  1  0.044900  0.224200  0.257780  0.5
  C  C1381  1  0.455100  0.724200  0.742220  0.5
  S  S1382  1  0.455100  0.724200  0.742220  0.5
  C  C1383  1  0.455100  0.775800  0.757780  0.5
  S  S1384  1  0.455100  0.775800  0.757780  0.5
  C  C1385  1  0.955100  0.724200  0.757780  0.5
  S  S1386  1  0.955100  0.724200  0.757780  0.5
  C  C1387  1  0.955100  0.775800  0.742220  0.5
  S  S1388  1  0.955100  0.775800  0.742220  0.5
  C  C1389  1  0.544900  0.275800  0.257780  0.5
  S  S1390  1  0.544900  0.275800  0.257780  0.5
  C  C1391  1  0.544900  0.224200  0.242220  0.5
  S  S1392  1  0.544900  0.224200  0.242220  0.5
  S  S1393  1  0.458940  0.471940  0.297710  1
  S  S1394  1  0.458940  0.028060  0.202290  1
  S  S1395  1  0.041060  0.528060  0.797710  1
  S  S1396  1  0.041060  0.971940  0.702290  1
  S  S1397  1  0.541060  0.528060  0.702290  1
  S  S1398  1  0.541060  0.971940  0.797710  1
  S  S1399  1  0.958940  0.471940  0.202290  1
  S  S1400  1  0.958940  0.028060  0.297710  1
  S  S1401  1  0.106860  0.609840  0.476950  1
  S  S1402  1  0.106860  0.890160  0.023050  1
  S  S1403  1  0.393140  0.390160  0.976950  1
  S  S1404  1  0.393140  0.109840  0.523050  1
  S  S1405  1  0.893140  0.390160  0.523050  1
  S  S1406  1  0.893140  0.109840  0.976950  1
  S  S1407  1  0.606860  0.609840  0.023050  1
  S  S1408  1  0.606860  0.890160  0.476950  1
  S  S1409  1  0.277600  0.338800  0.583000  1
  S  S1410  1  0.277600  0.161200  0.917000  1
  S  S1411  1  0.222400  0.661200  0.083000  1
  S  S1412  1  0.222400  0.838800  0.417000  1
  S  S1413  1  0.722400  0.661200  0.417000  1
  S  S1414  1  0.722400  0.838800  0.083000  1
  S  S1415  1  0.777600  0.338800  0.917000  1
  S  S1416  1  0.777600  0.161200  0.583000  1
  S  S1417  1  0.250400  0.333000  0.592100  1
  S  S1418  1  0.250400  0.167000  0.907900  1
  S  S1419  1  0.249600  0.667000  0.092100  1
  S  S1420  1  0.249600  0.833000  0.407900  1
  S  S1421  1  0.749600  0.667000  0.407900  1
  S  S1422  1  0.749600  0.833000  0.092100  1
  S  S1423  1  0.750400  0.333000  0.907900  1
  S  S1424  1  0.750400  0.167000  0.592100  1
  N  N1425  1  0.079600  0.199300  0.413800  1
  N  N1426  1  0.079600  0.300700  0.086200  1
  N  N1427  1  0.420400  0.800700  0.913800  1
  N  N1428  1  0.420400  0.699300  0.586200  1
  N  N1429  1  0.920400  0.800700  0.586200  1
  N  N1430  1  0.920400  0.699300  0.913800  1
  N  N1431  1  0.579600  0.199300  0.086200  1
  N  N1432  1  0.579600  0.300700  0.413800  1
  N  N1433  1  0.036200  0.275200  0.397140  1
  N  N1434  1  0.036200  0.224800  0.102860  1
  N  N1435  1  0.463800  0.724800  0.897140  1
  N  N1436  1  0.463800  0.775200  0.602860  1
  N  N1437  1  0.963800  0.724800  0.602860  1
  N  N1438  1  0.963800  0.775200  0.897140  1
  N  N1439  1  0.536200  0.275200  0.102860  1
  N  N1440  1  0.536200  0.224800  0.397140  1
  N  N1441  1  0.120700  0.577600  0.337200  1
  N  N1442  1  0.120700  0.922400  0.162800  1
  N  N1443  1  0.379300  0.422400  0.837200  1
  N  N1444  1  0.379300  0.077600  0.662800  1
  N  N1445  1  0.879300  0.422400  0.662800  1
  N  N1446  1  0.879300  0.077600  0.837200  1
  N  N1447  1  0.620700  0.577600  0.162800  1
  N  N1448  1  0.620700  0.922400  0.337200  1
  N  N1449  1  0.206200  0.636500  0.325300  1
  N  N1450  1  0.206200  0.863500  0.174700  1
  N  N1451  1  0.293800  0.363500  0.825300  1
  N  N1452  1  0.293800  0.136500  0.674700  1
  N  N1453  1  0.793800  0.363500  0.674700  1
  N  N1454  1  0.793800  0.136500  0.825300  1
  N  N1455  1  0.706200  0.636500  0.174700  1
  N  N1456  1  0.706200  0.863500  0.325300  1
  N  N1457  1  0.940500  0.445500  0.364500  1
  N  N1458  1  0.940500  0.054500  0.135500  1
  N  N1459  1  0.559500  0.554500  0.864500  1
  N  N1460  1  0.559500  0.945500  0.635500  1
  N  N1461  1  0.059500  0.554500  0.635500  1
  N  N1462  1  0.059500  0.945500  0.864500  1
  N  N1463  1  0.440500  0.445500  0.135500  1
  N  N1464  1  0.440500  0.054500  0.364500  1
  N  N1465  1  0.681400  0.480500  0.342900  1
  N  N1466  1  0.681400  0.019500  0.157100  1
  N  N1467  1  0.818600  0.519500  0.842900  1
  N  N1468  1  0.818600  0.980500  0.657100  1
  N  N1469  1  0.318600  0.519500  0.657100  1
  N  N1470  1  0.318600  0.980500  0.842900  1
  N  N1471  1  0.181400  0.480500  0.157100  1
  N  N1472  1  0.181400  0.019500  0.342900  1
  N  N1473  1  0.656100  0.451500  0.326400  1
  N  N1474  1  0.656100  0.048500  0.173600  1
  N  N1475  1  0.843900  0.548500  0.826400  1
  N  N1476  1  0.843900  0.951500  0.673600  1
  N  N1477  1  0.343900  0.548500  0.673600  1
  N  N1478  1  0.343900  0.951500  0.826400  1
  N  N1479  1  0.156100  0.451500  0.173600  1
  N  N1480  1  0.156100  0.048500  0.326400  1
  N  N1481  1  0.629300  0.422900  0.312400  1
  N  N1482  1  0.629300  0.077100  0.187600  1
  N  N1483  1  0.870700  0.577100  0.812400  1
  N  N1484  1  0.870700  0.922900  0.687600  1
  N  N1485  1  0.370700  0.577100  0.687600  1
  N  N1486  1  0.370700  0.922900  0.812400  1
  N  N1487  1  0.129300  0.422900  0.187600  1
  N  N1488  1  0.129300  0.077100  0.312400  1
  N  N1489  1  0.141100  0.228600  0.482200  1
  N  N1490  1  0.141100  0.271400  0.017800  1
  N  N1491  1  0.358900  0.771400  0.982200  1
  N  N1492  1  0.358900  0.728600  0.517800  1
  N  N1493  1  0.858900  0.771400  0.517800  1
  N  N1494  1  0.858900  0.728600  0.982200  1
  N  N1495  1  0.641100  0.228600  0.017800  1
  N  N1496  1  0.641100  0.271400  0.482200  1
  N  N1497  1  0.168900  0.267200  0.417200  1
  N  N1498  1  0.168900  0.232800  0.082800  1
  N  N1499  1  0.331100  0.732800  0.917200  1
  N  N1500  1  0.331100  0.767200  0.582800  1
  N  N1501  1  0.831100  0.732800  0.582800  1
  N  N1502  1  0.831100  0.767200  0.917200  1
  N  N1503  1  0.668900  0.267200  0.082800  1
  N  N1504  1  0.668900  0.232800  0.417200  1
  N  N1505  1  0.152100  0.532100  0.264200  1
  N  N1506  1  0.152100  0.967900  0.235800  1
  N  N1507  1  0.347900  0.467900  0.764200  1
  N  N1508  1  0.347900  0.032100  0.735800  1
  N  N1509  1  0.847900  0.467900  0.735800  1
  N  N1510  1  0.847900  0.032100  0.764200  1
  N  N1511  1  0.652100  0.532100  0.235800  1
  N  N1512  1  0.652100  0.967900  0.264200  1
  N  N1513  1  0.119600  0.614100  0.263500  1
  N  N1514  1  0.119600  0.885900  0.236500  1
  N  N1515  1  0.380400  0.385900  0.763500  1
  N  N1516  1  0.380400  0.114100  0.736500  1
  N  N1517  1  0.880400  0.385900  0.736500  1
  N  N1518  1  0.880400  0.114100  0.763500  1
  N  N1519  1  0.619600  0.614100  0.236500  1
  N  N1520  1  0.619600  0.885900  0.263500  1
  N  N1521  1  0.226200  0.354200  0.278100  1
  N  N1522  1  0.226200  0.145800  0.221900  1
  N  N1523  1  0.273800  0.645800  0.778100  1
  N  N1524  1  0.273800  0.854200  0.721900  1
  N  N1525  1  0.773800  0.645800  0.721900  1
  N  N1526  1  0.773800  0.854200  0.778100  1
  N  N1527  1  0.726200  0.354200  0.221900  1
  N  N1528  1  0.726200  0.145800  0.278100  1
  N  N1529  1  0.385200  0.280200  0.166600  1
  N  N1530  1  0.385200  0.219800  0.333400  1
  N  N1531  1  0.114800  0.719800  0.666600  1
  N  N1532  1  0.114800  0.780200  0.833400  1
  N  N1533  1  0.614800  0.719800  0.833400  1
  N  N1534  1  0.614800  0.780200  0.666600  1
  N  N1535  1  0.885200  0.280200  0.333400  1
  N  N1536  1  0.885200  0.219800  0.166600  1
  N  N1537  1  0.355000  0.258800  0.104600  1
  N  N1538  1  0.355000  0.241200  0.395400  1
  N  N1539  1  0.145000  0.741200  0.604600  1
  N  N1540  1  0.145000  0.758800  0.895400  1
  N  N1541  1  0.645000  0.741200  0.895400  1
  N  N1542  1  0.645000  0.758800  0.604600  1
  N  N1543  1  0.855000  0.258800  0.395400  1
  N  N1544  1  0.855000  0.241200  0.104600  1
  N  N1545  1  0.360700  0.274600  0.134300  1
  N  N1546  1  0.360700  0.225400  0.365700  1
  N  N1547  1  0.139300  0.725400  0.634300  1
  N  N1548  1  0.139300  0.774600  0.865700  1
  N  N1549  1  0.639300  0.725400  0.865700  1
  N  N1550  1  0.639300  0.774600  0.634300  1
  N  N1551  1  0.860700  0.274600  0.365700  1
  N  N1552  1  0.860700  0.225400  0.134300  1
  N  N1553  1  0.007300  0.243400  0.471700  1
  N  N1554  1  0.007300  0.256600  0.028300  1
  N  N1555  1  0.492700  0.756600  0.971700  1
  N  N1556  1  0.492700  0.743400  0.528300  1
  N  N1557  1  0.992700  0.756600  0.528300  1
  N  N1558  1  0.992700  0.743400  0.971700  1
  N  N1559  1  0.507300  0.243400  0.028300  1
  N  N1560  1  0.507300  0.256600  0.471700  1
  N  N1561  1  0.081400  0.310500  0.472400  1
  N  N1562  1  0.081400  0.189500  0.027600  1
  N  N1563  1  0.418600  0.689500  0.972400  1
  N  N1564  1  0.418600  0.810500  0.527600  1
  N  N1565  1  0.918600  0.689500  0.527600  1
  N  N1566  1  0.918600  0.810500  0.972400  1
  N  N1567  1  0.581400  0.310500  0.027600  1
  N  N1568  1  0.581400  0.189500  0.472400  1
  N  N1569  1  0.252200  0.550600  0.321500  1
  N  N1570  1  0.252200  0.949400  0.178500  1
  N  N1571  1  0.247800  0.449400  0.821500  1
  N  N1572  1  0.247800  0.050600  0.678500  1
  N  N1573  1  0.747800  0.449400  0.678500  1
  N  N1574  1  0.747800  0.050600  0.821500  1
  N  N1575  1  0.752200  0.550600  0.178500  1
  N  N1576  1  0.752200  0.949400  0.321500  1
  N  N1577  1  0.250900  0.591900  0.256500  1
  N  N1578  1  0.250900  0.908100  0.243500  1
  N  N1579  1  0.249100  0.408100  0.756500  1
  N  N1580  1  0.249100  0.091900  0.743500  1
  N  N1581  1  0.749100  0.408100  0.743500  1
  N  N1582  1  0.749100  0.091900  0.756500  1
  N  N1583  1  0.750900  0.591900  0.243500  1
  N  N1584  1  0.750900  0.908100  0.256500  1
  N  N1585  1  0.245900  0.456800  0.462300  1
  N  N1586  1  0.245900  0.043200  0.037700  1
  N  N1587  1  0.254100  0.543200  0.962300  1
  N  N1588  1  0.254100  0.956800  0.537700  1
  N  N1589  1  0.754100  0.543200  0.537700  1
  N  N1590  1  0.754100  0.956800  0.962300  1
  N  N1591  1  0.745900  0.456800  0.037700  1
  N  N1592  1  0.745900  0.043200  0.462300  1
  N  N1593  1  0.419200  0.504100  0.581500  1
  N  N1594  1  0.419200  0.995900  0.918500  1
  N  N1595  1  0.080800  0.495900  0.081500  1
  N  N1596  1  0.080800  0.004100  0.418500  1
  N  N1597  1  0.580800  0.495900  0.418500  1
  N  N1598  1  0.580800  0.004100  0.081500  1
  N  N1599  1  0.919200  0.504100  0.918500  1
  N  N1600  1  0.919200  0.995900  0.581500  1
  N  N1601  1  0.424000  0.480800  0.611800  1
  N  N1602  1  0.424000  0.019200  0.888200  1
  N  N1603  1  0.076000  0.519200  0.111800  1
  N  N1604  1  0.076000  0.980800  0.388200  1
  N  N1605  1  0.576000  0.519200  0.388200  1
  N  N1606  1  0.576000  0.980800  0.111800  1
  N  N1607  1  0.924000  0.480800  0.888200  1
  N  N1608  1  0.924000  0.019200  0.611800  1
  N  N1609  1  0.425200  0.460300  0.639600  1
  N  N1610  1  0.425200  0.039700  0.860400  1
  N  N1611  1  0.074800  0.539700  0.139600  1
  N  N1612  1  0.074800  0.960300  0.360400  1
  N  N1613  1  0.574800  0.539700  0.360400  1
  N  N1614  1  0.574800  0.960300  0.139600  1
  N  N1615  1  0.925200  0.460300  0.860400  1
  N  N1616  1  0.925200  0.039700  0.639600  1
  N  N1617  1  0.046500  0.385600  0.625100  1
  N  N1618  1  0.046500  0.114400  0.874900  1
  N  N1619  1  0.453500  0.614400  0.125100  1
  N  N1620  1  0.453500  0.885600  0.374900  1
  N  N1621  1  0.953500  0.614400  0.374900  1
  N  N1622  1  0.953500  0.885600  0.125100  1
  N  N1623  1  0.546500  0.385600  0.874900  1
  N  N1624  1  0.546500  0.114400  0.625100  1
  N  N1625  1  0.254700  0.655300  0.592700  1
  N  N1626  1  0.254700  0.844700  0.907300  1
  N  N1627  1  0.245300  0.344700  0.092700  1
  N  N1628  1  0.245300  0.155300  0.407300  1
  N  N1629  1  0.745300  0.344700  0.407300  1
  N  N1630  1  0.745300  0.155300  0.092700  1
  N  N1631  1  0.754700  0.655300  0.907300  1
  N  N1632  1  0.754700  0.844700  0.592700  1
  N  N1633  1  0.652900  0.515600  0.348700  1
  N  N1634  1  0.652900  0.984400  0.151300  1
  N  N1635  1  0.847100  0.484400  0.848700  1
  N  N1636  1  0.847100  0.015600  0.651300  1
  N  N1637  1  0.347100  0.484400  0.651300  1
  N  N1638  1  0.347100  0.015600  0.848700  1
  N  N1639  1  0.152900  0.515600  0.151300  1
  N  N1640  1  0.152900  0.984400  0.348700  1
  N  N1641  1  0.629800  0.549000  0.349100  1
  N  N1642  1  0.629800  0.951000  0.150900  1
  N  N1643  1  0.870200  0.451000  0.849100  1
  N  N1644  1  0.870200  0.049000  0.650900  1
  N  N1645  1  0.370200  0.451000  0.650900  1
  N  N1646  1  0.370200  0.049000  0.849100  1
  N  N1647  1  0.129800  0.549000  0.150900  1
  N  N1648  1  0.129800  0.951000  0.349100  1
  N  N1649  1  0.366700  0.249600  0.145800  1
  N  N1650  1  0.366700  0.250400  0.354200  1
  N  N1651  1  0.133300  0.750400  0.645800  1
  N  N1652  1  0.133300  0.749600  0.854200  1
  N  N1653  1  0.633300  0.750400  0.854200  1
  N  N1654  1  0.633300  0.749600  0.645800  1
  N  N1655  1  0.866700  0.249600  0.354200  1
  N  N1656  1  0.866700  0.250400  0.145800  1
  N  N1657  1  0.368000  0.217400  0.128900  1
  N  N1658  1  0.368000  0.282600  0.371100  1
  N  N1659  1  0.132000  0.782600  0.628900  1
  N  N1660  1  0.132000  0.717400  0.871100  1
  N  N1661  1  0.632000  0.782600  0.871100  1
  N  N1662  1  0.632000  0.717400  0.628900  1
  N  N1663  1  0.868000  0.217400  0.371100  1
  N  N1664  1  0.868000  0.282600  0.128900  1
  N  N1665  1  0.483100  0.463100  0.431600  1
  N  N1666  1  0.483100  0.036900  0.068400  1
  N  N1667  1  0.016900  0.536900  0.931600  1
  N  N1668  1  0.016900  0.963100  0.568400  1
  N  N1669  1  0.516900  0.536900  0.568400  1
  N  N1670  1  0.516900  0.963100  0.931600  1
  N  N1671  1  0.983100  0.463100  0.068400  1
  N  N1672  1  0.983100  0.036900  0.431600  1
  N  N1673  1  0.534500  0.474400  0.430500  1
  N  N1674  1  0.534500  0.025600  0.069500  1
  N  N1675  1  0.965500  0.525600  0.930500  1
  N  N1676  1  0.965500  0.974400  0.569500  1
  N  N1677  1  0.465500  0.525600  0.569500  1
  N  N1678  1  0.465500  0.974400  0.930500  1
  N  N1679  1  0.034500  0.474400  0.069500  1
  N  N1680  1  0.034500  0.025600  0.430500  1
  O  O1681  1  0.471200  0.506100  0.270000  1
  O  O1682  1  0.471200  0.993900  0.230000  1
  O  O1683  1  0.028800  0.493900  0.770000  1
  O  O1684  1  0.028800  0.006100  0.730000  1
  O  O1685  1  0.528800  0.493900  0.730000  1
  O  O1686  1  0.528800  0.006100  0.770000  1
  O  O1687  1  0.971200  0.506100  0.230000  1
  O  O1688  1  0.971200  0.993900  0.270000  1
  O  O1689  1  0.398300  0.473500  0.314200  1
  O  O1690  1  0.398300  0.026500  0.185800  1
  O  O1691  1  0.101700  0.526500  0.814200  1
  O  O1692  1  0.101700  0.973500  0.685800  1
  O  O1693  1  0.601700  0.526500  0.685800  1
  O  O1694  1  0.601700  0.973500  0.814200  1
  O  O1695  1  0.898300  0.473500  0.185800  1
  O  O1696  1  0.898300  0.026500  0.314200  1
  O  O1697  1  0.510800  0.464900  0.323100  1
  O  O1698  1  0.510800  0.035100  0.176900  1
  O  O1699  1  0.989200  0.535100  0.823100  1
  O  O1700  1  0.989200  0.964900  0.676900  1
  O  O1701  1  0.489200  0.535100  0.676900  1
  O  O1702  1  0.489200  0.964900  0.823100  1
  O  O1703  1  0.010800  0.464900  0.176900  1
  O  O1704  1  0.010800  0.035100  0.323100  1
  O  O1705  1  0.055600  0.623500  0.452200  1
  O  O1706  1  0.055600  0.876500  0.047800  1
  O  O1707  1  0.444400  0.376500  0.952200  1
  O  O1708  1  0.444400  0.123500  0.547800  1
  O  O1709  1  0.944400  0.376500  0.547800  1
  O  O1710  1  0.944400  0.123500  0.952200  1
  O  O1711  1  0.555600  0.623500  0.047800  1
  O  O1712  1  0.555600  0.876500  0.452200  1
  O  O1713  1  0.112400  0.636800  0.511470  1
  O  O1714  1  0.112400  0.863200  0.988530  1
  O  O1715  1  0.387600  0.363200  0.011470  1
  O  O1716  1  0.387600  0.136800  0.488530  1
  O  O1717  1  0.887600  0.363200  0.488530  1
  O  O1718  1  0.887600  0.136800  0.011470  1
  O  O1719  1  0.612400  0.636800  0.988530  1
  O  O1720  1  0.612400  0.863200  0.511470  1
  O  O1721  1  0.163700  0.602700  0.456600  1
  O  O1722  1  0.163700  0.897300  0.043400  1
  O  O1723  1  0.336300  0.397300  0.956600  1
  O  O1724  1  0.336300  0.102700  0.543400  1
  O  O1725  1  0.836300  0.397300  0.543400  1
  O  O1726  1  0.836300  0.102700  0.956600  1
  O  O1727  1  0.663700  0.602700  0.043400  1
  O  O1728  1  0.663700  0.897300  0.456600  1
  O  O1729  1  0.228400  0.370700  0.590700  1
  O  O1730  1  0.228400  0.129300  0.909300  1
  O  O1731  1  0.271600  0.629300  0.090700  1
  O  O1732  1  0.271600  0.870700  0.409300  1
  O  O1733  1  0.771600  0.629300  0.409300  1
  O  O1734  1  0.771600  0.870700  0.090700  1
  O  O1735  1  0.728400  0.370700  0.909300  1
  O  O1736  1  0.728400  0.129300  0.590700  1
  O  O1737  1  0.258400  0.296300  0.568400  1
  O  O1738  1  0.258400  0.203700  0.931600  1
  O  O1739  1  0.241600  0.703700  0.068400  1
  O  O1740  1  0.241600  0.796300  0.431600  1
  O  O1741  1  0.741600  0.703700  0.431600  1
  O  O1742  1  0.741600  0.796300  0.068400  1
  O  O1743  1  0.758400  0.296300  0.931600  1
  O  O1744  1  0.758400  0.203700  0.568400  1
  O  O1745  1  0.322900  0.353600  0.555300  1
  O  O1746  1  0.322900  0.146400  0.944700  1
  O  O1747  1  0.177100  0.646400  0.055300  1
  O  O1748  1  0.177100  0.853600  0.444700  1
  O  O1749  1  0.677100  0.646400  0.444700  1
  O  O1750  1  0.677100  0.853600  0.055300  1
  O  O1751  1  0.822900  0.353600  0.944700  1
  O  O1752  1  0.822900  0.146400  0.555300  1
  O  O1753  1  0.275500  0.311700  0.559500  1
  O  O1754  1  0.275500  0.188300  0.940500  1
  O  O1755  1  0.224500  0.688300  0.059500  1
  O  O1756  1  0.224500  0.811700  0.440500  1
  O  O1757  1  0.724500  0.688300  0.440500  1
  O  O1758  1  0.724500  0.811700  0.059500  1
  O  O1759  1  0.775500  0.311700  0.940500  1
  O  O1760  1  0.775500  0.188300  0.559500  1
  O  O1761  1  0.219200  0.309000  0.623100  1
  O  O1762  1  0.219200  0.191000  0.876900  1
  O  O1763  1  0.280800  0.691000  0.123100  1
  O  O1764  1  0.280800  0.809000  0.376900  1
  O  O1765  1  0.780800  0.691000  0.376900  1
  O  O1766  1  0.780800  0.809000  0.123100  1
  O  O1767  1  0.719200  0.309000  0.876900  1
  O  O1768  1  0.719200  0.191000  0.623100  1
  O  O1769  1  0.246800  0.380700  0.595800  1
  O  O1770  1  0.246800  0.119300  0.904200  1
  O  O1771  1  0.253200  0.619300  0.095800  1
  O  O1772  1  0.253200  0.880700  0.404200  1
  O  O1773  1  0.753200  0.619300  0.404200  1
  O  O1774  1  0.753200  0.880700  0.095800  1
  O  O1775  1  0.746800  0.380700  0.904200  1
  O  O1776  1  0.746800  0.119300  0.595800  1
  O  O1777  1  0.099600  0.211800  0.278300  0.5
  F  F1778  1  0.099600  0.211800  0.278300  0.5
  O  O1779  1  0.099600  0.288200  0.221700  0.5
  F  F1780  1  0.099600  0.288200  0.221700  0.5
  O  O1781  1  0.400400  0.788200  0.778300  0.5
  F  F1782  1  0.400400  0.788200  0.778300  0.5
  O  O1783  1  0.400400  0.711800  0.721700  0.5
  F  F1784  1  0.400400  0.711800  0.721700  0.5
  O  O1785  1  0.900400  0.788200  0.721700  0.5
  F  F1786  1  0.900400  0.788200  0.721700  0.5
  O  O1787  1  0.900400  0.711800  0.778300  0.5
  F  F1788  1  0.900400  0.711800  0.778300  0.5
  O  O1789  1  0.599600  0.211800  0.221700  0.5
  F  F1790  1  0.599600  0.211800  0.221700  0.5
  O  O1791  1  0.599600  0.288200  0.278300  0.5
  F  F1792  1  0.599600  0.288200  0.278300  0.5
  O  O1793  1  0.045400  0.195800  0.223900  0.5
  F  F1794  1  0.045400  0.195800  0.223900  0.5
  O  O1795  1  0.045400  0.304200  0.276100  0.5
  F  F1796  1  0.045400  0.304200  0.276100  0.5
  O  O1797  1  0.454600  0.804200  0.723900  0.5
  F  F1798  1  0.454600  0.804200  0.723900  0.5
  O  O1799  1  0.454600  0.695800  0.776100  0.5
  F  F1800  1  0.454600  0.695800  0.776100  0.5
  O  O1801  1  0.954600  0.804200  0.776100  0.5
  F  F1802  1  0.954600  0.804200  0.776100  0.5
  O  O1803  1  0.954600  0.695800  0.723900  0.5
  F  F1804  1  0.954600  0.695800  0.723900  0.5
  O  O1805  1  0.545400  0.195800  0.276100  0.5
  F  F1806  1  0.545400  0.195800  0.276100  0.5
  O  O1807  1  0.545400  0.304200  0.223900  0.5
  F  F1808  1  0.545400  0.304200  0.223900  0.5
  O  O1809  1  0.990300  0.216100  0.279300  0.5
  F  F1810  1  0.990300  0.216100  0.279300  0.5
  O  O1811  1  0.990300  0.283900  0.220700  0.5
  F  F1812  1  0.990300  0.283900  0.220700  0.5
  O  O1813  1  0.509700  0.783900  0.779300  0.5
  F  F1814  1  0.509700  0.783900  0.779300  0.5
  O  O1815  1  0.509700  0.716100  0.720700  0.5
  F  F1816  1  0.509700  0.716100  0.720700  0.5
  O  O1817  1  0.009700  0.783900  0.720700  0.5
  F  F1818  1  0.009700  0.783900  0.720700  0.5
  O  O1819  1  0.009700  0.716100  0.779300  0.5
  F  F1820  1  0.009700  0.716100  0.779300  0.5
  O  O1821  1  0.490300  0.216100  0.220700  0.5
  F  F1822  1  0.490300  0.216100  0.220700  0.5
  O  O1823  1  0.490300  0.283900  0.279300  0.5
  F  F1824  1  0.490300  0.283900  0.279300  0.5
  F  F1825  1  0.513000  0.414000  0.251100  1
  F  F1826  1  0.513000  0.086000  0.248900  1
  F  F1827  1  0.987000  0.586000  0.751100  1
  F  F1828  1  0.987000  0.914000  0.748900  1
  F  F1829  1  0.487000  0.586000  0.748900  1
  F  F1830  1  0.487000  0.914000  0.751100  1
  F  F1831  1  0.013000  0.414000  0.248900  1
  F  F1832  1  0.013000  0.086000  0.251100  1
  F  F1833  1  0.444900  0.387300  0.289100  1
  F  F1834  1  0.444900  0.112700  0.210900  1
  F  F1835  1  0.055100  0.612700  0.789100  1
  F  F1836  1  0.055100  0.887300  0.710900  1
  F  F1837  1  0.555100  0.612700  0.710900  1
  F  F1838  1  0.555100  0.887300  0.789100  1
  F  F1839  1  0.944900  0.387300  0.210900  1
  F  F1840  1  0.944900  0.112700  0.289100  1
  F  F1841  1  0.417200  0.423900  0.238300  1
  F  F1842  1  0.417200  0.076100  0.261700  1
  F  F1843  1  0.082800  0.576100  0.738300  1
  F  F1844  1  0.082800  0.923900  0.761700  1
  F  F1845  1  0.582800  0.576100  0.761700  1
  F  F1846  1  0.582800  0.923900  0.738300  1
  F  F1847  1  0.917200  0.423900  0.261700  1
  F  F1848  1  0.917200  0.076100  0.238300  1
  F  F1849  1  0.027800  0.560100  0.515000  1
  F  F1850  1  0.027800  0.939900  0.985000  1
  F  F1851  1  0.472200  0.439900  0.015000  1
  F  F1852  1  0.472200  0.060100  0.485000  1
  F  F1853  1  0.972200  0.439900  0.485000  1
  F  F1854  1  0.972200  0.060100  0.015000  1
  F  F1855  1  0.527800  0.560100  0.985000  1
  F  F1856  1  0.527800  0.939900  0.515000  1
  F  F1857  1  0.073500  0.528300  0.466500  1
  F  F1858  1  0.073500  0.971700  0.033500  1
  F  F1859  1  0.426500  0.471700  0.966500  1
  F  F1860  1  0.426500  0.028300  0.533500  1
  F  F1861  1  0.926500  0.471700  0.533500  1
  F  F1862  1  0.926500  0.028300  0.966500  1
  F  F1863  1  0.573500  0.528300  0.033500  1
  F  F1864  1  0.573500  0.971700  0.466500  1
  F  F1865  1  0.123800  0.539300  0.520200  1
  F  F1866  1  0.123800  0.960700  0.979800  1
  F  F1867  1  0.376200  0.460700  0.020200  1
  F  F1868  1  0.376200  0.039300  0.479800  1
  F  F1869  1  0.876200  0.460700  0.479800  1
  F  F1870  1  0.876200  0.039300  0.020200  1
  F  F1871  1  0.623800  0.539300  0.979800  1
  F  F1872  1  0.623800  0.960700  0.520200  1
  F  F1873  1  0.286200  0.312200  0.655500  1
  F  F1874  1  0.286200  0.187800  0.844500  1
  F  F1875  1  0.213800  0.687800  0.155500  1
  F  F1876  1  0.213800  0.812200  0.344500  1
  F  F1877  1  0.713800  0.687800  0.344500  1
  F  F1878  1  0.713800  0.812200  0.155500  1
  F  F1879  1  0.786200  0.312200  0.844500  1
  F  F1880  1  0.786200  0.187800  0.655500  1
  F  F1881  1  0.376000  0.304800  0.626800  1
  F  F1882  1  0.376000  0.195200  0.873200  1
  F  F1883  1  0.124000  0.695200  0.126800  1
  F  F1884  1  0.124000  0.804800  0.373200  1
  F  F1885  1  0.624000  0.695200  0.373200  1
  F  F1886  1  0.624000  0.804800  0.126800  1
  F  F1887  1  0.876000  0.304800  0.873200  1
  F  F1888  1  0.876000  0.195200  0.626800  1
  F  F1889  1  0.344600  0.368400  0.641700  1
  F  F1890  1  0.344600  0.131600  0.858300  1
  F  F1891  1  0.155400  0.631600  0.141700  1
  F  F1892  1  0.155400  0.868400  0.358300  1
  F  F1893  1  0.655400  0.631600  0.358300  1
  F  F1894  1  0.655400  0.868400  0.141700  1
  F  F1895  1  0.844600  0.368400  0.858300  1
  F  F1896  1  0.844600  0.131600  0.641700  1
  F  F1897  1  0.368400  0.296900  0.609500  1
  F  F1898  1  0.368400  0.203100  0.890500  1
  F  F1899  1  0.131600  0.703100  0.109500  1
  F  F1900  1  0.131600  0.796900  0.390500  1
  F  F1901  1  0.631600  0.703100  0.390500  1
  F  F1902  1  0.631600  0.796900  0.109500  1
  F  F1903  1  0.868400  0.296900  0.890500  1
  F  F1904  1  0.868400  0.203100  0.609500  1
  F  F1905  1  0.325400  0.322200  0.660200  1
  F  F1906  1  0.325400  0.177800  0.839800  1
  F  F1907  1  0.174600  0.677800  0.160200  1
  F  F1908  1  0.174600  0.822200  0.339800  1
  F  F1909  1  0.674600  0.677800  0.339800  1
  F  F1910  1  0.674600  0.822200  0.160200  1
  F  F1911  1  0.825400  0.322200  0.839800  1
  F  F1912  1  0.825400  0.177800  0.660200  1
  F  F1913  1  0.370600  0.366400  0.618000  1
  F  F1914  1  0.370600  0.133600  0.882000  1
  F  F1915  1  0.129400  0.633600  0.118000  1
  F  F1916  1  0.129400  0.866400  0.382000  1
  F  F1917  1  0.629400  0.633600  0.382000  1
  F  F1918  1  0.629400  0.866400  0.118000  1
  F  F1919  1  0.870600  0.366400  0.882000  1
  F  F1920  1  0.870600  0.133600  0.618000  1
