# generated using pymatgen
data_Fe2P4H84C120S3N25O12F37
_symmetry_space_group_name_H-M   'P 1'
_cell_length_a   12.70770000
_cell_length_b   21.23650000
_cell_length_c   43.50840000
_cell_angle_alpha   90.00000000
_cell_angle_beta   96.09400000
_cell_angle_gamma   90.00000000
_symmetry_Int_Tables_number   1
_chemical_formula_structural   Fe2P4H84C120S3N25O12F37
_chemical_formula_sum   'Fe8 P16 H336 C480 S12 N100 O48 F148'
_cell_volume   11675.13412763
_cell_formula_units_Z   4
loop_
 _symmetry_equiv_pos_site_id
 _symmetry_equiv_pos_as_xyz
  1  'x, y, z'
loop_
 _atom_site_type_symbol
 _atom_site_label
 _atom_site_symmetry_multiplicity
 _atom_site_fract_x
 _atom_site_fract_y
 _atom_site_fract_z
 _atom_site_occupancy
  Fe  Fe1  1  0.583690  0.966690  0.341410  1
  Fe  Fe2  1  0.916310  0.466690  0.158590  1
  Fe  Fe3  1  0.416310  0.033310  0.658590  1
  Fe  Fe4  1  0.083690  0.533310  0.841410  1
  Fe  Fe5  1  0.232470  0.448450  0.381930  1
  Fe  Fe6  1  0.267530  0.948450  0.118070  1
  Fe  Fe7  1  0.767530  0.551550  0.618070  1
  Fe  Fe8  1  0.732470  0.051550  0.881930  1
  P  P9  1  0.493900  0.258680  0.500980  1
  P  P10  1  0.006100  0.758680  0.999020  1
  P  P11  1  0.506100  0.741320  0.499020  1
  P  P12  1  0.993900  0.241320  0.000980  1
  P  P13  1  0.397000  0.506340  0.241680  1
  P  P14  1  0.103000  0.006340  0.258320  1
  P  P15  1  0.603000  0.493660  0.758320  1
  P  P16  1  0.897000  0.993660  0.741680  1
  P  P17  1  0.852300  0.251700  0.321800  1
  P  P18  1  0.647700  0.751700  0.178200  1
  P  P19  1  0.147700  0.748300  0.678200  1
  P  P20  1  0.352300  0.248300  0.821800  1
  P  P21  1  0.912700  0.203100  0.319400  1
  P  P22  1  0.587300  0.703100  0.180600  1
  P  P23  1  0.087300  0.796900  0.680600  1
  P  P24  1  0.412700  0.296900  0.819400  1
  H  H25  1  0.089000  0.318500  0.497600  1
  H  H26  1  0.411000  0.818500  0.002400  1
  H  H27  1  0.911000  0.681500  0.502400  1
  H  H28  1  0.589000  0.181500  0.997600  1
  H  H29  1  0.841100  0.062800  0.491300  1
  H  H30  1  0.658900  0.562800  0.008700  1
  H  H31  1  0.158900  0.937200  0.508700  1
  H  H32  1  0.341100  0.437200  0.991300  1
  H  H33  1  0.411700  0.299000  0.133300  1
  H  H34  1  0.088300  0.799000  0.366700  1
  H  H35  1  0.588300  0.701000  0.866700  1
  H  H36  1  0.911700  0.201000  0.633300  1
  H  H37  1  0.760200  0.870800  0.364500  1
  H  H38  1  0.739800  0.370800  0.135500  1
  H  H39  1  0.239800  0.129200  0.635500  1
  H  H40  1  0.260200  0.629200  0.864500  1
  H  H41  1  0.935500  0.861300  0.360600  1
  H  H42  1  0.564500  0.361300  0.139400  1
  H  H43  1  0.064500  0.138700  0.639400  1
  H  H44  1  0.435500  0.638700  0.860600  1
  H  H45  1  0.025900  0.938600  0.336000  1
  H  H46  1  0.474100  0.438600  0.164000  1
  H  H47  1  0.974100  0.061400  0.664000  1
  H  H48  1  0.525900  0.561400  0.836000  1
  H  H49  1  0.932100  0.027800  0.316100  1
  H  H50  1  0.567900  0.527800  0.183900  1
  H  H51  1  0.067900  0.972200  0.683900  1
  H  H52  1  0.432100  0.472200  0.816100  1
  H  H53  1  0.746600  0.082100  0.305200  1
  H  H54  1  0.753400  0.582100  0.194800  1
  H  H55  1  0.253400  0.917900  0.694800  1
  H  H56  1  0.246600  0.417900  0.805200  1
  H  H57  1  0.600500  0.157700  0.337900  1
  H  H58  1  0.899500  0.657700  0.162100  1
  H  H59  1  0.399500  0.842300  0.662100  1
  H  H60  1  0.100500  0.342300  0.837900  1
  H  H61  1  0.495900  0.238400  0.315600  1
  H  H62  1  0.004100  0.738400  0.184400  1
  H  H63  1  0.504100  0.761600  0.684400  1
  H  H64  1  0.995900  0.261600  0.815600  1
  H  H65  1  0.378900  0.122000  0.247500  1
  H  H66  1  0.121100  0.622000  0.252500  1
  H  H67  1  0.621100  0.878000  0.752500  1
  H  H68  1  0.878900  0.378000  0.747500  1
  H  H69  1  0.485200  0.041700  0.269300  1
  H  H70  1  0.014800  0.541700  0.230700  1
  H  H71  1  0.514800  0.958300  0.730700  1
  H  H72  1  0.985200  0.458300  0.769300  1
  H  H73  1  0.250300  0.207100  0.310800  1
  H  H74  1  0.249700  0.707100  0.189200  1
  H  H75  1  0.749700  0.792900  0.689200  1
  H  H76  1  0.750300  0.292900  0.810800  1
  H  H77  1  0.174000  0.271400  0.345500  1
  H  H78  1  0.326000  0.771400  0.154500  1
  H  H79  1  0.826000  0.728600  0.654500  1
  H  H80  1  0.674000  0.228600  0.845500  1
  H  H81  1  0.274600  0.425900  0.303100  1
  H  H82  1  0.225400  0.925900  0.196900  1
  H  H83  1  0.725400  0.574100  0.696900  1
  H  H84  1  0.774600  0.074100  0.803100  1
  H  H85  1  0.355700  0.361700  0.268700  1
  H  H86  1  0.144300  0.861700  0.231300  1
  H  H87  1  0.644300  0.638300  0.731300  1
  H  H88  1  0.855700  0.138300  0.768700  1
  H  H89  1  0.027000  0.371100  0.329500  1
  H  H90  1  0.473000  0.871100  0.170500  1
  H  H91  1  0.973000  0.628900  0.670500  1
  H  H92  1  0.527000  0.128900  0.829500  1
  H  H93  1  0.859200  0.422300  0.348800  1
  H  H94  1  0.640800  0.922300  0.151200  1
  H  H95  1  0.140800  0.577700  0.651200  1
  H  H96  1  0.359200  0.077700  0.848800  1
  H  H97  1  0.789000  0.493800  0.382500  1
  H  H98  1  0.711000  0.993800  0.117500  1
  H  H99  1  0.211000  0.506200  0.617500  1
  H  H100  1  0.289000  0.006200  0.882500  1
  H  H101  1  0.909100  0.543200  0.420200  1
  H  H102  1  0.590900  0.043200  0.079800  1
  H  H103  1  0.090900  0.456800  0.579800  1
  H  H104  1  0.409100  0.956800  0.920200  1
  H  H105  1  0.089700  0.524600  0.422100  1
  H  H106  1  0.410300  0.024600  0.077900  1
  H  H107  1  0.910300  0.475400  0.577900  1
  H  H108  1  0.589700  0.975400  0.922100  1
  H  H109  1  0.204200  0.275900  0.229200  1
  H  H110  1  0.295800  0.775900  0.270800  1
  H  H111  1  0.795800  0.724100  0.770800  1
  H  H112  1  0.704200  0.224100  0.729200  1
  H  H113  1  0.196600  0.305900  0.177100  1
  H  H114  1  0.303400  0.805900  0.322900  1
  H  H115  1  0.803400  0.694100  0.822900  1
  H  H116  1  0.696600  0.194100  0.677100  1
  H  H117  1  0.506100  0.265600  0.178200  1
  H  H118  1  0.993900  0.765600  0.321800  1
  H  H119  1  0.493900  0.734400  0.821800  1
  H  H120  1  0.006100  0.234400  0.678200  1
  H  H121  1  0.513600  0.236600  0.230000  1
  H  H122  1  0.986400  0.736600  0.270000  1
  H  H123  1  0.486400  0.763400  0.770000  1
  H  H124  1  0.013600  0.263400  0.730000  1
  H  H125  1  0.431300  0.397000  0.099800  1
  H  H126  1  0.068700  0.897000  0.400200  1
  H  H127  1  0.568700  0.603000  0.900200  1
  H  H128  1  0.931300  0.103000  0.599800  1
  H  H129  1  0.458500  0.418000  0.048700  1
  H  H130  1  0.041500  0.918000  0.451300  1
  H  H131  1  0.541500  0.582000  0.951300  1
  H  H132  1  0.958500  0.082000  0.548700  1
  H  H133  1  0.230100  0.307400  0.019200  1
  H  H134  1  0.269900  0.807400  0.480800  1
  H  H135  1  0.769900  0.692600  0.980800  1
  H  H136  1  0.730100  0.192600  0.519200  1
  H  H137  1  0.182300  0.292000  0.068400  1
  H  H138  1  0.317700  0.792000  0.431600  1
  H  H139  1  0.817700  0.708000  0.931600  1
  H  H140  1  0.682300  0.208000  0.568400  1
  H  H141  1  0.533300  0.823100  0.335100  1
  H  H142  1  0.966700  0.323100  0.164900  1
  H  H143  1  0.466700  0.176900  0.664900  1
  H  H144  1  0.033300  0.676900  0.835100  1
  H  H145  1  0.520300  0.741700  0.367900  1
  H  H146  1  0.979700  0.241700  0.132100  1
  H  H147  1  0.479700  0.258300  0.632100  1
  H  H148  1  0.020300  0.758300  0.867900  1
  H  H149  1  0.539800  0.759600  0.421900  1
  H  H150  1  0.960200  0.259600  0.078100  1
  H  H151  1  0.460200  0.240400  0.578100  1
  H  H152  1  0.039800  0.740400  0.921900  1
  H  H153  1  0.570500  0.862500  0.440000  1
  H  H154  1  0.929500  0.362500  0.060000  1
  H  H155  1  0.429500  0.137500  0.560000  1
  H  H156  1  0.070500  0.637500  0.940000  1
  H  H157  1  0.599600  0.980400  0.426400  1
  H  H158  1  0.900400  0.480400  0.073600  1
  H  H159  1  0.400400  0.019600  0.573600  1
  H  H160  1  0.099600  0.519600  0.926400  1
  H  H161  1  0.480900  0.089700  0.404200  1
  H  H162  1  0.019100  0.589700  0.095800  1
  H  H163  1  0.519100  0.910300  0.595800  1
  H  H164  1  0.980900  0.410300  0.904200  1
  H  H165  1  0.518300  0.192800  0.418700  1
  H  H166  1  0.981700  0.692800  0.081300  1
  H  H167  1  0.481700  0.807200  0.581300  1
  H  H168  1  0.018300  0.307200  0.918700  1
  H  H169  1  0.813900  0.173300  0.395000  1
  H  H170  1  0.686100  0.673300  0.105000  1
  H  H171  1  0.186100  0.826700  0.605000  1
  H  H172  1  0.313900  0.326700  0.895000  1
  H  H173  1  0.777600  0.069400  0.381800  1
  H  H174  1  0.722400  0.569400  0.118200  1
  H  H175  1  0.222400  0.930600  0.618200  1
  H  H176  1  0.277600  0.430600  0.881800  1
  H  H177  1  0.569500  0.263800  0.362500  1
  H  H178  1  0.930500  0.763800  0.137500  1
  H  H179  1  0.430500  0.736200  0.637500  1
  H  H180  1  0.069500  0.236200  0.862500  1
  H  H181  1  0.439000  0.334700  0.345200  1
  H  H182  1  0.061000  0.834700  0.154800  1
  H  H183  1  0.561000  0.665300  0.654800  1
  H  H184  1  0.939000  0.165300  0.845200  1
  H  H185  1  0.502100  0.434400  0.424000  1
  H  H186  1  0.997900  0.934400  0.076000  1
  H  H187  1  0.497900  0.565600  0.576000  1
  H  H188  1  0.002100  0.065600  0.924000  1
  H  H189  1  0.621300  0.357700  0.443100  1
  H  H190  1  0.878700  0.857700  0.056900  1
  H  H191  1  0.378700  0.642300  0.556900  1
  H  H192  1  0.121300  0.142300  0.943100  1
  H  H193  1  0.477400  0.481300  0.347300  1
  H  H194  1  0.022600  0.981300  0.152700  1
  H  H195  1  0.522600  0.518700  0.652700  1
  H  H196  1  0.977400  0.018700  0.847300  1
  H  H197  1  0.422000  0.581400  0.315900  1
  H  H198  1  0.078000  0.081400  0.184100  1
  H  H199  1  0.578000  0.418600  0.684100  1
  H  H200  1  0.922000  0.918600  0.815900  1
  H  H201  1  0.288900  0.653800  0.300900  1
  H  H202  1  0.211100  0.153800  0.199100  1
  H  H203  1  0.711100  0.346200  0.699100  1
  H  H204  1  0.788900  0.846200  0.800900  1
  H  H205  1  0.122800  0.640200  0.317500  1
  H  H206  1  0.377200  0.140200  0.182500  1
  H  H207  1  0.877200  0.359800  0.682500  1
  H  H208  1  0.622800  0.859800  0.817500  1
  H  H209  1  0.094400  0.556000  0.351000  1
  H  H210  1  0.405600  0.056000  0.149000  1
  H  H211  1  0.905600  0.444000  0.649000  1
  H  H212  1  0.594400  0.944000  0.851000  1
  H  H213  1  0.803700  0.204500  0.460800  1
  H  H214  1  0.696300  0.704500  0.039200  1
  H  H215  1  0.196300  0.795500  0.539200  1
  H  H216  1  0.303700  0.295500  0.960800  1
  H  H217  1  0.953100  0.242900  0.490100  1
  H  H218  1  0.546900  0.742900  0.009900  1
  H  H219  1  0.046900  0.757100  0.509900  1
  H  H220  1  0.453100  0.257100  0.990100  1
  H  H221  1  0.944100  0.398100  0.437500  1
  H  H222  1  0.555900  0.898100  0.062500  1
  H  H223  1  0.055900  0.601900  0.562500  1
  H  H224  1  0.444100  0.101900  0.937500  1
  H  H225  1  0.799500  0.357900  0.407100  1
  H  H226  1  0.700500  0.857900  0.092900  1
  H  H227  1  0.200500  0.642100  0.592900  1
  H  H228  1  0.299500  0.142100  0.907100  1
  H  H229  1  0.244200  0.334800  0.517800  1
  H  H230  1  0.255800  0.834800  0.982200  1
  H  H231  1  0.755800  0.665200  0.482200  1
  H  H232  1  0.744200  0.165200  0.017800  1
  H  H233  1  0.377800  0.363600  0.554600  1
  H  H234  1  0.122200  0.863600  0.945400  1
  H  H235  1  0.622200  0.636400  0.445400  1
  H  H236  1  0.877800  0.136400  0.054600  1
  H  H237  1  0.277200  0.534900  0.555600  1
  H  H238  1  0.222800  0.034900  0.944400  1
  H  H239  1  0.722800  0.465100  0.444400  1
  H  H240  1  0.777200  0.965100  0.055600  1
  H  H241  1  0.140500  0.514100  0.516800  1
  H  H242  1  0.359500  0.014100  0.983200  1
  H  H243  1  0.859500  0.485900  0.483200  1
  H  H244  1  0.640500  0.985900  0.016800  1
  H  H245  1  0.690800  0.892500  0.291800  1
  H  H246  1  0.809200  0.392500  0.208200  1
  H  H247  1  0.309200  0.107500  0.708200  1
  H  H248  1  0.190800  0.607500  0.791800  1
  H  H249  1  0.630900  0.840700  0.245500  1
  H  H250  1  0.869100  0.340700  0.254500  1
  H  H251  1  0.369100  0.159300  0.754500  1
  H  H252  1  0.130900  0.659300  0.745500  1
  H  H253  1  0.455200  0.838700  0.228800  1
  H  H254  1  0.044800  0.338700  0.271200  1
  H  H255  1  0.544800  0.161300  0.771200  1
  H  H256  1  0.955200  0.661300  0.728800  1
  H  H257  1  0.335400  0.893400  0.256900  1
  H  H258  1  0.164600  0.393400  0.243100  1
  H  H259  1  0.664600  0.106600  0.743100  1
  H  H260  1  0.835400  0.606600  0.756900  1
  H  H261  1  0.307900  0.957000  0.306300  1
  H  H262  1  0.192100  0.457000  0.193700  1
  H  H263  1  0.692100  0.043000  0.693700  1
  H  H264  1  0.807900  0.543000  0.806300  1
  H  H265  1  0.357400  0.953600  0.389100  1
  H  H266  1  0.142600  0.453600  0.110900  1
  H  H267  1  0.642600  0.046400  0.610900  1
  H  H268  1  0.857400  0.546400  0.889100  1
  H  H269  1  0.247900  0.011400  0.417200  1
  H  H270  1  0.252100  0.511400  0.082800  1
  H  H271  1  0.752100  0.988600  0.582800  1
  H  H272  1  0.747900  0.488600  0.917200  1
  H  H273  1  0.225200  0.145500  0.351300  1
  H  H274  1  0.274800  0.645500  0.148700  1
  H  H275  1  0.774800  0.854500  0.648700  1
  H  H276  1  0.725200  0.354500  0.851300  1
  H  H277  1  0.339100  0.089200  0.323700  1
  H  H278  1  0.160900  0.589200  0.176300  1
  H  H279  1  0.660900  0.910800  0.676300  1
  H  H280  1  0.839100  0.410800  0.823700  1
  H  H281  1  0.028500  0.217700  0.399000  1
  H  H282  1  0.471500  0.717700  0.101000  1
  H  H283  1  0.971500  0.782300  0.601000  1
  H  H284  1  0.528500  0.282300  0.899000  1
  H  H285  1  0.064500  0.325000  0.402500  1
  H  H286  1  0.435500  0.825000  0.097500  1
  H  H287  1  0.935500  0.675000  0.597500  1
  H  H288  1  0.564500  0.175000  0.902500  1
  H  H289  1  0.375800  0.288200  0.418000  1
  H  H290  1  0.124200  0.788200  0.082000  1
  H  H291  1  0.624200  0.711800  0.582000  1
  H  H292  1  0.875800  0.211800  0.918000  1
  H  H293  1  0.343300  0.181300  0.413900  1
  H  H294  1  0.156700  0.681300  0.086100  1
  H  H295  1  0.656700  0.818700  0.586100  1
  H  H296  1  0.843300  0.318700  0.913900  1
  H  H297  1  0.298100  0.373200  0.457400  1
  H  H298  1  0.201900  0.873200  0.042600  1
  H  H299  1  0.701900  0.626800  0.542600  1
  H  H300  1  0.798100  0.126800  0.957400  1
  H  H301  1  0.380500  0.470100  0.489000  1
  H  H302  1  0.119500  0.970100  0.011000  1
  H  H303  1  0.619500  0.529900  0.511000  1
  H  H304  1  0.880500  0.029900  0.989000  1
  H  H305  1  0.413900  0.577200  0.489700  1
  H  H306  1  0.086100  0.077200  0.010300  1
  H  H307  1  0.586100  0.422800  0.510300  1
  H  H308  1  0.913900  0.922800  0.989700  1
  H  H309  1  0.368100  0.636000  0.445000  1
  H  H310  1  0.131900  0.136000  0.055000  1
  H  H311  1  0.631900  0.364000  0.555000  1
  H  H312  1  0.868100  0.864000  0.945000  1
  H  H313  1  0.289500  0.586700  0.401000  1
  H  H314  1  0.210500  0.086700  0.099000  1
  H  H315  1  0.710500  0.413300  0.599000  1
  H  H316  1  0.789500  0.913300  0.901000  1
  H  H317  1  0.121000  0.155100  0.459600  1
  H  H318  1  0.379000  0.655100  0.040400  1
  H  H319  1  0.879000  0.844900  0.540400  1
  H  H320  1  0.621000  0.344900  0.959600  1
  H  H321  1  0.993300  0.117900  0.488500  1
  H  H322  1  0.506700  0.617900  0.011500  1
  H  H323  1  0.006700  0.882100  0.511500  1
  H  H324  1  0.493300  0.382100  0.988500  1
  H  H325  1  0.899500  0.992700  0.421600  1
  H  H326  1  0.600500  0.492700  0.078400  1
  H  H327  1  0.100500  0.007300  0.578400  1
  H  H328  1  0.399500  0.507300  0.921600  1
  H  H329  1  0.029000  0.030400  0.392400  1
  H  H330  1  0.471000  0.530400  0.107600  1
  H  H331  1  0.971000  0.969600  0.607600  1
  H  H332  1  0.529000  0.469600  0.892400  1
  H  H333  1  0.677000  0.077600  0.498700  1
  H  H334  1  0.823000  0.577600  0.001300  1
  H  H335  1  0.323000  0.922400  0.501300  1
  H  H336  1  0.177000  0.422400  0.998700  1
  H  H337  1  0.556000  0.069400  0.534800  1
  H  H338  1  0.944000  0.569400  0.965200  1
  H  H339  1  0.444000  0.930600  0.465200  1
  H  H340  1  0.056000  0.430600  0.034800  1
  H  H341  1  0.579300  0.886500  0.536200  1
  H  H342  1  0.920700  0.386500  0.963800  1
  H  H343  1  0.420700  0.113500  0.463800  1
  H  H344  1  0.079300  0.613500  0.036200  1
  H  H345  1  0.704800  0.887500  0.501500  1
  H  H346  1  0.795200  0.387500  0.998500  1
  H  H347  1  0.295200  0.112500  0.498500  1
  H  H348  1  0.204800  0.612500  0.001500  1
  H  H349  1  0.132500  0.212500  0.583900  1
  H  H350  1  0.367500  0.712500  0.916100  1
  H  H351  1  0.867500  0.787500  0.416100  1
  H  H352  1  0.632500  0.287500  0.083900  1
  H  H353  1  0.242800  0.180000  0.578600  1
  H  H354  1  0.257200  0.680000  0.921400  1
  H  H355  1  0.757200  0.820000  0.421400  1
  H  H356  1  0.742800  0.320000  0.078600  1
  H  H357  1  0.134500  0.142000  0.571000  1
  H  H358  1  0.365500  0.642000  0.929000  1
  H  H359  1  0.865500  0.858000  0.429000  1
  H  H360  1  0.634500  0.358000  0.071000  1
  C  C361  1  0.795000  0.903000  0.354290  1
  C  C362  1  0.705000  0.403000  0.145710  1
  C  C363  1  0.205000  0.097000  0.645710  1
  C  C364  1  0.295000  0.597000  0.854290  1
  C  C365  1  0.898600  0.897300  0.352100  1
  C  C366  1  0.601400  0.397300  0.147900  1
  C  C367  1  0.101400  0.102700  0.647900  1
  C  C368  1  0.398600  0.602700  0.852100  1
  C  C369  1  0.952400  0.942800  0.337700  1
  C  C370  1  0.547600  0.442800  0.162300  1
  C  C371  1  0.047600  0.057200  0.662300  1
  C  C372  1  0.452400  0.557200  0.837700  1
  C  C373  1  0.897300  0.994800  0.325800  1
  C  C374  1  0.602700  0.494800  0.174200  1
  C  C375  1  0.102700  0.005200  0.674200  1
  C  C376  1  0.397300  0.505200  0.825800  1
  C  C377  1  0.789100  0.997500  0.328330  1
  C  C378  1  0.710900  0.497500  0.171670  1
  C  C379  1  0.210900  0.002500  0.671670  1
  C  C380  1  0.289100  0.502500  0.828330  1
  C  C381  1  0.719800  0.047200  0.315630  1
  C  C382  1  0.780200  0.547200  0.184370  1
  C  C383  1  0.280200  0.952800  0.684370  1
  C  C384  1  0.219800  0.452800  0.815630  1
  C  C385  1  0.553900  0.091800  0.305660  1
  C  C386  1  0.946100  0.591800  0.194340  1
  C  C387  1  0.446100  0.908200  0.694340  1
  C  C388  1  0.053900  0.408200  0.805660  1
  C  C389  1  0.555800  0.150300  0.319310  1
  C  C390  1  0.944200  0.650300  0.180690  1
  C  C391  1  0.444200  0.849700  0.680690  1
  C  C392  1  0.055800  0.349700  0.819310  1
  C  C393  1  0.493200  0.198100  0.306140  1
  C  C394  1  0.006800  0.698100  0.193860  1
  C  C395  1  0.506800  0.801900  0.693860  1
  C  C396  1  0.993200  0.301900  0.806140  1
  C  C397  1  0.427100  0.188300  0.279550  1
  C  C398  1  0.072900  0.688300  0.220450  1
  C  C399  1  0.572900  0.811700  0.720450  1
  C  C400  1  0.927100  0.311700  0.779550  1
  C  C401  1  0.424400  0.129500  0.265930  1
  C  C402  1  0.075600  0.629500  0.234070  1
  C  C403  1  0.575600  0.870500  0.734070  1
  C  C404  1  0.924400  0.370500  0.765930  1
  C  C405  1  0.487400  0.081900  0.278910  1
  C  C406  1  0.012600  0.581900  0.221090  1
  C  C407  1  0.512600  0.918100  0.721090  1
  C  C408  1  0.987400  0.418100  0.778910  1
  C  C409  1  0.312800  0.278100  0.286700  1
  C  C410  1  0.187200  0.778100  0.213300  1
  C  C411  1  0.687200  0.721900  0.713300  1
  C  C412  1  0.812800  0.221900  0.786700  1
  C  C413  1  0.256700  0.251600  0.309370  1
  C  C414  1  0.243300  0.751600  0.190630  1
  C  C415  1  0.743300  0.748400  0.690630  1
  C  C416  1  0.756700  0.248400  0.809370  1
  C  C417  1  0.210400  0.289800  0.329750  1
  C  C418  1  0.289600  0.789800  0.170250  1
  C  C419  1  0.789600  0.710200  0.670250  1
  C  C420  1  0.710400  0.210200  0.829750  1
  C  C421  1  0.216500  0.354700  0.327560  1
  C  C422  1  0.283500  0.854700  0.172440  1
  C  C423  1  0.783500  0.645300  0.672440  1
  C  C424  1  0.716500  0.145300  0.827560  1
  C  C425  1  0.270500  0.381400  0.304770  1
  C  C426  1  0.229500  0.881400  0.195230  1
  C  C427  1  0.729500  0.618600  0.695230  1
  C  C428  1  0.770500  0.118600  0.804770  1
  C  C429  1  0.318800  0.343200  0.284300  1
  C  C430  1  0.181200  0.843200  0.215700  1
  C  C431  1  0.681200  0.656800  0.715700  1
  C  C432  1  0.818800  0.156800  0.784300  1
  C  C433  1  0.065800  0.395400  0.345140  1
  C  C434  1  0.434200  0.895400  0.154860  1
  C  C435  1  0.934200  0.604600  0.654860  1
  C  C436  1  0.565800  0.104600  0.845140  1
  C  C437  1  0.011100  0.434600  0.366000  1
  C  C438  1  0.488900  0.934600  0.134000  1
  C  C439  1  0.988900  0.565400  0.634000  1
  C  C440  1  0.511100  0.065400  0.866000  1
  C  C441  1  0.904600  0.444200  0.363900  1
  C  C442  1  0.595400  0.944200  0.136100  1
  C  C443  1  0.095400  0.555800  0.636100  1
  C  C444  1  0.404600  0.055800  0.863900  1
  C  C445  1  0.862800  0.485600  0.383700  1
  C  C446  1  0.637200  0.985600  0.116300  1
  C  C447  1  0.137200  0.514400  0.616300  1
  C  C448  1  0.362800  0.014400  0.883700  1
  C  C449  1  0.934700  0.515000  0.405700  1
  C  C450  1  0.565300  0.015000  0.094300  1
  C  C451  1  0.065300  0.485000  0.594300  1
  C  C452  1  0.434700  0.985000  0.905700  1
  C  C453  1  0.042700  0.503700  0.407000  1
  C  C454  1  0.457300  0.003700  0.093000  1
  C  C455  1  0.957300  0.496300  0.593000  1
  C  C456  1  0.542700  0.996300  0.907000  1
  C  C457  1  0.359100  0.254100  0.234570  1
  C  C458  1  0.140900  0.754100  0.265430  1
  C  C459  1  0.640900  0.745900  0.765430  1
  C  C460  1  0.859100  0.245900  0.734570  1
  C  C461  1  0.266300  0.274000  0.218850  1
  C  C462  1  0.233700  0.774000  0.281150  1
  C  C463  1  0.733700  0.726000  0.781150  1
  C  C464  1  0.766300  0.226000  0.718850  1
  C  C465  1  0.261400  0.291800  0.187750  1
  C  C466  1  0.238600  0.791800  0.312250  1
  C  C467  1  0.738600  0.708200  0.812250  1
  C  C468  1  0.761400  0.208200  0.687750  1
  C  C469  1  0.350500  0.288600  0.172930  1
  C  C470  1  0.149500  0.788600  0.327070  1
  C  C471  1  0.649500  0.711400  0.827070  1
  C  C472  1  0.850500  0.211400  0.672930  1
  C  C473  1  0.444200  0.268000  0.188580  1
  C  C474  1  0.055800  0.768000  0.311420  1
  C  C475  1  0.555800  0.732000  0.811420  1
  C  C476  1  0.944200  0.232000  0.688580  1
  C  C477  1  0.448700  0.250700  0.219380  1
  C  C478  1  0.051300  0.750700  0.280620  1
  C  C479  1  0.551300  0.749300  0.780620  1
  C  C480  1  0.948700  0.249300  0.719380  1
  C  C481  1  0.278600  0.331300  0.122240  1
  C  C482  1  0.221400  0.831300  0.377760  1
  C  C483  1  0.721400  0.668700  0.877760  1
  C  C484  1  0.778600  0.168700  0.622240  1
  C  C485  1  0.304200  0.343100  0.089640  1
  C  C486  1  0.195800  0.843100  0.410360  1
  C  C487  1  0.695800  0.656900  0.910360  1
  C  C488  1  0.804200  0.156900  0.589640  1
  C  C489  1  0.385400  0.379100  0.083400  1
  C  C490  1  0.114600  0.879100  0.416600  1
  C  C491  1  0.614600  0.620900  0.916600  1
  C  C492  1  0.885400  0.120900  0.583400  1
  C  C493  1  0.402600  0.390300  0.052500  1
  C  C494  1  0.097400  0.890300  0.447500  1
  C  C495  1  0.597400  0.609700  0.947500  1
  C  C496  1  0.902600  0.109700  0.552500  1
  C  C497  1  0.269900  0.328200  0.035900  1
  C  C498  1  0.230100  0.828200  0.464100  1
  C  C499  1  0.730100  0.671800  0.964100  1
  C  C500  1  0.769900  0.171800  0.535900  1
  C  C501  1  0.242300  0.317000  0.065200  1
  C  C502  1  0.257700  0.817000  0.434800  1
  C  C503  1  0.757700  0.683000  0.934800  1
  C  C504  1  0.742300  0.183000  0.565200  1
  C  C505  1  0.541900  0.831300  0.356700  1
  C  C506  1  0.958100  0.331300  0.143300  1
  C  C507  1  0.458100  0.168700  0.643300  1
  C  C508  1  0.041900  0.668700  0.856700  1
  C  C509  1  0.533600  0.782900  0.375800  1
  C  C510  1  0.966400  0.282900  0.124200  1
  C  C511  1  0.466400  0.217100  0.624200  1
  C  C512  1  0.033600  0.717100  0.875800  1
  C  C513  1  0.544700  0.793500  0.407900  1
  C  C514  1  0.955300  0.293500  0.092100  1
  C  C515  1  0.455300  0.206500  0.592100  1
  C  C516  1  0.044700  0.706500  0.907900  1
  C  C517  1  0.562900  0.853800  0.418470  1
  C  C518  1  0.937100  0.353800  0.081530  1
  C  C519  1  0.437100  0.146200  0.581530  1
  C  C520  1  0.062900  0.646200  0.918470  1
  C  C521  1  0.569800  0.901500  0.397410  1
  C  C522  1  0.930200  0.401500  0.102590  1
  C  C523  1  0.430200  0.098500  0.602590  1
  C  C524  1  0.069800  0.598500  0.897410  1
  C  C525  1  0.592600  0.966600  0.405550  1
  C  C526  1  0.907400  0.466600  0.094450  1
  C  C527  1  0.407400  0.033400  0.594450  1
  C  C528  1  0.092600  0.533400  0.905550  1
  C  C529  1  0.625800  0.069600  0.391590  1
  C  C530  1  0.874200  0.569600  0.108410  1
  C  C531  1  0.374200  0.930400  0.608410  1
  C  C532  1  0.125800  0.430400  0.891590  1
  C  C533  1  0.549300  0.106600  0.402440  1
  C  C534  1  0.950700  0.606600  0.097560  1
  C  C535  1  0.450700  0.893400  0.597560  1
  C  C536  1  0.049300  0.393400  0.902440  1
  C  C537  1  0.571300  0.167900  0.410780  1
  C  C538  1  0.928700  0.667900  0.089220  1
  C  C539  1  0.428700  0.832100  0.589220  1
  C  C540  1  0.071300  0.332100  0.910780  1
  C  C541  1  0.669800  0.193800  0.407840  1
  C  C542  1  0.830200  0.693800  0.092160  1
  C  C543  1  0.330200  0.806200  0.592160  1
  C  C544  1  0.169800  0.306200  0.907840  1
  C  C545  1  0.745700  0.156500  0.397050  1
  C  C546  1  0.754300  0.656500  0.102950  1
  C  C547  1  0.254300  0.843500  0.602950  1
  C  C548  1  0.245700  0.343500  0.897050  1
  C  C549  1  0.724000  0.094800  0.389090  1
  C  C550  1  0.776000  0.594800  0.110910  1
  C  C551  1  0.276000  0.905200  0.610910  1
  C  C552  1  0.224000  0.405200  0.889090  1
  C  C553  1  0.609300  0.303600  0.404360  1
  C  C554  1  0.890700  0.803600  0.095640  1
  C  C555  1  0.390700  0.696400  0.595640  1
  C  C556  1  0.109300  0.196400  0.904360  1
  C  C557  1  0.554200  0.298000  0.375410  1
  C  C558  1  0.945800  0.798000  0.124590  1
  C  C559  1  0.445800  0.702000  0.624590  1
  C  C560  1  0.054200  0.202000  0.875410  1
  C  C561  1  0.477800  0.340600  0.364850  1
  C  C562  1  0.022200  0.840600  0.135150  1
  C  C563  1  0.522200  0.659400  0.635150  1
  C  C564  1  0.977800  0.159400  0.864850  1
  C  C565  1  0.456700  0.392400  0.382770  1
  C  C566  1  0.043300  0.892400  0.117230  1
  C  C567  1  0.543300  0.607600  0.617230  1
  C  C568  1  0.956700  0.107600  0.882770  1
  C  C569  1  0.513600  0.398700  0.411660  1
  C  C570  1  0.986400  0.898700  0.088340  1
  C  C571  1  0.486400  0.601300  0.588340  1
  C  C572  1  0.013600  0.101300  0.911660  1
  C  C573  1  0.586500  0.354000  0.422770  1
  C  C574  1  0.913500  0.854000  0.077230  1
  C  C575  1  0.413500  0.646000  0.577230  1
  C  C576  1  0.086500  0.146000  0.922770  1
  C  C577  1  0.408000  0.481100  0.353500  1
  C  C578  1  0.092000  0.981100  0.146500  1
  C  C579  1  0.592000  0.518900  0.646500  1
  C  C580  1  0.908000  0.018900  0.853500  1
  C  C581  1  0.332700  0.528200  0.342700  1
  C  C582  1  0.167300  0.028200  0.157300  1
  C  C583  1  0.667300  0.471800  0.657300  1
  C  C584  1  0.832700  0.971800  0.842700  1
  C  C585  1  0.354100  0.577400  0.323000  1
  C  C586  1  0.145900  0.077400  0.177000  1
  C  C587  1  0.645900  0.422600  0.677000  1
  C  C588  1  0.854100  0.922600  0.823000  1
  C  C589  1  0.275800  0.619500  0.313900  1
  C  C590  1  0.224200  0.119500  0.186100  1
  C  C591  1  0.724200  0.380500  0.686100  1
  C  C592  1  0.775800  0.880500  0.813900  1
  C  C593  1  0.178700  0.611800  0.323900  1
  C  C594  1  0.321300  0.111800  0.176100  1
  C  C595  1  0.821300  0.388200  0.676100  1
  C  C596  1  0.678700  0.888200  0.823900  1
  C  C597  1  0.162000  0.560900  0.343800  1
  C  C598  1  0.338000  0.060900  0.156200  1
  C  C599  1  0.838000  0.439100  0.656200  1
  C  C600  1  0.662000  0.939100  0.843800  1
  C  C601  1  0.782900  0.279200  0.431710  1
  C  C602  1  0.717100  0.779200  0.068290  1
  C  C603  1  0.217100  0.720800  0.568290  1
  C  C604  1  0.282900  0.220800  0.931710  1
  C  C605  1  0.831700  0.244400  0.456040  1
  C  C606  1  0.668300  0.744400  0.043960  1
  C  C607  1  0.168300  0.755600  0.543960  1
  C  C608  1  0.331700  0.255600  0.956040  1
  C  C609  1  0.920500  0.267100  0.473330  1
  C  C610  1  0.579500  0.767100  0.026670  1
  C  C611  1  0.079500  0.732900  0.526670  1
  C  C612  1  0.420500  0.232900  0.973330  1
  C  C613  1  0.963000  0.325100  0.466500  1
  C  C614  1  0.537000  0.825100  0.033500  1
  C  C615  1  0.037000  0.674900  0.533500  1
  C  C616  1  0.463000  0.174900  0.966500  1
  C  C617  1  0.916300  0.358200  0.442320  1
  C  C618  1  0.583700  0.858200  0.057680  1
  C  C619  1  0.083700  0.641800  0.557680  1
  C  C620  1  0.416300  0.141800  0.942320  1
  C  C621  1  0.828800  0.334800  0.424650  1
  C  C622  1  0.671200  0.834800  0.075350  1
  C  C623  1  0.171200  0.665200  0.575350  1
  C  C624  1  0.328800  0.165200  0.924650  1
  C  C625  1  0.088500  0.407300  0.488700  1
  C  C626  1  0.411500  0.907300  0.011300  1
  C  C627  1  0.911500  0.592700  0.511300  1
  C  C628  1  0.588500  0.092700  0.988700  1
  C  C629  1  0.176700  0.419500  0.513600  1
  C  C630  1  0.323300  0.919500  0.986400  1
  C  C631  1  0.823300  0.580500  0.486400  1
  C  C632  1  0.676700  0.080500  0.013600  1
  C  C633  1  0.248400  0.377000  0.525000  1
  C  C634  1  0.251600  0.877000  0.975000  1
  C  C635  1  0.751600  0.623000  0.475000  1
  C  C636  1  0.748400  0.123000  0.025000  1
  C  C637  1  0.328200  0.394900  0.547100  1
  C  C638  1  0.171800  0.894900  0.952900  1
  C  C639  1  0.671800  0.605100  0.452900  1
  C  C640  1  0.828200  0.105100  0.047100  1
  C  C641  1  0.270600  0.493500  0.547400  1
  C  C642  1  0.229400  0.993500  0.952600  1
  C  C643  1  0.729400  0.506500  0.452600  1
  C  C644  1  0.770600  0.006500  0.047400  1
  C  C645  1  0.187500  0.481700  0.524600  1
  C  C646  1  0.312500  0.981700  0.975400  1
  C  C647  1  0.812500  0.518300  0.475400  1
  C  C648  1  0.687500  0.018300  0.024600  1
  C  C649  1  0.617300  0.892400  0.284960  1
  C  C650  1  0.882700  0.392400  0.215040  1
  C  C651  1  0.382700  0.107600  0.715040  1
  C  C652  1  0.117300  0.607600  0.784960  1
  C  C653  1  0.581700  0.861200  0.257080  1
  C  C654  1  0.918300  0.361200  0.242920  1
  C  C655  1  0.418300  0.138800  0.742920  1
  C  C656  1  0.081700  0.638800  0.757080  1
  C  C657  1  0.479800  0.860500  0.247210  1
  C  C658  1  0.020200  0.360500  0.252790  1
  C  C659  1  0.520200  0.139500  0.752790  1
  C  C660  1  0.979800  0.639500  0.747210  1
  C  C661  1  0.408700  0.892000  0.263970  1
  C  C662  1  0.091300  0.392000  0.236030  1
  C  C663  1  0.591300  0.108000  0.736030  1
  C  C664  1  0.908700  0.608000  0.763970  1
  C  C665  1  0.447400  0.921300  0.291230  1
  C  C666  1  0.052600  0.421300  0.208770  1
  C  C667  1  0.552600  0.078700  0.708770  1
  C  C668  1  0.947400  0.578700  0.791230  1
  C  C669  1  0.382500  0.954600  0.311090  1
  C  C670  1  0.117500  0.454600  0.188910  1
  C  C671  1  0.617500  0.045400  0.688910  1
  C  C672  1  0.882500  0.545400  0.811090  1
  C  C673  1  0.361600  0.016800  0.353700  1
  C  C674  1  0.138400  0.516800  0.146300  1
  C  C675  1  0.638400  0.983200  0.646300  1
  C  C676  1  0.861600  0.483200  0.853700  1
  C  C677  1  0.331900  0.993400  0.381620  1
  C  C678  1  0.168100  0.493400  0.118380  1
  C  C679  1  0.668100  0.006600  0.618380  1
  C  C680  1  0.831900  0.506600  0.881620  1
  C  C681  1  0.266500  0.027300  0.398130  1
  C  C682  1  0.233500  0.527300  0.101870  1
  C  C683  1  0.733500  0.972700  0.601870  1
  C  C684  1  0.766500  0.472700  0.898130  1
  C  C685  1  0.227300  0.084400  0.387400  1
  C  C686  1  0.272700  0.584400  0.112600  1
  C  C687  1  0.772700  0.915600  0.612600  1
  C  C688  1  0.727300  0.415600  0.887400  1
  C  C689  1  0.253700  0.106700  0.359250  1
  C  C690  1  0.246300  0.606700  0.140750  1
  C  C691  1  0.746300  0.893300  0.640750  1
  C  C692  1  0.753700  0.393300  0.859250  1
  C  C693  1  0.320800  0.073200  0.342820  1
  C  C694  1  0.179200  0.573200  0.157180  1
  C  C695  1  0.679200  0.926800  0.657180  1
  C  C696  1  0.820800  0.426800  0.842820  1
  C  C697  1  0.183100  0.188700  0.406100  1
  C  C698  1  0.316900  0.688700  0.093900  1
  C  C699  1  0.816900  0.811300  0.593900  1
  C  C700  1  0.683100  0.311300  0.906100  1
  C  C701  1  0.099500  0.232000  0.402740  1
  C  C702  1  0.400500  0.732000  0.097260  1
  C  C703  1  0.900500  0.768000  0.597260  1
  C  C704  1  0.599500  0.268000  0.902740  1
  C  C705  1  0.121000  0.295500  0.404930  1
  C  C706  1  0.379000  0.795500  0.095070  1
  C  C707  1  0.879000  0.704500  0.595070  1
  C  C708  1  0.621000  0.204500  0.904930  1
  C  C709  1  0.223700  0.316700  0.410660  1
  C  C710  1  0.276300  0.816700  0.089340  1
  C  C711  1  0.776300  0.683300  0.589340  1
  C  C712  1  0.723700  0.183300  0.910660  1
  C  C713  1  0.305000  0.273700  0.413980  1
  C  C714  1  0.195000  0.773700  0.086020  1
  C  C715  1  0.695000  0.726300  0.586020  1
  C  C716  1  0.805000  0.226300  0.913980  1
  C  C717  1  0.286100  0.210300  0.411680  1
  C  C718  1  0.213900  0.710300  0.088320  1
  C  C719  1  0.713900  0.789700  0.588320  1
  C  C720  1  0.786100  0.289700  0.911680  1
  C  C721  1  0.286300  0.401700  0.440550  1
  C  C722  1  0.213700  0.901700  0.059450  1
  C  C723  1  0.713700  0.598300  0.559450  1
  C  C724  1  0.786300  0.098300  0.940550  1
  C  C725  1  0.313300  0.467000  0.444360  1
  C  C726  1  0.186700  0.967000  0.055640  1
  C  C727  1  0.686700  0.533000  0.555640  1
  C  C728  1  0.813300  0.033000  0.944360  1
  C  C729  1  0.361600  0.494900  0.471080  1
  C  C730  1  0.138400  0.994900  0.028920  1
  C  C731  1  0.638400  0.505100  0.528920  1
  C  C732  1  0.861600  0.005100  0.971080  1
  C  C733  1  0.381600  0.557500  0.471500  1
  C  C734  1  0.118400  0.057500  0.028500  1
  C  C735  1  0.618400  0.442500  0.528500  1
  C  C736  1  0.881600  0.942500  0.971500  1
  C  C737  1  0.354700  0.592000  0.445200  1
  C  C738  1  0.145300  0.092000  0.054800  1
  C  C739  1  0.645300  0.408000  0.554800  1
  C  C740  1  0.854700  0.908000  0.945200  1
  C  C741  1  0.308000  0.562300  0.419100  1
  C  C742  1  0.192000  0.062300  0.080900  1
  C  C743  1  0.692000  0.437700  0.580900  1
  C  C744  1  0.808000  0.937700  0.919100  1
  C  C745  1  0.086300  0.097200  0.422590  1
  C  C746  1  0.413700  0.597200  0.077410  1
  C  C747  1  0.913700  0.902800  0.577410  1
  C  C748  1  0.586300  0.402800  0.922590  1
  C  C749  1  0.075300  0.122200  0.451640  1
  C  C750  1  0.424700  0.622200  0.048360  1
  C  C751  1  0.924700  0.877800  0.548360  1
  C  C752  1  0.575300  0.377800  0.951640  1
  C  C753  1  0.999700  0.100100  0.468800  1
  C  C754  1  0.500300  0.600100  0.031200  1
  C  C755  1  0.000300  0.899900  0.531200  1
  C  C756  1  0.499700  0.399900  0.968800  1
  C  C757  1  0.932400  0.052200  0.457900  1
  C  C758  1  0.567600  0.552200  0.042100  1
  C  C759  1  0.067600  0.947800  0.542100  1
  C  C760  1  0.432400  0.447800  0.957900  1
  C  C761  1  0.944300  0.026200  0.429330  1
  C  C762  1  0.555700  0.526200  0.070670  1
  C  C763  1  0.055700  0.973800  0.570670  1
  C  C764  1  0.444300  0.473800  0.929330  1
  C  C765  1  0.021200  0.048800  0.411990  1
  C  C766  1  0.478800  0.548800  0.088010  1
  C  C767  1  0.978800  0.951200  0.588010  1
  C  C768  1  0.521200  0.451200  0.911990  1
  C  C769  1  0.789900  0.985500  0.474590  1
  C  C770  1  0.710100  0.485500  0.025410  1
  C  C771  1  0.210100  0.014500  0.525410  1
  C  C772  1  0.289900  0.514500  0.974590  1
  C  C773  1  0.707300  0.983000  0.496860  1
  C  C774  1  0.792700  0.483000  0.003140  1
  C  C775  1  0.292700  0.017000  0.503140  1
  C  C776  1  0.207300  0.517000  0.996860  1
  C  C777  1  0.659900  0.037500  0.506500  1
  C  C778  1  0.840100  0.537500  0.993500  1
  C  C779  1  0.340100  0.962500  0.493500  1
  C  C780  1  0.159900  0.462500  0.006500  1
  C  C781  1  0.586800  0.031900  0.528000  1
  C  C782  1  0.913200  0.531900  0.972000  1
  C  C783  1  0.413200  0.968100  0.472000  1
  C  C784  1  0.086800  0.468100  0.028000  1
  C  C785  1  0.601400  0.925900  0.528780  1
  C  C786  1  0.898600  0.425900  0.971220  1
  C  C787  1  0.398600  0.074100  0.471220  1
  C  C788  1  0.101400  0.574100  0.028780  1
  C  C789  1  0.675800  0.925900  0.508010  1
  C  C790  1  0.824200  0.425900  0.991990  1
  C  C791  1  0.324200  0.074100  0.491990  1
  C  C792  1  0.175800  0.574100  0.008010  1
  C  C793  1  0.158300  0.207600  0.539000  1
  C  C794  1  0.341700  0.707600  0.961000  1
  C  C795  1  0.841700  0.792400  0.461000  1
  C  C796  1  0.658300  0.292400  0.039000  1
  C  C797  1  0.167800  0.183500  0.570800  1
  C  C798  1  0.332200  0.683500  0.929200  1
  C  C799  1  0.832200  0.816500  0.429200  1
  C  C800  1  0.667800  0.316500  0.070800  1
  C  C801  1  0.633000  0.402100  0.300700  1
  C  C802  1  0.867000  0.902100  0.199300  1
  C  C803  1  0.367000  0.597900  0.699300  1
  C  C804  1  0.133000  0.097900  0.800700  1
  C  C805  1  0.654000  0.446900  0.325100  1
  C  C806  1  0.846000  0.946900  0.174900  1
  C  C807  1  0.346000  0.553100  0.674900  1
  C  C808  1  0.154000  0.053100  0.825100  1
  C  C809  1  0.532100  0.704900  0.288900  1
  C  C810  1  0.967900  0.204900  0.211100  1
  C  C811  1  0.467900  0.295100  0.711100  1
  C  C812  1  0.032100  0.795100  0.788900  1
  C  C813  1  0.594000  0.668000  0.261700  1
  C  C814  1  0.906000  0.168000  0.238300  1
  C  C815  1  0.406000  0.332000  0.738300  1
  C  C816  1  0.094000  0.832000  0.761700  1
  C  C817  1  0.018100  0.680100  0.433890  1
  C  C818  1  0.481900  0.180100  0.066110  1
  C  C819  1  0.981900  0.319900  0.566110  1
  C  C820  1  0.518100  0.819900  0.933890  1
  C  C821  1  0.660000  0.528000  0.317500  1
  C  C822  1  0.840000  0.028000  0.182500  1
  C  C823  1  0.340000  0.472000  0.682500  1
  C  C824  1  0.160000  0.972000  0.817500  1
  C  C825  1  0.633000  0.581000  0.336800  1
  C  C826  1  0.867000  0.081000  0.163200  1
  C  C827  1  0.367000  0.419000  0.663200  1
  C  C828  1  0.133000  0.919000  0.836800  1
  C  C829  1  0.477000  0.696000  0.252000  1
  C  C830  1  0.023000  0.196000  0.248000  1
  C  C831  1  0.523000  0.304000  0.748000  1
  C  C832  1  0.977000  0.804000  0.752000  1
  C  C833  1  0.075800  0.678700  0.428190  1
  C  C834  1  0.424200  0.178700  0.071810  1
  C  C835  1  0.924200  0.321300  0.571810  1
  C  C836  1  0.575800  0.821300  0.928190  1
  C  C837  1  0.014400  0.684100  0.420620  1
  C  C838  1  0.485600  0.184100  0.079380  1
  C  C839  1  0.985600  0.315900  0.579380  1
  C  C840  1  0.514400  0.815900  0.920620  1
  S  S841  1  0.045400  0.688600  0.393130  1
  S  S842  1  0.454600  0.188600  0.106870  1
  S  S843  1  0.954600  0.311400  0.606870  1
  S  S844  1  0.545400  0.811400  0.893130  1
  S  S845  1  0.968100  0.689400  0.396470  1
  S  S846  1  0.531900  0.189400  0.103530  1
  S  S847  1  0.031900  0.310600  0.603530  1
  S  S848  1  0.468100  0.810600  0.896470  1
  S  S849  1  0.914600  0.694100  0.386740  1
  S  S850  1  0.585400  0.194100  0.113260  1
  S  S851  1  0.085400  0.305900  0.613260  1
  S  S852  1  0.414600  0.805900  0.886740  1
  N  N853  1  0.737800  0.952600  0.342560  1
  N  N854  1  0.762200  0.452600  0.157440  1
  N  N855  1  0.262200  0.047400  0.657440  1
  N  N856  1  0.237800  0.547400  0.842560  1
  N  N857  1  0.621200  0.042800  0.318860  1
  N  N858  1  0.878800  0.542800  0.181140  1
  N  N859  1  0.378800  0.957200  0.681140  1
  N  N860  1  0.121200  0.457200  0.818860  1
  N  N861  1  0.561400  0.890400  0.366030  1
  N  N862  1  0.938600  0.390400  0.133970  1
  N  N863  1  0.438600  0.109600  0.633970  1
  N  N864  1  0.061400  0.609600  0.866030  1
  N  N865  1  0.603000  0.005000  0.382990  1
  N  N866  1  0.897000  0.505000  0.117010  1
  N  N867  1  0.397000  0.995000  0.617010  1
  N  N868  1  0.103000  0.495000  0.882990  1
  N  N869  1  0.551300  0.921700  0.301900  1
  N  N870  1  0.948700  0.421700  0.198100  1
  N  N871  1  0.448700  0.078300  0.698100  1
  N  N872  1  0.051300  0.578300  0.801900  1
  N  N873  1  0.428500  0.980700  0.335310  1
  N  N874  1  0.071500  0.480700  0.164690  1
  N  N875  1  0.571500  0.019300  0.664690  1
  N  N876  1  0.928500  0.519300  0.835310  1
  N  N877  1  0.379700  0.438800  0.371680  1
  N  N878  1  0.120300  0.938800  0.128320  1
  N  N879  1  0.620300  0.561200  0.628320  1
  N  N880  1  0.879700  0.061200  0.871680  1
  N  N881  1  0.237800  0.519800  0.352740  1
  N  N882  1  0.262200  0.019800  0.147260  1
  N  N883  1  0.762200  0.480200  0.647260  1
  N  N884  1  0.737800  0.980200  0.852740  1
  N  N885  1  0.167200  0.394500  0.348450  1
  N  N886  1  0.332800  0.894500  0.151550  1
  N  N887  1  0.832800  0.605500  0.651550  1
  N  N888  1  0.667200  0.105500  0.848450  1
  N  N889  1  0.082100  0.463600  0.387000  1
  N  N890  1  0.417900  0.963600  0.113000  1
  N  N891  1  0.917900  0.536400  0.613000  1
  N  N892  1  0.582100  0.036400  0.887000  1
  N  N893  1  0.245800  0.382700  0.413830  1
  N  N894  1  0.254200  0.882700  0.086170  1
  N  N895  1  0.754200  0.617300  0.586170  1
  N  N896  1  0.745800  0.117300  0.913830  1
  N  N897  1  0.287600  0.500500  0.418080  1
  N  N898  1  0.212400  0.000500  0.081920  1
  N  N899  1  0.712400  0.499500  0.581920  1
  N  N900  1  0.787600  0.999500  0.918080  1
  N  N901  1  0.688300  0.258300  0.414910  1
  N  N902  1  0.811700  0.758300  0.085090  1
  N  N903  1  0.311700  0.741700  0.585090  1
  N  N904  1  0.188300  0.241700  0.914910  1
  N  N905  1  0.053000  0.346900  0.486130  1
  N  N906  1  0.447000  0.846900  0.013870  1
  N  N907  1  0.947000  0.653100  0.513870  1
  N  N908  1  0.553000  0.153100  0.986130  1
  N  N909  1  0.341000  0.450900  0.558600  1
  N  N910  1  0.159000  0.950900  0.941400  1
  N  N911  1  0.659000  0.549100  0.441400  1
  N  N912  1  0.841000  0.049100  0.058600  1
  N  N913  1  0.161700  0.122800  0.404400  1
  N  N914  1  0.338300  0.622800  0.095600  1
  N  N915  1  0.838300  0.877200  0.595600  1
  N  N916  1  0.661700  0.377200  0.904400  1
  N  N917  1  0.851700  0.035900  0.476510  1
  N  N918  1  0.648300  0.535900  0.023490  1
  N  N919  1  0.148300  0.964100  0.523490  1
  N  N920  1  0.351700  0.464100  0.976510  1
  N  N921  1  0.557700  0.978900  0.539230  1
  N  N922  1  0.942300  0.478900  0.960770  1
  N  N923  1  0.442300  0.021100  0.460770  1
  N  N924  1  0.057700  0.521100  0.039230  1
  N  N925  1  0.361600  0.238400  0.266630  1
  N  N926  1  0.138400  0.738400  0.233370  1
  N  N927  1  0.638400  0.761600  0.733370  1
  N  N928  1  0.861600  0.261600  0.766630  1
  N  N929  1  0.351800  0.306300  0.141120  1
  N  N930  1  0.148200  0.806300  0.358880  1
  N  N931  1  0.648200  0.693700  0.858880  1
  N  N932  1  0.851800  0.193700  0.641120  1
  N  N933  1  0.347800  0.365700  0.029230  1
  N  N934  1  0.152200  0.865700  0.470770  1
  N  N935  1  0.652200  0.634300  0.970770  1
  N  N936  1  0.847800  0.134300  0.529230  1
  N  N937  1  0.154400  0.228400  0.512800  1
  N  N938  1  0.345600  0.728400  0.987200  1
  N  N939  1  0.845600  0.771600  0.487200  1
  N  N940  1  0.654400  0.271600  0.012800  1
  N  N941  1  0.618000  0.368200  0.278900  1
  N  N942  1  0.882000  0.868200  0.221100  1
  N  N943  1  0.382000  0.631800  0.721100  1
  N  N944  1  0.118000  0.131800  0.778900  1
  N  N945  1  0.490500  0.718600  0.304900  1
  N  N946  1  0.009500  0.218600  0.195100  1
  N  N947  1  0.509500  0.281400  0.695100  1
  N  N948  1  0.990500  0.781400  0.804900  1
  N  N949  1  0.695000  0.510000  0.295100  1
  N  N950  1  0.805000  0.010000  0.204900  1
  N  N951  1  0.305000  0.490000  0.704900  1
  N  N952  1  0.195000  0.990000  0.795100  1
  O  O953  1  0.052700  0.450300  0.472510  1
  O  O954  1  0.447300  0.950300  0.027490  1
  O  O955  1  0.947300  0.549700  0.527490  1
  O  O956  1  0.552700  0.049700  0.972510  1
  O  O957  1  0.797000  0.942800  0.455750  1
  O  O958  1  0.703000  0.442800  0.044250  1
  O  O959  1  0.203000  0.057200  0.544250  1
  O  O960  1  0.297000  0.557200  0.955750  1
  O  O961  1  0.185500  0.341000  0.127950  1
  O  O962  1  0.314500  0.841000  0.372050  1
  O  O963  1  0.814500  0.659000  0.872050  1
  O  O964  1  0.685500  0.159000  0.627950  1
  O  O965  1  0.989200  0.745800  0.383780  1
  O  O966  1  0.510800  0.245800  0.116220  1
  O  O967  1  0.010800  0.254200  0.616220  1
  O  O968  1  0.489200  0.754200  0.883780  1
  O  O969  1  0.001200  0.631300  0.379230  1
  O  O970  1  0.498800  0.131300  0.120770  1
  O  O971  1  0.998800  0.368700  0.620770  1
  O  O972  1  0.501200  0.868700  0.879230  1
  O  O973  1  0.159500  0.692900  0.395910  1
  O  O974  1  0.340500  0.192900  0.104090  1
  O  O975  1  0.840500  0.307100  0.604090  1
  O  O976  1  0.659500  0.807100  0.895910  1
  O  O977  1  0.977900  0.755300  0.388880  1
  O  O978  1  0.522100  0.255300  0.111120  1
  O  O979  1  0.022100  0.244700  0.611120  1
  O  O980  1  0.477900  0.744700  0.888880  1
  O  O981  1  0.875200  0.672800  0.411160  1
  O  O982  1  0.624800  0.172800  0.088840  1
  O  O983  1  0.124800  0.327200  0.588840  1
  O  O984  1  0.375200  0.827200  0.911160  1
  O  O985  1  0.997200  0.645500  0.373440  1
  O  O986  1  0.502800  0.145500  0.126560  1
  O  O987  1  0.002800  0.354500  0.626560  1
  O  O988  1  0.497200  0.854500  0.873440  1
  O  O989  1  0.942700  0.644800  0.366260  1
  O  O990  1  0.557300  0.144800  0.133740  1
  O  O991  1  0.057300  0.355200  0.633740  1
  O  O992  1  0.442700  0.855200  0.866260  1
  O  O993  1  0.934800  0.757600  0.376910  1
  O  O994  1  0.565200  0.257600  0.123090  1
  O  O995  1  0.065200  0.242400  0.623090  1
  O  O996  1  0.434800  0.742400  0.876910  1
  O  O997  1  0.816200  0.685100  0.400000  1
  O  O998  1  0.683800  0.185100  0.100000  1
  O  O999  1  0.183800  0.314900  0.600000  1
  O  O1000  1  0.316200  0.814900  0.900000  1
  F  F1001  1  0.522600  0.189200  0.513510  1
  F  F1002  1  0.977400  0.689200  0.986490  1
  F  F1003  1  0.477400  0.810800  0.486490  1
  F  F1004  1  0.022600  0.310800  0.013510  1
  F  F1005  1  0.465000  0.327400  0.488800  1
  F  F1006  1  0.035000  0.827400  0.011200  1
  F  F1007  1  0.535000  0.672600  0.511200  1
  F  F1008  1  0.965000  0.172600  0.988800  1
  F  F1009  1  0.561200  0.278800  0.531400  1
  F  F1010  1  0.938800  0.778800  0.968600  1
  F  F1011  1  0.438800  0.721200  0.468600  1
  F  F1012  1  0.061200  0.221200  0.031400  1
  F  F1013  1  0.393600  0.246300  0.517500  1
  F  F1014  1  0.106400  0.746300  0.982500  1
  F  F1015  1  0.606400  0.753700  0.482500  1
  F  F1016  1  0.893600  0.253700  0.017500  1
  F  F1017  1  0.437800  0.229700  0.470700  1
  F  F1018  1  0.062200  0.729700  0.029300  1
  F  F1019  1  0.562200  0.770300  0.529300  1
  F  F1020  1  0.937800  0.270300  0.970700  1
  F  F1021  1  0.598700  0.257500  0.483900  1
  F  F1022  1  0.901300  0.757500  0.016100  1
  F  F1023  1  0.401300  0.742500  0.516100  1
  F  F1024  1  0.098700  0.242500  0.983900  1
  F  F1025  1  0.427000  0.482400  0.276040  1
  F  F1026  1  0.073000  0.982400  0.223960  1
  F  F1027  1  0.573000  0.517600  0.723960  1
  F  F1028  1  0.927000  0.017600  0.776040  1
  F  F1029  1  0.384500  0.577700  0.253100  1
  F  F1030  1  0.115500  0.077700  0.246900  1
  F  F1031  1  0.615500  0.422300  0.746900  1
  F  F1032  1  0.884500  0.922300  0.753100  1
  F  F1033  1  0.372800  0.530000  0.207500  1
  F  F1034  1  0.127200  0.030000  0.292500  1
  F  F1035  1  0.627200  0.470000  0.792500  1
  F  F1036  1  0.872800  0.970000  0.707500  1
  F  F1037  1  0.517700  0.517800  0.237900  1
  F  F1038  1  0.982300  0.017800  0.262100  1
  F  F1039  1  0.482300  0.482200  0.762100  1
  F  F1040  1  0.017700  0.982200  0.737900  1
  F  F1041  1  0.399200  0.439000  0.228720  1
  F  F1042  1  0.100800  0.939000  0.271280  1
  F  F1043  1  0.600800  0.561000  0.771280  1
  F  F1044  1  0.899200  0.061000  0.728720  1
  F  F1045  1  0.275700  0.500600  0.246700  1
  F  F1046  1  0.224300  0.000600  0.253300  1
  F  F1047  1  0.724300  0.499400  0.753300  1
  F  F1048  1  0.775700  0.999400  0.746700  1
  F  F1049  1  0.964000  0.248900  0.309100  1
  F  F1050  1  0.536000  0.748900  0.190900  1
  F  F1051  1  0.036000  0.751100  0.690900  1
  F  F1052  1  0.464000  0.251100  0.809100  1
  F  F1053  1  0.901500  0.274800  0.354430  1
  F  F1054  1  0.598500  0.774800  0.145570  1
  F  F1055  1  0.098500  0.725200  0.645570  1
  F  F1056  1  0.401500  0.225200  0.854430  1
  F  F1057  1  0.844900  0.322900  0.310780  1
  F  F1058  1  0.655100  0.822900  0.189220  1
  F  F1059  1  0.155100  0.677100  0.689220  1
  F  F1060  1  0.344900  0.177100  0.810780  1
  F  F1061  1  0.740900  0.256600  0.333680  1
  F  F1062  1  0.759100  0.756600  0.166320  1
  F  F1063  1  0.259100  0.743400  0.666320  1
  F  F1064  1  0.240900  0.243400  0.833680  1
  F  F1065  1  0.794200  0.234000  0.288680  1
  F  F1066  1  0.705800  0.734000  0.211320  1
  F  F1067  1  0.205800  0.766000  0.711320  1
  F  F1068  1  0.294200  0.266000  0.788680  1
  F  F1069  1  0.858500  0.181200  0.330400  1
  F  F1070  1  0.641500  0.681200  0.169600  1
  F  F1071  1  0.141500  0.818800  0.669600  1
  F  F1072  1  0.358500  0.318800  0.830400  1
  F  F1073  1  0.064200  0.628700  0.447090  1
  F  F1074  1  0.435800  0.128700  0.052910  1
  F  F1075  1  0.935800  0.371300  0.552910  1
  F  F1076  1  0.564200  0.871300  0.947090  1
  F  F1077  1  0.053700  0.729400  0.451090  1
  F  F1078  1  0.446300  0.229400  0.048910  1
  F  F1079  1  0.946300  0.270600  0.548910  1
  F  F1080  1  0.553700  0.770600  0.951090  1
  F  F1081  1  0.914300  0.675200  0.436410  1
  F  F1082  1  0.585700  0.175200  0.063590  1
  F  F1083  1  0.085700  0.324800  0.563590  1
  F  F1084  1  0.414300  0.824800  0.936410  1
  F  F1085  1  0.515000  0.238900  0.468000  1
  F  F1086  1  0.985000  0.738900  0.032000  1
  F  F1087  1  0.485000  0.761100  0.532000  1
  F  F1088  1  0.015000  0.261100  0.968000  1
  F  F1089  1  0.463700  0.289900  0.532300  1
  F  F1090  1  0.036300  0.789900  0.967700  1
  F  F1091  1  0.536300  0.710100  0.467700  1
  F  F1092  1  0.963700  0.210100  0.032300  1
  F  F1093  1  0.369000  0.245300  0.492400  1
  F  F1094  1  0.131000  0.745300  0.007600  1
  F  F1095  1  0.631000  0.754700  0.507600  1
  F  F1096  1  0.869000  0.254700  0.992400  1
  F  F1097  1  0.609900  0.284600  0.506200  1
  F  F1098  1  0.890100  0.784600  0.993800  1
  F  F1099  1  0.390100  0.715400  0.493800  1
  F  F1100  1  0.109900  0.215400  0.006200  1
  F  F1101  1  0.033100  0.190600  0.322700  1
  F  F1102  1  0.466900  0.690600  0.177300  1
  F  F1103  1  0.966900  0.809400  0.677300  1
  F  F1104  1  0.533100  0.309400  0.822700  1
  F  F1105  1  0.933000  0.257400  0.345100  1
  F  F1106  1  0.567000  0.757400  0.154900  1
  F  F1107  1  0.067000  0.742600  0.654900  1
  F  F1108  1  0.433000  0.242600  0.845100  1
  F  F1109  1  0.920200  0.253400  0.294200  1
  F  F1110  1  0.579800  0.753400  0.205800  1
  F  F1111  1  0.079800  0.746600  0.705800  1
  F  F1112  1  0.420200  0.246600  0.794200  1
  F  F1113  1  0.789000  0.216500  0.319000  1
  F  F1114  1  0.711000  0.716500  0.181000  1
  F  F1115  1  0.211000  0.783500  0.681000  1
  F  F1116  1  0.289000  0.283500  0.819000  1
  F  F1117  1  0.888700  0.149600  0.296200  1
  F  F1118  1  0.611300  0.649600  0.203800  1
  F  F1119  1  0.111300  0.850400  0.703800  1
  F  F1120  1  0.388700  0.350400  0.796200  1
  F  F1121  1  0.902400  0.154200  0.347100  1
  F  F1122  1  0.597600  0.654200  0.152900  1
  F  F1123  1  0.097600  0.845800  0.652900  1
  F  F1124  1  0.402400  0.345800  0.847100  1
  F  F1125  1  0.080300  0.619500  0.438740  1
  F  F1126  1  0.419700  0.119500  0.061260  1
  F  F1127  1  0.919700  0.380500  0.561260  1
  F  F1128  1  0.580300  0.880500  0.938740  1
  F  F1129  1  0.170700  0.692000  0.419130  1
  F  F1130  1  0.329300  0.192000  0.080870  1
  F  F1131  1  0.829300  0.308000  0.580870  1
  F  F1132  1  0.670700  0.808000  0.919130  1
  F  F1133  1  0.063300  0.716000  0.452330  1
  F  F1134  1  0.436700  0.216000  0.047670  1
  F  F1135  1  0.936700  0.284000  0.547670  1
  F  F1136  1  0.563300  0.784000  0.952330  1
  F  F1137  1  0.001800  0.726400  0.442770  1
  F  F1138  1  0.498200  0.226400  0.057230  1
  F  F1139  1  0.998200  0.273600  0.557230  1
  F  F1140  1  0.501800  0.773600  0.942770  1
  F  F1141  1  0.008700  0.627100  0.433400  1
  F  F1142  1  0.491300  0.127100  0.066600  1
  F  F1143  1  0.991300  0.372900  0.566600  1
  F  F1144  1  0.508700  0.872900  0.933400  1
  F  F1145  1  0.113100  0.690800  0.413050  1
  F  F1146  1  0.386900  0.190800  0.086950  1
  F  F1147  1  0.886900  0.309200  0.586950  1
  F  F1148  1  0.613100  0.809200  0.913050  1
