
#######################################################################
#
#                 Cambridge Crystallographic Data Centre
#                                CCDC 
#
#######################################################################
#
# If this CIF has been generated from an entry in the Cambridge 
# Structural Database, then it will include bibliographic, chemical, 
# crystal, experimental, refinement or atomic coordinate data resulting 
# from the CCDC's data processing and validation procedures.
#
#######################################################################

data_HOJCAM
_chemical_formula_moiety         
'C108 H81 Fe2 N21 O3 4+,C1 F3 O3 S1 1-,x(C2 H3 N1),3(F6 P1 1-)'
_chemical_name_systematic        
'tris(\m-N-(4-(bis(4-((pyridin-2-ylmethylene)amino)phenyl)amino)phenyl)isonicotinamide)-di-iron tris(hexafluorophosphate) trifluoromethanesulfonate acetonitrile solvate'
_symmetry_cell_setting           monoclinic
_symmetry_space_group_name_H-M   'P 21/n'
_symmetry_Int_Tables_number      14
_space_group_name_Hall           '-P 2yn'
loop_
_symmetry_equiv_pos_site_id
_symmetry_equiv_pos_as_xyz
1 x,y,z
2 1/2-x,1/2+y,1/2-z
3 -x,-y,-z
4 1/2+x,1/2-y,1/2+z
_cell_length_a                   12.7077(3)
_cell_length_b                   21.2365(5)
_cell_length_c                   43.5084(10)
_cell_angle_alpha                90
_cell_angle_beta                 96.0940(10)
_cell_angle_gamma                90
_cell_volume                     11675.1
_exptl_crystal_colour            purple
_exptl_crystal_description       block
_cell_formula_units_Z            4
loop_
_atom_site_label
_atom_site_type_symbol
_atom_site_fract_x
_atom_site_fract_y
_atom_site_fract_z
Fe1 Fe 0.58369(10) -0.03331(5) 0.34141(2)
Fe2 Fe 0.23247(12) 0.44845(6) 0.38193(3)
N1 N 0.7378(5) -0.0474(3) 0.34256(13)
N2 N 0.6212(6) 0.0428(3) 0.31886(12)
N3 N 0.5614(6) -0.1096(3) 0.36603(13)
N4 N 0.6030(5) 0.0050(3) 0.38299(12)
N5 N 0.5513(5) -0.0783(3) 0.30190(12)
N6 N 0.4285(5) -0.0193(3) 0.33531(12)
N7 N 0.3797(6) 0.4388(3) 0.37168(13)
N8 N 0.2378(7) 0.5198(3) 0.35274(15)
N9 N 0.1672(6) 0.3945(3) 0.34845(13)
N10 N 0.0821(6) 0.4636(3) 0.38700(15)
N11 N 0.2458(5) 0.3827(3) 0.41383(13)
N12 N 0.2876(6) 0.5005(3) 0.41808(15)
N13 N 0.6883(5) 0.2583(3) 0.41491(12)
N14 N 1.0530(6) 0.3469(4) 0.48613(17)
H1 H 1.0890 0.3185 0.4976
N15 N 1.3410(8) 0.4509(6) 0.5586(2)
N16 N 0.1617(5) 0.1228(3) 0.40440(13)
N17 N -0.1483(5) 0.0359(3) 0.47651(14)
H2 H -0.1589 0.0628 0.4913
N18 N -0.4423(6) -0.0211(4) 0.53923(15)
N19 N 0.3616(6) 0.2384(3) 0.26663(12)
N20 N 0.3518(6) 0.3063(4) 0.14112(14)
H3 H 0.4117 0.2990 0.1333
N21 N 0.3478(6) 0.3657(4) 0.02923(14)
C1 C 0.7950(8) -0.0970(4) 0.35429(18)
H4 H 0.7602 -0.1292 0.3645
C2 C 0.8986(9) -0.1027(5) 0.3521(2)
H5 H 0.9355 -0.1387 0.3606
C3 C 0.9524(9) -0.0572(5) 0.3377(2)
H6 H 1.0259 -0.0614 0.3360
C4 C 0.8973(8) -0.0052(5) 0.3258(2)
H7 H 0.9321 0.0278 0.3161
C5 C 0.7891(7) -0.0025(4) 0.32833(17)
C6 C 0.7198(8) 0.0472(4) 0.31563(17)
H8 H 0.7466 0.0821 0.3052
C7 C 0.5539(6) 0.0918(3) 0.30566(14)
C8 C 0.5558(7) 0.1503(4) 0.31931(16)
H9 H 0.6005 0.1577 0.3379
C9 C 0.4932(7) 0.1981(4) 0.30614(16)
H10 H 0.4959 0.2384 0.3156
C10 C 0.4271(6) 0.1883(3) 0.27955(15)
C11 C 0.4244(7) 0.1295(4) 0.26593(16)
H11 H 0.3789 0.1220 0.2475
C12 C 0.4874(7) 0.0819(3) 0.27891(15)
H12 H 0.4852 0.0417 0.2693
C13 C 0.3128(6) 0.2781(3) 0.28670(15)
C14 C 0.2567(7) 0.2516(4) 0.30937(16)
H13 H 0.2503 0.2071 0.3108
C15 C 0.2104(7) 0.2898(4) 0.32975(16)
H14 H 0.1740 0.2714 0.3455
C16 C 0.2165(7) 0.3547(4) 0.32756(16)
C17 C 0.2705(7) 0.3814(4) 0.30477(16)
H15 H 0.2746 0.4259 0.3031
C18 C 0.3188(7) 0.3432(4) 0.28430(16)
H16 H 0.3557 0.3617 0.2687
C19 C 0.0658(8) 0.3954(4) 0.34514(18)
H17 H 0.0270 0.3711 0.3295
C20 C 0.0111(8) 0.4346(4) 0.36600(19)
C21 C -0.0954(9) 0.4442(4) 0.3639(2)
H18 H -0.1408 0.4223 0.3488
C22 C -0.1372(9) 0.4856(5) 0.3837(2)
H19 H -0.2110 0.4938 0.3825
C23 C -0.0653(10) 0.5150(5) 0.4057(2)
H20 H -0.0909 0.5432 0.4202
C24 C 0.0427(9) 0.5037(4) 0.4070(2)
H21 H 0.0897 0.5246 0.4221
C25 C 0.3591(7) 0.2541(3) 0.23457(15)
C26 C 0.2663(7) 0.2740(4) 0.21885(15)
H22 H 0.2042 0.2759 0.2292
C27 C 0.2614(7) 0.2918(4) 0.18775(16)
H23 H 0.1966 0.3059 0.1771
C28 C 0.3505(7) 0.2886(4) 0.17293(16)
C29 C 0.4442(7) 0.2680(4) 0.18858(17)
H24 H 0.5061 0.2656 0.1782
C30 C 0.4487(8) 0.2507(4) 0.21938(17)
H25 H 0.5136 0.2366 0.2300
C31 C 0.2786(10) 0.3313(4) 0.12224(19)
C32 C 0.3042(8) 0.3431(4) 0.08964(17)
C33 C 0.3854(9) 0.3791(5) 0.0834(2)
H26 H 0.4313 0.3970 0.0998
C34 C 0.4026(9) 0.3903(5) 0.0525(2)
H27 H 0.4585 0.4180 0.0487
C35 C 0.2699(9) 0.3282(5) 0.0359(2)
H28 H 0.2301 0.3074 0.0192
C36 C 0.2423(9) 0.3170(5) 0.0652(2)
H29 H 0.1823 0.2920 0.0684
C37 C 0.5419(8) -0.1687(4) 0.3567(2)
H30 H 0.5333 -0.1769 0.3351
C38 C 0.5336(11) -0.2171(4) 0.3758(2)
H31 H 0.5203 -0.2583 0.3679
C39 C 0.5447(10) -0.2065(5) 0.4079(2)
H32 H 0.5398 -0.2404 0.4219
C40 C 0.5629(8) -0.1462(4) 0.41847(19)
H33 H 0.5705 -0.1375 0.4400
C41 C 0.5698(7) -0.0985(4) 0.39741(16)
C42 C 0.5926(7) -0.0334(3) 0.40555(16)
H34 H 0.5996 -0.0196 0.4264
C43 C 0.6258(6) 0.0696(3) 0.39159(15)
C44 C 0.5493(7) 0.1066(3) 0.40244(16)
H35 H 0.4809 0.0897 0.4042
C45 C 0.5713(7) 0.1679(3) 0.41078(17)
H36 H 0.5183 0.1928 0.4187
C46 C 0.6698(6) 0.1938(3) 0.40784(14)
C47 C 0.7457(6) 0.1565(4) 0.39705(16)
H37 H 0.8139 0.1733 0.3950
C48 C 0.7240(7) 0.0948(4) 0.38909(16)
H38 H 0.7776 0.0694 0.3818
C49 C 0.6093(6) 0.3036(3) 0.40436(16)
C50 C 0.5542(7) 0.2980(4) 0.37541(17)
H39 H 0.5695 0.2638 0.3625
C51 C 0.4778(8) 0.3406(4) 0.36485(17)
H40 H 0.4390 0.3347 0.3452
C52 C 0.4567(7) 0.3924(3) 0.38277(17)
C53 C 0.5136(7) 0.3987(4) 0.41166(17)
H41 H 0.5021 0.4344 0.4240
C54 C 0.5865(6) 0.3540(3) 0.42277(16)
H42 H 0.6213 0.3577 0.4431
C55 C 0.4080(8) 0.4811(4) 0.3535(2)
H43 H 0.4774 0.4813 0.3473
C56 C 0.3327(9) 0.5282(4) 0.3427(2)
C57 C 0.3541(10) 0.5774(4) 0.3230(2)
H44 H 0.4220 0.5814 0.3159
C58 C 0.2758(12) 0.6195(5) 0.3139(2)
H45 H 0.2889 0.6538 0.3009
C59 C 0.1787(12) 0.6118(5) 0.3239(2)
H46 H 0.1228 0.6402 0.3175
C60 C 0.1620(10) 0.5609(4) 0.3438(2)
H47 H 0.0944 0.5560 0.3510
C61 C 0.7829(6) 0.2792(4) 0.43171(16)
C62 C 0.8317(7) 0.2444(4) 0.45604(17)
H48 H 0.8037 0.2045 0.4608
C63 C 0.9205(7) 0.2671(4) 0.47333(18)
H49 H 0.9531 0.2429 0.4901
C64 C 0.9630(7) 0.3251(4) 0.46650(19)
C65 C 0.9163(7) 0.3582(4) 0.44232(18)
H50 H 0.9441 0.3981 0.4375
C66 C 0.8288(7) 0.3348(4) 0.42465(17)
H51 H 0.7995 0.3579 0.4071
C67 C 1.0885(8) 0.4073(5) 0.4887(2)
C68 C 1.1767(8) 0.4195(5) 0.5136(2)
C69 C 1.2484(9) 0.3770(6) 0.5250(2)
H52 H 1.2442 0.3348 0.5178
C70 C 1.3282(10) 0.3949(6) 0.5471(3)
H53 H 1.3778 0.3636 0.5546
C71 C 1.2706(10) 0.4935(6) 0.5474(3)
H54 H 1.2772 0.5349 0.5556
C72 C 1.1875(8) 0.4817(5) 0.5246(2)
H55 H 1.1405 0.5141 0.5168
C73 C 0.6173(7) -0.1076(4) 0.28496(17)
H56 H 0.6908 -0.1075 0.2918
C74 C 0.5817(8) -0.1388(4) 0.25708(18)
H57 H 0.6309 -0.1593 0.2455
C75 C 0.4798(8) -0.1395(4) 0.24721(18)
H58 H 0.4552 -0.1613 0.2288
C76 C 0.4087(7) -0.1080(4) 0.26397(17)
H59 H 0.3354 -0.1066 0.2569
C77 C 0.4474(7) -0.0787(3) 0.29123(16)
C78 C 0.3825(7) -0.0454(3) 0.31109(16)
H60 H 0.3079 -0.0430 0.3063
C79 C 0.3616(6) 0.0168(3) 0.35370(15)
C80 C 0.3319(6) -0.0066(3) 0.38162(15)
H61 H 0.3574 -0.0464 0.3891
C81 C 0.2665(6) 0.0273(3) 0.39813(16)
H62 H 0.2479 0.0114 0.4172
C82 C 0.2273(6) 0.0844(4) 0.38740(16)
C83 C 0.2537(7) 0.1067(4) 0.35925(17)
H63 H 0.2252 0.1455 0.3513
C84 C 0.3208(7) 0.0732(4) 0.34282(17)
H64 H 0.3391 0.0892 0.3237
C85 C 0.1831(7) 0.1887(4) 0.40610(15)
C86 C 0.0995(7) 0.2320(4) 0.40274(16)
H65 H 0.0285 0.2177 0.3990
C87 C 0.1210(7) 0.2955(4) 0.40493(16)
H66 H 0.0645 0.3250 0.4025
C88 C 0.2237(7) 0.3167(3) 0.41066(15)
C89 C 0.3050(7) 0.2737(4) 0.41398(16)
H67 H 0.3758 0.2882 0.4180
C90 C 0.2861(7) 0.2103(4) 0.41168(17)
H68 H 0.3433 0.1813 0.4139
C91 C 0.2863(7) 0.4017(4) 0.44055(17)
H69 H 0.2981 0.3732 0.4574
C92 C 0.3133(7) 0.4670(4) 0.44436(18)
C93 C 0.3616(7) 0.4949(4) 0.47108(19)
H70 H 0.3805 0.4701 0.4890
C94 C 0.3816(9) 0.5575(5) 0.4715(2)
H71 H 0.4139 0.5772 0.4897
C95 C 0.3547(10) 0.5920(5) 0.4452(2)
H72 H 0.3681 0.6360 0.4450
C96 C 0.3080(10) 0.5623(4) 0.4191(2)
H73 H 0.2895 0.5867 0.4010
C97 C 0.0863(6) 0.0972(3) 0.42259(16)
C98 C 0.0753(6) 0.1222(4) 0.45164(16)
H74 H 0.1210 0.1551 0.4596
C99 C -0.0003(7) 0.1001(4) 0.46880(16)
H75 H -0.0067 0.1179 0.4885
C100 C -0.0676(6) 0.0522(3) 0.45790(16)
C101 C -0.0557(7) 0.0262(4) 0.42933(17)
H76 H -0.1005 -0.0073 0.4216
C102 C 0.0212(6) 0.0488(4) 0.41199(17)
H77 H 0.0290 0.0304 0.3924
C103 C -0.2101(7) -0.0145(4) 0.47459(18)
C104 C -0.2927(7) -0.0170(4) 0.49686(18)
C105 C -0.3401(7) 0.0375(4) 0.5065(2)
H78 H -0.3230 0.0776 0.4987
C106 C -0.4132(8) 0.0319(5) 0.5280(2)
H79 H -0.4440 0.0694 0.5348
C107 C -0.3986(8) -0.0741(5) 0.52878(19)
H80 H -0.4207 -0.1135 0.5362
C108 C -0.3242(7) -0.0741(4) 0.50801(18)
H81 H -0.2952 -0.1125 0.5015
O1 O 1.0527(7) 0.4503(3) 0.47251(17)
O2 O -0.2030(5) -0.0572(3) 0.45575(15)
O3 O 0.1855(7) 0.3410(4) 0.12795(14)
P1 P 0.4939(2) 0.25868(12) 0.50098(5)
F1 F 0.5226(6) 0.1892(3) 0.51351(12)
F2 F 0.4650(5) 0.3274(2) 0.48880(12)
F3 F 0.5612(12) 0.2788(5) 0.5314(3)
F4 F 0.3936(10) 0.2463(6) 0.5175(4)
F5 F 0.4378(17) 0.2297(6) 0.4707(3)
F6 F 0.5987(12) 0.2575(8) 0.4839(4)
P2 P 0.3970(4) 0.50634(19) 0.24168(8)
F11 F 0.4270(6) 0.4824(3) 0.27604(15)
F12 F 0.3845(9) 0.5777(4) 0.2531(2)
F13 F 0.3728(9) 0.5300(6) 0.2075(2)
F14 F 0.5177(8) 0.5178(6) 0.2379(2)
F15 F 0.3992(11) 0.4390(4) 0.22872(19)
F16 F 0.2757(8) 0.5006(6) 0.2467(2)
P3 P 0.8523(3) 0.2517(2) 0.32180(8)
F17 F 0.9640(6) 0.2489(4) 0.3091(2)
F18 F 0.9015(6) 0.2748(4) 0.35443(15)
F19 F 0.8449(6) 0.3229(3) 0.31078(16)
F20 F 0.7409(6) 0.2566(4) 0.33368(18)
F21 F 0.7942(7) 0.2340(5) 0.28868(17)
F22 F 0.8585(7) 0.1812(4) 0.3304(2)
N22 N 0.1544(12) 0.2284(6) 0.5128(3)
C109 C 0.1583(17) 0.2076(10) 0.5390(5)
C110 C 0.1678(13) 0.1835(7) 0.5708(4)
H82 H 0.1325 0.2125 0.5839
H83 H 0.2428 0.1800 0.5786
H84 H 0.1345 0.1420 0.5710
N23 N 0.618(2) 0.3682(13) 0.2789(6)
C111 C 0.633(3) 0.4021(14) 0.3007(7)
C112 C 0.654(2) 0.4469(13) 0.3251(6)
N25 N 0.4905(14) 0.7186(8) 0.3049(4)
C115 C 0.5321(17) 0.7049(10) 0.2889(5)
C116 C 0.594(3) 0.668(2) 0.2617(10)
S1 S 0.0454(4) 0.6886(2) 0.39313(10)
O4 O -0.0108(6) 0.7458(3) 0.38378(13)
O5 O 0.0012(6) 0.6313(3) 0.37923(13)
O6 O 0.1595(5) 0.6929(4) 0.39591(17)
C118 C 0.0181(5) 0.6801(2) 0.43389(10)
F29 F 0.0642(6) 0.6287(3) 0.44709(13)
F30 F 0.0537(6) 0.7294(3) 0.45109(11)
F31 F -0.0857(5) 0.6752(4) 0.43641(15)
loop_
_geom_bond_atom_site_label_1
_geom_bond_atom_site_label_2
_geom_bond_site_symmetry_1
_geom_bond_site_symmetry_2
Fe1 N1 1_555 1_555
Fe2 N7 1_555 1_555
N1 C1 1_555 1_555
N2 Fe1 1_555 1_555
N3 Fe1 1_555 1_555
N4 Fe1 1_555 1_555
N5 Fe1 1_555 1_555
N6 Fe1 1_555 1_555
N7 C52 1_555 1_555
N8 Fe2 1_555 1_555
N9 Fe2 1_555 1_555
N10 Fe2 1_555 1_555
N11 Fe2 1_555 1_555
N12 Fe2 1_555 1_555
N13 C46 1_555 1_555
N14 H1 1_555 1_555
N15 C70 1_555 1_555
N16 C82 1_555 1_555
N17 H2 1_555 1_555
N18 C106 1_555 1_555
N19 C10 1_555 1_555
N20 H3 1_555 1_555
N21 C34 1_555 1_555
C1 H4 1_555 1_555
C2 C1 1_555 1_555
H5 C2 1_555 1_555
C3 C2 1_555 1_555
H6 C3 1_555 1_555
C4 C3 1_555 1_555
H7 C4 1_555 1_555
C5 N1 1_555 1_555
C6 N2 1_555 1_555
H8 C6 1_555 1_555
C7 N2 1_555 1_555
C8 C7 1_555 1_555
H9 C8 1_555 1_555
C9 C8 1_555 1_555
H10 C9 1_555 1_555
C10 C9 1_555 1_555
C11 C10 1_555 1_555
H11 C11 1_555 1_555
C12 C7 1_555 1_555
H12 C12 1_555 1_555
C13 N19 1_555 1_555
C14 C13 1_555 1_555
H13 C14 1_555 1_555
C15 C14 1_555 1_555
H14 C15 1_555 1_555
C16 N9 1_555 1_555
C17 C16 1_555 1_555
H15 C17 1_555 1_555
C18 C13 1_555 1_555
H16 C18 1_555 1_555
C19 N9 1_555 1_555
H17 C19 1_555 1_555
C20 N10 1_555 1_555
C21 C20 1_555 1_555
H18 C21 1_555 1_555
C22 C21 1_555 1_555
H19 C22 1_555 1_555
C23 C22 1_555 1_555
H20 C23 1_555 1_555
C24 N10 1_555 1_555
H21 C24 1_555 1_555
C25 N19 1_555 1_555
C26 C25 1_555 1_555
H22 C26 1_555 1_555
C27 C26 1_555 1_555
H23 C27 1_555 1_555
C28 N20 1_555 1_555
C29 C28 1_555 1_555
H24 C29 1_555 1_555
C30 C25 1_555 1_555
H25 C30 1_555 1_555
C31 N20 1_555 1_555
C32 C31 1_555 1_555
C33 C32 1_555 1_555
H26 C33 1_555 1_555
C34 C33 1_555 1_555
H27 C34 1_555 1_555
C35 N21 1_555 1_555
H28 C35 1_555 1_555
C36 C32 1_555 1_555
H29 C36 1_555 1_555
C37 N3 1_555 1_555
H30 C37 1_555 1_555
C38 C37 1_555 1_555
H31 C38 1_555 1_555
C39 C38 1_555 1_555
H32 C39 1_555 1_555
C40 C39 1_555 1_555
H33 C40 1_555 1_555
C41 N3 1_555 1_555
C42 N4 1_555 1_555
H34 C42 1_555 1_555
C43 N4 1_555 1_555
C44 C43 1_555 1_555
H35 C44 1_555 1_555
C45 C44 1_555 1_555
H36 C45 1_555 1_555
C46 C45 1_555 1_555
C47 C46 1_555 1_555
H37 C47 1_555 1_555
C48 C43 1_555 1_555
H38 C48 1_555 1_555
C49 N13 1_555 1_555
C50 C49 1_555 1_555
H39 C50 1_555 1_555
C51 C50 1_555 1_555
H40 C51 1_555 1_555
C52 C51 1_555 1_555
C53 C52 1_555 1_555
H41 C53 1_555 1_555
C54 C49 1_555 1_555
H42 C54 1_555 1_555
C55 N7 1_555 1_555
H43 C55 1_555 1_555
C56 N8 1_555 1_555
C57 C56 1_555 1_555
H44 C57 1_555 1_555
C58 C57 1_555 1_555
H45 C58 1_555 1_555
C59 C58 1_555 1_555
H46 C59 1_555 1_555
C60 N8 1_555 1_555
H47 C60 1_555 1_555
C61 N13 1_555 1_555
C62 C61 1_555 1_555
H48 C62 1_555 1_555
C63 C62 1_555 1_555
H49 C63 1_555 1_555
C64 N14 1_555 1_555
C65 C64 1_555 1_555
H50 C65 1_555 1_555
C66 C61 1_555 1_555
H51 C66 1_555 1_555
C67 N14 1_555 1_555
C68 C67 1_555 1_555
C69 C68 1_555 1_555
H52 C69 1_555 1_555
C70 C69 1_555 1_555
H53 C70 1_555 1_555
C71 N15 1_555 1_555
H54 C71 1_555 1_555
C72 C68 1_555 1_555
H55 C72 1_555 1_555
C73 N5 1_555 1_555
H56 C73 1_555 1_555
C74 C73 1_555 1_555
H57 C74 1_555 1_555
C75 C74 1_555 1_555
H58 C75 1_555 1_555
C76 C75 1_555 1_555
H59 C76 1_555 1_555
C77 N5 1_555 1_555
C78 N6 1_555 1_555
H60 C78 1_555 1_555
C79 N6 1_555 1_555
C80 C79 1_555 1_555
H61 C80 1_555 1_555
C81 C80 1_555 1_555
H62 C81 1_555 1_555
C82 C81 1_555 1_555
C83 C82 1_555 1_555
H63 C83 1_555 1_555
C84 C79 1_555 1_555
H64 C84 1_555 1_555
C85 N16 1_555 1_555
C86 C85 1_555 1_555
H65 C86 1_555 1_555
C87 C86 1_555 1_555
H66 C87 1_555 1_555
C88 N11 1_555 1_555
C89 C88 1_555 1_555
H67 C89 1_555 1_555
C90 C85 1_555 1_555
H68 C90 1_555 1_555
C91 N11 1_555 1_555
H69 C91 1_555 1_555
C92 N12 1_555 1_555
C93 C92 1_555 1_555
H70 C93 1_555 1_555
C94 C93 1_555 1_555
H71 C94 1_555 1_555
C95 C94 1_555 1_555
H72 C95 1_555 1_555
C96 N12 1_555 1_555
H73 C96 1_555 1_555
C97 N16 1_555 1_555
C98 C97 1_555 1_555
H74 C98 1_555 1_555
C99 C98 1_555 1_555
H75 C99 1_555 1_555
C100 N17 1_555 1_555
C101 C100 1_555 1_555
H76 C101 1_555 1_555
C102 C97 1_555 1_555
H77 C102 1_555 1_555
C103 N17 1_555 1_555
C104 C103 1_555 1_555
C105 C104 1_555 1_555
H78 C105 1_555 1_555
C106 C105 1_555 1_555
H79 C106 1_555 1_555
C107 N18 1_555 1_555
H80 C107 1_555 1_555
C108 C104 1_555 1_555
H81 C108 1_555 1_555
O1 C67 1_555 1_555
O2 C103 1_555 1_555
O3 C31 1_555 1_555
P1 F1 1_555 1_555
F2 P1 1_555 1_555
F3 P1 1_555 1_555
F4 P1 1_555 1_555
F5 P1 1_555 1_555
F6 P1 1_555 1_555
P2 F11 1_555 1_555
F12 P2 1_555 1_555
F13 P2 1_555 1_555
F14 P2 1_555 1_555
F15 P2 1_555 1_555
F16 P2 1_555 1_555
P3 F17 1_555 1_555
F18 P3 1_555 1_555
F19 P3 1_555 1_555
F20 P3 1_555 1_555
F21 P3 1_555 1_555
F22 P3 1_555 1_555
N22 C109 1_555 1_555
C109 C110 1_555 1_555
C110 H82 1_555 1_555
H83 C110 1_555 1_555
H84 C110 1_555 1_555
N23 C111 1_555 1_555
C111 C112 1_555 1_555
N25 C115 1_555 1_555
C115 C116 1_555 1_555
S1 O4 1_555 1_555
O5 S1 1_555 1_555
O6 S1 1_555 1_555
C118 S1 1_555 1_555
F29 C118 1_555 1_555
F30 C118 1_555 1_555
F31 C118 1_555 1_555
C4 C5 1_555 1_555
C5 C6 1_555 1_555
C11 C12 1_555 1_555
C15 C16 1_555 1_555
C17 C18 1_555 1_555
C19 C20 1_555 1_555
C23 C24 1_555 1_555
C27 C28 1_555 1_555
C29 C30 1_555 1_555
C35 C36 1_555 1_555
C40 C41 1_555 1_555
C41 C42 1_555 1_555
C47 C48 1_555 1_555
C53 C54 1_555 1_555
C55 C56 1_555 1_555
C59 C60 1_555 1_555
C63 C64 1_555 1_555
C65 C66 1_555 1_555
C71 C72 1_555 1_555
C76 C77 1_555 1_555
C77 C78 1_555 1_555
C83 C84 1_555 1_555
C87 C88 1_555 1_555
C89 C90 1_555 1_555
C91 C92 1_555 1_555
C95 C96 1_555 1_555
C99 C100 1_555 1_555
C101 C102 1_555 1_555
C107 C108 1_555 1_555

#END
