# generated using pymatgen
data_H424Pt4C456N29O102
_symmetry_space_group_name_H-M   'P 1'
_cell_length_a   34.18300000
_cell_length_b   36.56700000
_cell_length_c   36.62500000
_cell_angle_alpha   90.00000000
_cell_angle_beta   105.02200000
_cell_angle_gamma   90.00000000
_symmetry_Int_Tables_number   1
_chemical_formula_structural   H424Pt4C456N29O102
_chemical_formula_sum   'H1696 Pt16 C1824 N116 O408'
_cell_volume   44215.66910686
_cell_formula_units_Z   4
loop_
 _symmetry_equiv_pos_site_id
 _symmetry_equiv_pos_as_xyz
  1  'x, y, z'
loop_
 _atom_site_type_symbol
 _atom_site_label
 _atom_site_symmetry_multiplicity
 _atom_site_fract_x
 _atom_site_fract_y
 _atom_site_fract_z
 _atom_site_occupancy
  H  H1  1  0.121000  0.723100  0.125600  1.0
  H  H2  1  0.879000  0.223100  0.374400  1.0
  H  H3  1  0.879000  0.276900  0.874400  1.0
  H  H4  1  0.121000  0.776900  0.625600  1.0
  H  H5  1  0.085600  0.730800  0.171900  1.0
  H  H6  1  0.914400  0.230800  0.328100  1.0
  H  H7  1  0.914400  0.269200  0.828100  1.0
  H  H8  1  0.085600  0.769200  0.671900  1.0
  H  H9  1  0.113000  0.767200  0.224900  1.0
  H  H10  1  0.887000  0.267200  0.275100  1.0
  H  H11  1  0.887000  0.232800  0.775100  1.0
  H  H12  1  0.113000  0.732800  0.724900  1.0
  H  H13  1  0.211000  0.788100  0.185400  1.0
  H  H14  1  0.789000  0.288100  0.314600  1.0
  H  H15  1  0.789000  0.211900  0.814600  1.0
  H  H16  1  0.211000  0.711900  0.685400  1.0
  H  H17  1  0.187400  0.731500  0.262000  1.0
  H  H18  1  0.812600  0.231500  0.238000  1.0
  H  H19  1  0.812600  0.268500  0.738000  1.0
  H  H20  1  0.187400  0.768500  0.762000  1.0
  H  H21  1  0.212200  0.707700  0.323100  1.0
  H  H22  1  0.787800  0.207700  0.176900  1.0
  H  H23  1  0.787800  0.292300  0.676900  1.0
  H  H24  1  0.212200  0.792300  0.823100  1.0
  H  H25  1  0.243200  0.744700  0.376000  1.0
  H  H26  1  0.756800  0.244700  0.124000  1.0
  H  H27  1  0.756800  0.255300  0.624000  1.0
  H  H28  1  0.243200  0.755300  0.876000  1.0
  H  H29  1  0.250100  0.807000  0.367000  1.0
  H  H30  1  0.749900  0.307000  0.133000  1.0
  H  H31  1  0.749900  0.193000  0.633000  1.0
  H  H32  1  0.250100  0.693000  0.867000  1.0
  H  H33  1  0.231100  0.916200  0.284000  1.0
  H  H34  1  0.768900  0.416200  0.216000  1.0
  H  H35  1  0.768900  0.083800  0.716000  1.0
  H  H36  1  0.231100  0.583800  0.784000  1.0
  H  H37  1  0.203700  0.941800  0.225700  1.0
  H  H38  1  0.796300  0.441800  0.274300  1.0
  H  H39  1  0.796300  0.058200  0.774300  1.0
  H  H40  1  0.203700  0.558200  0.725700  1.0
  H  H41  1  0.163500  0.907300  0.176100  1.0
  H  H42  1  0.836500  0.407300  0.323900  1.0
  H  H43  1  0.836500  0.092700  0.823900  1.0
  H  H44  1  0.163500  0.592700  0.676100  1.0
  H  H45  1  0.156300  0.845200  0.182300  1.0
  H  H46  1  0.843700  0.345200  0.317700  1.0
  H  H47  1  0.843700  0.154800  0.817700  1.0
  H  H48  1  0.156300  0.654800  0.682300  1.0
  H  H49  1  0.593100  0.794900  0.430600  1.0
  H  H50  1  0.406900  0.294900  0.069400  1.0
  H  H51  1  0.406900  0.205100  0.569400  1.0
  H  H52  1  0.593100  0.705100  0.930600  1.0
  H  H53  1  0.584200  0.857800  0.437100  1.0
  H  H54  1  0.415800  0.357800  0.062900  1.0
  H  H55  1  0.415800  0.142200  0.562900  1.0
  H  H56  1  0.584200  0.642200  0.937100  1.0
  H  H57  1  0.518900  0.881900  0.427900  1.0
  H  H58  1  0.481100  0.381900  0.072100  1.0
  H  H59  1  0.481100  0.118100  0.572100  1.0
  H  H60  1  0.518900  0.618100  0.927900  1.0
  H  H61  1  0.471500  0.780200  0.405800  1.0
  H  H62  1  0.528500  0.280200  0.094200  1.0
  H  H63  1  0.528500  0.219800  0.594200  1.0
  H  H64  1  0.471500  0.719800  0.905800  1.0
  H  H65  1  0.478300  0.852800  0.348600  1.0
  H  H66  1  0.521700  0.352800  0.151400  1.0
  H  H67  1  0.521700  0.147200  0.651400  1.0
  H  H68  1  0.478300  0.647200  0.848600  1.0
  H  H69  1  0.449700  0.878200  0.289300  1.0
  H  H70  1  0.550300  0.378200  0.210700  1.0
  H  H71  1  0.550300  0.121800  0.710700  1.0
  H  H72  1  0.449700  0.621800  0.789300  1.0
  H  H73  1  0.382900  0.904200  0.275000  1.0
  H  H74  1  0.617100  0.404200  0.225000  1.0
  H  H75  1  0.617100  0.095800  0.725000  1.0
  H  H76  1  0.382900  0.595800  0.775000  1.0
  H  H77  1  0.345100  0.897800  0.319100  1.0
  H  H78  1  0.654900  0.397800  0.180900  1.0
  H  H79  1  0.654900  0.102200  0.680900  1.0
  H  H80  1  0.345100  0.602200  0.819100  1.0
  H  H81  1  0.329900  0.853900  0.442600  1.0
  H  H82  1  0.670100  0.353900  0.057400  1.0
  H  H83  1  0.670100  0.146100  0.557400  1.0
  H  H84  1  0.329900  0.646100  0.942600  1.0
  H  H85  1  0.358800  0.828100  0.500600  1.0
  H  H86  1  0.641200  0.328100  0.999400  1.0
  H  H87  1  0.641200  0.171900  0.499400  1.0
  H  H88  1  0.358800  0.671900  0.000600  1.0
  H  H89  1  0.427700  0.813000  0.518700  1.0
  H  H90  1  0.572300  0.313000  0.981300  1.0
  H  H91  1  0.572300  0.187000  0.481300  1.0
  H  H92  1  0.427700  0.687000  0.018700  1.0
  H  H93  1  0.466800  0.817200  0.476300  1.0
  H  H94  1  0.533200  0.317200  0.023700  1.0
  H  H95  1  0.533200  0.182800  0.523700  1.0
  H  H96  1  0.466800  0.682800  0.976300  1.0
  H  H97  1  0.305300  0.840900  0.336900  1.0
  H  H98  1  0.694700  0.340900  0.163100  1.0
  H  H99  1  0.694700  0.159100  0.663100  1.0
  H  H100  1  0.305300  0.659100  0.836900  1.0
  H  H101  1  0.147500  0.814700  0.093800  1.0
  H  H102  1  0.852500  0.314700  0.406200  1.0
  H  H103  1  0.852500  0.185300  0.906200  1.0
  H  H104  1  0.147500  0.685300  0.593800  1.0
  H  H105  1  0.155900  0.877800  0.088400  1.0
  H  H106  1  0.844100  0.377800  0.411600  1.0
  H  H107  1  0.844100  0.122200  0.911600  1.0
  H  H108  1  0.155900  0.622200  0.588400  1.0
  H  H109  1  0.221100  0.902700  0.100200  1.0
  H  H110  1  0.778900  0.402700  0.399800  1.0
  H  H111  1  0.778900  0.097300  0.899800  1.0
  H  H112  1  0.221100  0.597300  0.600200  1.0
  H  H113  1  0.269300  0.801300  0.122800  1.0
  H  H114  1  0.730700  0.301300  0.377200  1.0
  H  H115  1  0.730700  0.198700  0.877200  1.0
  H  H116  1  0.269300  0.698700  0.622800  1.0
  H  H117  1  0.255700  0.891600  0.175300  1.0
  H  H118  1  0.744300  0.391600  0.324700  1.0
  H  H119  1  0.744300  0.108400  0.824700  1.0
  H  H120  1  0.255700  0.608400  0.675300  1.0
  H  H121  1  0.281500  0.928400  0.224900  1.0
  H  H122  1  0.718500  0.428400  0.275100  1.0
  H  H123  1  0.718500  0.071600  0.775100  1.0
  H  H124  1  0.281500  0.571600  0.724900  1.0
  H  H125  1  0.348700  0.952000  0.238100  1.0
  H  H126  1  0.651300  0.452000  0.261900  1.0
  H  H127  1  0.651300  0.048000  0.761900  1.0
  H  H128  1  0.348700  0.548000  0.738100  1.0
  H  H129  1  0.390000  0.934300  0.199900  1.0
  H  H130  1  0.610000  0.434300  0.300100  1.0
  H  H131  1  0.610000  0.065700  0.800100  1.0
  H  H132  1  0.390000  0.565700  0.699900  1.0
  H  H133  1  0.413100  0.864700  0.091200  1.0
  H  H134  1  0.586900  0.364700  0.408800  1.0
  H  H135  1  0.586900  0.135300  0.908800  1.0
  H  H136  1  0.413100  0.635300  0.591200  1.0
  H  H137  1  0.387300  0.829300  0.038700  1.0
  H  H138  1  0.612700  0.329300  0.461300  1.0
  H  H139  1  0.612700  0.170700  0.961300  1.0
  H  H140  1  0.387300  0.670700  0.538700  1.0
  H  H141  1  0.318300  0.814700  0.019500  1.0
  H  H142  1  0.681700  0.314700  0.480500  1.0
  H  H143  1  0.681700  0.185300  0.980500  1.0
  H  H144  1  0.318300  0.685300  0.519500  1.0
  H  H145  1  0.275600  0.830100  0.056500  1.0
  H  H146  1  0.724400  0.330100  0.443500  1.0
  H  H147  1  0.724400  0.169900  0.943500  1.0
  H  H148  1  0.275600  0.669900  0.556500  1.0
  H  H149  1  0.618900  0.713800  0.391300  1.0
  H  H150  1  0.381100  0.213800  0.108700  1.0
  H  H151  1  0.381100  0.286200  0.608700  1.0
  H  H152  1  0.618900  0.786200  0.891300  1.0
  H  H153  1  0.653600  0.734400  0.347900  1.0
  H  H154  1  0.346400  0.234400  0.152100  1.0
  H  H155  1  0.346400  0.265600  0.652100  1.0
  H  H156  1  0.653600  0.765600  0.847900  1.0
  H  H157  1  0.621800  0.774200  0.299200  1.0
  H  H158  1  0.378200  0.274200  0.200800  1.0
  H  H159  1  0.378200  0.225800  0.700800  1.0
  H  H160  1  0.621800  0.725800  0.799200  1.0
  H  H161  1  0.520500  0.772900  0.337300  1.0
  H  H162  1  0.479500  0.272900  0.162700  1.0
  H  H163  1  0.479500  0.227100  0.662700  1.0
  H  H164  1  0.520500  0.727100  0.837300  1.0
  H  H165  1  0.541500  0.737000  0.257400  1.0
  H  H166  1  0.458500  0.237000  0.242600  1.0
  H  H167  1  0.458500  0.263000  0.742600  1.0
  H  H168  1  0.541500  0.763000  0.757400  1.0
  H  H169  1  0.517700  0.716900  0.196000  1.0
  H  H170  1  0.482300  0.216900  0.304000  1.0
  H  H171  1  0.482300  0.283100  0.804000  1.0
  H  H172  1  0.517700  0.783100  0.696000  1.0
  H  H173  1  0.489800  0.759400  0.146000  1.0
  H  H174  1  0.510200  0.259400  0.354000  1.0
  H  H175  1  0.510200  0.240600  0.854000  1.0
  H  H176  1  0.489800  0.740600  0.646000  1.0
  H  H177  1  0.485100  0.820600  0.161300  1.0
  H  H178  1  0.514900  0.320600  0.338700  1.0
  H  H179  1  0.514900  0.179400  0.838700  1.0
  H  H180  1  0.485100  0.679400  0.661300  1.0
  H  H181  1  0.505900  0.921100  0.255100  1.0
  H  H182  1  0.494100  0.421100  0.244900  1.0
  H  H183  1  0.494100  0.078900  0.744900  1.0
  H  H184  1  0.505900  0.578900  0.755100  1.0
  H  H185  1  0.532600  0.940700  0.316200  1.0
  H  H186  1  0.467400  0.440700  0.183800  1.0
  H  H187  1  0.467400  0.059300  0.683800  1.0
  H  H188  1  0.532600  0.559300  0.816200  1.0
  H  H189  1  0.569900  0.901200  0.362600  1.0
  H  H190  1  0.430100  0.401200  0.137400  1.0
  H  H191  1  0.430100  0.098800  0.637400  1.0
  H  H192  1  0.569900  0.598800  0.862600  1.0
  H  H193  1  0.574800  0.839900  0.350200  1.0
  H  H194  1  0.425200  0.339900  0.149800  1.0
  H  H195  1  0.425200  0.160100  0.649800  1.0
  H  H196  1  0.574800  0.660100  0.850200  1.0
  H  H197  1  0.429200  0.858900  0.196200  1.0
  H  H198  1  0.570800  0.358900  0.303800  1.0
  H  H199  1  0.570800  0.141100  0.803800  1.0
  H  H200  1  0.429200  0.641100  0.696200  1.0
  H  H201  1  0.201400  0.765700  0.033800  1.0
  H  H202  1  0.798600  0.265700  0.466200  1.0
  H  H203  1  0.798600  0.234300  0.966200  1.0
  H  H204  1  0.201400  0.734300  0.533800  1.0
  H  H205  1  0.239900  0.752200  0.991200  1.0
  H  H206  1  0.760100  0.252200  0.508800  1.0
  H  H207  1  0.760100  0.247800  0.008800  1.0
  H  H208  1  0.239900  0.747800  0.491200  1.0
  H  H209  1  0.297900  0.715700  0.010300  1.0
  H  H210  1  0.702100  0.215700  0.489700  1.0
  H  H211  1  0.702100  0.284300  0.989700  1.0
  H  H212  1  0.297900  0.784300  0.510300  1.0
  H  H213  1  0.278900  0.706400  0.114700  1.0
  H  H214  1  0.721100  0.206400  0.385300  1.0
  H  H215  1  0.721100  0.293600  0.885300  1.0
  H  H216  1  0.278900  0.793600  0.614700  1.0
  H  H217  1  0.355400  0.747200  0.061000  1.0
  H  H218  1  0.644600  0.247200  0.439000  1.0
  H  H219  1  0.644600  0.252800  0.939000  1.0
  H  H220  1  0.355400  0.752800  0.561000  1.0
  H  H221  1  0.418500  0.769000  0.066300  1.0
  H  H222  1  0.581500  0.269000  0.433700  1.0
  H  H223  1  0.581500  0.231000  0.933700  1.0
  H  H224  1  0.418500  0.731000  0.566300  1.0
  H  H225  1  0.476200  0.729300  0.088200  1.0
  H  H226  1  0.523800  0.229300  0.411800  1.0
  H  H227  1  0.523800  0.270700  0.911800  1.0
  H  H228  1  0.476200  0.770700  0.588200  1.0
  H  H229  1  0.465300  0.670800  0.108300  1.0
  H  H230  1  0.534700  0.170800  0.391700  1.0
  H  H231  1  0.534700  0.329200  0.891700  1.0
  H  H232  1  0.465300  0.829200  0.608300  1.0
  H  H233  1  0.373600  0.573500  0.131300  1.0
  H  H234  1  0.626400  0.073500  0.368700  1.0
  H  H235  1  0.626400  0.426500  0.868700  1.0
  H  H236  1  0.373600  0.926500  0.631300  1.0
  H  H237  1  0.308700  0.552800  0.124900  1.0
  H  H238  1  0.691300  0.052800  0.375100  1.0
  H  H239  1  0.691300  0.447200  0.875100  1.0
  H  H240  1  0.308700  0.947200  0.624900  1.0
  H  H241  1  0.252600  0.587600  0.093300  1.0
  H  H242  1  0.747400  0.087600  0.406700  1.0
  H  H243  1  0.747400  0.412400  0.906700  1.0
  H  H244  1  0.252600  0.912400  0.593300  1.0
  H  H245  1  0.260600  0.646300  0.073700  1.0
  H  H246  1  0.739400  0.146300  0.426300  1.0
  H  H247  1  0.739400  0.353700  0.926300  1.0
  H  H248  1  0.260600  0.853700  0.573700  1.0
  H  H249  1  0.565700  0.658500  0.450200  1.0
  H  H250  1  0.434300  0.158500  0.049800  1.0
  H  H251  1  0.434300  0.341500  0.549800  1.0
  H  H252  1  0.565700  0.841500  0.950200  1.0
  H  H253  1  0.573100  0.596800  0.436600  1.0
  H  H254  1  0.426900  0.096800  0.063400  1.0
  H  H255  1  0.426900  0.403200  0.563400  1.0
  H  H256  1  0.573100  0.903200  0.936600  1.0
  H  H257  1  0.554100  0.576300  0.373900  1.0
  H  H258  1  0.445900  0.076300  0.126100  1.0
  H  H259  1  0.445900  0.423700  0.626100  1.0
  H  H260  1  0.554100  0.923700  0.873900  1.0
  H  H261  1  0.520200  0.679300  0.338600  1.0
  H  H262  1  0.479800  0.179300  0.161400  1.0
  H  H263  1  0.479800  0.320700  0.661400  1.0
  H  H264  1  0.520200  0.820700  0.838600  1.0
  H  H265  1  0.480100  0.573800  0.348500  1.0
  H  H266  1  0.519900  0.073800  0.151500  1.0
  H  H267  1  0.519900  0.426200  0.651500  1.0
  H  H268  1  0.480100  0.926200  0.848500  1.0
  H  H269  1  0.426600  0.537000  0.323000  1.0
  H  H270  1  0.573400  0.037000  0.177000  1.0
  H  H271  1  0.573400  0.463000  0.677000  1.0
  H  H272  1  0.426600  0.963000  0.823000  1.0
  H  H273  1  0.407300  0.521500  0.257700  1.0
  H  H274  1  0.592700  0.021500  0.242300  1.0
  H  H275  1  0.592700  0.478500  0.742300  1.0
  H  H276  1  0.407300  0.978500  0.757700  1.0
  H  H277  1  0.438300  0.551600  0.216800  1.0
  H  H278  1  0.561700  0.051600  0.283200  1.0
  H  H279  1  0.561700  0.448400  0.783200  1.0
  H  H280  1  0.438300  0.948400  0.716800  1.0
  H  H281  1  0.537400  0.641300  0.192700  1.0
  H  H282  1  0.462600  0.141300  0.307300  1.0
  H  H283  1  0.462600  0.358700  0.807300  1.0
  H  H284  1  0.537400  0.858700  0.692700  1.0
  H  H285  1  0.590400  0.680700  0.216300  1.0
  H  H286  1  0.409600  0.180700  0.283700  1.0
  H  H287  1  0.409600  0.319300  0.783700  1.0
  H  H288  1  0.590400  0.819300  0.716300  1.0
  H  H289  1  0.618000  0.687200  0.281500  1.0
  H  H290  1  0.382000  0.187200  0.218500  1.0
  H  H291  1  0.382000  0.312800  0.718500  1.0
  H  H292  1  0.618000  0.812800  0.781500  1.0
  H  H293  1  0.588200  0.659300  0.324000  1.0
  H  H294  1  0.411800  0.159300  0.176000  1.0
  H  H295  1  0.411800  0.340700  0.676000  1.0
  H  H296  1  0.588200  0.840700  0.824000  1.0
  H  H297  1  0.433600  0.635600  0.182100  1.0
  H  H298  1  0.566400  0.135600  0.317900  1.0
  H  H299  1  0.566400  0.364400  0.817900  1.0
  H  H300  1  0.433600  0.864400  0.682100  1.0
  H  H301  1  0.179100  0.677300  0.067900  1.0
  H  H302  1  0.820900  0.177300  0.432100  1.0
  H  H303  1  0.820900  0.322700  0.932100  1.0
  H  H304  1  0.179100  0.822700  0.567900  1.0
  H  H305  1  0.173200  0.615100  0.080600  1.0
  H  H306  1  0.826800  0.115100  0.419400  1.0
  H  H307  1  0.826800  0.384900  0.919400  1.0
  H  H308  1  0.173200  0.884900  0.580600  1.0
  H  H309  1  0.191400  0.594000  0.143100  1.0
  H  H310  1  0.808600  0.094000  0.356900  1.0
  H  H311  1  0.808600  0.406000  0.856900  1.0
  H  H312  1  0.191400  0.906000  0.643100  1.0
  H  H313  1  0.221300  0.697300  0.180100  1.0
  H  H314  1  0.778700  0.197300  0.319900  1.0
  H  H315  1  0.778700  0.302700  0.819900  1.0
  H  H316  1  0.221300  0.802700  0.680100  1.0
  H  H317  1  0.280000  0.614300  0.177600  1.0
  H  H318  1  0.720000  0.114300  0.322400  1.0
  H  H319  1  0.720000  0.385700  0.822400  1.0
  H  H320  1  0.280000  0.885700  0.677600  1.0
  H  H321  1  0.340700  0.588200  0.203400  1.0
  H  H322  1  0.659300  0.088200  0.296600  1.0
  H  H323  1  0.659300  0.411800  0.796600  1.0
  H  H324  1  0.340700  0.911800  0.703400  1.0
  H  H325  1  0.356400  0.565500  0.267200  1.0
  H  H326  1  0.643600  0.065500  0.232800  1.0
  H  H327  1  0.643600  0.434500  0.732800  1.0
  H  H328  1  0.356400  0.934500  0.767200  1.0
  H  H329  1  0.311700  0.578200  0.303700  1.0
  H  H330  1  0.688300  0.078200  0.196300  1.0
  H  H331  1  0.688300  0.421800  0.696300  1.0
  H  H332  1  0.311700  0.921800  0.803700  1.0
  H  H333  1  0.184500  0.633300  0.319300  1.0
  H  H334  1  0.815500  0.133300  0.180700  1.0
  H  H335  1  0.815500  0.366700  0.680700  1.0
  H  H336  1  0.184500  0.866700  0.819300  1.0
  H  H337  1  0.123900  0.661700  0.292500  1.0
  H  H338  1  0.876100  0.161700  0.207500  1.0
  H  H339  1  0.876100  0.338300  0.707500  1.0
  H  H340  1  0.123900  0.838300  0.792500  1.0
  H  H341  1  0.103200  0.673400  0.227500  1.0
  H  H342  1  0.896800  0.173400  0.272500  1.0
  H  H343  1  0.896800  0.326600  0.772500  1.0
  H  H344  1  0.103200  0.826600  0.727500  1.0
  H  H345  1  0.146400  0.662900  0.189600  1.0
  H  H346  1  0.853600  0.162900  0.310400  1.0
  H  H347  1  0.853600  0.337100  0.810400  1.0
  H  H348  1  0.146400  0.837100  0.689600  1.0
  H  H349  1  0.545700  0.742500  0.490400  1.0
  H  H350  1  0.454300  0.242500  0.009600  1.0
  H  H351  1  0.454300  0.257500  0.509600  1.0
  H  H352  1  0.545700  0.757500  0.990400  1.0
  H  H353  1  0.506800  0.732400  0.533500  1.0
  H  H354  1  0.493200  0.232400  0.966500  1.0
  H  H355  1  0.493200  0.267600  0.466500  1.0
  H  H356  1  0.506800  0.767600  0.033500  1.0
  H  H357  1  0.446300  0.699400  0.514900  1.0
  H  H358  1  0.553700  0.199400  0.985100  1.0
  H  H359  1  0.553700  0.300600  0.485100  1.0
  H  H360  1  0.446300  0.800600  0.014900  1.0
  H  H361  1  0.463400  0.686700  0.410200  1.0
  H  H362  1  0.536600  0.186700  0.089800  1.0
  H  H363  1  0.536600  0.313300  0.589800  1.0
  H  H364  1  0.463400  0.813300  0.910200  1.0
  H  H365  1  0.395400  0.738200  0.467100  1.0
  H  H366  1  0.604600  0.238200  0.032900  1.0
  H  H367  1  0.604600  0.261800  0.532900  1.0
  H  H368  1  0.395400  0.761800  0.967100  1.0
  H  H369  1  0.332900  0.764300  0.462600  1.0
  H  H370  1  0.667100  0.264300  0.037400  1.0
  H  H371  1  0.667100  0.235700  0.537400  1.0
  H  H372  1  0.332900  0.735700  0.962600  1.0
  H  H373  1  0.271300  0.731400  0.438700  1.0
  H  H374  1  0.728700  0.231400  0.061300  1.0
  H  H375  1  0.728700  0.268600  0.561300  1.0
  H  H376  1  0.271300  0.768600  0.938700  1.0
  H  H377  1  0.274300  0.672600  0.415700  1.0
  H  H378  1  0.725700  0.172600  0.084300  1.0
  H  H379  1  0.725700  0.327400  0.584300  1.0
  H  H380  1  0.274300  0.827400  0.915700  1.0
  H  H381  1  0.352500  0.566700  0.387800  1.0
  H  H382  1  0.647500  0.066700  0.112200  1.0
  H  H383  1  0.647500  0.433300  0.612200  1.0
  H  H384  1  0.352500  0.933300  0.887800  1.0
  H  H385  1  0.414200  0.539300  0.393100  1.0
  H  H386  1  0.585800  0.039300  0.106900  1.0
  H  H387  1  0.585800  0.460700  0.606900  1.0
  H  H388  1  0.414200  0.960700  0.893100  1.0
  H  H389  1  0.474500  0.567300  0.426500  1.0
  H  H390  1  0.525500  0.067300  0.073500  1.0
  H  H391  1  0.525500  0.432700  0.573500  1.0
  H  H392  1  0.474500  0.932700  0.926500  1.0
  H  H393  1  0.474300  0.626100  0.449000  1.0
  H  H394  1  0.525700  0.126100  0.051000  1.0
  H  H395  1  0.525700  0.373900  0.551000  1.0
  H  H396  1  0.474300  0.873900  0.949000  1.0
  H  H397  1  0.301700  0.639600  0.339600  1.0
  H  H398  1  0.698300  0.139600  0.160400  1.0
  H  H399  1  0.698300  0.360400  0.660400  1.0
  H  H400  1  0.301700  0.860400  0.839600  1.0
  H  H401  1  0.043800  0.755800  0.995800  1.0
  H  H402  1  0.956200  0.255800  0.504200  1.0
  H  H403  1  0.956200  0.244200  0.004200  1.0
  H  H404  1  0.043800  0.744200  0.495800  1.0
  H  H405  1  0.006300  0.745600  0.039900  1.0
  H  H406  1  0.993700  0.245600  0.460100  1.0
  H  H407  1  0.993700  0.254400  0.960100  1.0
  H  H408  1  0.006300  0.754400  0.539900  1.0
  H  H409  1  0.947000  0.710600  0.023300  1.0
  H  H410  1  0.053000  0.210600  0.476700  1.0
  H  H411  1  0.053000  0.289400  0.976700  1.0
  H  H412  1  0.947000  0.789400  0.523300  1.0
  H  H413  1  0.962800  0.695900  0.918400  1.0
  H  H414  1  0.037200  0.195900  0.581600  1.0
  H  H415  1  0.037200  0.304100  0.081600  1.0
  H  H416  1  0.962800  0.804100  0.418400  1.0
  H  H417  1  0.894900  0.747300  0.969700  1.0
  H  H418  1  0.105100  0.247300  0.530300  1.0
  H  H419  1  0.105100  0.252700  0.030300  1.0
  H  H420  1  0.894900  0.752700  0.469700  1.0
  H  H421  1  0.832600  0.774800  0.961700  1.0
  H  H422  1  0.167400  0.274800  0.538300  1.0
  H  H423  1  0.167400  0.225200  0.038300  1.0
  H  H424  1  0.832600  0.725200  0.461700  1.0
  H  H425  1  0.771200  0.740500  0.941200  1.0
  H  H426  1  0.228800  0.240500  0.558800  1.0
  H  H427  1  0.228800  0.259500  0.058800  1.0
  H  H428  1  0.771200  0.759500  0.441200  1.0
  H  H429  1  0.775100  0.679600  0.924200  1.0
  H  H430  1  0.224900  0.179600  0.575800  1.0
  H  H431  1  0.224900  0.320400  0.075800  1.0
  H  H432  1  0.775100  0.820400  0.424200  1.0
  H  H433  1  0.854900  0.570700  0.907100  1.0
  H  H434  1  0.145100  0.070700  0.592900  1.0
  H  H435  1  0.145100  0.429300  0.092900  1.0
  H  H436  1  0.854900  0.929300  0.407100  1.0
  H  H437  1  0.917100  0.543200  0.915300  1.0
  H  H438  1  0.082900  0.043200  0.584700  1.0
  H  H439  1  0.082900  0.456800  0.084700  1.0
  H  H440  1  0.917100  0.956800  0.415300  1.0
  H  H441  1  0.976900  0.573600  0.945900  1.0
  H  H442  1  0.023100  0.073600  0.554100  1.0
  H  H443  1  0.023100  0.426400  0.054100  1.0
  H  H444  1  0.976900  0.926400  0.445900  1.0
  H  H445  1  0.975800  0.634300  0.962400  1.0
  H  H446  1  0.024200  0.134300  0.537600  1.0
  H  H447  1  0.024200  0.365700  0.037600  1.0
  H  H448  1  0.975800  0.865700  0.462400  1.0
  H  H449  1  0.681200  0.652000  0.579600  1.0
  H  H450  1  0.318800  0.152000  0.920400  1.0
  H  H451  1  0.318800  0.348000  0.420400  1.0
  H  H452  1  0.681200  0.848000  0.079600  1.0
  H  H453  1  0.678400  0.590500  0.596200  1.0
  H  H454  1  0.321600  0.090500  0.903800  1.0
  H  H455  1  0.321600  0.409500  0.403800  1.0
  H  H456  1  0.678400  0.909500  0.096200  1.0
  H  H457  1  0.697900  0.573200  0.659900  1.0
  H  H458  1  0.302100  0.073200  0.840100  1.0
  H  H459  1  0.302100  0.426800  0.340100  1.0
  H  H460  1  0.697900  0.926800  0.159900  1.0
  H  H461  1  0.723100  0.678900  0.690200  1.0
  H  H462  1  0.276900  0.178900  0.809800  1.0
  H  H463  1  0.276900  0.321100  0.309800  1.0
  H  H464  1  0.723100  0.821100  0.190200  1.0
  H  H465  1  0.782400  0.592700  0.694300  1.0
  H  H466  1  0.217600  0.092700  0.805700  1.0
  H  H467  1  0.217600  0.407300  0.305700  1.0
  H  H468  1  0.782400  0.907300  0.194300  1.0
  H  H469  1  0.843100  0.566500  0.724300  1.0
  H  H470  1  0.156900  0.066500  0.775700  1.0
  H  H471  1  0.156900  0.433500  0.275700  1.0
  H  H472  1  0.843100  0.933500  0.224300  1.0
  H  H473  1  0.857600  0.550700  0.790000  1.0
  H  H474  1  0.142400  0.050700  0.710000  1.0
  H  H475  1  0.142400  0.449300  0.210000  1.0
  H  H476  1  0.857600  0.949300  0.290000  1.0
  H  H477  1  0.812500  0.569100  0.824200  1.0
  H  H478  1  0.187500  0.069100  0.675800  1.0
  H  H479  1  0.187500  0.430900  0.175800  1.0
  H  H480  1  0.812500  0.930900  0.324200  1.0
  H  H481  1  0.685700  0.630500  0.832100  1.0
  H  H482  1  0.314300  0.130500  0.667900  1.0
  H  H483  1  0.314300  0.369500  0.167900  1.0
  H  H484  1  0.685700  0.869500  0.332100  1.0
  H  H485  1  0.625600  0.658000  0.801700  1.0
  H  H486  1  0.374400  0.158000  0.698300  1.0
  H  H487  1  0.374400  0.342000  0.198300  1.0
  H  H488  1  0.625600  0.842000  0.301700  1.0
  H  H489  1  0.605800  0.663200  0.735700  1.0
  H  H490  1  0.394200  0.163200  0.764300  1.0
  H  H491  1  0.394200  0.336800  0.264300  1.0
  H  H492  1  0.605800  0.836800  0.235700  1.0
  H  H493  1  0.649400  0.646800  0.699900  1.0
  H  H494  1  0.350600  0.146800  0.800100  1.0
  H  H495  1  0.350600  0.353200  0.300100  1.0
  H  H496  1  0.649400  0.853200  0.199900  1.0
  H  H497  1  0.803000  0.636400  0.852000  1.0
  H  H498  1  0.197000  0.136400  0.648000  1.0
  H  H499  1  0.197000  0.363600  0.148000  1.0
  H  H500  1  0.803000  0.863600  0.352000  1.0
  H  H501  1  0.067700  0.671200  0.963000  1.0
  H  H502  1  0.932300  0.171200  0.537000  1.0
  H  H503  1  0.932300  0.328800  0.037000  1.0
  H  H504  1  0.067700  0.828800  0.463000  1.0
  H  H505  1  0.075300  0.608300  0.955100  1.0
  H  H506  1  0.924700  0.108300  0.544900  1.0
  H  H507  1  0.924700  0.391700  0.044900  1.0
  H  H508  1  0.075300  0.891700  0.455100  1.0
  H  H509  1  0.057000  0.582600  0.894600  1.0
  H  H510  1  0.943000  0.082600  0.605400  1.0
  H  H511  1  0.943000  0.417400  0.105400  1.0
  H  H512  1  0.057000  0.917400  0.394600  1.0
  H  H513  1  0.023500  0.682700  0.849700  1.0
  H  H514  1  0.976500  0.182700  0.650300  1.0
  H  H515  1  0.976500  0.317300  0.150300  1.0
  H  H516  1  0.023500  0.817300  0.349700  1.0
  H  H517  1  0.983000  0.581400  0.865100  1.0
  H  H518  1  0.017000  0.081400  0.634900  1.0
  H  H519  1  0.017000  0.418600  0.134900  1.0
  H  H520  1  0.983000  0.918600  0.365100  1.0
  H  H521  1  0.932300  0.540500  0.846100  1.0
  H  H522  1  0.067700  0.040500  0.653900  1.0
  H  H523  1  0.067700  0.459500  0.153900  1.0
  H  H524  1  0.932300  0.959500  0.346100  1.0
  H  H525  1  0.913400  0.519600  0.781500  1.0
  H  H526  1  0.086600  0.019600  0.718500  1.0
  H  H527  1  0.086600  0.480400  0.218500  1.0
  H  H528  1  0.913400  0.980400  0.281500  1.0
  H  H529  1  0.945100  0.545700  0.738900  1.0
  H  H530  1  0.054900  0.045700  0.761100  1.0
  H  H531  1  0.054900  0.454300  0.261100  1.0
  H  H532  1  0.945100  0.954300  0.238900  1.0
  H  H533  1  0.044100  0.632100  0.708900  1.0
  H  H534  1  0.955900  0.132100  0.791100  1.0
  H  H535  1  0.955900  0.367900  0.291100  1.0
  H  H536  1  0.044100  0.867900  0.208900  1.0
  H  H537  1  0.096200  0.672900  0.729800  1.0
  H  H538  1  0.903800  0.172900  0.770200  1.0
  H  H539  1  0.903800  0.327100  0.270200  1.0
  H  H540  1  0.096200  0.827100  0.229800  1.0
  H  H541  1  0.122400  0.684900  0.794300  1.0
  H  H542  1  0.877600  0.184900  0.705700  1.0
  H  H543  1  0.877600  0.315100  0.205700  1.0
  H  H544  1  0.122400  0.815100  0.294300  1.0
  H  H545  1  0.091800  0.661100  0.838300  1.0
  H  H546  1  0.908200  0.161100  0.661700  1.0
  H  H547  1  0.908200  0.338900  0.161700  1.0
  H  H548  1  0.091800  0.838900  0.338300  1.0
  H  H549  1  0.702500  0.740600  0.540600  1.0
  H  H550  1  0.297500  0.240600  0.959400  1.0
  H  H551  1  0.297500  0.259400  0.459400  1.0
  H  H552  1  0.702500  0.759400  0.040600  1.0
  H  H553  1  0.740600  0.726000  0.497900  1.0
  H  H554  1  0.259400  0.226000  0.002100  1.0
  H  H555  1  0.259400  0.274000  0.502100  1.0
  H  H556  1  0.740600  0.774000  0.997900  1.0
  H  H557  1  0.799700  0.691100  0.517900  1.0
  H  H558  1  0.200300  0.191100  0.982100  1.0
  H  H559  1  0.200300  0.308900  0.482100  1.0
  H  H560  1  0.799700  0.808900  0.017900  1.0
  H  H561  1  0.782500  0.685300  0.623200  1.0
  H  H562  1  0.217500  0.185300  0.876800  1.0
  H  H563  1  0.217500  0.314700  0.376800  1.0
  H  H564  1  0.782500  0.814700  0.123200  1.0
  H  H565  1  0.855700  0.726000  0.564100  1.0
  H  H566  1  0.144300  0.226000  0.935900  1.0
  H  H567  1  0.144300  0.274000  0.435900  1.0
  H  H568  1  0.855700  0.774000  0.064100  1.0
  H  H569  1  0.918400  0.748600  0.567900  1.0
  H  H570  1  0.081600  0.248600  0.932100  1.0
  H  H571  1  0.081600  0.251400  0.432100  1.0
  H  H572  1  0.918400  0.751400  0.067900  1.0
  H  H573  1  0.977900  0.713000  0.594300  1.0
  H  H574  1  0.022100  0.213000  0.905700  1.0
  H  H575  1  0.022100  0.287000  0.405700  1.0
  H  H576  1  0.977900  0.787000  0.094300  1.0
  H  H577  1  0.970400  0.656100  0.620000  1.0
  H  H578  1  0.029600  0.156100  0.880000  1.0
  H  H579  1  0.029600  0.343900  0.380000  1.0
  H  H580  1  0.970400  0.843900  0.120000  1.0
  H  H581  1  0.884300  0.558200  0.651500  1.0
  H  H582  1  0.115700  0.058200  0.848500  1.0
  H  H583  1  0.115700  0.441800  0.348500  1.0
  H  H584  1  0.884300  0.941800  0.151500  1.0
  H  H585  1  0.820600  0.535000  0.646500  1.0
  H  H586  1  0.179400  0.035000  0.853500  1.0
  H  H587  1  0.179400  0.465000  0.353500  1.0
  H  H588  1  0.820600  0.965000  0.146500  1.0
  H  H589  1  0.762700  0.565100  0.611000  1.0
  H  H590  1  0.237300  0.065100  0.889000  1.0
  H  H591  1  0.237300  0.434900  0.389000  1.0
  H  H592  1  0.762700  0.934900  0.111000  1.0
  H  H593  1  0.767400  0.622100  0.585800  1.0
  H  H594  1  0.232600  0.122100  0.914200  1.0
  H  H595  1  0.232600  0.377900  0.414200  1.0
  H  H596  1  0.767400  0.877900  0.085800  1.0
  H  H597  1  0.938400  0.622800  0.698900  1.0
  H  H598  1  0.061600  0.122800  0.801100  1.0
  H  H599  1  0.061600  0.377200  0.301100  1.0
  H  H600  1  0.938400  0.877200  0.198900  1.0
  H  H601  1  0.118400  0.721000  0.899700  1.0
  H  H602  1  0.881600  0.221000  0.600300  1.0
  H  H603  1  0.881600  0.279000  0.100300  1.0
  H  H604  1  0.118400  0.779000  0.399700  1.0
  H  H605  1  0.153100  0.736300  0.854500  1.0
  H  H606  1  0.846900  0.236300  0.645500  1.0
  H  H607  1  0.846900  0.263700  0.145500  1.0
  H  H608  1  0.153100  0.763700  0.354500  1.0
  H  H609  1  0.121300  0.772000  0.802100  1.0
  H  H610  1  0.878700  0.272000  0.697900  1.0
  H  H611  1  0.878700  0.228000  0.197900  1.0
  H  H612  1  0.121300  0.728000  0.302100  1.0
  H  H613  1  0.020200  0.777100  0.840300  1.0
  H  H614  1  0.979800  0.277100  0.659700  1.0
  H  H615  1  0.979800  0.222900  0.159700  1.0
  H  H616  1  0.020200  0.722900  0.340300  1.0
  H  H617  1  0.047400  0.732700  0.764200  1.0
  H  H618  1  0.952600  0.232700  0.735800  1.0
  H  H619  1  0.952600  0.267300  0.235800  1.0
  H  H620  1  0.047400  0.767300  0.264200  1.0
  H  H621  1  0.022000  0.707900  0.703900  1.0
  H  H622  1  0.978000  0.207900  0.796100  1.0
  H  H623  1  0.978000  0.292100  0.296100  1.0
  H  H624  1  0.022000  0.792100  0.203900  1.0
  H  H625  1  0.993300  0.746000  0.650500  1.0
  H  H626  1  0.006700  0.246000  0.849500  1.0
  H  H627  1  0.006700  0.254000  0.349500  1.0
  H  H628  1  0.993300  0.754000  0.150500  1.0
  H  H629  1  0.985300  0.808000  0.660600  1.0
  H  H630  1  0.014700  0.308000  0.839400  1.0
  H  H631  1  0.014700  0.192000  0.339400  1.0
  H  H632  1  0.985300  0.692000  0.160600  1.0
  H  H633  1  0.999600  0.915200  0.745800  1.0
  H  H634  1  0.000400  0.415200  0.754200  1.0
  H  H635  1  0.000400  0.084800  0.254200  1.0
  H  H636  1  0.999600  0.584800  0.245800  1.0
  H  H637  1  0.024600  0.939700  0.805100  1.0
  H  H638  1  0.975400  0.439700  0.694900  1.0
  H  H639  1  0.975400  0.060300  0.194900  1.0
  H  H640  1  0.024600  0.560300  0.305100  1.0
  H  H641  1  0.063300  0.904500  0.854900  1.0
  H  H642  1  0.936700  0.404500  0.645100  1.0
  H  H643  1  0.936700  0.095500  0.145100  1.0
  H  H644  1  0.063300  0.595500  0.354900  1.0
  H  H645  1  0.071600  0.842600  0.847600  1.0
  H  H646  1  0.928400  0.342600  0.652400  1.0
  H  H647  1  0.928400  0.157400  0.152400  1.0
  H  H648  1  0.071600  0.657400  0.347600  1.0
  H  H649  1  0.645400  0.789300  0.598100  1.0
  H  H650  1  0.354600  0.289300  0.901900  1.0
  H  H651  1  0.354600  0.210700  0.401900  1.0
  H  H652  1  0.645400  0.710700  0.098100  1.0
  H  H653  1  0.650300  0.852400  0.590100  1.0
  H  H654  1  0.349700  0.352400  0.909900  1.0
  H  H655  1  0.349700  0.147600  0.409900  1.0
  H  H656  1  0.650300  0.647600  0.090100  1.0
  H  H657  1  0.714000  0.879800  0.598800  1.0
  H  H658  1  0.286000  0.379800  0.901200  1.0
  H  H659  1  0.286000  0.120200  0.401200  1.0
  H  H660  1  0.714000  0.620200  0.098800  1.0
  H  H661  1  0.767700  0.780900  0.623700  1.0
  H  H662  1  0.232300  0.280900  0.876300  1.0
  H  H663  1  0.232300  0.219100  0.376300  1.0
  H  H664  1  0.767700  0.719100  0.123700  1.0
  H  H665  1  0.752000  0.879500  0.668300  1.0
  H  H666  1  0.248000  0.379500  0.831700  1.0
  H  H667  1  0.248000  0.120500  0.331700  1.0
  H  H668  1  0.752000  0.620500  0.168300  1.0
  H  H669  1  0.777800  0.920200  0.715000  1.0
  H  H670  1  0.222200  0.420200  0.785000  1.0
  H  H671  1  0.222200  0.079800  0.285000  1.0
  H  H672  1  0.777800  0.579800  0.215000  1.0
  H  H673  1  0.844900  0.944000  0.724500  1.0
  H  H674  1  0.155100  0.444000  0.775500  1.0
  H  H675  1  0.155100  0.056000  0.275500  1.0
  H  H676  1  0.844900  0.556000  0.224500  1.0
  H  H677  1  0.885500  0.921100  0.687800  1.0
  H  H678  1  0.114500  0.421100  0.812200  1.0
  H  H679  1  0.114500  0.078900  0.312200  1.0
  H  H680  1  0.885500  0.578900  0.187800  1.0
  H  H681  1  0.907200  0.839100  0.587100  1.0
  H  H682  1  0.092800  0.339100  0.912900  1.0
  H  H683  1  0.092800  0.160900  0.412900  1.0
  H  H684  1  0.907200  0.660900  0.087100  1.0
  H  H685  1  0.880800  0.798500  0.539100  1.0
  H  H686  1  0.119200  0.298500  0.960900  1.0
  H  H687  1  0.119200  0.201500  0.460900  1.0
  H  H688  1  0.880800  0.701500  0.039100  1.0
  H  H689  1  0.811800  0.783500  0.522600  1.0
  H  H690  1  0.188200  0.283500  0.977400  1.0
  H  H691  1  0.188200  0.216500  0.477400  1.0
  H  H692  1  0.811800  0.716500  0.022600  1.0
  H  H693  1  0.769800  0.804000  0.558300  1.0
  H  H694  1  0.230200  0.304000  0.941700  1.0
  H  H695  1  0.230200  0.196000  0.441700  1.0
  H  H696  1  0.769800  0.696000  0.058300  1.0
  H  H697  1  0.926300  0.843900  0.692100  1.0
  H  H698  1  0.073700  0.343900  0.807900  1.0
  H  H699  1  0.073700  0.156100  0.307900  1.0
  H  H700  1  0.926300  0.656100  0.192100  1.0
  H  H701  1  0.089900  0.805000  0.935000  1.0
  H  H702  1  0.910100  0.305000  0.565000  1.0
  H  H703  1  0.910100  0.195000  0.065000  1.0
  H  H704  1  0.089900  0.695000  0.435000  1.0
  H  H705  1  0.079800  0.868100  0.937700  1.0
  H  H706  1  0.920200  0.368100  0.562300  1.0
  H  H707  1  0.920200  0.131900  0.062300  1.0
  H  H708  1  0.079800  0.631900  0.437700  1.0
  H  H709  1  0.014000  0.891700  0.924600  1.0
  H  H710  1  0.986000  0.391700  0.575400  1.0
  H  H711  1  0.986000  0.108300  0.075400  1.0
  H  H712  1  0.014000  0.608300  0.424600  1.0
  H  H713  1  0.968400  0.789100  0.906100  1.0
  H  H714  1  0.031600  0.289100  0.593900  1.0
  H  H715  1  0.031600  0.210900  0.093900  1.0
  H  H716  1  0.968400  0.710900  0.406100  1.0
  H  H717  1  0.973600  0.856900  0.845700  1.0
  H  H718  1  0.026400  0.356900  0.654300  1.0
  H  H719  1  0.026400  0.143100  0.154300  1.0
  H  H720  1  0.973600  0.643100  0.345700  1.0
  H  H721  1  0.943500  0.879400  0.785400  1.0
  H  H722  1  0.056500  0.379400  0.714600  1.0
  H  H723  1  0.056500  0.120600  0.214600  1.0
  H  H724  1  0.943500  0.620600  0.285400  1.0
  H  H725  1  0.875300  0.901600  0.769100  1.0
  H  H726  1  0.124700  0.401600  0.730900  1.0
  H  H727  1  0.124700  0.098400  0.230900  1.0
  H  H728  1  0.875300  0.598400  0.269100  1.0
  H  H729  1  0.838000  0.897400  0.813700  1.0
  H  H730  1  0.162000  0.397400  0.686300  1.0
  H  H731  1  0.162000  0.102600  0.186300  1.0
  H  H732  1  0.838000  0.602600  0.313700  1.0
  H  H733  1  0.825400  0.862300  0.941000  1.0
  H  H734  1  0.174600  0.362300  0.559000  1.0
  H  H735  1  0.174600  0.137700  0.059000  1.0
  H  H736  1  0.825400  0.637700  0.441000  1.0
  H  H737  1  0.855800  0.842000  0.001000  1.0
  H  H738  1  0.144200  0.342000  0.499000  1.0
  H  H739  1  0.144200  0.158000  0.999000  1.0
  H  H740  1  0.855800  0.658000  0.501000  1.0
  H  H741  1  0.925500  0.830200  0.020100  1.0
  H  H742  1  0.074500  0.330200  0.479900  1.0
  H  H743  1  0.074500  0.169800  0.979900  1.0
  H  H744  1  0.925500  0.669800  0.520100  1.0
  H  H745  1  0.964300  0.832500  0.977300  1.0
  H  H746  1  0.035700  0.332500  0.522700  1.0
  H  H747  1  0.035700  0.167500  0.022700  1.0
  H  H748  1  0.964300  0.667500  0.477300  1.0
  H  H749  1  0.623700  0.701000  0.635600  1.0
  H  H750  1  0.376300  0.201000  0.864400  1.0
  H  H751  1  0.376300  0.299000  0.364400  1.0
  H  H752  1  0.623700  0.799000  0.135600  1.0
  H  H753  1  0.587800  0.713600  0.680500  1.0
  H  H754  1  0.412200  0.213600  0.819500  1.0
  H  H755  1  0.412200  0.286400  0.319500  1.0
  H  H756  1  0.587800  0.786400  0.180500  1.0
  H  H757  1  0.613200  0.756000  0.728600  1.0
  H  H758  1  0.386800  0.256000  0.771400  1.0
  H  H759  1  0.386800  0.244000  0.271400  1.0
  H  H760  1  0.613200  0.744000  0.228600  1.0
  H  H761  1  0.710500  0.773200  0.686800  1.0
  H  H762  1  0.289500  0.273200  0.813200  1.0
  H  H763  1  0.289500  0.226800  0.313200  1.0
  H  H764  1  0.710500  0.726800  0.186800  1.0
  H  H765  1  0.690100  0.724900  0.767500  1.0
  H  H766  1  0.309900  0.224900  0.732500  1.0
  H  H767  1  0.309900  0.275100  0.232500  1.0
  H  H768  1  0.690100  0.775100  0.267500  1.0
  H  H769  1  0.715100  0.703900  0.829200  1.0
  H  H770  1  0.284900  0.203900  0.670800  1.0
  H  H771  1  0.284900  0.296100  0.170800  1.0
  H  H772  1  0.715100  0.796100  0.329200  1.0
  H  H773  1  0.744700  0.745200  0.879500  1.0
  H  H774  1  0.255300  0.245200  0.620500  1.0
  H  H775  1  0.255300  0.254800  0.120500  1.0
  H  H776  1  0.744700  0.754800  0.379500  1.0
  H  H777  1  0.749300  0.806800  0.865400  1.0
  H  H778  1  0.250700  0.306800  0.634600  1.0
  H  H779  1  0.250700  0.193200  0.134600  1.0
  H  H780  1  0.749300  0.693200  0.365400  1.0
  H  H781  1  0.726300  0.909300  0.773700  1.0
  H  H782  1  0.273700  0.409300  0.726300  1.0
  H  H783  1  0.273700  0.090700  0.226300  1.0
  H  H784  1  0.726300  0.590700  0.273700  1.0
  H  H785  1  0.698000  0.930100  0.713400  1.0
  H  H786  1  0.302000  0.430100  0.786600  1.0
  H  H787  1  0.302000  0.069900  0.286600  1.0
  H  H788  1  0.698000  0.569900  0.213400  1.0
  H  H789  1  0.659200  0.891600  0.666800  1.0
  H  H790  1  0.340800  0.391600  0.833200  1.0
  H  H791  1  0.340800  0.108400  0.333200  1.0
  H  H792  1  0.659200  0.608400  0.166800  1.0
  H  H793  1  0.654500  0.829900  0.678100  1.0
  H  H794  1  0.345500  0.329900  0.821900  1.0
  H  H795  1  0.345500  0.170100  0.321900  1.0
  H  H796  1  0.654500  0.670100  0.178100  1.0
  H  H797  1  0.802300  0.840200  0.835100  1.0
  H  H798  1  0.197700  0.340200  0.664900  1.0
  H  H799  1  0.197700  0.159800  0.164900  1.0
  H  H800  1  0.802300  0.659800  0.335100  1.0
  H  H801  1  0.143800  0.887900  0.343300  1.0
  H  H802  1  0.856200  0.387900  0.156700  1.0
  H  H803  1  0.856200  0.112100  0.656700  1.0
  H  H804  1  0.143800  0.612100  0.843300  1.0
  H  H805  1  0.179700  0.858900  0.357400  1.0
  H  H806  1  0.820300  0.358900  0.142600  1.0
  H  H807  1  0.820300  0.141100  0.642600  1.0
  H  H808  1  0.179700  0.641100  0.857400  1.0
  H  H809  1  0.161200  0.875600  0.408600  1.0
  H  H810  1  0.838800  0.375600  0.091400  1.0
  H  H811  1  0.838800  0.124400  0.591400  1.0
  H  H812  1  0.161200  0.624400  0.908600  1.0
  H  H813  1  0.203300  0.896200  0.411300  1.0
  H  H814  1  0.796700  0.396200  0.088700  1.0
  H  H815  1  0.796700  0.103800  0.588700  1.0
  H  H816  1  0.203300  0.603800  0.911300  1.0
  H  H817  1  0.150800  0.910900  0.447000  1.0
  H  H818  1  0.849200  0.410900  0.053000  1.0
  H  H819  1  0.849200  0.089100  0.553000  1.0
  H  H820  1  0.150800  0.589100  0.947000  1.0
  H  H821  1  0.138500  0.953000  0.439100  1.0
  H  H822  1  0.861500  0.453000  0.060900  1.0
  H  H823  1  0.861500  0.047000  0.560900  1.0
  H  H824  1  0.138500  0.547000  0.939100  1.0
  H  H825  1  0.185200  0.941200  0.449500  1.0
  H  H826  1  0.814800  0.441200  0.050500  1.0
  H  H827  1  0.814800  0.058800  0.550500  1.0
  H  H828  1  0.185200  0.558800  0.949500  1.0
  H  H829  1  0.228100  0.970100  0.344600  1.0
  H  H830  1  0.771900  0.470100  0.155400  1.0
  H  H831  1  0.771900  0.029900  0.655400  1.0
  H  H832  1  0.228100  0.529900  0.844600  1.0
  H  H833  1  0.211100  0.990100  0.375900  1.0
  H  H834  1  0.788900  0.490100  0.124100  1.0
  H  H835  1  0.788900  0.009900  0.624100  1.0
  H  H836  1  0.211100  0.509900  0.875900  1.0
  H  H837  1  0.276300  0.016200  0.396600  1.0
  H  H838  1  0.723700  0.516200  0.103400  1.0
  H  H839  1  0.723700  0.983800  0.603400  1.0
  H  H840  1  0.276300  0.483800  0.896600  1.0
  H  H841  1  0.245100  0.032000  0.360000  1.0
  H  H842  1  0.754900  0.532000  0.140000  1.0
  H  H843  1  0.754900  0.968000  0.640000  1.0
  H  H844  1  0.245100  0.468000  0.860000  1.0
  H  H845  1  0.262700  0.973000  0.309800  1.0
  H  H846  1  0.737300  0.473000  0.190200  1.0
  H  H847  1  0.737300  0.027000  0.690200  1.0
  H  H848  1  0.262700  0.527000  0.809800  1.0
  H  H849  1  0.309700  0.977200  0.311500  1.0
  H  H850  1  0.690300  0.477200  0.188500  1.0
  H  H851  1  0.690300  0.022800  0.688500  1.0
  H  H852  1  0.309700  0.522800  0.811500  1.0
  H  H853  1  0.278500  0.008900  0.293200  1.0
  H  H854  1  0.721500  0.508900  0.206800  1.0
  H  H855  1  0.721500  0.991100  0.706800  1.0
  H  H856  1  0.278500  0.491100  0.793200  1.0
  H  H857  1  0.361400  0.919600  0.473000  1.0
  H  H858  1  0.638600  0.419600  0.027000  1.0
  H  H859  1  0.638600  0.080400  0.527000  1.0
  H  H860  1  0.361400  0.580400  0.973000  1.0
  H  H861  1  0.351500  0.962200  0.465800  1.0
  H  H862  1  0.648500  0.462200  0.034200  1.0
  H  H863  1  0.648500  0.037800  0.534200  1.0
  H  H864  1  0.351500  0.537800  0.965800  1.0
  H  H865  1  0.282500  0.926800  0.448700  1.0
  H  H866  1  0.717500  0.426800  0.051300  1.0
  H  H867  1  0.717500  0.073200  0.551300  1.0
  H  H868  1  0.282500  0.573200  0.948700  1.0
  H  H869  1  0.298200  0.956400  0.481100  1.0
  H  H870  1  0.701800  0.456400  0.018900  1.0
  H  H871  1  0.701800  0.043600  0.518900  1.0
  H  H872  1  0.298200  0.543600  0.981100  1.0
  H  H873  1  0.246300  0.898500  0.476900  1.0
  H  H874  1  0.753700  0.398500  0.023100  1.0
  H  H875  1  0.753700  0.101500  0.523100  1.0
  H  H876  1  0.246300  0.601500  0.976900  1.0
  H  H877  1  0.266300  0.868000  0.507300  1.0
  H  H878  1  0.733700  0.368000  0.992700  1.0
  H  H879  1  0.733700  0.132000  0.492700  1.0
  H  H880  1  0.266300  0.632000  0.007300  1.0
  H  H881  1  0.273500  0.866900  0.465800  1.0
  H  H882  1  0.726500  0.366900  0.034200  1.0
  H  H883  1  0.726500  0.133100  0.534200  1.0
  H  H884  1  0.273500  0.633100  0.965800  1.0
  H  H885  1  0.389900  0.991200  0.094900  1.0
  H  H886  1  0.610100  0.491200  0.405100  1.0
  H  H887  1  0.610100  0.008800  0.905100  1.0
  H  H888  1  0.389900  0.508800  0.594900  1.0
  H  H889  1  0.374100  0.967900  0.124800  1.0
  H  H890  1  0.625900  0.467900  0.375200  1.0
  H  H891  1  0.625900  0.032100  0.875200  1.0
  H  H892  1  0.374100  0.532100  0.624800  1.0
  H  H893  1  0.444300  0.008800  0.140500  1.0
  H  H894  1  0.555700  0.508800  0.359500  1.0
  H  H895  1  0.555700  0.991200  0.859500  1.0
  H  H896  1  0.444300  0.491200  0.640500  1.0
  H  H897  1  0.402300  0.021000  0.148000  1.0
  H  H898  1  0.597700  0.521000  0.352000  1.0
  H  H899  1  0.597700  0.979000  0.852000  1.0
  H  H900  1  0.402300  0.479000  0.648000  1.0
  H  H901  1  0.477600  0.019500  0.199100  1.0
  H  H902  1  0.522400  0.519500  0.300900  1.0
  H  H903  1  0.522400  0.980500  0.800900  1.0
  H  H904  1  0.477600  0.480500  0.699100  1.0
  H  H905  1  0.456100  0.010400  0.232000  1.0
  H  H906  1  0.543900  0.510400  0.268000  1.0
  H  H907  1  0.543900  0.989600  0.768000  1.0
  H  H908  1  0.456100  0.489600  0.732000  1.0
  H  H909  1  0.434400  0.037000  0.198100  1.0
  H  H910  1  0.565600  0.537000  0.301900  1.0
  H  H911  1  0.565600  0.963000  0.801900  1.0
  H  H912  1  0.434400  0.463000  0.698100  1.0
  H  H913  1  0.514000  0.918100  0.096200  1.0
  H  H914  1  0.486000  0.418100  0.403800  1.0
  H  H915  1  0.486000  0.081900  0.903800  1.0
  H  H916  1  0.514000  0.581900  0.596200  1.0
  H  H917  1  0.475000  0.943400  0.080300  1.0
  H  H918  1  0.525000  0.443400  0.419700  1.0
  H  H919  1  0.525000  0.056600  0.919700  1.0
  H  H920  1  0.475000  0.556600  0.580300  1.0
  H  H921  1  0.526300  0.961400  0.056300  1.0
  H  H922  1  0.473700  0.461400  0.443700  1.0
  H  H923  1  0.473700  0.038600  0.943700  1.0
  H  H924  1  0.526300  0.538600  0.556300  1.0
  H  H925  1  0.514300  0.992800  0.081500  1.0
  H  H926  1  0.485700  0.492800  0.418500  1.0
  H  H927  1  0.485700  0.007200  0.918500  1.0
  H  H928  1  0.514300  0.507200  0.581500  1.0
  H  H929  1  0.583600  0.923000  0.086500  1.0
  H  H930  1  0.416400  0.423000  0.413500  1.0
  H  H931  1  0.416400  0.077000  0.913500  1.0
  H  H932  1  0.583600  0.577000  0.586500  1.0
  H  H933  1  0.621800  0.947700  0.106300  1.0
  H  H934  1  0.378200  0.447700  0.393700  1.0
  H  H935  1  0.378200  0.052300  0.893700  1.0
  H  H936  1  0.621800  0.552300  0.606300  1.0
  H  H937  1  0.596600  0.956300  0.063900  1.0
  H  H938  1  0.403400  0.456300  0.436100  1.0
  H  H939  1  0.403400  0.043700  0.936100  1.0
  H  H940  1  0.596600  0.543700  0.563900  1.0
  H  H941  1  0.547500  0.959800  0.197600  1.0
  H  H942  1  0.452500  0.459800  0.302400  1.0
  H  H943  1  0.452500  0.040200  0.802400  1.0
  H  H944  1  0.547500  0.540200  0.697600  1.0
  H  H945  1  0.571800  0.936500  0.233300  1.0
  H  H946  1  0.428200  0.436500  0.266700  1.0
  H  H947  1  0.428200  0.063500  0.766700  1.0
  H  H948  1  0.571800  0.563500  0.733300  1.0
  H  H949  1  0.618500  0.921200  0.198100  1.0
  H  H950  1  0.381500  0.421200  0.301900  1.0
  H  H951  1  0.381500  0.078800  0.801900  1.0
  H  H952  1  0.618500  0.578800  0.698100  1.0
  H  H953  1  0.596100  0.950900  0.167400  1.0
  H  H954  1  0.403900  0.450900  0.332600  1.0
  H  H955  1  0.403900  0.049100  0.832600  1.0
  H  H956  1  0.596100  0.549100  0.667400  1.0
  H  H957  1  0.684000  0.975300  0.227600  1.0
  H  H958  1  0.316000  0.475300  0.272400  1.0
  H  H959  1  0.316000  0.024700  0.772400  1.0
  H  H960  1  0.684000  0.524700  0.727600  1.0
  H  H961  1  0.660600  0.005500  0.198400  1.0
  H  H962  1  0.339400  0.505500  0.301600  1.0
  H  H963  1  0.339400  0.994500  0.801600  1.0
  H  H964  1  0.660600  0.494500  0.698400  1.0
  H  H965  1  0.661800  0.963900  0.185100  1.0
  H  H966  1  0.338200  0.463900  0.314900  1.0
  H  H967  1  0.338200  0.036100  0.814900  1.0
  H  H968  1  0.661800  0.536100  0.685100  1.0
  H  H969  1  0.459300  0.629000  0.053200  1.0
  H  H970  1  0.540700  0.129000  0.446800  1.0
  H  H971  1  0.540700  0.371000  0.946800  1.0
  H  H972  1  0.459300  0.871000  0.553200  1.0
  H  H973  1  0.488800  0.594500  0.062400  1.0
  H  H974  1  0.511200  0.094500  0.437600  1.0
  H  H975  1  0.511200  0.405500  0.937600  1.0
  H  H976  1  0.488800  0.905500  0.562400  1.0
  H  H977  1  0.421600  0.599200  0.000300  1.0
  H  H978  1  0.578400  0.099200  0.499700  1.0
  H  H979  1  0.578400  0.400800  0.999700  1.0
  H  H980  1  0.421600  0.900800  0.500300  1.0
  H  H981  1  0.467500  0.606400  0.999000  1.0
  H  H982  1  0.532500  0.106400  0.501000  1.0
  H  H983  1  0.532500  0.393600  0.001000  1.0
  H  H984  1  0.467500  0.893600  0.499000  1.0
  H  H985  1  0.504600  0.530100  0.999600  1.0
  H  H986  1  0.495400  0.030100  0.500400  1.0
  H  H987  1  0.495400  0.469900  0.000400  1.0
  H  H988  1  0.504600  0.969900  0.499600  1.0
  H  H989  1  0.514800  0.567300  0.023200  1.0
  H  H990  1  0.485200  0.067300  0.476800  1.0
  H  H991  1  0.485200  0.432700  0.976800  1.0
  H  H992  1  0.514800  0.932700  0.523200  1.0
  H  H993  1  0.494600  0.568700  0.978700  1.0
  H  H994  1  0.505400  0.068700  0.521300  1.0
  H  H995  1  0.505400  0.431300  0.021300  1.0
  H  H996  1  0.494600  0.931300  0.478700  1.0
  H  H997  1  0.448300  0.519500  0.094800  1.0
  H  H998  1  0.551700  0.019500  0.405200  1.0
  H  H999  1  0.551700  0.480500  0.905200  1.0
  H  H1000  1  0.448300  0.980500  0.594800  1.0
  H  H1001  1  0.479500  0.512700  0.069300  1.0
  H  H1002  1  0.520500  0.012700  0.430700  1.0
  H  H1003  1  0.520500  0.487300  0.930700  1.0
  H  H1004  1  0.479500  0.987300  0.569300  1.0
  H  H1005  1  0.493400  0.490500  0.144300  1.0
  H  H1006  1  0.506600  0.990500  0.355700  1.0
  H  H1007  1  0.506600  0.509500  0.855700  1.0
  H  H1008  1  0.493400  0.009500  0.644300  1.0
  H  H1009  1  0.473800  0.464300  0.109700  1.0
  H  H1010  1  0.526200  0.964300  0.390300  1.0
  H  H1011  1  0.526200  0.535700  0.890300  1.0
  H  H1012  1  0.473800  0.035700  0.609700  1.0
  H  H1013  1  0.586600  0.478600  0.109400  1.0
  H  H1014  1  0.413400  0.978600  0.390600  1.0
  H  H1015  1  0.413400  0.521400  0.890600  1.0
  H  H1016  1  0.586600  0.021400  0.609400  1.0
  H  H1017  1  0.568900  0.514600  0.123900  1.0
  H  H1018  1  0.431100  0.014600  0.376100  1.0
  H  H1019  1  0.431100  0.485400  0.876100  1.0
  H  H1020  1  0.568900  0.985400  0.623900  1.0
  H  H1021  1  0.551900  0.501600  0.081000  1.0
  H  H1022  1  0.448100  0.001600  0.419000  1.0
  H  H1023  1  0.448100  0.498400  0.919000  1.0
  H  H1024  1  0.551900  0.998400  0.581000  1.0
  H  H1025  1  0.570100  0.534300  0.165200  1.0
  H  H1026  1  0.429900  0.034300  0.334800  1.0
  H  H1027  1  0.429900  0.465700  0.834800  1.0
  H  H1028  1  0.570100  0.965700  0.665200  1.0
  H  H1029  1  0.563900  0.577600  0.165800  1.0
  H  H1030  1  0.436100  0.077600  0.334200  1.0
  H  H1031  1  0.436100  0.422400  0.834200  1.0
  H  H1032  1  0.563900  0.922400  0.665800  1.0
  H  H1033  1  0.597900  0.579000  0.228300  1.0
  H  H1034  1  0.402100  0.079000  0.271700  1.0
  H  H1035  1  0.402100  0.421000  0.771700  1.0
  H  H1036  1  0.597900  0.921000  0.728300  1.0
  H  H1037  1  0.625300  0.562000  0.202900  1.0
  H  H1038  1  0.374700  0.062000  0.297100  1.0
  H  H1039  1  0.374700  0.438000  0.797100  1.0
  H  H1040  1  0.625300  0.938000  0.702900  1.0
  H  H1041  1  0.634800  0.559000  0.273500  1.0
  H  H1042  1  0.365200  0.059000  0.226500  1.0
  H  H1043  1  0.365200  0.441000  0.726500  1.0
  H  H1044  1  0.634800  0.941000  0.773500  1.0
  H  H1045  1  0.662400  0.527100  0.263700  1.0
  H  H1046  1  0.337600  0.027100  0.236300  1.0
  H  H1047  1  0.337600  0.472900  0.736300  1.0
  H  H1048  1  0.662400  0.972900  0.763700  1.0
  H  H1049  1  0.631100  0.518300  0.288300  1.0
  H  H1050  1  0.368900  0.018300  0.211700  1.0
  H  H1051  1  0.368900  0.481700  0.711700  1.0
  H  H1052  1  0.631100  0.981700  0.788300  1.0
  H  H1053  1  0.224500  0.510000  0.337900  1.0
  H  H1054  1  0.775500  0.010000  0.162100  1.0
  H  H1055  1  0.775500  0.490000  0.662100  1.0
  H  H1056  1  0.224500  0.990000  0.837900  1.0
  H  H1057  1  0.183600  0.507300  0.304800  1.0
  H  H1058  1  0.816400  0.007300  0.195200  1.0
  H  H1059  1  0.816400  0.492700  0.695200  1.0
  H  H1060  1  0.183600  0.992700  0.804800  1.0
  H  H1061  1  0.258600  0.528700  0.294300  1.0
  H  H1062  1  0.741400  0.028700  0.205700  1.0
  H  H1063  1  0.741400  0.471300  0.705700  1.0
  H  H1064  1  0.258600  0.971300  0.794300  1.0
  H  H1065  1  0.239200  0.488700  0.285300  1.0
  H  H1066  1  0.760800  0.988700  0.214700  1.0
  H  H1067  1  0.760800  0.511300  0.714700  1.0
  H  H1068  1  0.239200  0.011300  0.785300  1.0
  H  H1069  1  0.257900  0.531800  0.229100  1.0
  H  H1070  1  0.742100  0.031800  0.270900  1.0
  H  H1071  1  0.742100  0.468200  0.770900  1.0
  H  H1072  1  0.257900  0.968200  0.729100  1.0
  H  H1073  1  0.217000  0.520700  0.198600  1.0
  H  H1074  1  0.783000  0.020700  0.301400  1.0
  H  H1075  1  0.783000  0.479300  0.801400  1.0
  H  H1076  1  0.217000  0.979300  0.698600  1.0
  H  H1077  1  0.240800  0.490900  0.228100  1.0
  H  H1078  1  0.759200  0.990900  0.271900  1.0
  H  H1079  1  0.759200  0.509100  0.771900  1.0
  H  H1080  1  0.240800  0.009100  0.728100  1.0
  H  H1081  1  0.166400  0.554100  0.366300  1.0
  H  H1082  1  0.833600  0.054100  0.133700  1.0
  H  H1083  1  0.833600  0.445900  0.633700  1.0
  H  H1084  1  0.166400  0.945900  0.866300  1.0
  H  H1085  1  0.167900  0.539100  0.407500  1.0
  H  H1086  1  0.832100  0.039100  0.092500  1.0
  H  H1087  1  0.832100  0.460900  0.592500  1.0
  H  H1088  1  0.167900  0.960900  0.907500  1.0
  H  H1089  1  0.183000  0.595800  0.431200  1.0
  H  H1090  1  0.817000  0.095800  0.068800  1.0
  H  H1091  1  0.817000  0.404200  0.568800  1.0
  H  H1092  1  0.183000  0.904200  0.931200  1.0
  H  H1093  1  0.139700  0.591900  0.402400  1.0
  H  H1094  1  0.860300  0.091900  0.097600  1.0
  H  H1095  1  0.860300  0.408100  0.597600  1.0
  H  H1096  1  0.139700  0.908100  0.902400  1.0
  H  H1097  1  0.145200  0.667100  0.399300  1.0
  H  H1098  1  0.854800  0.167100  0.100700  1.0
  H  H1099  1  0.854800  0.332900  0.600700  1.0
  H  H1100  1  0.145200  0.832900  0.899300  1.0
  H  H1101  1  0.180800  0.679200  0.380800  1.0
  H  H1102  1  0.819200  0.179200  0.119200  1.0
  H  H1103  1  0.819200  0.320800  0.619200  1.0
  H  H1104  1  0.180800  0.820800  0.880800  1.0
  H  H1105  1  0.191400  0.665200  0.423600  1.0
  H  H1106  1  0.808600  0.165200  0.076400  1.0
  H  H1107  1  0.808600  0.334800  0.576400  1.0
  H  H1108  1  0.191400  0.834800  0.923600  1.0
  H  H1109  1  0.297600  0.622400  0.476700  1.0
  H  H1110  1  0.702400  0.122400  0.023300  1.0
  H  H1111  1  0.702400  0.377600  0.523300  1.0
  H  H1112  1  0.297600  0.877600  0.976700  1.0
  H  H1113  1  0.251900  0.615100  0.454000  1.0
  H  H1114  1  0.748100  0.115100  0.046000  1.0
  H  H1115  1  0.748100  0.384900  0.546000  1.0
  H  H1116  1  0.251900  0.884900  0.954000  1.0
  H  H1117  1  0.241400  0.577500  0.494100  1.0
  H  H1118  1  0.758600  0.077500  0.005900  1.0
  H  H1119  1  0.758600  0.422500  0.505900  1.0
  H  H1120  1  0.241400  0.922500  0.994100  1.0
  H  H1121  1  0.271700  0.606000  0.520100  1.0
  H  H1122  1  0.728300  0.106000  0.979900  1.0
  H  H1123  1  0.728300  0.394000  0.479900  1.0
  H  H1124  1  0.271700  0.894000  0.020100  1.0
  H  H1125  1  0.350700  0.542300  0.510900  1.0
  H  H1126  1  0.649300  0.042300  0.989100  1.0
  H  H1127  1  0.649300  0.457700  0.489100  1.0
  H  H1128  1  0.350700  0.957700  0.010900  1.0
  H  H1129  1  0.351100  0.581300  0.530800  1.0
  H  H1130  1  0.648900  0.081300  0.969200  1.0
  H  H1131  1  0.648900  0.418700  0.469200  1.0
  H  H1132  1  0.351100  0.918700  0.030800  1.0
  H  H1133  1  0.333333  0.577600  0.486000  1.0
  H  H1134  1  0.666667  0.077600  0.014000  1.0
  H  H1135  1  0.666667  0.422400  0.514000  1.0
  H  H1136  1  0.333333  0.922400  0.986000  1.0
  H  H1137  1  0.762700  0.638200  0.979400  1.0
  H  H1138  1  0.237300  0.138200  0.520600  1.0
  H  H1139  1  0.237300  0.361800  0.020600  1.0
  H  H1140  1  0.762700  0.861800  0.479400  1.0
  H  H1141  1  0.737000  0.601100  0.973600  1.0
  H  H1142  1  0.263000  0.101100  0.526400  1.0
  H  H1143  1  0.263000  0.398900  0.026400  1.0
  H  H1144  1  0.737000  0.898900  0.473600  1.0
  H  H1145  1  0.805400  0.615300  0.033100  1.0
  H  H1146  1  0.194600  0.115300  0.466900  1.0
  H  H1147  1  0.194600  0.384700  0.966900  1.0
  H  H1148  1  0.805400  0.884700  0.533100  1.0
  H  H1149  1  0.759500  0.614800  0.036200  1.0
  H  H1150  1  0.240500  0.114800  0.463800  1.0
  H  H1151  1  0.240500  0.385200  0.963800  1.0
  H  H1152  1  0.759500  0.885200  0.536200  1.0
  H  H1153  1  0.822600  0.576400  0.076600  1.0
  H  H1154  1  0.177400  0.076400  0.423400  1.0
  H  H1155  1  0.177400  0.423600  0.923400  1.0
  H  H1156  1  0.822600  0.923600  0.576600  1.0
  H  H1157  1  0.806200  0.535200  0.073600  1.0
  H  H1158  1  0.193800  0.035200  0.426400  1.0
  H  H1159  1  0.193800  0.464800  0.926400  1.0
  H  H1160  1  0.806200  0.964800  0.573600  1.0
  H  H1161  1  0.778700  0.567800  0.082400  1.0
  H  H1162  1  0.221300  0.067800  0.417600  1.0
  H  H1163  1  0.221300  0.432200  0.917600  1.0
  H  H1164  1  0.778700  0.932200  0.582400  1.0
  H  H1165  1  0.755800  0.512000  0.921300  1.0
  H  H1166  1  0.244200  0.012000  0.578700  1.0
  H  H1167  1  0.244200  0.488000  0.078700  1.0
  H  H1168  1  0.755800  0.988000  0.421300  1.0
  H  H1169  1  0.759400  0.528000  0.962700  1.0
  H  H1170  1  0.240600  0.028000  0.537300  1.0
  H  H1171  1  0.240600  0.472000  0.037300  1.0
  H  H1172  1  0.759400  0.972000  0.462700  1.0
  H  H1173  1  0.700200  0.484300  0.918800  1.0
  H  H1174  1  0.299800  0.984300  0.581200  1.0
  H  H1175  1  0.299800  0.515700  0.081200  1.0
  H  H1176  1  0.700200  0.015700  0.418800  1.0
  H  H1177  1  0.725300  0.478600  0.961500  1.0
  H  H1178  1  0.274700  0.978600  0.538500  1.0
  H  H1179  1  0.274700  0.521400  0.038500  1.0
  H  H1180  1  0.725300  0.021400  0.461500  1.0
  H  H1181  1  0.636000  0.479200  0.919500  1.0
  H  H1182  1  0.364000  0.979200  0.580500  1.0
  H  H1183  1  0.364000  0.520800  0.080500  1.0
  H  H1184  1  0.636000  0.020800  0.419500  1.0
  H  H1185  1  0.618100  0.501200  0.949400  1.0
  H  H1186  1  0.381900  0.001200  0.550600  1.0
  H  H1187  1  0.381900  0.498800  0.050600  1.0
  H  H1188  1  0.618100  0.998800  0.449400  1.0
  H  H1189  1  0.645100  0.465500  0.962400  1.0
  H  H1190  1  0.354900  0.965500  0.537600  1.0
  H  H1191  1  0.354900  0.534500  0.037600  1.0
  H  H1192  1  0.645100  0.034500  0.462400  1.0
  H  H1193  1  0.722700  0.529100  0.811900  1.0
  H  H1194  1  0.277300  0.029100  0.688100  1.0
  H  H1195  1  0.277300  0.470900  0.188100  1.0
  H  H1196  1  0.722700  0.970900  0.311900  1.0
  H  H1197  1  0.717800  0.507800  0.848800  1.0
  H  H1198  1  0.282200  0.007800  0.651200  1.0
  H  H1199  1  0.282200  0.492200  0.151200  1.0
  H  H1200  1  0.717800  0.992200  0.348800  1.0
  H  H1201  1  0.650600  0.534600  0.795300  1.0
  H  H1202  1  0.349400  0.034600  0.704700  1.0
  H  H1203  1  0.349400  0.465400  0.204700  1.0
  H  H1204  1  0.650600  0.965400  0.295300  1.0
  H  H1205  1  0.669400  0.495700  0.789400  1.0
  H  H1206  1  0.330600  0.995700  0.710600  1.0
  H  H1207  1  0.330600  0.504300  0.210600  1.0
  H  H1208  1  0.669400  0.004300  0.289400  1.0
  H  H1209  1  0.616600  0.545700  0.827400  1.0
  H  H1210  1  0.383400  0.045700  0.672600  1.0
  H  H1211  1  0.383400  0.454300  0.172600  1.0
  H  H1212  1  0.616600  0.954300  0.327400  1.0
  H  H1213  1  0.610400  0.521400  0.861900  1.0
  H  H1214  1  0.389600  0.021400  0.638100  1.0
  H  H1215  1  0.389600  0.478600  0.138100  1.0
  H  H1216  1  0.610400  0.978600  0.361900  1.0
  H  H1217  1  0.585300  0.512300  0.819600  1.0
  H  H1218  1  0.414700  0.012300  0.680400  1.0
  H  H1219  1  0.414700  0.487700  0.180400  1.0
  H  H1220  1  0.585300  0.987700  0.319600  1.0
  H  H1221  1  0.081100  0.530500  0.688600  1.0
  H  H1222  1  0.918900  0.030500  0.811400  1.0
  H  H1223  1  0.918900  0.469500  0.311400  1.0
  H  H1224  1  0.081100  0.969500  0.188600  1.0
  H  H1225  1  0.074200  0.573600  0.689500  1.0
  H  H1226  1  0.925800  0.073600  0.810500  1.0
  H  H1227  1  0.925800  0.426400  0.310500  1.0
  H  H1228  1  0.074200  0.926400  0.189500  1.0
  H  H1229  1  0.109500  0.575900  0.750400  1.0
  H  H1230  1  0.890500  0.075900  0.749600  1.0
  H  H1231  1  0.890500  0.424100  0.249600  1.0
  H  H1232  1  0.109500  0.924100  0.250400  1.0
  H  H1233  1  0.135800  0.558800  0.724400  1.0
  H  H1234  1  0.864200  0.058800  0.775600  1.0
  H  H1235  1  0.864200  0.441200  0.275600  1.0
  H  H1236  1  0.135800  0.941200  0.224400  1.0
  H  H1237  1  0.113000  0.470500  0.745200  1.0
  H  H1238  1  0.887000  0.970500  0.754800  1.0
  H  H1239  1  0.887000  0.529500  0.254800  1.0
  H  H1240  1  0.113000  0.029500  0.245200  1.0
  H  H1241  1  0.125300  0.494900  0.713700  1.0
  H  H1242  1  0.874700  0.994900  0.786300  1.0
  H  H1243  1  0.874700  0.505100  0.286300  1.0
  H  H1244  1  0.125300  0.005100  0.213700  1.0
  H  H1245  1  0.080100  0.496600  0.718400  1.0
  H  H1246  1  0.919900  0.996600  0.781600  1.0
  H  H1247  1  0.919900  0.503400  0.281600  1.0
  H  H1248  1  0.080100  0.003400  0.218400  1.0
  H  H1249  1  0.011600  0.488600  0.663800  1.0
  H  H1250  1  0.988400  0.988600  0.836200  1.0
  H  H1251  1  0.988400  0.511400  0.336200  1.0
  H  H1252  1  0.011600  0.011400  0.163800  1.0
  H  H1253  1  0.976600  0.492200  0.625300  1.0
  H  H1254  1  0.023400  0.992200  0.874700  1.0
  H  H1255  1  0.023400  0.507800  0.374700  1.0
  H  H1256  1  0.976600  0.007800  0.125300  1.0
  H  H1257  1  0.035500  0.450900  0.633100  1.0
  H  H1258  1  0.964500  0.950900  0.866900  1.0
  H  H1259  1  0.964500  0.549100  0.366900  1.0
  H  H1260  1  0.035500  0.049100  0.133100  1.0
  H  H1261  1  0.010600  0.466800  0.593500  1.0
  H  H1262  1  0.989400  0.966800  0.906500  1.0
  H  H1263  1  0.989400  0.533200  0.406500  1.0
  H  H1264  1  0.010600  0.033200  0.093500  1.0
  H  H1265  1  0.086600  0.438000  0.604300  1.0
  H  H1266  1  0.913400  0.938000  0.895700  1.0
  H  H1267  1  0.913400  0.562000  0.395700  1.0
  H  H1268  1  0.086600  0.062000  0.104300  1.0
  H  H1269  1  0.111300  0.470900  0.591900  1.0
  H  H1270  1  0.888700  0.970900  0.908100  1.0
  H  H1271  1  0.888700  0.529100  0.408100  1.0
  H  H1272  1  0.111300  0.029100  0.091900  1.0
  H  H1273  1  0.067900  0.459400  0.565600  1.0
  H  H1274  1  0.932100  0.959400  0.934400  1.0
  H  H1275  1  0.932100  0.540600  0.434400  1.0
  H  H1276  1  0.067900  0.040600  0.065600  1.0
  H  H1277  1  0.990800  0.608200  0.582000  1.0
  H  H1278  1  0.009200  0.108200  0.918000  1.0
  H  H1279  1  0.009200  0.391800  0.418000  1.0
  H  H1280  1  0.990800  0.891800  0.082000  1.0
  H  H1281  1  0.002700  0.566500  0.576200  1.0
  H  H1282  1  0.997300  0.066500  0.923800  1.0
  H  H1283  1  0.997300  0.433500  0.423800  1.0
  H  H1284  1  0.002700  0.933500  0.076200  1.0
  H  H1285  1  0.934000  0.598200  0.528900  1.0
  H  H1286  1  0.066000  0.098200  0.971100  1.0
  H  H1287  1  0.066000  0.401800  0.471100  1.0
  H  H1288  1  0.934000  0.901800  0.028900  1.0
  H  H1289  1  0.977700  0.602500  0.520700  1.0
  H  H1290  1  0.022300  0.102500  0.979300  1.0
  H  H1291  1  0.022300  0.397500  0.479300  1.0
  H  H1292  1  0.977700  0.897500  0.020700  1.0
  H  H1293  1  0.967300  0.499000  0.529700  1.0
  H  H1294  1  0.032700  0.999000  0.970300  1.0
  H  H1295  1  0.032700  0.501000  0.470300  1.0
  H  H1296  1  0.967300  0.001000  0.029700  1.0
  H  H1297  1  0.957300  0.522900  0.562800  1.0
  H  H1298  1  0.042700  0.022900  0.937200  1.0
  H  H1299  1  0.042700  0.477100  0.437200  1.0
  H  H1300  1  0.957300  0.977100  0.062800  1.0
  H  H1301  1  0.000800  0.525900  0.554400  1.0
  H  H1302  1  0.999200  0.025900  0.945600  1.0
  H  H1303  1  0.999200  0.474100  0.445600  1.0
  H  H1304  1  0.000800  0.974100  0.054400  1.0
  H  H1305  1  0.063900  0.867300  0.658000  1.0
  H  H1306  1  0.936100  0.367300  0.842000  1.0
  H  H1307  1  0.936100  0.132700  0.342000  1.0
  H  H1308  1  0.063900  0.632700  0.158000  1.0
  H  H1309  1  0.043400  0.901100  0.632300  1.0
  H  H1310  1  0.956600  0.401100  0.867700  1.0
  H  H1311  1  0.956600  0.098900  0.367700  1.0
  H  H1312  1  0.043400  0.598900  0.132300  1.0
  H  H1313  1  0.111600  0.908800  0.693300  1.0
  H  H1314  1  0.888400  0.408800  0.806700  1.0
  H  H1315  1  0.888400  0.091200  0.306700  1.0
  H  H1316  1  0.111600  0.591200  0.193300  1.0
  H  H1317  1  0.114400  0.902300  0.650700  1.0
  H  H1318  1  0.885600  0.402300  0.849300  1.0
  H  H1319  1  0.885600  0.097700  0.349300  1.0
  H  H1320  1  0.114400  0.597700  0.150700  1.0
  H  H1321  1  0.140600  0.967200  0.696600  1.0
  H  H1322  1  0.859400  0.467200  0.803400  1.0
  H  H1323  1  0.859400  0.032800  0.303400  1.0
  H  H1324  1  0.140600  0.532800  0.196600  1.0
  H  H1325  1  0.124900  0.995000  0.662100  1.0
  H  H1326  1  0.875100  0.495000  0.837900  1.0
  H  H1327  1  0.875100  0.005000  0.337900  1.0
  H  H1328  1  0.124900  0.505000  0.162100  1.0
  H  H1329  1  0.147700  0.958200  0.656000  1.0
  H  H1330  1  0.852300  0.458200  0.844000  1.0
  H  H1331  1  0.852300  0.041800  0.344000  1.0
  H  H1332  1  0.147700  0.541800  0.156000  1.0
  H  H1333  1  0.021000  0.984600  0.638900  1.0
  H  H1334  1  0.979000  0.484600  0.861100  1.0
  H  H1335  1  0.979000  0.015400  0.361100  1.0
  H  H1336  1  0.021000  0.515400  0.138900  1.0
  H  H1337  1  0.974200  0.990800  0.619700  1.0
  H  H1338  1  0.025800  0.490800  0.880300  1.0
  H  H1339  1  0.025800  0.009200  0.380300  1.0
  H  H1340  1  0.974200  0.509200  0.119700  1.0
  H  H1341  1  0.993100  0.009100  0.679200  1.0
  H  H1342  1  0.006900  0.509100  0.820800  1.0
  H  H1343  1  0.006900  0.990900  0.320800  1.0
  H  H1344  1  0.993100  0.490900  0.179200  1.0
  H  H1345  1  0.007900  0.969100  0.692700  1.0
  H  H1346  1  0.992100  0.469100  0.807300  1.0
  H  H1347  1  0.992100  0.030900  0.307300  1.0
  H  H1348  1  0.007900  0.530900  0.192700  1.0
  H  H1349  1  0.931200  0.010500  0.639600  1.0
  H  H1350  1  0.068800  0.510500  0.860400  1.0
  H  H1351  1  0.068800  0.989500  0.360400  1.0
  H  H1352  1  0.931200  0.489500  0.139600  1.0
  H  H1353  1  0.896900  0.001500  0.660800  1.0
  H  H1354  1  0.103100  0.501500  0.839200  1.0
  H  H1355  1  0.103100  0.998500  0.339200  1.0
  H  H1356  1  0.896900  0.498500  0.160800  1.0
  H  H1357  1  0.908500  0.971800  0.633300  1.0
  H  H1358  1  0.091500  0.471800  0.866700  1.0
  H  H1359  1  0.091500  0.028200  0.366700  1.0
  H  H1360  1  0.908500  0.528200  0.133300  1.0
  H  H1361  1  0.944900  0.934000  0.563100  1.0
  H  H1362  1  0.055100  0.434000  0.936900  1.0
  H  H1363  1  0.055100  0.066000  0.436900  1.0
  H  H1364  1  0.944900  0.566000  0.063100  1.0
  H  H1365  1  0.928300  0.892900  0.557000  1.0
  H  H1366  1  0.071700  0.392900  0.943000  1.0
  H  H1367  1  0.071700  0.107100  0.443000  1.0
  H  H1368  1  0.928300  0.607100  0.057000  1.0
  H  H1369  1  0.897700  0.925200  0.505700  1.0
  H  H1370  1  0.102300  0.425200  0.994300  1.0
  H  H1371  1  0.102300  0.074800  0.494300  1.0
  H  H1372  1  0.897700  0.574800  0.005700  1.0
  H  H1373  1  0.864500  0.915700  0.528200  1.0
  H  H1374  1  0.135500  0.415700  0.971800  1.0
  H  H1375  1  0.135500  0.084300  0.471800  1.0
  H  H1376  1  0.864500  0.584300  0.028200  1.0
  H  H1377  1  0.857500  0.978900  0.477300  1.0
  H  H1378  1  0.142500  0.478900  0.022700  1.0
  H  H1379  1  0.142500  0.021100  0.522700  1.0
  H  H1380  1  0.857500  0.521100  0.977300  1.0
  H  H1381  1  0.836700  0.000900  0.505100  1.0
  H  H1382  1  0.163300  0.500900  0.994900  1.0
  H  H1383  1  0.163300  0.999100  0.494900  1.0
  H  H1384  1  0.836700  0.499100  0.005100  1.0
  H  H1385  1  0.826800  0.958500  0.497000  1.0
  H  H1386  1  0.173200  0.458500  0.003000  1.0
  H  H1387  1  0.173200  0.041500  0.503000  1.0
  H  H1388  1  0.826800  0.541500  0.997000  1.0
  H  H1389  1  0.795500  0.969500  0.939900  1.0
  H  H1390  1  0.204500  0.469500  0.560100  1.0
  H  H1391  1  0.204500  0.030500  0.060100  1.0
  H  H1392  1  0.795500  0.530500  0.439900  1.0
  H  H1393  1  0.793600  0.927300  0.951800  1.0
  H  H1394  1  0.206400  0.427300  0.548200  1.0
  H  H1395  1  0.206400  0.072700  0.048200  1.0
  H  H1396  1  0.793600  0.572700  0.451800  1.0
  H  H1397  1  0.861600  0.927100  0.978700  1.0
  H  H1398  1  0.138400  0.427100  0.521300  1.0
  H  H1399  1  0.138400  0.072900  0.021300  1.0
  H  H1400  1  0.861600  0.572900  0.478700  1.0
  H  H1401  1  0.865400  0.968100  0.964700  1.0
  H  H1402  1  0.134600  0.468100  0.535300  1.0
  H  H1403  1  0.134600  0.031900  0.035300  1.0
  H  H1404  1  0.865400  0.531900  0.464700  1.0
  H  H1405  1  0.819800  0.912700  0.004000  1.0
  H  H1406  1  0.180200  0.412700  0.496000  1.0
  H  H1407  1  0.180200  0.087300  0.996000  1.0
  H  H1408  1  0.819800  0.587300  0.504000  1.0
  H  H1409  1  0.820800  0.932400  0.043200  1.0
  H  H1410  1  0.179200  0.432400  0.456800  1.0
  H  H1411  1  0.179200  0.067600  0.956800  1.0
  H  H1412  1  0.820800  0.567600  0.543200  1.0
  H  H1413  1  0.862100  0.919400  0.034400  1.0
  H  H1414  1  0.137900  0.419400  0.465600  1.0
  H  H1415  1  0.137900  0.080600  0.965600  1.0
  H  H1416  1  0.862100  0.580600  0.534400  1.0
  H  H1417  1  0.737300  0.975500  0.836800  1.0
  H  H1418  1  0.262700  0.475500  0.663200  1.0
  H  H1419  1  0.262700  0.024500  0.163200  1.0
  H  H1420  1  0.737300  0.524500  0.336800  1.0
  H  H1421  1  0.694900  0.972000  0.847700  1.0
  H  H1422  1  0.305100  0.472000  0.652300  1.0
  H  H1423  1  0.305100  0.028000  0.152300  1.0
  H  H1424  1  0.694900  0.528000  0.347700  1.0
  H  H1425  1  0.723100  0.010800  0.899900  1.0
  H  H1426  1  0.276900  0.510800  0.600100  1.0
  H  H1427  1  0.276900  0.989200  0.100100  1.0
  H  H1428  1  0.723100  0.489200  0.399900  1.0
  H  H1429  1  0.713100  0.029900  0.859100  1.0
  H  H1430  1  0.286900  0.529900  0.640900  1.0
  H  H1431  1  0.286900  0.970100  0.140900  1.0
  H  H1432  1  0.713100  0.470100  0.359100  1.0
  H  H1433  1  0.788700  0.984900  0.848900  1.0
  H  H1434  1  0.211300  0.484900  0.651100  1.0
  H  H1435  1  0.211300  0.015100  0.151100  1.0
  H  H1436  1  0.788700  0.515100  0.348900  1.0
  H  H1437  1  0.817900  0.019800  0.857600  1.0
  H  H1438  1  0.182100  0.519800  0.642400  1.0
  H  H1439  1  0.182100  0.980200  0.142400  1.0
  H  H1440  1  0.817900  0.480200  0.357600  1.0
  H  H1441  1  0.774500  0.022900  0.828100  1.0
  H  H1442  1  0.225500  0.522900  0.671900  1.0
  H  H1443  1  0.225500  0.977100  0.171900  1.0
  H  H1444  1  0.774500  0.477100  0.328100  1.0
  H  H1445  1  0.636800  0.888200  0.838100  1.0
  H  H1446  1  0.363200  0.388200  0.661900  1.0
  H  H1447  1  0.363200  0.111800  0.161900  1.0
  H  H1448  1  0.636800  0.611800  0.338100  1.0
  H  H1449  1  0.670100  0.856800  0.849100  1.0
  H  H1450  1  0.329900  0.356800  0.650900  1.0
  H  H1451  1  0.329900  0.143200  0.150900  1.0
  H  H1452  1  0.670100  0.643200  0.349100  1.0
  H  H1453  1  0.698200  0.890300  0.904300  1.0
  H  H1454  1  0.301800  0.390300  0.595700  1.0
  H  H1455  1  0.301800  0.109700  0.095700  1.0
  H  H1456  1  0.698200  0.609700  0.404300  1.0
  H  H1457  1  0.655800  0.870300  0.901200  1.0
  H  H1458  1  0.344200  0.370300  0.598800  1.0
  H  H1459  1  0.344200  0.129700  0.098800  1.0
  H  H1460  1  0.655800  0.629700  0.401200  1.0
  H  H1461  1  0.658100  0.916000  0.951100  1.0
  H  H1462  1  0.341900  0.416000  0.548900  1.0
  H  H1463  1  0.341900  0.084000  0.048900  1.0
  H  H1464  1  0.658100  0.584000  0.451100  1.0
  H  H1465  1  0.640200  0.955400  0.936500  1.0
  H  H1466  1  0.359800  0.455400  0.563500  1.0
  H  H1467  1  0.359800  0.044600  0.063500  1.0
  H  H1468  1  0.640200  0.544600  0.436500  1.0
  H  H1469  1  0.687300  0.947000  0.942000  1.0
  H  H1470  1  0.312700  0.447000  0.558000  1.0
  H  H1471  1  0.312700  0.053000  0.058000  1.0
  H  H1472  1  0.687300  0.553000  0.442000  1.0
  H  H1473  1  0.360200  0.792200  0.355400  1.0
  H  H1474  1  0.639800  0.292200  0.144600  1.0
  H  H1475  1  0.639800  0.207800  0.644600  1.0
  H  H1476  1  0.360200  0.707800  0.855400  1.0
  H  H1477  1  0.379100  0.760600  0.384900  1.0
  H  H1478  1  0.620900  0.260600  0.115100  1.0
  H  H1479  1  0.620900  0.239400  0.615100  1.0
  H  H1480  1  0.379100  0.739400  0.884900  1.0
  H  H1481  1  0.333000  0.757900  0.360300  1.0
  H  H1482  1  0.667000  0.257900  0.139700  1.0
  H  H1483  1  0.667000  0.242100  0.639700  1.0
  H  H1484  1  0.333000  0.742100  0.860300  1.0
  H  H1485  1  0.392700  0.698600  0.361300  1.0
  H  H1486  1  0.607300  0.198600  0.138700  1.0
  H  H1487  1  0.607300  0.301400  0.638700  1.0
  H  H1488  1  0.392700  0.801400  0.861300  1.0
  H  H1489  1  0.347300  0.695800  0.335800  1.0
  H  H1490  1  0.652700  0.195800  0.164200  1.0
  H  H1491  1  0.652700  0.304200  0.664200  1.0
  H  H1492  1  0.347300  0.804200  0.835800  1.0
  H  H1493  1  0.347900  0.698400  0.260100  1.0
  H  H1494  1  0.652100  0.198400  0.239900  1.0
  H  H1495  1  0.652100  0.301600  0.739900  1.0
  H  H1496  1  0.347900  0.801600  0.760100  1.0
  H  H1497  1  0.330500  0.665200  0.279700  1.0
  H  H1498  1  0.669500  0.165200  0.220300  1.0
  H  H1499  1  0.669500  0.334800  0.720300  1.0
  H  H1500  1  0.330500  0.834800  0.779700  1.0
  H  H1501  1  0.362200  0.657400  0.255200  1.0
  H  H1502  1  0.637800  0.157400  0.244800  1.0
  H  H1503  1  0.637800  0.342600  0.744800  1.0
  H  H1504  1  0.362200  0.842600  0.755200  1.0
  H  H1505  1  0.408700  0.625600  0.310100  1.0
  H  H1506  1  0.591300  0.125600  0.189900  1.0
  H  H1507  1  0.591300  0.374400  0.689900  1.0
  H  H1508  1  0.408700  0.874400  0.810100  1.0
  H  H1509  1  0.375100  0.632000  0.332800  1.0
  H  H1510  1  0.624900  0.132000  0.167200  1.0
  H  H1511  1  0.624900  0.368000  0.667200  1.0
  H  H1512  1  0.375100  0.868000  0.832800  1.0
  H  H1513  1  0.420700  0.645200  0.350500  1.0
  H  H1514  1  0.579300  0.145200  0.149500  1.0
  H  H1515  1  0.579300  0.354800  0.649500  1.0
  H  H1516  1  0.420700  0.854800  0.850500  1.0
  H  H1517  1  0.464500  0.692700  0.272400  1.0
  H  H1518  1  0.535500  0.192700  0.227600  1.0
  H  H1519  1  0.535500  0.307300  0.727600  1.0
  H  H1520  1  0.464500  0.807300  0.772400  1.0
  H  H1521  1  0.421500  0.676300  0.250200  1.0
  H  H1522  1  0.578500  0.176300  0.249800  1.0
  H  H1523  1  0.578500  0.323700  0.749800  1.0
  H  H1524  1  0.421500  0.823700  0.750200  1.0
  H  H1525  1  0.450200  0.653800  0.284300  1.0
  H  H1526  1  0.549800  0.153800  0.215700  1.0
  H  H1527  1  0.549800  0.346200  0.715700  1.0
  H  H1528  1  0.450200  0.846200  0.784300  1.0
  H  H1529  1  0.288700  0.816800  0.269200  1.0
  H  H1530  1  0.711300  0.316800  0.230800  1.0
  H  H1531  1  0.711300  0.183200  0.730800  1.0
  H  H1532  1  0.288700  0.683200  0.769200  1.0
  H  H1533  1  0.281100  0.831400  0.226700  1.0
  H  H1534  1  0.718900  0.331400  0.273300  1.0
  H  H1535  1  0.718900  0.168600  0.773300  1.0
  H  H1536  1  0.281100  0.668600  0.726700  1.0
  H  H1537  1  0.320800  0.843700  0.258100  1.0
  H  H1538  1  0.679200  0.343700  0.241900  1.0
  H  H1539  1  0.679200  0.156300  0.741900  1.0
  H  H1540  1  0.320800  0.656300  0.758100  1.0
  H  H1541  1  0.324100  0.807800  0.185200  1.0
  H  H1542  1  0.675900  0.307800  0.314800  1.0
  H  H1543  1  0.675900  0.192200  0.814800  1.0
  H  H1544  1  0.324100  0.692200  0.685200  1.0
  H  H1545  1  0.362900  0.822000  0.216300  1.0
  H  H1546  1  0.637100  0.322000  0.283700  1.0
  H  H1547  1  0.637100  0.178000  0.783700  1.0
  H  H1548  1  0.362900  0.678000  0.716300  1.0
  H  H1549  1  0.428300  0.748700  0.216500  1.0
  H  H1550  1  0.571700  0.248700  0.283500  1.0
  H  H1551  1  0.571700  0.251300  0.783500  1.0
  H  H1552  1  0.428300  0.751300  0.716500  1.0
  H  H1553  1  0.408600  0.762100  0.249300  1.0
  H  H1554  1  0.591400  0.262100  0.250700  1.0
  H  H1555  1  0.591400  0.237900  0.750700  1.0
  H  H1556  1  0.408600  0.737900  0.749300  1.0
  H  H1557  1  0.426500  0.791400  0.225500  1.0
  H  H1558  1  0.573500  0.291400  0.274500  1.0
  H  H1559  1  0.573500  0.208600  0.774500  1.0
  H  H1560  1  0.426500  0.708600  0.725500  1.0
  H  H1561  1  0.393000  0.762800  0.149100  1.0
  H  H1562  1  0.607000  0.262800  0.350900  1.0
  H  H1563  1  0.607000  0.237200  0.850900  1.0
  H  H1564  1  0.393000  0.737200  0.649100  1.0
  H  H1565  1  0.390200  0.805100  0.159500  1.0
  H  H1566  1  0.609800  0.305100  0.340500  1.0
  H  H1567  1  0.609800  0.194900  0.840500  1.0
  H  H1568  1  0.390200  0.694900  0.659500  1.0
  H  H1569  1  0.350000  0.783000  0.139500  1.0
  H  H1570  1  0.650000  0.283000  0.360500  1.0
  H  H1571  1  0.650000  0.217000  0.860500  1.0
  H  H1572  1  0.350000  0.717000  0.639500  1.0
  H  H1573  1  0.345800  0.686500  0.179500  1.0
  H  H1574  1  0.654200  0.186500  0.320500  1.0
  H  H1575  1  0.654200  0.313500  0.820500  1.0
  H  H1576  1  0.345800  0.813500  0.679500  1.0
  H  H1577  1  0.391000  0.701200  0.196200  1.0
  H  H1578  1  0.609000  0.201200  0.303800  1.0
  H  H1579  1  0.609000  0.298800  0.803800  1.0
  H  H1580  1  0.391000  0.798800  0.696200  1.0
  H  H1581  1  0.366500  0.711800  0.154100  1.0
  H  H1582  1  0.633500  0.211800  0.345900  1.0
  H  H1583  1  0.633500  0.288200  0.845900  1.0
  H  H1584  1  0.366500  0.788200  0.654100  1.0
  H  H1585  1  0.856900  0.794800  0.854000  1.0
  H  H1586  1  0.143100  0.294800  0.646000  1.0
  H  H1587  1  0.143100  0.205200  0.146000  1.0
  H  H1588  1  0.856900  0.705200  0.354000  1.0
  H  H1589  1  0.876100  0.766000  0.886600  1.0
  H  H1590  1  0.123900  0.266000  0.613400  1.0
  H  H1591  1  0.123900  0.234000  0.113400  1.0
  H  H1592  1  0.876100  0.734000  0.386600  1.0
  H  H1593  1  0.830500  0.761000  0.861800  1.0
  H  H1594  1  0.169500  0.261000  0.638200  1.0
  H  H1595  1  0.169500  0.239000  0.138200  1.0
  H  H1596  1  0.830500  0.739000  0.361800  1.0
  H  H1597  1  0.893400  0.702000  0.869600  1.0
  H  H1598  1  0.106600  0.202000  0.630400  1.0
  H  H1599  1  0.106600  0.298000  0.130400  1.0
  H  H1600  1  0.893400  0.798000  0.369600  1.0
  H  H1601  1  0.846800  0.697900  0.847300  1.0
  H  H1602  1  0.153200  0.197900  0.652700  1.0
  H  H1603  1  0.153200  0.302100  0.152700  1.0
  H  H1604  1  0.846800  0.802100  0.347300  1.0
  H  H1605  1  0.858700  0.651600  0.766300  1.0
  H  H1606  1  0.141300  0.151600  0.733700  1.0
  H  H1607  1  0.141300  0.348400  0.233700  1.0
  H  H1608  1  0.858700  0.848400  0.266300  1.0
  H  H1609  1  0.840700  0.691500  0.769600  1.0
  H  H1610  1  0.159300  0.191500  0.730400  1.0
  H  H1611  1  0.159300  0.308500  0.230400  1.0
  H  H1612  1  0.840700  0.808500  0.269600  1.0
  H  H1613  1  0.828100  0.657900  0.792200  1.0
  H  H1614  1  0.171900  0.157900  0.707800  1.0
  H  H1615  1  0.171900  0.342100  0.207800  1.0
  H  H1616  1  0.828100  0.842100  0.292200  1.0
  H  H1617  1  0.904700  0.623000  0.822200  1.0
  H  H1618  1  0.095300  0.123000  0.677800  1.0
  H  H1619  1  0.095300  0.377000  0.177800  1.0
  H  H1620  1  0.904700  0.877000  0.322200  1.0
  H  H1621  1  0.873600  0.632300  0.846900  1.0
  H  H1622  1  0.126400  0.132300  0.653100  1.0
  H  H1623  1  0.126400  0.367700  0.153100  1.0
  H  H1624  1  0.873600  0.867700  0.346900  1.0
  H  H1625  1  0.919800  0.645500  0.860800  1.0
  H  H1626  1  0.080200  0.145500  0.639200  1.0
  H  H1627  1  0.080200  0.354500  0.139200  1.0
  H  H1628  1  0.919800  0.854500  0.360800  1.0
  H  H1629  1  0.961300  0.685700  0.780700  1.0
  H  H1630  1  0.038700  0.185700  0.719300  1.0
  H  H1631  1  0.038700  0.314300  0.219300  1.0
  H  H1632  1  0.961300  0.814300  0.280700  1.0
  H  H1633  1  0.920100  0.664400  0.761800  1.0
  H  H1634  1  0.079900  0.164400  0.738200  1.0
  H  H1635  1  0.079900  0.335600  0.238200  1.0
  H  H1636  1  0.920100  0.835600  0.261800  1.0
  H  H1637  1  0.949800  0.649500  0.800200  1.0
  H  H1638  1  0.050200  0.149500  0.699800  1.0
  H  H1639  1  0.050200  0.350500  0.199800  1.0
  H  H1640  1  0.949800  0.850500  0.300200  1.0
  H  H1641  1  0.789300  0.810400  0.766600  1.0
  H  H1642  1  0.210700  0.310400  0.733400  1.0
  H  H1643  1  0.210700  0.189600  0.233400  1.0
  H  H1644  1  0.789300  0.689600  0.266600  1.0
  H  H1645  1  0.782200  0.821700  0.723100  1.0
  H  H1646  1  0.217800  0.321700  0.776900  1.0
  H  H1647  1  0.217800  0.178300  0.276900  1.0
  H  H1648  1  0.782200  0.678300  0.223100  1.0
  H  H1649  1  0.821700  0.835600  0.753900  1.0
  H  H1650  1  0.178300  0.335600  0.746100  1.0
  H  H1651  1  0.178300  0.164400  0.246100  1.0
  H  H1652  1  0.821700  0.664400  0.253900  1.0
  H  H1653  1  0.865100  0.808500  0.715100  1.0
  H  H1654  1  0.134900  0.308500  0.784900  1.0
  H  H1655  1  0.134900  0.191500  0.284900  1.0
  H  H1656  1  0.865100  0.691500  0.215100  1.0
  H  H1657  1  0.826500  0.793200  0.684700  1.0
  H  H1658  1  0.173500  0.293200  0.815300  1.0
  H  H1659  1  0.173500  0.206800  0.315300  1.0
  H  H1660  1  0.826500  0.706800  0.184700  1.0
  H  H1661  1  0.896600  0.745500  0.650600  1.0
  H  H1662  1  0.103400  0.245500  0.849400  1.0
  H  H1663  1  0.103400  0.254500  0.349400  1.0
  H  H1664  1  0.896600  0.754500  0.150600  1.0
  H  H1665  1  0.894200  0.788200  0.659400  1.0
  H  H1666  1  0.105800  0.288200  0.840600  1.0
  H  H1667  1  0.105800  0.211800  0.340600  1.0
  H  H1668  1  0.894200  0.711800  0.159400  1.0
  H  H1669  1  0.853800  0.766100  0.639800  1.0
  H  H1670  1  0.146200  0.266100  0.860200  1.0
  H  H1671  1  0.146200  0.233900  0.360200  1.0
  H  H1672  1  0.853800  0.733900  0.139800  1.0
  H  H1673  1  0.932100  0.736100  0.720400  1.0
  H  H1674  1  0.067900  0.236100  0.779600  1.0
  H  H1675  1  0.067900  0.263900  0.279600  1.0
  H  H1676  1  0.932100  0.763900  0.220400  1.0
  H  H1677  1  0.911300  0.751800  0.751600  1.0
  H  H1678  1  0.088700  0.251800  0.748400  1.0
  H  H1679  1  0.088700  0.248200  0.248400  1.0
  H  H1680  1  0.911300  0.748200  0.251600  1.0
  H  H1681  1  0.928400  0.779300  0.725400  1.0
  H  H1682  1  0.071600  0.279300  0.774600  1.0
  H  H1683  1  0.071600  0.220700  0.274600  1.0
  H  H1684  1  0.928400  0.720700  0.225400  1.0
  H  H1685  1  0.847100  0.671800  0.690100  1.0
  H  H1686  1  0.152900  0.171800  0.809900  1.0
  H  H1687  1  0.152900  0.328200  0.309900  1.0
  H  H1688  1  0.847100  0.828200  0.190100  1.0
  H  H1689  1  0.892100  0.686400  0.707900  1.0
  H  H1690  1  0.107900  0.186400  0.792100  1.0
  H  H1691  1  0.107900  0.313600  0.292100  1.0
  H  H1692  1  0.892100  0.813600  0.207900  1.0
  H  H1693  1  0.871100  0.692300  0.663900  1.0
  H  H1694  1  0.128900  0.192300  0.836100  1.0
  H  H1695  1  0.128900  0.307700  0.336100  1.0
  H  H1696  1  0.871100  0.807700  0.163900  1.0
  Pt  Pt1697  1  0.704210  0.724780  0.621210  1.0
  Pt  Pt1698  1  0.295790  0.224780  0.878790  1.0
  Pt  Pt1699  1  0.295790  0.275220  0.378790  1.0
  Pt  Pt1700  1  0.704210  0.775220  0.121210  1.0
  Pt  Pt1701  1  0.037610  0.737040  0.914280  1.0
  Pt  Pt1702  1  0.962390  0.237040  0.585720  1.0
  Pt  Pt1703  1  0.962390  0.262960  0.085720  1.0
  Pt  Pt1704  1  0.037610  0.762960  0.414280  1.0
  Pt  Pt1705  1  0.202950  0.746590  0.115200  1.0
  Pt  Pt1706  1  0.797050  0.246590  0.384800  1.0
  Pt  Pt1707  1  0.797050  0.253410  0.884800  1.0
  Pt  Pt1708  1  0.202950  0.753410  0.615200  1.0
  Pt  Pt1709  1  0.538010  0.728140  0.408030  1.0
  Pt  Pt1710  1  0.461990  0.228140  0.091970  1.0
  Pt  Pt1711  1  0.461990  0.271860  0.591970  1.0
  Pt  Pt1712  1  0.538010  0.771860  0.908030  1.0
  C  C1713  1  0.132100  0.737850  0.147150  1.0
  C  C1714  1  0.867900  0.237850  0.352850  1.0
  C  C1715  1  0.867900  0.262150  0.852850  1.0
  C  C1716  1  0.132100  0.762150  0.647150  1.0
  C  C1717  1  0.111080  0.742450  0.174640  1.0
  C  C1718  1  0.888920  0.242450  0.325360  1.0
  C  C1719  1  0.888920  0.257550  0.825360  1.0
  C  C1720  1  0.111080  0.757550  0.674640  1.0
  C  C1721  1  0.127320  0.764090  0.206130  1.0
  C  C1722  1  0.872680  0.264090  0.293870  1.0
  C  C1723  1  0.872680  0.235910  0.793870  1.0
  C  C1724  1  0.127320  0.735910  0.706130  1.0
  C  C1725  1  0.164540  0.781120  0.210130  1.0
  C  C1726  1  0.835460  0.281120  0.289870  1.0
  C  C1727  1  0.835460  0.218880  0.789870  1.0
  C  C1728  1  0.164540  0.718880  0.710130  1.0
  C  C1729  1  0.185540  0.776510  0.182640  1.0
  C  C1730  1  0.814460  0.276510  0.317360  1.0
  C  C1731  1  0.814460  0.223490  0.817360  1.0
  C  C1732  1  0.185540  0.723490  0.682640  1.0
  C  C1733  1  0.198600  0.747000  0.283000  1.0
  C  C1734  1  0.801400  0.247000  0.217000  1.0
  C  C1735  1  0.801400  0.253000  0.717000  1.0
  C  C1736  1  0.198600  0.753000  0.783000  1.0
  C  C1737  1  0.214300  0.733240  0.319390  1.0
  C  C1738  1  0.785700  0.233240  0.180610  1.0
  C  C1739  1  0.785700  0.266760  0.680610  1.0
  C  C1740  1  0.214300  0.766760  0.819390  1.0
  C  C1741  1  0.233300  0.755290  0.351690  1.0
  C  C1742  1  0.766700  0.255290  0.148310  1.0
  C  C1743  1  0.766700  0.244710  0.648310  1.0
  C  C1744  1  0.233300  0.744710  0.851690  1.0
  C  C1745  1  0.236900  0.792270  0.346100  1.0
  C  C1746  1  0.763100  0.292270  0.153900  1.0
  C  C1747  1  0.763100  0.207730  0.653900  1.0
  C  C1748  1  0.236900  0.707730  0.846100  1.0
  C  C1749  1  0.221940  0.808850  0.311040  1.0
  C  C1750  1  0.778060  0.308850  0.188960  1.0
  C  C1751  1  0.778060  0.191150  0.688960  1.0
  C  C1752  1  0.221940  0.691150  0.811040  1.0
  C  C1753  1  0.228550  0.846420  0.305370  1.0
  C  C1754  1  0.771450  0.346420  0.194630  1.0
  C  C1755  1  0.771450  0.153580  0.694630  1.0
  C  C1756  1  0.228550  0.653580  0.805370  1.0
  C  C1757  1  0.211120  0.862610  0.269880  1.0
  C  C1758  1  0.788880  0.362610  0.230120  1.0
  C  C1759  1  0.788880  0.137390  0.730120  1.0
  C  C1760  1  0.211120  0.637390  0.769880  1.0
  C  C1761  1  0.216200  0.901420  0.263890  1.0
  C  C1762  1  0.783800  0.401420  0.236110  1.0
  C  C1763  1  0.783800  0.098580  0.736110  1.0
  C  C1764  1  0.216200  0.598580  0.763890  1.0
  C  C1765  1  0.199500  0.916570  0.229460  1.0
  C  C1766  1  0.800500  0.416570  0.270540  1.0
  C  C1767  1  0.800500  0.083430  0.770540  1.0
  C  C1768  1  0.199500  0.583430  0.729460  1.0
  C  C1769  1  0.176100  0.895700  0.199330  1.0
  C  C1770  1  0.823900  0.395700  0.300670  1.0
  C  C1771  1  0.823900  0.104300  0.800670  1.0
  C  C1772  1  0.176100  0.604300  0.699330  1.0
  C  C1773  1  0.171400  0.859090  0.203070  1.0
  C  C1774  1  0.828600  0.359090  0.296930  1.0
  C  C1775  1  0.828600  0.140910  0.796930  1.0
  C  C1776  1  0.171400  0.640910  0.703070  1.0
  C  C1777  1  0.189450  0.841300  0.239000  1.0
  C  C1778  1  0.810550  0.341300  0.261000  1.0
  C  C1779  1  0.810550  0.158700  0.761000  1.0
  C  C1780  1  0.189450  0.658700  0.739000  1.0
  C  C1781  1  0.185330  0.803220  0.243410  1.0
  C  C1782  1  0.814670  0.303220  0.256590  1.0
  C  C1783  1  0.814670  0.196780  0.756590  1.0
  C  C1784  1  0.185330  0.696780  0.743410  1.0
  C  C1785  1  0.200480  0.786540  0.279140  1.0
  C  C1786  1  0.799520  0.286540  0.220860  1.0
  C  C1787  1  0.799520  0.213460  0.720860  1.0
  C  C1788  1  0.200480  0.713460  0.779140  1.0
  C  C1789  1  0.566600  0.804700  0.426870  1.0
  C  C1790  1  0.433400  0.304700  0.073130  1.0
  C  C1791  1  0.433400  0.195300  0.573130  1.0
  C  C1792  1  0.566600  0.695300  0.926870  1.0
  C  C1793  1  0.561290  0.842000  0.430730  1.0
  C  C1794  1  0.438710  0.342000  0.069270  1.0
  C  C1795  1  0.438710  0.158000  0.569270  1.0
  C  C1796  1  0.561290  0.658000  0.930730  1.0
  C  C1797  1  0.522530  0.856350  0.425290  1.0
  C  C1798  1  0.477470  0.356350  0.074710  1.0
  C  C1799  1  0.477470  0.143650  0.574710  1.0
  C  C1800  1  0.522530  0.643650  0.925290  1.0
  C  C1801  1  0.489070  0.833300  0.415980  1.0
  C  C1802  1  0.510930  0.333300  0.084020  1.0
  C  C1803  1  0.510930  0.166700  0.584020  1.0
  C  C1804  1  0.489070  0.666700  0.915980  1.0
  C  C1805  1  0.494380  0.795950  0.412120  1.0
  C  C1806  1  0.505620  0.295950  0.087880  1.0
  C  C1807  1  0.505620  0.204050  0.587880  1.0
  C  C1808  1  0.494380  0.704050  0.912120  1.0
  C  C1809  1  0.451400  0.861900  0.342900  1.0
  C  C1810  1  0.548600  0.361900  0.157100  1.0
  C  C1811  1  0.548600  0.138100  0.657100  1.0
  C  C1812  1  0.451400  0.638100  0.842900  1.0
  C  C1813  1  0.434400  0.877400  0.307530  1.0
  C  C1814  1  0.565600  0.377400  0.192470  1.0
  C  C1815  1  0.565600  0.122600  0.692470  1.0
  C  C1816  1  0.434400  0.622600  0.807530  1.0
  C  C1817  1  0.394000  0.892300  0.298460  1.0
  C  C1818  1  0.606000  0.392300  0.201540  1.0
  C  C1819  1  0.606000  0.107700  0.701540  1.0
  C  C1820  1  0.394000  0.607700  0.798460  1.0
  C  C1821  1  0.372100  0.888700  0.324940  1.0
  C  C1822  1  0.627900  0.388700  0.175060  1.0
  C  C1823  1  0.627900  0.111300  0.675060  1.0
  C  C1824  1  0.372100  0.611300  0.824940  1.0
  C  C1825  1  0.387780  0.872320  0.359960  1.0
  C  C1826  1  0.612220  0.372320  0.140040  1.0
  C  C1827  1  0.612220  0.127680  0.640040  1.0
  C  C1828  1  0.387780  0.627680  0.859960  1.0
  C  C1829  1  0.363660  0.866530  0.385580  1.0
  C  C1830  1  0.636340  0.366530  0.114420  1.0
  C  C1831  1  0.636340  0.133470  0.614420  1.0
  C  C1832  1  0.363660  0.633470  0.885580  1.0
  C  C1833  1  0.381310  0.851480  0.421590  1.0
  C  C1834  1  0.618690  0.351480  0.078410  1.0
  C  C1835  1  0.618690  0.148520  0.578410  1.0
  C  C1836  1  0.381310  0.648520  0.921590  1.0
  C  C1837  1  0.357530  0.846700  0.448900  1.0
  C  C1838  1  0.642470  0.346700  0.051100  1.0
  C  C1839  1  0.642470  0.153300  0.551100  1.0
  C  C1840  1  0.357530  0.653300  0.948900  1.0
  C  C1841  1  0.374800  0.831800  0.483300  1.0
  C  C1842  1  0.625200  0.331800  0.016700  1.0
  C  C1843  1  0.625200  0.168200  0.516700  1.0
  C  C1844  1  0.374800  0.668200  0.983300  1.0
  C  C1845  1  0.416000  0.821900  0.493940  1.0
  C  C1846  1  0.584000  0.321900  0.006060  1.0
  C  C1847  1  0.584000  0.178100  0.506060  1.0
  C  C1848  1  0.416000  0.678100  0.993940  1.0
  C  C1849  1  0.439330  0.824840  0.469120  1.0
  C  C1850  1  0.560670  0.324840  0.030880  1.0
  C  C1851  1  0.560670  0.175160  0.530880  1.0
  C  C1852  1  0.439330  0.675160  0.969120  1.0
  C  C1853  1  0.422080  0.839660  0.431550  1.0
  C  C1854  1  0.577920  0.339660  0.068450  1.0
  C  C1855  1  0.577920  0.160340  0.568450  1.0
  C  C1856  1  0.422080  0.660340  0.931550  1.0
  C  C1857  1  0.445630  0.842610  0.405140  1.0
  C  C1858  1  0.554370  0.342610  0.094860  1.0
  C  C1859  1  0.554370  0.157390  0.594860  1.0
  C  C1860  1  0.445630  0.657390  0.905140  1.0
  C  C1861  1  0.429540  0.859420  0.369660  1.0
  C  C1862  1  0.570460  0.359420  0.130340  1.0
  C  C1863  1  0.570460  0.140580  0.630340  1.0
  C  C1864  1  0.429540  0.640580  0.869660  1.0
  C  C1865  1  0.253900  0.869000  0.337300  1.0
  C  C1866  1  0.746100  0.369000  0.162700  1.0
  C  C1867  1  0.746100  0.131000  0.662700  1.0
  C  C1868  1  0.253900  0.631000  0.837300  1.0
  C  C1869  1  0.238900  0.898100  0.354000  1.0
  C  C1870  1  0.761100  0.398100  0.146000  1.0
  C  C1871  1  0.761100  0.101900  0.646000  1.0
  C  C1872  1  0.238900  0.601900  0.854000  1.0
  C  C1873  1  0.264900  0.918900  0.381700  1.0
  C  C1874  1  0.735100  0.418900  0.118300  1.0
  C  C1875  1  0.735100  0.081100  0.618300  1.0
  C  C1876  1  0.264900  0.581100  0.881700  1.0
  C  C1877  1  0.306000  0.910700  0.392600  1.0
  C  C1878  1  0.694000  0.410700  0.107400  1.0
  C  C1879  1  0.694000  0.089300  0.607400  1.0
  C  C1880  1  0.306000  0.589300  0.892600  1.0
  C  C1881  1  0.321100  0.881700  0.376000  1.0
  C  C1882  1  0.678900  0.381700  0.124000  1.0
  C  C1883  1  0.678900  0.118300  0.624000  1.0
  C  C1884  1  0.321100  0.618300  0.876000  1.0
  C  C1885  1  0.295000  0.860800  0.348300  1.0
  C  C1886  1  0.705000  0.360800  0.151700  1.0
  C  C1887  1  0.705000  0.139200  0.651700  1.0
  C  C1888  1  0.295000  0.639200  0.848300  1.0
  C  C1889  1  0.173930  0.824820  0.098570  1.0
  C  C1890  1  0.826070  0.324820  0.401430  1.0
  C  C1891  1  0.826070  0.175180  0.901430  1.0
  C  C1892  1  0.173930  0.675180  0.598570  1.0
  C  C1893  1  0.178960  0.862300  0.095370  1.0
  C  C1894  1  0.821040  0.362300  0.404630  1.0
  C  C1895  1  0.821040  0.137700  0.904630  1.0
  C  C1896  1  0.178960  0.637700  0.595370  1.0
  C  C1897  1  0.217670  0.877060  0.102380  1.0
  C  C1898  1  0.782330  0.377060  0.397620  1.0
  C  C1899  1  0.782330  0.122940  0.897620  1.0
  C  C1900  1  0.217670  0.622940  0.602380  1.0
  C  C1901  1  0.251350  0.854350  0.112590  1.0
  C  C1902  1  0.748650  0.354350  0.387410  1.0
  C  C1903  1  0.748650  0.145650  0.887410  1.0
  C  C1904  1  0.251350  0.645650  0.612590  1.0
  C  C1905  1  0.246320  0.816870  0.115780  1.0
  C  C1906  1  0.753680  0.316870  0.384220  1.0
  C  C1907  1  0.753680  0.183130  0.884220  1.0
  C  C1908  1  0.246320  0.683130  0.615780  1.0
  C  C1909  1  0.282500  0.900700  0.179300  1.0
  C  C1910  1  0.717500  0.400700  0.320700  1.0
  C  C1911  1  0.717500  0.099300  0.820700  1.0
  C  C1912  1  0.282500  0.599300  0.679300  1.0
  C  C1913  1  0.298000  0.922070  0.208650  1.0
  C  C1914  1  0.702000  0.422070  0.291350  1.0
  C  C1915  1  0.702000  0.077930  0.791350  1.0
  C  C1916  1  0.298000  0.577930  0.708650  1.0
  C  C1917  1  0.338800  0.936120  0.217240  1.0
  C  C1918  1  0.661200  0.436120  0.282760  1.0
  C  C1919  1  0.661200  0.063880  0.782760  1.0
  C  C1920  1  0.338800  0.563880  0.717240  1.0
  C  C1921  1  0.362830  0.925810  0.194130  1.0
  C  C1922  1  0.637170  0.425810  0.305870  1.0
  C  C1923  1  0.637170  0.074190  0.805870  1.0
  C  C1924  1  0.362830  0.574190  0.694130  1.0
  C  C1925  1  0.348950  0.903400  0.162690  1.0
  C  C1926  1  0.651050  0.403400  0.337310  1.0
  C  C1927  1  0.651050  0.096600  0.837310  1.0
  C  C1928  1  0.348950  0.596600  0.662690  1.0
  C  C1929  1  0.375100  0.890980  0.141010  1.0
  C  C1930  1  0.624900  0.390980  0.358990  1.0
  C  C1931  1  0.624900  0.109020  0.858990  1.0
  C  C1932  1  0.375100  0.609020  0.641010  1.0
  C  C1933  1  0.359390  0.869830  0.108220  1.0
  C  C1934  1  0.640610  0.369830  0.391780  1.0
  C  C1935  1  0.640610  0.130170  0.891780  1.0
  C  C1936  1  0.359390  0.630170  0.608220  1.0
  C  C1937  1  0.385340  0.858030  0.084700  1.0
  C  C1938  1  0.614660  0.358030  0.415300  1.0
  C  C1939  1  0.614660  0.141970  0.915300  1.0
  C  C1940  1  0.385340  0.641970  0.584700  1.0
  C  C1941  1  0.369830  0.837420  0.053390  1.0
  C  C1942  1  0.630170  0.337420  0.446610  1.0
  C  C1943  1  0.630170  0.162580  0.946610  1.0
  C  C1944  1  0.369830  0.662580  0.553390  1.0
  C  C1945  1  0.328540  0.827910  0.042300  1.0
  C  C1946  1  0.671460  0.327910  0.457700  1.0
  C  C1947  1  0.671460  0.172090  0.957700  1.0
  C  C1948  1  0.328540  0.672090  0.542300  1.0
  C  C1949  1  0.303170  0.837350  0.063850  1.0
  C  C1950  1  0.696830  0.337350  0.436150  1.0
  C  C1951  1  0.696830  0.162650  0.936150  1.0
  C  C1952  1  0.303170  0.662650  0.563850  1.0
  C  C1953  1  0.318390  0.858610  0.098140  1.0
  C  C1954  1  0.681610  0.358610  0.401860  1.0
  C  C1955  1  0.681610  0.141390  0.901860  1.0
  C  C1956  1  0.318390  0.641390  0.598140  1.0
  C  C1957  1  0.292690  0.868380  0.121210  1.0
  C  C1958  1  0.707310  0.368380  0.378790  1.0
  C  C1959  1  0.707310  0.131620  0.878790  1.0
  C  C1960  1  0.292690  0.631620  0.621210  1.0
  C  C1961  1  0.306920  0.891250  0.153030  1.0
  C  C1962  1  0.693080  0.391250  0.346970  1.0
  C  C1963  1  0.693080  0.108750  0.846970  1.0
  C  C1964  1  0.306920  0.608750  0.653030  1.0
  C  C1965  1  0.606000  0.729980  0.371500  1.0
  C  C1966  1  0.394000  0.229980  0.128500  1.0
  C  C1967  1  0.394000  0.270020  0.628500  1.0
  C  C1968  1  0.606000  0.770020  0.871500  1.0
  C  C1969  1  0.626580  0.742190  0.345730  1.0
  C  C1970  1  0.373420  0.242190  0.154270  1.0
  C  C1971  1  0.373420  0.257810  0.654270  1.0
  C  C1972  1  0.626580  0.757810  0.845730  1.0
  C  C1973  1  0.607680  0.765840  0.316810  1.0
  C  C1974  1  0.392320  0.265840  0.183190  1.0
  C  C1975  1  0.392320  0.234160  0.683190  1.0
  C  C1976  1  0.607680  0.734160  0.816810  1.0
  C  C1977  1  0.568160  0.777270  0.313670  1.0
  C  C1978  1  0.431840  0.277270  0.186330  1.0
  C  C1979  1  0.431840  0.222730  0.686330  1.0
  C  C1980  1  0.568160  0.722730  0.813670  1.0
  C  C1981  1  0.547550  0.765060  0.339440  1.0
  C  C1982  1  0.452450  0.265060  0.160560  1.0
  C  C1983  1  0.452450  0.234940  0.660560  1.0
  C  C1984  1  0.547550  0.734940  0.839440  1.0
  C  C1985  1  0.531100  0.754300  0.237900  1.0
  C  C1986  1  0.468900  0.254300  0.262100  1.0
  C  C1987  1  0.468900  0.245700  0.762100  1.0
  C  C1988  1  0.531100  0.745700  0.737900  1.0
  C  C1989  1  0.516500  0.742230  0.201490  1.0
  C  C1990  1  0.483500  0.242230  0.298510  1.0
  C  C1991  1  0.483500  0.257770  0.798510  1.0
  C  C1992  1  0.516500  0.757770  0.701490  1.0
  C  C1993  1  0.499300  0.767470  0.171420  1.0
  C  C1994  1  0.500700  0.267470  0.328580  1.0
  C  C1995  1  0.500700  0.232530  0.828580  1.0
  C  C1996  1  0.499300  0.732530  0.671420  1.0
  C  C1997  1  0.497040  0.803750  0.180740  1.0
  C  C1998  1  0.502960  0.303750  0.319260  1.0
  C  C1999  1  0.502960  0.196250  0.819260  1.0
  C  C2000  1  0.497040  0.696250  0.680740  1.0
  C  C2001  1  0.511610  0.816740  0.217480  1.0
  C  C2002  1  0.488390  0.316740  0.282520  1.0
  C  C2003  1  0.488390  0.183260  0.782520  1.0
  C  C2004  1  0.511610  0.683260  0.717480  1.0
  C  C2005  1  0.506300  0.853670  0.226840  1.0
  C  C2006  1  0.493700  0.353670  0.273160  1.0
  C  C2007  1  0.493700  0.146330  0.773160  1.0
  C  C2008  1  0.506300  0.646330  0.726840  1.0
  C  C2009  1  0.523330  0.866210  0.264030  1.0
  C  C2010  1  0.476670  0.366210  0.235970  1.0
  C  C2011  1  0.476670  0.133790  0.735970  1.0
  C  C2012  1  0.523330  0.633790  0.764030  1.0
  C  C2013  1  0.519630  0.904310  0.273870  1.0
  C  C2014  1  0.480370  0.404310  0.226130  1.0
  C  C2015  1  0.480370  0.095690  0.726130  1.0
  C  C2016  1  0.519630  0.595690  0.773870  1.0
  C  C2017  1  0.535900  0.915920  0.309900  1.0
  C  C2018  1  0.464100  0.415920  0.190100  1.0
  C  C2019  1  0.464100  0.084080  0.690100  1.0
  C  C2020  1  0.535900  0.584080  0.809900  1.0
  C  C2021  1  0.557500  0.892010  0.338100  1.0
  C  C2022  1  0.442500  0.392010  0.161900  1.0
  C  C2023  1  0.442500  0.107990  0.661900  1.0
  C  C2024  1  0.557500  0.607990  0.838100  1.0
  C  C2025  1  0.560900  0.855880  0.330690  1.0
  C  C2026  1  0.439100  0.355880  0.169310  1.0
  C  C2027  1  0.439100  0.144120  0.669310  1.0
  C  C2028  1  0.560900  0.644120  0.830690  1.0
  C  C2029  1  0.543190  0.841800  0.292850  1.0
  C  C2030  1  0.456810  0.341800  0.207150  1.0
  C  C2031  1  0.456810  0.158200  0.707150  1.0
  C  C2032  1  0.543190  0.658200  0.792850  1.0
  C  C2033  1  0.545930  0.804270  0.284600  1.0
  C  C2034  1  0.454070  0.304270  0.215400  1.0
  C  C2035  1  0.454070  0.195730  0.715400  1.0
  C  C2036  1  0.545930  0.695730  0.784600  1.0
  C  C2037  1  0.531200  0.791260  0.247190  1.0
  C  C2038  1  0.468800  0.291260  0.252810  1.0
  C  C2039  1  0.468800  0.208740  0.752810  1.0
  C  C2040  1  0.531200  0.708740  0.747190  1.0
  C  C2041  1  0.420400  0.898400  0.155600  1.0
  C  C2042  1  0.579600  0.398400  0.344400  1.0
  C  C2043  1  0.579600  0.101600  0.844400  1.0
  C  C2044  1  0.420400  0.601600  0.655600  1.0
  C  C2045  1  0.440000  0.924000  0.138500  1.0
  C  C2046  1  0.560000  0.424000  0.361500  1.0
  C  C2047  1  0.560000  0.076000  0.861500  1.0
  C  C2048  1  0.440000  0.576000  0.638500  1.0
  C  C2049  1  0.481900  0.927500  0.150400  1.0
  C  C2050  1  0.518100  0.427500  0.349600  1.0
  C  C2051  1  0.518100  0.072500  0.849600  1.0
  C  C2052  1  0.481900  0.572500  0.650400  1.0
  C  C2053  1  0.504200  0.905400  0.179300  1.0
  C  C2054  1  0.495800  0.405400  0.320700  1.0
  C  C2055  1  0.495800  0.094600  0.820700  1.0
  C  C2056  1  0.504200  0.594600  0.679300  1.0
  C  C2057  1  0.484500  0.879900  0.196400  1.0
  C  C2058  1  0.515500  0.379900  0.303600  1.0
  C  C2059  1  0.515500  0.120100  0.803600  1.0
  C  C2060  1  0.484500  0.620100  0.696400  1.0
  C  C2061  1  0.442600  0.876400  0.184500  1.0
  C  C2062  1  0.557400  0.376400  0.315500  1.0
  C  C2063  1  0.557400  0.123600  0.815500  1.0
  C  C2064  1  0.442600  0.623600  0.684500  1.0
  C  C2065  1  0.224960  0.750900  0.041600  1.0
  C  C2066  1  0.775040  0.250900  0.458400  1.0
  C  C2067  1  0.775040  0.249100  0.958400  1.0
  C  C2068  1  0.224960  0.749100  0.541600  1.0
  C  C2069  1  0.247820  0.742860  0.016270  1.0
  C  C2070  1  0.752180  0.242860  0.483730  1.0
  C  C2071  1  0.752180  0.257140  0.983730  1.0
  C  C2072  1  0.247820  0.757140  0.516270  1.0
  C  C2073  1  0.282270  0.721220  0.027630  1.0
  C  C2074  1  0.717730  0.221220  0.472370  1.0
  C  C2075  1  0.717730  0.278780  0.972370  1.0
  C  C2076  1  0.282270  0.778780  0.527630  1.0
  C  C2077  1  0.293860  0.707610  0.064300  1.0
  C  C2078  1  0.706140  0.207610  0.435700  1.0
  C  C2079  1  0.706140  0.292390  0.935700  1.0
  C  C2080  1  0.293860  0.792390  0.564300  1.0
  C  C2081  1  0.270990  0.715650  0.089610  1.0
  C  C2082  1  0.729010  0.215650  0.410390  1.0
  C  C2083  1  0.729010  0.284350  0.910390  1.0
  C  C2084  1  0.270990  0.784350  0.589610  1.0
  C  C2085  1  0.377600  0.731200  0.070400  1.0
  C  C2086  1  0.622400  0.231200  0.429600  1.0
  C  C2087  1  0.622400  0.268800  0.929600  1.0
  C  C2088  1  0.377600  0.768800  0.570400  1.0
  C  C2089  1  0.414970  0.744460  0.073300  1.0
  C  C2090  1  0.585030  0.244460  0.426700  1.0
  C  C2091  1  0.585030  0.255540  0.926700  1.0
  C  C2092  1  0.414970  0.755540  0.573300  1.0
  C  C2093  1  0.449540  0.721070  0.087100  1.0
  C  C2094  1  0.550460  0.221070  0.412900  1.0
  C  C2095  1  0.550460  0.278930  0.912900  1.0
  C  C2096  1  0.449540  0.778930  0.587100  1.0
  C  C2097  1  0.442720  0.686310  0.098520  1.0
  C  C2098  1  0.557280  0.186310  0.401480  1.0
  C  C2099  1  0.557280  0.313690  0.901480  1.0
  C  C2100  1  0.442720  0.813690  0.598520  1.0
  C  C2101  1  0.404030  0.672990  0.096310  1.0
  C  C2102  1  0.595970  0.172990  0.403690  1.0
  C  C2103  1  0.595970  0.327010  0.903690  1.0
  C  C2104  1  0.404030  0.827010  0.596310  1.0
  C  C2105  1  0.397950  0.638130  0.110840  1.0
  C  C2106  1  0.602050  0.138130  0.389160  1.0
  C  C2107  1  0.602050  0.361870  0.889160  1.0
  C  C2108  1  0.397950  0.861870  0.610840  1.0
  C  C2109  1  0.358190  0.624850  0.106330  1.0
  C  C2110  1  0.641810  0.124850  0.393670  1.0
  C  C2111  1  0.641810  0.375150  0.893670  1.0
  C  C2112  1  0.358190  0.875150  0.606330  1.0
  C  C2113  1  0.351300  0.588590  0.119660  1.0
  C  C2114  1  0.648700  0.088590  0.380340  1.0
  C  C2115  1  0.648700  0.411410  0.880340  1.0
  C  C2116  1  0.351300  0.911410  0.619660  1.0
  C  C2117  1  0.312800  0.576290  0.115400  1.0
  C  C2118  1  0.687200  0.076290  0.384600  1.0
  C  C2119  1  0.687200  0.423710  0.884600  1.0
  C  C2120  1  0.312800  0.923710  0.615400  1.0
  C  C2121  1  0.279010  0.597490  0.097200  1.0
  C  C2122  1  0.720990  0.097490  0.402800  1.0
  C  C2123  1  0.720990  0.402510  0.902800  1.0
  C  C2124  1  0.279010  0.902510  0.597200  1.0
  C  C2125  1  0.283730  0.631990  0.085150  1.0
  C  C2126  1  0.716270  0.131990  0.414850  1.0
  C  C2127  1  0.716270  0.368010  0.914850  1.0
  C  C2128  1  0.283730  0.868010  0.585150  1.0
  C  C2129  1  0.324190  0.646860  0.089870  1.0
  C  C2130  1  0.675810  0.146860  0.410130  1.0
  C  C2131  1  0.675810  0.353140  0.910130  1.0
  C  C2132  1  0.324190  0.853140  0.589870  1.0
  C  C2133  1  0.329810  0.682810  0.077960  1.0
  C  C2134  1  0.670190  0.182810  0.422040  1.0
  C  C2135  1  0.670190  0.317190  0.922040  1.0
  C  C2136  1  0.329810  0.817190  0.577960  1.0
  C  C2137  1  0.369190  0.696170  0.080130  1.0
  C  C2138  1  0.630810  0.196170  0.419870  1.0
  C  C2139  1  0.630810  0.303830  0.919870  1.0
  C  C2140  1  0.369190  0.803830  0.580130  1.0
  C  C2141  1  0.558000  0.650200  0.424790  1.0
  C  C2142  1  0.442000  0.150200  0.075210  1.0
  C  C2143  1  0.442000  0.349800  0.575210  1.0
  C  C2144  1  0.558000  0.849800  0.924790  1.0
  C  C2145  1  0.562400  0.613500  0.416690  1.0
  C  C2146  1  0.437600  0.113500  0.083310  1.0
  C  C2147  1  0.437600  0.386500  0.583310  1.0
  C  C2148  1  0.562400  0.886500  0.916690  1.0
  C  C2149  1  0.551070  0.601380  0.379470  1.0
  C  C2150  1  0.448930  0.101380  0.120530  1.0
  C  C2151  1  0.448930  0.398620  0.620530  1.0
  C  C2152  1  0.551070  0.898620  0.879470  1.0
  C  C2153  1  0.535360  0.625890  0.350350  1.0
  C  C2154  1  0.464640  0.125890  0.149650  1.0
  C  C2155  1  0.464640  0.374110  0.649650  1.0
  C  C2156  1  0.535360  0.874110  0.850350  1.0
  C  C2157  1  0.530970  0.662570  0.358460  1.0
  C  C2158  1  0.469030  0.162570  0.141540  1.0
  C  C2159  1  0.469030  0.337430  0.641540  1.0
  C  C2160  1  0.530970  0.837430  0.858460  1.0
  C  C2161  1  0.471800  0.569900  0.322000  1.0
  C  C2162  1  0.528200  0.069900  0.178000  1.0
  C  C2163  1  0.528200  0.430100  0.678000  1.0
  C  C2164  1  0.471800  0.930100  0.822000  1.0
  C  C2165  1  0.440900  0.547710  0.306700  1.0
  C  C2166  1  0.559100  0.047710  0.193300  1.0
  C  C2167  1  0.559100  0.452290  0.693300  1.0
  C  C2168  1  0.440900  0.952290  0.806700  1.0
  C  C2169  1  0.428100  0.538900  0.267000  1.0
  C  C2170  1  0.571900  0.038900  0.233000  1.0
  C  C2171  1  0.571900  0.461100  0.733000  1.0
  C  C2172  1  0.428100  0.961100  0.767000  1.0
  C  C2173  1  0.446970  0.556630  0.243110  1.0
  C  C2174  1  0.553030  0.056630  0.256890  1.0
  C  C2175  1  0.553030  0.443370  0.756890  1.0
  C  C2176  1  0.446970  0.943370  0.743110  1.0
  C  C2177  1  0.478280  0.581550  0.255940  1.0
  C  C2178  1  0.521720  0.081550  0.244060  1.0
  C  C2179  1  0.521720  0.418450  0.744060  1.0
  C  C2180  1  0.478280  0.918450  0.755940  1.0
  C  C2181  1  0.495210  0.601400  0.230530  1.0
  C  C2182  1  0.504790  0.101400  0.269470  1.0
  C  C2183  1  0.504790  0.398600  0.769470  1.0
  C  C2184  1  0.495210  0.898600  0.730530  1.0
  C  C2185  1  0.528320  0.625050  0.244750  1.0
  C  C2186  1  0.471680  0.125050  0.255250  1.0
  C  C2187  1  0.471680  0.374950  0.755250  1.0
  C  C2188  1  0.528320  0.874950  0.744750  1.0
  C  C2189  1  0.547200  0.644540  0.219210  1.0
  C  C2190  1  0.452800  0.144540  0.280790  1.0
  C  C2191  1  0.452800  0.355460  0.780790  1.0
  C  C2192  1  0.547200  0.855460  0.719210  1.0
  C  C2193  1  0.578800  0.667470  0.233320  1.0
  C  C2194  1  0.421200  0.167470  0.266680  1.0
  C  C2195  1  0.421200  0.332530  0.766680  1.0
  C  C2196  1  0.578800  0.832530  0.733320  1.0
  C  C2197  1  0.594840  0.672120  0.272500  1.0
  C  C2198  1  0.405160  0.172120  0.227500  1.0
  C  C2199  1  0.405160  0.327880  0.727500  1.0
  C  C2200  1  0.594840  0.827880  0.772500  1.0
  C  C2201  1  0.577630  0.655340  0.297610  1.0
  C  C2202  1  0.422370  0.155340  0.202390  1.0
  C  C2203  1  0.422370  0.344660  0.702390  1.0
  C  C2204  1  0.577630  0.844660  0.797610  1.0
  C  C2205  1  0.543070  0.631250  0.284030  1.0
  C  C2206  1  0.456930  0.131250  0.215970  1.0
  C  C2207  1  0.456930  0.368750  0.715970  1.0
  C  C2208  1  0.543070  0.868750  0.784030  1.0
  C  C2209  1  0.524380  0.613860  0.309580  1.0
  C  C2210  1  0.475620  0.113860  0.190420  1.0
  C  C2211  1  0.475620  0.386140  0.690420  1.0
  C  C2212  1  0.524380  0.886140  0.809580  1.0
  C  C2213  1  0.492660  0.588460  0.296380  1.0
  C  C2214  1  0.507340  0.088460  0.203620  1.0
  C  C2215  1  0.507340  0.411540  0.703620  1.0
  C  C2216  1  0.492660  0.911540  0.796380  1.0
  C  C2217  1  0.432000  0.614900  0.130000  1.0
  C  C2218  1  0.568000  0.114900  0.370000  1.0
  C  C2219  1  0.568000  0.385100  0.870000  1.0
  C  C2220  1  0.432000  0.885100  0.630000  1.0
  C  C2221  1  0.450000  0.589900  0.110900  1.0
  C  C2222  1  0.550000  0.089900  0.389100  1.0
  C  C2223  1  0.550000  0.410100  0.889100  1.0
  C  C2224  1  0.450000  0.910100  0.610900  1.0
  C  C2225  1  0.482100  0.568400  0.130800  1.0
  C  C2226  1  0.517900  0.068400  0.369200  1.0
  C  C2227  1  0.517900  0.431600  0.869200  1.0
  C  C2228  1  0.482100  0.931600  0.630800  1.0
  C  C2229  1  0.496100  0.572000  0.169800  1.0
  C  C2230  1  0.503900  0.072000  0.330200  1.0
  C  C2231  1  0.503900  0.428000  0.830200  1.0
  C  C2232  1  0.496100  0.928000  0.669800  1.0
  C  C2233  1  0.478000  0.597000  0.188900  1.0
  C  C2234  1  0.522000  0.097000  0.311100  1.0
  C  C2235  1  0.522000  0.403000  0.811100  1.0
  C  C2236  1  0.478000  0.903000  0.688900  1.0
  C  C2237  1  0.446000  0.618500  0.169000  1.0
  C  C2238  1  0.554000  0.118500  0.331000  1.0
  C  C2239  1  0.554000  0.381500  0.831000  1.0
  C  C2240  1  0.446000  0.881500  0.669000  1.0
  C  C2241  1  0.186450  0.668700  0.093250  1.0
  C  C2242  1  0.813550  0.168700  0.406750  1.0
  C  C2243  1  0.813550  0.331300  0.906750  1.0
  C  C2244  1  0.186450  0.831300  0.593250  1.0
  C  C2245  1  0.182950  0.631800  0.100810  1.0
  C  C2246  1  0.817050  0.131800  0.399190  1.0
  C  C2247  1  0.817050  0.368200  0.899190  1.0
  C  C2248  1  0.182950  0.868200  0.600810  1.0
  C  C2249  1  0.193750  0.619230  0.137910  1.0
  C  C2250  1  0.806250  0.119230  0.362090  1.0
  C  C2251  1  0.806250  0.380770  0.862090  1.0
  C  C2252  1  0.193750  0.880770  0.637910  1.0
  C  C2253  1  0.208050  0.643640  0.167450  1.0
  C  C2254  1  0.791950  0.143640  0.332550  1.0
  C  C2255  1  0.791950  0.356360  0.832550  1.0
  C  C2256  1  0.208050  0.856360  0.667450  1.0
  C  C2257  1  0.211550  0.680580  0.159890  1.0
  C  C2258  1  0.788450  0.180580  0.340110  1.0
  C  C2259  1  0.788450  0.319420  0.840110  1.0
  C  C2260  1  0.211550  0.819420  0.659890  1.0
  C  C2261  1  0.286300  0.607400  0.203400  1.0
  C  C2262  1  0.713700  0.107400  0.296600  1.0
  C  C2263  1  0.713700  0.392600  0.796600  1.0
  C  C2264  1  0.286300  0.892600  0.703400  1.0
  C  C2265  1  0.321980  0.591200  0.218260  1.0
  C  C2266  1  0.678020  0.091200  0.281740  1.0
  C  C2267  1  0.678020  0.408800  0.781740  1.0
  C  C2268  1  0.321980  0.908800  0.718260  1.0
  C  C2269  1  0.332050  0.578500  0.256790  1.0
  C  C2270  1  0.667950  0.078500  0.243210  1.0
  C  C2271  1  0.667950  0.421500  0.743210  1.0
  C  C2272  1  0.332050  0.921500  0.756790  1.0
  C  C2273  1  0.305100  0.585860  0.278030  1.0
  C  C2274  1  0.694900  0.085860  0.221970  1.0
  C  C2275  1  0.694900  0.414140  0.721970  1.0
  C  C2276  1  0.305100  0.914140  0.778030  1.0
  C  C2277  1  0.268610  0.603990  0.263400  1.0
  C  C2278  1  0.731390  0.103990  0.236600  1.0
  C  C2279  1  0.731390  0.396010  0.736600  1.0
  C  C2280  1  0.268610  0.896010  0.763400  1.0
  C  C2281  1  0.242790  0.613590  0.286520  1.0
  C  C2282  1  0.757210  0.113590  0.213480  1.0
  C  C2283  1  0.757210  0.386410  0.713480  1.0
  C  C2284  1  0.242790  0.886410  0.786520  1.0
  C  C2285  1  0.205070  0.630310  0.270220  1.0
  C  C2286  1  0.794930  0.130310  0.229780  1.0
  C  C2287  1  0.794930  0.369690  0.729780  1.0
  C  C2288  1  0.205070  0.869690  0.770220  1.0
  C  C2289  1  0.177400  0.639050  0.293130  1.0
  C  C2290  1  0.822600  0.139050  0.206870  1.0
  C  C2291  1  0.822600  0.360950  0.706870  1.0
  C  C2292  1  0.177400  0.860950  0.793130  1.0
  C  C2293  1  0.141400  0.655400  0.277080  1.0
  C  C2294  1  0.858600  0.155400  0.222920  1.0
  C  C2295  1  0.858600  0.344600  0.722920  1.0
  C  C2296  1  0.141400  0.844600  0.777080  1.0
  C  C2297  1  0.129290  0.663330  0.238150  1.0
  C  C2298  1  0.870710  0.163330  0.261850  1.0
  C  C2299  1  0.870710  0.336670  0.761850  1.0
  C  C2300  1  0.129290  0.836670  0.738150  1.0
  C  C2301  1  0.154470  0.656670  0.215630  1.0
  C  C2302  1  0.845530  0.156670  0.284370  1.0
  C  C2303  1  0.845530  0.343330  0.784370  1.0
  C  C2304  1  0.154470  0.843330  0.715630  1.0
  C  C2305  1  0.193840  0.640020  0.231520  1.0
  C  C2306  1  0.806160  0.140020  0.268480  1.0
  C  C2307  1  0.806160  0.359980  0.768480  1.0
  C  C2308  1  0.193840  0.859980  0.731520  1.0
  C  C2309  1  0.220710  0.633230  0.208730  1.0
  C  C2310  1  0.779290  0.133230  0.291270  1.0
  C  C2311  1  0.779290  0.366770  0.791270  1.0
  C  C2312  1  0.220710  0.866770  0.708730  1.0
  C  C2313  1  0.257700  0.614680  0.223720  1.0
  C  C2314  1  0.742300  0.114680  0.276280  1.0
  C  C2315  1  0.742300  0.385320  0.776280  1.0
  C  C2316  1  0.257700  0.885320  0.723720  1.0
  C  C2317  1  0.521080  0.729120  0.482900  1.0
  C  C2318  1  0.478920  0.229120  0.017100  1.0
  C  C2319  1  0.478920  0.270880  0.517100  1.0
  C  C2320  1  0.521080  0.770880  0.982900  1.0
  C  C2321  1  0.498010  0.723100  0.508460  1.0
  C  C2322  1  0.501990  0.223100  0.991540  1.0
  C  C2323  1  0.501990  0.276900  0.491540  1.0
  C  C2324  1  0.498010  0.776900  0.008460  1.0
  C  C2325  1  0.462020  0.703500  0.497450  1.0
  C  C2326  1  0.537980  0.203500  0.002550  1.0
  C  C2327  1  0.537980  0.296500  0.502550  1.0
  C  C2328  1  0.462020  0.796500  0.997450  1.0
  C  C2329  1  0.449110  0.689920  0.460840  1.0
  C  C2330  1  0.550890  0.189920  0.039160  1.0
  C  C2331  1  0.550890  0.310080  0.539160  1.0
  C  C2332  1  0.449110  0.810080  0.960840  1.0
  C  C2333  1  0.472190  0.695940  0.435250  1.0
  C  C2334  1  0.527810  0.195940  0.064750  1.0
  C  C2335  1  0.527810  0.304060  0.564750  1.0
  C  C2336  1  0.472190  0.804060  0.935250  1.0
  C  C2337  1  0.371300  0.724500  0.457300  1.0
  C  C2338  1  0.628700  0.224500  0.042700  1.0
  C  C2339  1  0.628700  0.275500  0.542700  1.0
  C  C2340  1  0.371300  0.775500  0.957300  1.0
  C  C2341  1  0.334090  0.739740  0.454400  1.0
  C  C2342  1  0.665910  0.239740  0.045600  1.0
  C  C2343  1  0.665910  0.260260  0.545600  1.0
  C  C2344  1  0.334090  0.760260  0.954400  1.0
  C  C2345  1  0.296650  0.720410  0.439500  1.0
  C  C2346  1  0.703350  0.220410  0.060500  1.0
  C  C2347  1  0.703350  0.279590  0.560500  1.0
  C  C2348  1  0.296650  0.779590  0.939500  1.0
  C  C2349  1  0.298800  0.685410  0.426300  1.0
  C  C2350  1  0.701200  0.185410  0.073700  1.0
  C  C2351  1  0.701200  0.314590  0.573700  1.0
  C  C2352  1  0.298800  0.814590  0.926300  1.0
  C  C2353  1  0.335440  0.668060  0.427780  1.0
  C  C2354  1  0.664560  0.168060  0.072220  1.0
  C  C2355  1  0.664560  0.331940  0.572220  1.0
  C  C2356  1  0.335440  0.831940  0.927780  1.0
  C  C2357  1  0.336870  0.633110  0.411500  1.0
  C  C2358  1  0.663130  0.133110  0.088500  1.0
  C  C2359  1  0.663130  0.366890  0.588500  1.0
  C  C2360  1  0.336870  0.866890  0.911500  1.0
  C  C2361  1  0.374570  0.615640  0.415360  1.0
  C  C2362  1  0.625430  0.115640  0.084640  1.0
  C  C2363  1  0.625430  0.384360  0.584640  1.0
  C  C2364  1  0.374570  0.884360  0.915360  1.0
  C  C2365  1  0.376600  0.579160  0.400220  1.0
  C  C2366  1  0.623400  0.079160  0.099780  1.0
  C  C2367  1  0.623400  0.420840  0.599780  1.0
  C  C2368  1  0.376600  0.920840  0.900220  1.0
  C  C2369  1  0.413200  0.562850  0.403800  1.0
  C  C2370  1  0.586800  0.062850  0.096200  1.0
  C  C2371  1  0.586800  0.437150  0.596200  1.0
  C  C2372  1  0.413200  0.937150  0.903800  1.0
  C  C2373  1  0.449500  0.580010  0.423100  1.0
  C  C2374  1  0.550500  0.080010  0.076900  1.0
  C  C2375  1  0.550500  0.419990  0.576900  1.0
  C  C2376  1  0.449500  0.919990  0.923100  1.0
  C  C2377  1  0.449440  0.614520  0.436830  1.0
  C  C2378  1  0.550560  0.114520  0.063170  1.0
  C  C2379  1  0.550560  0.385480  0.563170  1.0
  C  C2380  1  0.449440  0.885480  0.936830  1.0
  C  C2381  1  0.411240  0.633630  0.432900  1.0
  C  C2382  1  0.588760  0.133630  0.067100  1.0
  C  C2383  1  0.588760  0.366370  0.567100  1.0
  C  C2384  1  0.411240  0.866370  0.932900  1.0
  C  C2385  1  0.410430  0.669690  0.446610  1.0
  C  C2386  1  0.589570  0.169690  0.053390  1.0
  C  C2387  1  0.589570  0.330310  0.553390  1.0
  C  C2388  1  0.410430  0.830310  0.946610  1.0
  C  C2389  1  0.373110  0.687120  0.445090  1.0
  C  C2390  1  0.626890  0.187120  0.054910  1.0
  C  C2391  1  0.626890  0.312880  0.554910  1.0
  C  C2392  1  0.373110  0.812880  0.945090  1.0
  C  C2393  1  0.254700  0.603400  0.327500  1.0
  C  C2394  1  0.745300  0.103400  0.172500  1.0
  C  C2395  1  0.745300  0.396600  0.672500  1.0
  C  C2396  1  0.254700  0.896600  0.827500  1.0
  C  C2397  1  0.233600  0.578100  0.343200  1.0
  C  C2398  1  0.766400  0.078100  0.156800  1.0
  C  C2399  1  0.766400  0.421900  0.656800  1.0
  C  C2400  1  0.233600  0.921900  0.843200  1.0
  C  C2401  1  0.244900  0.571700  0.382000  1.0
  C  C2402  1  0.755100  0.071700  0.118000  1.0
  C  C2403  1  0.755100  0.428300  0.618000  1.0
  C  C2404  1  0.244900  0.928300  0.882000  1.0
  C  C2405  1  0.277400  0.590500  0.404900  1.0
  C  C2406  1  0.722600  0.090500  0.095100  1.0
  C  C2407  1  0.722600  0.409500  0.595100  1.0
  C  C2408  1  0.277400  0.909500  0.904900  1.0
  C  C2409  1  0.298600  0.615800  0.389100  1.0
  C  C2410  1  0.701400  0.115800  0.110900  1.0
  C  C2411  1  0.701400  0.384200  0.610900  1.0
  C  C2412  1  0.298600  0.884200  0.889100  1.0
  C  C2413  1  0.287300  0.622300  0.350400  1.0
  C  C2414  1  0.712700  0.122300  0.149600  1.0
  C  C2415  1  0.712700  0.377700  0.649600  1.0
  C  C2416  1  0.287300  0.877700  0.850400  1.0
  C  C2417  1  0.019780  0.741560  0.989000  1.0
  C  C2418  1  0.980220  0.241560  0.511000  1.0
  C  C2419  1  0.980220  0.258440  0.011000  1.0
  C  C2420  1  0.019780  0.758440  0.489000  1.0
  C  C2421  1  0.997460  0.735540  0.015250  1.0
  C  C2422  1  0.002540  0.235540  0.484750  1.0
  C  C2423  1  0.002540  0.264460  0.984750  1.0
  C  C2424  1  0.997460  0.764460  0.515250  1.0
  C  C2425  1  0.962250  0.714750  0.005370  1.0
  C  C2426  1  0.037750  0.214750  0.494630  1.0
  C  C2427  1  0.037750  0.285250  0.994630  1.0
  C  C2428  1  0.962250  0.785250  0.505370  1.0
  C  C2429  1  0.949350  0.699980  0.969270  1.0
  C  C2430  1  0.050650  0.199980  0.530730  1.0
  C  C2431  1  0.050650  0.300020  0.030730  1.0
  C  C2432  1  0.949350  0.800020  0.469270  1.0
  C  C2433  1  0.971660  0.706010  0.943050  1.0
  C  C2434  1  0.028340  0.206010  0.556950  1.0
  C  C2435  1  0.028340  0.293990  0.056950  1.0
  C  C2436  1  0.971660  0.793990  0.443050  1.0
  C  C2437  1  0.871000  0.733300  0.960700  1.0
  C  C2438  1  0.129000  0.233300  0.539300  1.0
  C  C2439  1  0.129000  0.266700  0.039300  1.0
  C  C2440  1  0.871000  0.766700  0.460700  1.0
  C  C2441  1  0.833860  0.749520  0.956100  1.0
  C  C2442  1  0.166140  0.249520  0.543900  1.0
  C  C2443  1  0.166140  0.250480  0.043900  1.0
  C  C2444  1  0.833860  0.750480  0.456100  1.0
  C  C2445  1  0.796690  0.729260  0.943100  1.0
  C  C2446  1  0.203310  0.229260  0.556900  1.0
  C  C2447  1  0.203310  0.270740  0.056900  1.0
  C  C2448  1  0.796690  0.770740  0.443100  1.0
  C  C2449  1  0.799410  0.693150  0.933470  1.0
  C  C2450  1  0.200590  0.193150  0.566530  1.0
  C  C2451  1  0.200590  0.306850  0.066530  1.0
  C  C2452  1  0.799410  0.806850  0.433470  1.0
  C  C2453  1  0.836330  0.675610  0.936810  1.0
  C  C2454  1  0.163670  0.175610  0.563190  1.0
  C  C2455  1  0.163670  0.324390  0.063190  1.0
  C  C2456  1  0.836330  0.824390  0.436810  1.0
  C  C2457  1  0.838300  0.639230  0.924100  1.0
  C  C2458  1  0.161700  0.139230  0.575900  1.0
  C  C2459  1  0.161700  0.360770  0.075900  1.0
  C  C2460  1  0.838300  0.860770  0.424100  1.0
  C  C2461  1  0.876270  0.621800  0.929730  1.0
  C  C2462  1  0.123730  0.121800  0.570270  1.0
  C  C2463  1  0.123730  0.378200  0.070270  1.0
  C  C2464  1  0.876270  0.878200  0.429730  1.0
  C  C2465  1  0.878900  0.584020  0.918300  1.0
  C  C2466  1  0.121100  0.084020  0.581700  1.0
  C  C2467  1  0.121100  0.415980  0.081700  1.0
  C  C2468  1  0.878900  0.915980  0.418300  1.0
  C  C2469  1  0.915700  0.567700  0.923600  1.0
  C  C2470  1  0.084300  0.067700  0.576400  1.0
  C  C2471  1  0.084300  0.432300  0.076400  1.0
  C  C2472  1  0.915700  0.932300  0.423600  1.0
  C  C2473  1  0.951800  0.586230  0.941150  1.0
  C  C2474  1  0.048200  0.086230  0.558850  1.0
  C  C2475  1  0.048200  0.413770  0.058850  1.0
  C  C2476  1  0.951800  0.913770  0.441150  1.0
  C  C2477  1  0.951130  0.621900  0.951420  1.0
  C  C2478  1  0.048870  0.121900  0.548580  1.0
  C  C2479  1  0.048870  0.378100  0.048580  1.0
  C  C2480  1  0.951130  0.878100  0.451420  1.0
  C  C2481  1  0.912660  0.640980  0.945510  1.0
  C  C2482  1  0.087340  0.140980  0.554490  1.0
  C  C2483  1  0.087340  0.359020  0.054490  1.0
  C  C2484  1  0.912660  0.859020  0.445510  1.0
  C  C2485  1  0.911290  0.678170  0.955560  1.0
  C  C2486  1  0.088710  0.178170  0.544440  1.0
  C  C2487  1  0.088710  0.321830  0.044440  1.0
  C  C2488  1  0.911290  0.821830  0.455560  1.0
  C  C2489  1  0.873680  0.695820  0.952240  1.0
  C  C2490  1  0.126320  0.195820  0.547760  1.0
  C  C2491  1  0.126320  0.304180  0.047760  1.0
  C  C2492  1  0.873680  0.804180  0.452240  1.0
  C  C2493  1  0.689170  0.645000  0.605420  1.0
  C  C2494  1  0.310830  0.145000  0.894580  1.0
  C  C2495  1  0.310830  0.355000  0.394580  1.0
  C  C2496  1  0.689170  0.855000  0.105420  1.0
  C  C2497  1  0.687480  0.608450  0.615320  1.0
  C  C2498  1  0.312520  0.108450  0.884680  1.0
  C  C2499  1  0.312520  0.391550  0.384680  1.0
  C  C2500  1  0.687480  0.891550  0.115320  1.0
  C  C2501  1  0.699070  0.598150  0.653140  1.0
  C  C2502  1  0.300930  0.098150  0.846860  1.0
  C  C2503  1  0.300930  0.401850  0.346860  1.0
  C  C2504  1  0.699070  0.901850  0.153140  1.0
  C  C2505  1  0.712350  0.624410  0.681050  1.0
  C  C2506  1  0.287650  0.124410  0.818950  1.0
  C  C2507  1  0.287650  0.375590  0.318950  1.0
  C  C2508  1  0.712350  0.875590  0.181050  1.0
  C  C2509  1  0.714040  0.660960  0.671140  1.0
  C  C2510  1  0.285960  0.160960  0.828860  1.0
  C  C2511  1  0.285960  0.339040  0.328860  1.0
  C  C2512  1  0.714040  0.839040  0.171140  1.0
  C  C2513  1  0.788300  0.588200  0.720700  1.0
  C  C2514  1  0.211700  0.088200  0.779300  1.0
  C  C2515  1  0.211700  0.411800  0.279300  1.0
  C  C2516  1  0.788300  0.911800  0.220700  1.0
  C  C2517  1  0.824060  0.572120  0.738320  1.0
  C  C2518  1  0.175940  0.072120  0.761680  1.0
  C  C2519  1  0.175940  0.427880  0.261680  1.0
  C  C2520  1  0.824060  0.927880  0.238320  1.0
  C  C2521  1  0.833480  0.563400  0.778000  1.0
  C  C2522  1  0.166520  0.063400  0.722000  1.0
  C  C2523  1  0.166520  0.436600  0.222000  1.0
  C  C2524  1  0.833480  0.936600  0.278000  1.0
  C  C2525  1  0.806340  0.574080  0.797900  1.0
  C  C2526  1  0.193660  0.074080  0.702100  1.0
  C  C2527  1  0.193660  0.425920  0.202100  1.0
  C  C2528  1  0.806340  0.925920  0.297900  1.0
  C  C2529  1  0.770190  0.591870  0.780970  1.0
  C  C2530  1  0.229810  0.091870  0.719030  1.0
  C  C2531  1  0.229810  0.408130  0.219030  1.0
  C  C2532  1  0.770190  0.908130  0.280970  1.0
  C  C2533  1  0.744170  0.604980  0.802520  1.0
  C  C2534  1  0.255830  0.104980  0.697480  1.0
  C  C2535  1  0.255830  0.395020  0.197480  1.0
  C  C2536  1  0.744170  0.895020  0.302520  1.0
  C  C2537  1  0.706800  0.621210  0.784070  1.0
  C  C2538  1  0.293200  0.121210  0.715930  1.0
  C  C2539  1  0.293200  0.378790  0.215930  1.0
  C  C2540  1  0.706800  0.878790  0.284070  1.0
  C  C2541  1  0.678930  0.633520  0.805450  1.0
  C  C2542  1  0.321070  0.133520  0.694550  1.0
  C  C2543  1  0.321070  0.366480  0.194550  1.0
  C  C2544  1  0.678930  0.866480  0.305450  1.0
  C  C2545  1  0.643210  0.649400  0.787330  1.0
  C  C2546  1  0.356790  0.149400  0.712670  1.0
  C  C2547  1  0.356790  0.350600  0.212670  1.0
  C  C2548  1  0.643210  0.850600  0.287330  1.0
  C  C2549  1  0.631700  0.653350  0.747750  1.0
  C  C2550  1  0.368300  0.153350  0.752250  1.0
  C  C2551  1  0.368300  0.346650  0.252250  1.0
  C  C2552  1  0.631700  0.846650  0.247750  1.0
  C  C2553  1  0.657100  0.643260  0.726480  1.0
  C  C2554  1  0.342900  0.143260  0.773520  1.0
  C  C2555  1  0.342900  0.356740  0.273520  1.0
  C  C2556  1  0.657100  0.856740  0.226480  1.0
  C  C2557  1  0.696160  0.626970  0.744540  1.0
  C  C2558  1  0.303840  0.126970  0.755460  1.0
  C  C2559  1  0.303840  0.373030  0.255460  1.0
  C  C2560  1  0.696160  0.873030  0.244540  1.0
  C  C2561  1  0.723260  0.616650  0.723030  1.0
  C  C2562  1  0.276740  0.116650  0.776970  1.0
  C  C2563  1  0.276740  0.383350  0.276970  1.0
  C  C2564  1  0.723260  0.883350  0.223030  1.0
  C  C2565  1  0.759870  0.598490  0.740360  1.0
  C  C2566  1  0.240130  0.098490  0.759640  1.0
  C  C2567  1  0.240130  0.401510  0.259640  1.0
  C  C2568  1  0.759870  0.901510  0.240360  1.0
  C  C2569  1  0.800700  0.619100  0.904300  1.0
  C  C2570  1  0.199300  0.119100  0.595700  1.0
  C  C2571  1  0.199300  0.380900  0.095700  1.0
  C  C2572  1  0.800700  0.880900  0.404300  1.0
  C  C2573  1  0.779800  0.596700  0.923500  1.0
  C  C2574  1  0.220200  0.096700  0.576500  1.0
  C  C2575  1  0.220200  0.403300  0.076500  1.0
  C  C2576  1  0.779800  0.903300  0.423500  1.0
  C  C2577  1  0.747000  0.576300  0.903400  1.0
  C  C2578  1  0.253000  0.076300  0.596600  1.0
  C  C2579  1  0.253000  0.423700  0.096600  1.0
  C  C2580  1  0.747000  0.923700  0.403400  1.0
  C  C2581  1  0.735000  0.578200  0.864200  1.0
  C  C2582  1  0.265000  0.078200  0.635800  1.0
  C  C2583  1  0.265000  0.421800  0.135800  1.0
  C  C2584  1  0.735000  0.921800  0.364200  1.0
  C  C2585  1  0.755900  0.600600  0.845000  1.0
  C  C2586  1  0.244100  0.100600  0.655000  1.0
  C  C2587  1  0.244100  0.399400  0.155000  1.0
  C  C2588  1  0.755900  0.899400  0.345000  1.0
  C  C2589  1  0.788700  0.621100  0.865100  1.0
  C  C2590  1  0.211300  0.121100  0.634900  1.0
  C  C2591  1  0.211300  0.378900  0.134900  1.0
  C  C2592  1  0.788700  0.878900  0.365100  1.0
  C  C2593  1  0.060300  0.660800  0.938420  1.0
  C  C2594  1  0.939700  0.160800  0.561580  1.0
  C  C2595  1  0.939700  0.339200  0.061580  1.0
  C  C2596  1  0.060300  0.839200  0.438420  1.0
  C  C2597  1  0.064800  0.623400  0.933740  1.0
  C  C2598  1  0.935200  0.123400  0.566260  1.0
  C  C2599  1  0.935200  0.376600  0.066260  1.0
  C  C2600  1  0.064800  0.876600  0.433740  1.0
  C  C2601  1  0.053890  0.608170  0.897750  1.0
  C  C2602  1  0.946110  0.108170  0.602250  1.0
  C  C2603  1  0.946110  0.391830  0.102250  1.0
  C  C2604  1  0.053890  0.891830  0.397750  1.0
  C  C2605  1  0.038500  0.630280  0.866450  1.0
  C  C2606  1  0.961500  0.130280  0.633550  1.0
  C  C2607  1  0.961500  0.369720  0.133550  1.0
  C  C2608  1  0.038500  0.869720  0.366450  1.0
  C  C2609  1  0.033990  0.667620  0.871130  1.0
  C  C2610  1  0.966010  0.167620  0.628870  1.0
  C  C2611  1  0.966010  0.332380  0.128870  1.0
  C  C2612  1  0.033990  0.832380  0.371130  1.0
  C  C2613  1  0.975900  0.573900  0.839300  1.0
  C  C2614  1  0.024100  0.073900  0.660700  1.0
  C  C2615  1  0.024100  0.426100  0.160700  1.0
  C  C2616  1  0.975900  0.926100  0.339300  1.0
  C  C2617  1  0.945750  0.549650  0.828360  1.0
  C  C2618  1  0.054250  0.049650  0.671640  1.0
  C  C2619  1  0.054250  0.450350  0.171640  1.0
  C  C2620  1  0.945750  0.950350  0.328360  1.0
  C  C2621  1  0.933900  0.537550  0.789600  1.0
  C  C2622  1  0.066100  0.037550  0.710400  1.0
  C  C2623  1  0.066100  0.462450  0.210400  1.0
  C  C2624  1  0.933900  0.962450  0.289600  1.0
  C  C2625  1  0.953160  0.552940  0.764700  1.0
  C  C2626  1  0.046840  0.052940  0.735300  1.0
  C  C2627  1  0.046840  0.447060  0.235300  1.0
  C  C2628  1  0.953160  0.947060  0.264700  1.0
  C  C2629  1  0.984000  0.578620  0.775760  1.0
  C  C2630  1  0.016000  0.078620  0.724240  1.0
  C  C2631  1  0.016000  0.421380  0.224240  1.0
  C  C2632  1  0.984000  0.921380  0.275760  1.0
  C  C2633  1  0.001340  0.596020  0.749140  1.0
  C  C2634  1  0.998660  0.096020  0.750860  1.0
  C  C2635  1  0.998660  0.403980  0.250860  1.0
  C  C2636  1  0.001340  0.903980  0.249140  1.0
  C  C2637  1  0.033960  0.620530  0.761720  1.0
  C  C2638  1  0.966040  0.120530  0.738280  1.0
  C  C2639  1  0.966040  0.379470  0.238280  1.0
  C  C2640  1  0.033960  0.879470  0.261720  1.0
  C  C2641  1  0.053300  0.637580  0.735050  1.0
  C  C2642  1  0.946700  0.137580  0.764950  1.0
  C  C2643  1  0.946700  0.362420  0.264950  1.0
  C  C2644  1  0.053300  0.862420  0.235050  1.0
  C  C2645  1  0.084400  0.661370  0.747570  1.0
  C  C2646  1  0.915600  0.161370  0.752430  1.0
  C  C2647  1  0.915600  0.338630  0.252430  1.0
  C  C2648  1  0.084400  0.838630  0.247570  1.0
  C  C2649  1  0.099560  0.669310  0.786270  1.0
  C  C2650  1  0.900440  0.169310  0.713730  1.0
  C  C2651  1  0.900440  0.330690  0.213730  1.0
  C  C2652  1  0.099560  0.830690  0.286270  1.0
  C  C2653  1  0.081880  0.654930  0.812320  1.0
  C  C2654  1  0.918120  0.154930  0.687680  1.0
  C  C2655  1  0.918120  0.345070  0.187680  1.0
  C  C2656  1  0.081880  0.845070  0.312320  1.0
  C  C2657  1  0.047800  0.630030  0.800360  1.0
  C  C2658  1  0.952200  0.130030  0.699640  1.0
  C  C2659  1  0.952200  0.369970  0.199640  1.0
  C  C2660  1  0.047800  0.869970  0.300360  1.0
  C  C2661  1  0.028660  0.615100  0.826890  1.0
  C  C2662  1  0.971340  0.115100  0.673110  1.0
  C  C2663  1  0.971340  0.384900  0.173110  1.0
  C  C2664  1  0.028660  0.884900  0.326890  1.0
  C  C2665  1  0.997430  0.588900  0.815500  1.0
  C  C2666  1  0.002570  0.088900  0.684500  1.0
  C  C2667  1  0.002570  0.411100  0.184500  1.0
  C  C2668  1  0.997430  0.911100  0.315500  1.0
  C  C2669  1  0.726480  0.726410  0.548680  1.0
  C  C2670  1  0.273520  0.226410  0.951320  1.0
  C  C2671  1  0.273520  0.273590  0.451320  1.0
  C  C2672  1  0.726480  0.773590  0.048680  1.0
  C  C2673  1  0.749110  0.717770  0.523340  1.0
  C  C2674  1  0.250890  0.217770  0.976660  1.0
  C  C2675  1  0.250890  0.282230  0.476660  1.0
  C  C2676  1  0.749110  0.782230  0.023340  1.0
  C  C2677  1  0.784200  0.697040  0.535190  1.0
  C  C2678  1  0.215800  0.197040  0.964810  1.0
  C  C2679  1  0.215800  0.302960  0.464810  1.0
  C  C2680  1  0.784200  0.802960  0.035190  1.0
  C  C2681  1  0.796660  0.684950  0.572390  1.0
  C  C2682  1  0.203340  0.184950  0.927610  1.0
  C  C2683  1  0.203340  0.315050  0.427610  1.0
  C  C2684  1  0.796660  0.815050  0.072390  1.0
  C  C2685  1  0.774030  0.693590  0.597730  1.0
  C  C2686  1  0.225970  0.193590  0.902270  1.0
  C  C2687  1  0.225970  0.306410  0.402270  1.0
  C  C2688  1  0.774030  0.806410  0.097730  1.0
  C  C2689  1  0.878700  0.711300  0.575000  1.0
  C  C2690  1  0.121300  0.211300  0.925000  1.0
  C  C2691  1  0.121300  0.288700  0.425000  1.0
  C  C2692  1  0.878700  0.788700  0.075000  1.0
  C  C2693  1  0.915790  0.724760  0.577300  1.0
  C  C2694  1  0.084210  0.224760  0.922700  1.0
  C  C2695  1  0.084210  0.275240  0.422700  1.0
  C  C2696  1  0.915790  0.775240  0.077300  1.0
  C  C2697  1  0.951720  0.703770  0.593700  1.0
  C  C2698  1  0.048280  0.203770  0.906300  1.0
  C  C2699  1  0.048280  0.296230  0.406300  1.0
  C  C2700  1  0.951720  0.796230  0.093700  1.0
  C  C2701  1  0.946890  0.669940  0.608430  1.0
  C  C2702  1  0.053110  0.169940  0.891570  1.0
  C  C2703  1  0.053110  0.330060  0.391570  1.0
  C  C2704  1  0.946890  0.830060  0.108430  1.0
  C  C2705  1  0.909010  0.655220  0.607140  1.0
  C  C2706  1  0.090990  0.155220  0.892860  1.0
  C  C2707  1  0.090990  0.344780  0.392860  1.0
  C  C2708  1  0.909010  0.844780  0.107140  1.0
  C  C2709  1  0.904870  0.621590  0.624960  1.0
  C  C2710  1  0.095130  0.121590  0.875040  1.0
  C  C2711  1  0.095130  0.378410  0.375040  1.0
  C  C2712  1  0.904870  0.878410  0.124960  1.0
  C  C2713  1  0.865940  0.606670  0.621370  1.0
  C  C2714  1  0.134060  0.106670  0.878630  1.0
  C  C2715  1  0.134060  0.393330  0.378630  1.0
  C  C2716  1  0.865940  0.893330  0.121370  1.0
  C  C2717  1  0.861090  0.571500  0.638120  1.0
  C  C2718  1  0.138910  0.071500  0.861880  1.0
  C  C2719  1  0.138910  0.428500  0.361880  1.0
  C  C2720  1  0.861090  0.928500  0.138120  1.0
  C  C2721  1  0.823400  0.557650  0.634720  1.0
  C  C2722  1  0.176600  0.057650  0.865280  1.0
  C  C2723  1  0.176600  0.442350  0.365280  1.0
  C  C2724  1  0.823400  0.942350  0.134720  1.0
  C  C2725  1  0.788470  0.576120  0.614180  1.0
  C  C2726  1  0.211530  0.076120  0.885820  1.0
  C  C2727  1  0.211530  0.423880  0.385820  1.0
  C  C2728  1  0.788470  0.923880  0.114180  1.0
  C  C2729  1  0.791210  0.609580  0.598840  1.0
  C  C2730  1  0.208790  0.109580  0.901160  1.0
  C  C2731  1  0.208790  0.390420  0.401160  1.0
  C  C2732  1  0.791210  0.890420  0.098840  1.0
  C  C2733  1  0.830750  0.626100  0.602470  1.0
  C  C2734  1  0.169250  0.126100  0.897530  1.0
  C  C2735  1  0.169250  0.373900  0.397530  1.0
  C  C2736  1  0.830750  0.873900  0.102470  1.0
  C  C2737  1  0.834300  0.661050  0.587130  1.0
  C  C2738  1  0.165700  0.161050  0.912870  1.0
  C  C2739  1  0.165700  0.338950  0.412870  1.0
  C  C2740  1  0.834300  0.838950  0.087130  1.0
  C  C2741  1  0.872880  0.675810  0.588410  1.0
  C  C2742  1  0.127120  0.175810  0.911590  1.0
  C  C2743  1  0.127120  0.324190  0.411590  1.0
  C  C2744  1  0.872880  0.824190  0.088410  1.0
  C  C2745  1  0.986200  0.587600  0.708700  1.0
  C  C2746  1  0.013800  0.087600  0.791300  1.0
  C  C2747  1  0.013800  0.412400  0.291300  1.0
  C  C2748  1  0.986200  0.912400  0.208700  1.0
  C  C2749  1  0.007600  0.563700  0.691400  1.0
  C  C2750  1  0.992400  0.063700  0.808600  1.0
  C  C2751  1  0.992400  0.436300  0.308600  1.0
  C  C2752  1  0.007600  0.936300  0.191400  1.0
  C  C2753  1  0.995700  0.558800  0.652500  1.0
  C  C2754  1  0.004300  0.058800  0.847500  1.0
  C  C2755  1  0.004300  0.441200  0.347500  1.0
  C  C2756  1  0.995700  0.941200  0.152500  1.0
  C  C2757  1  0.962400  0.577700  0.630800  1.0
  C  C2758  1  0.037600  0.077700  0.869200  1.0
  C  C2759  1  0.037600  0.422300  0.369200  1.0
  C  C2760  1  0.962400  0.922300  0.130800  1.0
  C  C2761  1  0.941100  0.601600  0.648100  1.0
  C  C2762  1  0.058900  0.101600  0.851900  1.0
  C  C2763  1  0.058900  0.398400  0.351900  1.0
  C  C2764  1  0.941100  0.898400  0.148100  1.0
  C  C2765  1  0.953000  0.606500  0.687000  1.0
  C  C2766  1  0.047000  0.106500  0.813000  1.0
  C  C2767  1  0.047000  0.393500  0.313000  1.0
  C  C2768  1  0.953000  0.893500  0.187000  1.0
  C  C2769  1  0.105500  0.735520  0.878460  1.0
  C  C2770  1  0.894500  0.235520  0.621540  1.0
  C  C2771  1  0.894500  0.264480  0.121540  1.0
  C  C2772  1  0.105500  0.764480  0.378460  1.0
  C  C2773  1  0.126090  0.744600  0.851590  1.0
  C  C2774  1  0.873910  0.244600  0.648410  1.0
  C  C2775  1  0.873910  0.255400  0.148410  1.0
  C  C2776  1  0.126090  0.755400  0.351590  1.0
  C  C2777  1  0.107190  0.765780  0.820510  1.0
  C  C2778  1  0.892810  0.265780  0.679490  1.0
  C  C2779  1  0.892810  0.234220  0.179490  1.0
  C  C2780  1  0.107190  0.734220  0.320510  1.0
  C  C2781  1  0.067720  0.777880  0.816290  1.0
  C  C2782  1  0.932280  0.277880  0.683710  1.0
  C  C2783  1  0.932280  0.222120  0.183710  1.0
  C  C2784  1  0.067720  0.722120  0.316290  1.0
  C  C2785  1  0.047140  0.768790  0.843150  1.0
  C  C2786  1  0.952860  0.268790  0.656850  1.0
  C  C2787  1  0.952860  0.231210  0.156850  1.0
  C  C2788  1  0.047140  0.731210  0.343150  1.0
  C  C2789  1  0.035100  0.748100  0.743500  1.0
  C  C2790  1  0.964900  0.248100  0.756500  1.0
  C  C2791  1  0.964900  0.251900  0.256500  1.0
  C  C2792  1  0.035100  0.751900  0.243500  1.0
  C  C2793  1  0.020200  0.733490  0.707340  1.0
  C  C2794  1  0.979800  0.233490  0.792660  1.0
  C  C2795  1  0.979800  0.266510  0.292660  1.0
  C  C2796  1  0.020200  0.766510  0.207340  1.0
  C  C2797  1  0.002100  0.756100  0.675180  1.0
  C  C2798  1  0.997900  0.256100  0.824820  1.0
  C  C2799  1  0.997900  0.243900  0.324820  1.0
  C  C2800  1  0.002100  0.743900  0.175180  1.0
  C  C2801  1  0.997850  0.792840  0.681440  1.0
  C  C2802  1  0.002150  0.292840  0.818560  1.0
  C  C2803  1  0.002150  0.207160  0.318560  1.0
  C  C2804  1  0.997850  0.707160  0.181440  1.0
  C  C2805  1  0.011270  0.808740  0.717030  1.0
  C  C2806  1  0.988730  0.308740  0.782970  1.0
  C  C2807  1  0.988730  0.191260  0.282970  1.0
  C  C2808  1  0.011270  0.691260  0.217030  1.0
  C  C2809  1  0.003920  0.846050  0.723230  1.0
  C  C2810  1  0.996080  0.346050  0.776770  1.0
  C  C2811  1  0.996080  0.153950  0.276770  1.0
  C  C2812  1  0.003920  0.653950  0.223230  1.0
  C  C2813  1  0.019820  0.861580  0.759340  1.0
  C  C2814  1  0.980180  0.361580  0.740660  1.0
  C  C2815  1  0.980180  0.138420  0.240660  1.0
  C  C2816  1  0.019820  0.638420  0.259340  1.0
  C  C2817  1  0.014040  0.900150  0.765960  1.0
  C  C2818  1  0.985960  0.400150  0.734040  1.0
  C  C2819  1  0.985960  0.099850  0.234040  1.0
  C  C2820  1  0.014040  0.599850  0.265960  1.0
  C  C2821  1  0.029200  0.914640  0.800960  1.0
  C  C2822  1  0.970800  0.414640  0.699040  1.0
  C  C2823  1  0.970800  0.085360  0.199040  1.0
  C  C2824  1  0.029200  0.585360  0.300960  1.0
  C  C2825  1  0.051700  0.893320  0.831160  1.0
  C  C2826  1  0.948300  0.393320  0.668840  1.0
  C  C2827  1  0.948300  0.106680  0.168840  1.0
  C  C2828  1  0.051700  0.606680  0.331160  1.0
  C  C2829  1  0.057100  0.856890  0.826800  1.0
  C  C2830  1  0.942900  0.356890  0.673200  1.0
  C  C2831  1  0.942900  0.143110  0.173200  1.0
  C  C2832  1  0.057100  0.643110  0.326800  1.0
  C  C2833  1  0.040600  0.839800  0.790190  1.0
  C  C2834  1  0.959400  0.339800  0.709810  1.0
  C  C2835  1  0.959400  0.160200  0.209810  1.0
  C  C2836  1  0.040600  0.660200  0.290190  1.0
  C  C2837  1  0.045380  0.801900  0.785120  1.0
  C  C2838  1  0.954620  0.301900  0.714880  1.0
  C  C2839  1  0.954620  0.198100  0.214880  1.0
  C  C2840  1  0.045380  0.698100  0.285120  1.0
  C  C2841  1  0.031790  0.785930  0.748850  1.0
  C  C2842  1  0.968210  0.285930  0.751150  1.0
  C  C2843  1  0.968210  0.214070  0.251150  1.0
  C  C2844  1  0.031790  0.714070  0.248850  1.0
  C  C2845  1  0.671230  0.800380  0.601700  1.0
  C  C2846  1  0.328770  0.300380  0.898300  1.0
  C  C2847  1  0.328770  0.199620  0.398300  1.0
  C  C2848  1  0.671230  0.699620  0.101700  1.0
  C  C2849  1  0.674160  0.837900  0.596900  1.0
  C  C2850  1  0.325840  0.337900  0.903100  1.0
  C  C2851  1  0.325840  0.162100  0.403100  1.0
  C  C2852  1  0.674160  0.662100  0.096900  1.0
  C  C2853  1  0.711950  0.854180  0.602110  1.0
  C  C2854  1  0.288050  0.354180  0.897890  1.0
  C  C2855  1  0.288050  0.145820  0.397890  1.0
  C  C2856  1  0.711950  0.645820  0.102110  1.0
  C  C2857  1  0.746820  0.832930  0.612110  1.0
  C  C2858  1  0.253180  0.332930  0.887890  1.0
  C  C2859  1  0.253180  0.167070  0.387890  1.0
  C  C2860  1  0.746820  0.667070  0.112110  1.0
  C  C2861  1  0.743900  0.795410  0.616900  1.0
  C  C2862  1  0.256100  0.295410  0.883100  1.0
  C  C2863  1  0.256100  0.204590  0.383100  1.0
  C  C2864  1  0.743900  0.704590  0.116900  1.0
  C  C2865  1  0.778900  0.888000  0.671600  1.0
  C  C2866  1  0.221100  0.388000  0.828400  1.0
  C  C2867  1  0.221100  0.112000  0.328400  1.0
  C  C2868  1  0.778900  0.612000  0.171600  1.0
  C  C2869  1  0.794190  0.912150  0.699240  1.0
  C  C2870  1  0.205810  0.412150  0.800760  1.0
  C  C2871  1  0.205810  0.087850  0.300760  1.0
  C  C2872  1  0.794190  0.587850  0.199240  1.0
  C  C2873  1  0.834800  0.926110  0.705640  1.0
  C  C2874  1  0.165200  0.426110  0.794360  1.0
  C  C2875  1  0.165200  0.073890  0.294360  1.0
  C  C2876  1  0.834800  0.573890  0.205640  1.0
  C  C2877  1  0.858440  0.912660  0.683450  1.0
  C  C2878  1  0.141560  0.412660  0.816550  1.0
  C  C2879  1  0.141560  0.087340  0.316550  1.0
  C  C2880  1  0.858440  0.587340  0.183450  1.0
  C  C2881  1  0.844230  0.887180  0.654850  1.0
  C  C2882  1  0.155770  0.387180  0.845150  1.0
  C  C2883  1  0.155770  0.112820  0.345150  1.0
  C  C2884  1  0.844230  0.612820  0.154850  1.0
  C  C2885  1  0.869990  0.871750  0.634270  1.0
  C  C2886  1  0.130010  0.371750  0.865730  1.0
  C  C2887  1  0.130010  0.128250  0.365730  1.0
  C  C2888  1  0.869990  0.628250  0.134270  1.0
  C  C2889  1  0.853920  0.847380  0.604220  1.0
  C  C2890  1  0.146080  0.347380  0.895780  1.0
  C  C2891  1  0.146080  0.152620  0.395780  1.0
  C  C2892  1  0.853920  0.652620  0.104220  1.0
  C  C2893  1  0.879450  0.832380  0.581740  1.0
  C  C2894  1  0.120550  0.332380  0.918260  1.0
  C  C2895  1  0.120550  0.167620  0.418260  1.0
  C  C2896  1  0.879450  0.667620  0.081740  1.0
  C  C2897  1  0.863600  0.808700  0.553100  1.0
  C  C2898  1  0.136400  0.308700  0.946900  1.0
  C  C2899  1  0.136400  0.191300  0.446900  1.0
  C  C2900  1  0.863600  0.691300  0.053100  1.0
  C  C2901  1  0.822350  0.798980  0.543690  1.0
  C  C2902  1  0.177650  0.298980  0.956310  1.0
  C  C2903  1  0.177650  0.201020  0.456310  1.0
  C  C2904  1  0.822350  0.701020  0.043690  1.0
  C  C2905  1  0.797400  0.811400  0.564440  1.0
  C  C2906  1  0.202600  0.311400  0.935560  1.0
  C  C2907  1  0.202600  0.188600  0.435560  1.0
  C  C2908  1  0.797400  0.688600  0.064440  1.0
  C  C2909  1  0.812990  0.836080  0.596010  1.0
  C  C2910  1  0.187010  0.336080  0.903990  1.0
  C  C2911  1  0.187010  0.163920  0.403990  1.0
  C  C2912  1  0.812990  0.663920  0.096010  1.0
  C  C2913  1  0.787720  0.849010  0.618250  1.0
  C  C2914  1  0.212280  0.349010  0.881750  1.0
  C  C2915  1  0.212280  0.150990  0.381750  1.0
  C  C2916  1  0.787720  0.650990  0.118250  1.0
  C  C2917  1  0.802300  0.875000  0.647180  1.0
  C  C2918  1  0.197700  0.375000  0.852820  1.0
  C  C2919  1  0.197700  0.125000  0.352820  1.0
  C  C2920  1  0.802300  0.625000  0.147180  1.0
  C  C2921  1  0.979400  0.868900  0.691300  1.0
  C  C2922  1  0.020600  0.368900  0.808700  1.0
  C  C2923  1  0.020600  0.131100  0.308700  1.0
  C  C2924  1  0.979400  0.631100  0.191300  1.0
  C  C2925  1  0.996900  0.894200  0.671900  1.0
  C  C2926  1  0.003100  0.394200  0.828100  1.0
  C  C2927  1  0.003100  0.105800  0.328100  1.0
  C  C2928  1  0.996900  0.605800  0.171900  1.0
  C  C2929  1  0.973300  0.911700  0.640100  1.0
  C  C2930  1  0.026700  0.411700  0.859900  1.0
  C  C2931  1  0.026700  0.088300  0.359900  1.0
  C  C2932  1  0.973300  0.588300  0.140100  1.0
  C  C2933  1  0.932100  0.904000  0.627700  1.0
  C  C2934  1  0.067900  0.404000  0.872300  1.0
  C  C2935  1  0.067900  0.096000  0.372300  1.0
  C  C2936  1  0.932100  0.596000  0.127700  1.0
  C  C2937  1  0.914600  0.878700  0.647000  1.0
  C  C2938  1  0.085400  0.378700  0.853000  1.0
  C  C2939  1  0.085400  0.121300  0.353000  1.0
  C  C2940  1  0.914600  0.621300  0.147000  1.0
  C  C2941  1  0.938300  0.861200  0.678800  1.0
  C  C2942  1  0.061700  0.361200  0.821200  1.0
  C  C2943  1  0.061700  0.138800  0.321200  1.0
  C  C2944  1  0.938300  0.638800  0.178800  1.0
  C  C2945  1  0.063180  0.814600  0.929670  1.0
  C  C2946  1  0.936820  0.314600  0.570330  1.0
  C  C2947  1  0.936820  0.185400  0.070330  1.0
  C  C2948  1  0.063180  0.685400  0.429670  1.0
  C  C2949  1  0.057170  0.852100  0.931260  1.0
  C  C2950  1  0.942830  0.352100  0.568740  1.0
  C  C2951  1  0.942830  0.147900  0.068740  1.0
  C  C2952  1  0.057170  0.647900  0.431260  1.0
  C  C2953  1  0.018080  0.866090  0.923480  1.0
  C  C2954  1  0.981920  0.366090  0.576520  1.0
  C  C2955  1  0.981920  0.133910  0.076520  1.0
  C  C2956  1  0.018080  0.633910  0.423480  1.0
  C  C2957  1  0.985010  0.842610  0.914100  1.0
  C  C2958  1  0.014990  0.342610  0.585900  1.0
  C  C2959  1  0.014990  0.157390  0.085900  1.0
  C  C2960  1  0.985010  0.657390  0.414100  1.0
  C  C2961  1  0.991020  0.805110  0.912510  1.0
  C  C2962  1  0.008980  0.305110  0.587490  1.0
  C  C2963  1  0.008980  0.194890  0.087490  1.0
  C  C2964  1  0.991020  0.694890  0.412510  1.0
  C  C2965  1  0.946500  0.865700  0.839800  1.0
  C  C2966  1  0.053500  0.365700  0.660200  1.0
  C  C2967  1  0.053500  0.134300  0.160200  1.0
  C  C2968  1  0.946500  0.634300  0.339800  1.0
  C  C2969  1  0.928300  0.878900  0.803720  1.0
  C  C2970  1  0.071700  0.378900  0.696280  1.0
  C  C2971  1  0.071700  0.121100  0.196280  1.0
  C  C2972  1  0.928300  0.621100  0.303720  1.0
  C  C2973  1  0.887100  0.891800  0.793510  1.0
  C  C2974  1  0.112900  0.391800  0.706490  1.0
  C  C2975  1  0.112900  0.108200  0.206490  1.0
  C  C2976  1  0.887100  0.608200  0.293510  1.0
  C  C2977  1  0.865430  0.889600  0.820290  1.0
  C  C2978  1  0.134570  0.389600  0.679710  1.0
  C  C2979  1  0.134570  0.110400  0.179710  1.0
  C  C2980  1  0.865430  0.610400  0.320290  1.0
  C  C2981  1  0.882090  0.876310  0.856620  1.0
  C  C2982  1  0.117910  0.376310  0.643380  1.0
  C  C2983  1  0.117910  0.123690  0.143380  1.0
  C  C2984  1  0.882090  0.623690  0.356620  1.0
  C  C2985  1  0.858370  0.871730  0.882780  1.0
  C  C2986  1  0.141630  0.371730  0.617220  1.0
  C  C2987  1  0.141630  0.128270  0.117220  1.0
  C  C2988  1  0.858370  0.628270  0.382780  1.0
  C  C2989  1  0.876870  0.859960  0.919960  1.0
  C  C2990  1  0.123130  0.359960  0.580040  1.0
  C  C2991  1  0.123130  0.140040  0.080040  1.0
  C  C2992  1  0.876870  0.640040  0.419960  1.0
  C  C2993  1  0.853440  0.856480  0.947700  1.0
  C  C2994  1  0.146560  0.356480  0.552300  1.0
  C  C2995  1  0.146560  0.143520  0.052300  1.0
  C  C2996  1  0.853440  0.643520  0.447700  1.0
  C  C2997  1  0.871620  0.844800  0.983300  1.0
  C  C2998  1  0.128380  0.344800  0.516700  1.0
  C  C2999  1  0.128380  0.155200  0.016700  1.0
  C  C3000  1  0.871620  0.655200  0.483300  1.0
  C  C3001  1  0.913300  0.836900  0.994610  1.0
  C  C3002  1  0.086700  0.336900  0.505390  1.0
  C  C3003  1  0.086700  0.163100  0.005390  1.0
  C  C3004  1  0.913300  0.663100  0.494610  1.0
  C  C3005  1  0.936420  0.838710  0.969520  1.0
  C  C3006  1  0.063580  0.338710  0.530480  1.0
  C  C3007  1  0.063580  0.161290  0.030480  1.0
  C  C3008  1  0.936420  0.661290  0.469520  1.0
  C  C3009  1  0.918290  0.850130  0.930790  1.0
  C  C3010  1  0.081710  0.350130  0.569210  1.0
  C  C3011  1  0.081710  0.149870  0.069210  1.0
  C  C3012  1  0.918290  0.649870  0.430790  1.0
  C  C3013  1  0.941630  0.851810  0.904120  1.0
  C  C3014  1  0.058370  0.351810  0.595880  1.0
  C  C3015  1  0.058370  0.148190  0.095880  1.0
  C  C3016  1  0.941630  0.648190  0.404120  1.0
  C  C3017  1  0.924560  0.865420  0.867270  1.0
  C  C3018  1  0.075440  0.365420  0.632730  1.0
  C  C3019  1  0.075440  0.134580  0.132730  1.0
  C  C3020  1  0.924560  0.634580  0.367270  1.0
  C  C3021  1  0.633990  0.718190  0.655100  1.0
  C  C3022  1  0.366010  0.218190  0.844900  1.0
  C  C3023  1  0.366010  0.281810  0.344900  1.0
  C  C3024  1  0.633990  0.781810  0.155100  1.0
  C  C3025  1  0.612680  0.725670  0.681810  1.0
  C  C3026  1  0.387320  0.225670  0.818190  1.0
  C  C3027  1  0.387320  0.274330  0.318190  1.0
  C  C3028  1  0.612680  0.774330  0.181810  1.0
  C  C3029  1  0.627800  0.750880  0.710390  1.0
  C  C3030  1  0.372200  0.250880  0.789610  1.0
  C  C3031  1  0.372200  0.249120  0.289610  1.0
  C  C3032  1  0.627800  0.749120  0.210390  1.0
  C  C3033  1  0.664240  0.768610  0.712260  1.0
  C  C3034  1  0.335760  0.268610  0.787740  1.0
  C  C3035  1  0.335760  0.231390  0.287740  1.0
  C  C3036  1  0.664240  0.731390  0.212260  1.0
  C  C3037  1  0.685550  0.761120  0.685550  1.0
  C  C3038  1  0.314450  0.261120  0.814450  1.0
  C  C3039  1  0.314450  0.238880  0.314450  1.0
  C  C3040  1  0.685550  0.738880  0.185550  1.0
  C  C3041  1  0.700700  0.741800  0.787300  1.0
  C  C3042  1  0.299300  0.241800  0.712700  1.0
  C  C3043  1  0.299300  0.258200  0.212700  1.0
  C  C3044  1  0.700700  0.758200  0.287300  1.0
  C  C3045  1  0.716400  0.729260  0.824020  1.0
  C  C3046  1  0.283600  0.229260  0.675980  1.0
  C  C3047  1  0.283600  0.270740  0.175980  1.0
  C  C3048  1  0.716400  0.770740  0.324020  1.0
  C  C3049  1  0.734600  0.753870  0.854390  1.0
  C  C3050  1  0.265400  0.253870  0.645610  1.0
  C  C3051  1  0.265400  0.246130  0.145610  1.0
  C  C3052  1  0.734600  0.746130  0.354390  1.0
  C  C3053  1  0.736710  0.790350  0.845780  1.0
  C  C3054  1  0.263290  0.290350  0.654220  1.0
  C  C3055  1  0.263290  0.209650  0.154220  1.0
  C  C3056  1  0.736710  0.709650  0.345780  1.0
  C  C3057  1  0.721190  0.804100  0.809470  1.0
  C  C3058  1  0.278810  0.304100  0.690530  1.0
  C  C3059  1  0.278810  0.195900  0.190530  1.0
  C  C3060  1  0.721190  0.695900  0.309470  1.0
  C  C3061  1  0.726370  0.841230  0.800720  1.0
  C  C3062  1  0.273630  0.341230  0.699280  1.0
  C  C3063  1  0.273630  0.158770  0.199280  1.0
  C  C3064  1  0.726370  0.658770  0.300720  1.0
  C  C3065  1  0.708390  0.854520  0.764020  1.0
  C  C3066  1  0.291610  0.354520  0.735980  1.0
  C  C3067  1  0.291610  0.145480  0.235980  1.0
  C  C3068  1  0.708390  0.645480  0.264020  1.0
  C  C3069  1  0.711960  0.892840  0.754850  1.0
  C  C3070  1  0.288040  0.392840  0.745150  1.0
  C  C3071  1  0.288040  0.107160  0.245150  1.0
  C  C3072  1  0.711960  0.607160  0.254850  1.0
  C  C3073  1  0.694800  0.905190  0.719270  1.0
  C  C3074  1  0.305200  0.405190  0.780730  1.0
  C  C3075  1  0.305200  0.094810  0.280730  1.0
  C  C3076  1  0.694800  0.594810  0.219270  1.0
  C  C3077  1  0.672300  0.881870  0.690960  1.0
  C  C3078  1  0.327700  0.381870  0.809040  1.0
  C  C3079  1  0.327700  0.118130  0.309040  1.0
  C  C3080  1  0.672300  0.618130  0.190960  1.0
  C  C3081  1  0.668950  0.845570  0.697690  1.0
  C  C3082  1  0.331050  0.345570  0.802310  1.0
  C  C3083  1  0.331050  0.154430  0.302310  1.0
  C  C3084  1  0.668950  0.654430  0.197690  1.0
  C  C3085  1  0.687620  0.830730  0.734980  1.0
  C  C3086  1  0.312380  0.330730  0.765020  1.0
  C  C3087  1  0.312380  0.169270  0.265020  1.0
  C  C3088  1  0.687620  0.669270  0.234980  1.0
  C  C3089  1  0.684950  0.793030  0.742540  1.0
  C  C3090  1  0.315050  0.293030  0.757460  1.0
  C  C3091  1  0.315050  0.206970  0.257460  1.0
  C  C3092  1  0.684950  0.706970  0.242540  1.0
  C  C3093  1  0.700670  0.779230  0.779510  1.0
  C  C3094  1  0.299330  0.279230  0.720490  1.0
  C  C3095  1  0.299330  0.220770  0.220490  1.0
  C  C3096  1  0.700670  0.720770  0.279510  1.0
  C  C3097  1  0.814400  0.883400  0.871500  1.0
  C  C3098  1  0.185600  0.383400  0.628500  1.0
  C  C3099  1  0.185600  0.116600  0.128500  1.0
  C  C3100  1  0.814400  0.616600  0.371500  1.0
  C  C3101  1  0.797000  0.912900  0.885500  1.0
  C  C3102  1  0.203000  0.412900  0.614500  1.0
  C  C3103  1  0.203000  0.087100  0.114500  1.0
  C  C3104  1  0.797000  0.587100  0.385500  1.0
  C  C3105  1  0.755700  0.919200  0.872600  1.0
  C  C3106  1  0.244300  0.419200  0.627400  1.0
  C  C3107  1  0.244300  0.080800  0.127400  1.0
  C  C3108  1  0.755700  0.580800  0.372600  1.0
  C  C3109  1  0.731700  0.896200  0.845800  1.0
  C  C3110  1  0.268300  0.396200  0.654200  1.0
  C  C3111  1  0.268300  0.103800  0.154200  1.0
  C  C3112  1  0.731700  0.603800  0.345800  1.0
  C  C3113  1  0.749000  0.866700  0.831800  1.0
  C  C3114  1  0.251000  0.366700  0.668200  1.0
  C  C3115  1  0.251000  0.133300  0.168200  1.0
  C  C3116  1  0.749000  0.633300  0.331800  1.0
  C  C3117  1  0.790400  0.860300  0.844700  1.0
  C  C3118  1  0.209600  0.360300  0.655300  1.0
  C  C3119  1  0.209600  0.139700  0.155300  1.0
  C  C3120  1  0.790400  0.639700  0.344700  1.0
  C  C3121  1  0.172100  0.884900  0.358600  1.0
  C  C3122  1  0.827900  0.384900  0.141400  1.0
  C  C3123  1  0.827900  0.115100  0.641400  1.0
  C  C3124  1  0.172100  0.615100  0.858600  1.0
  C  C3125  1  0.174600  0.894400  0.396700  1.0
  C  C3126  1  0.825400  0.394400  0.103300  1.0
  C  C3127  1  0.825400  0.105600  0.603300  1.0
  C  C3128  1  0.174600  0.605600  0.896700  1.0
  C  C3129  1  0.157600  0.933900  0.436300  1.0
  C  C3130  1  0.842400  0.433900  0.063700  1.0
  C  C3131  1  0.842400  0.066100  0.563700  1.0
  C  C3132  1  0.157600  0.566100  0.936300  1.0
  C  C3133  1  0.236000  0.980600  0.370400  1.0
  C  C3134  1  0.764000  0.480600  0.129600  1.0
  C  C3135  1  0.764000  0.019400  0.629600  1.0
  C  C3136  1  0.236000  0.519400  0.870400  1.0
  C  C3137  1  0.262200  0.010600  0.370000  1.0
  C  C3138  1  0.737800  0.510600  0.130000  1.0
  C  C3139  1  0.737800  0.989400  0.630000  1.0
  C  C3140  1  0.262200  0.489400  0.870000  1.0
  C  C3141  1  0.285200  0.990300  0.313100  1.0
  C  C3142  1  0.714800  0.490300  0.186900  1.0
  C  C3143  1  0.714800  0.009700  0.686900  1.0
  C  C3144  1  0.285200  0.509700  0.813100  1.0
  C  C3145  1  0.340800  0.937200  0.459100  1.0
  C  C3146  1  0.659200  0.437200  0.040900  1.0
  C  C3147  1  0.659200  0.062800  0.540900  1.0
  C  C3148  1  0.340800  0.562800  0.959100  1.0
  C  C3149  1  0.304800  0.932700  0.471200  1.0
  C  C3150  1  0.695200  0.432700  0.028800  1.0
  C  C3151  1  0.695200  0.067300  0.528800  1.0
  C  C3152  1  0.304800  0.567300  0.971200  1.0
  C  C3153  1  0.270100  0.882900  0.486200  1.0
  C  C3154  1  0.729900  0.382900  0.013800  1.0
  C  C3155  1  0.729900  0.117100  0.513800  1.0
  C  C3156  1  0.270100  0.617100  0.986200  1.0
  C  C3157  1  0.398900  0.976200  0.118100  1.0
  C  C3158  1  0.601100  0.476200  0.381900  1.0
  C  C3159  1  0.601100  0.023800  0.881900  1.0
  C  C3160  1  0.398900  0.523800  0.618100  1.0
  C  C3161  1  0.419700  0.999600  0.147200  1.0
  C  C3162  1  0.580300  0.499600  0.352800  1.0
  C  C3163  1  0.580300  0.000400  0.852800  1.0
  C  C3164  1  0.419700  0.500400  0.647200  1.0
  C  C3165  1  0.451600  0.015200  0.204900  1.0
  C  C3166  1  0.548400  0.515200  0.295100  1.0
  C  C3167  1  0.548400  0.984800  0.795100  1.0
  C  C3168  1  0.451600  0.484800  0.704900  1.0
  C  C3169  1  0.503000  0.943100  0.096700  1.0
  C  C3170  1  0.497000  0.443100  0.403300  1.0
  C  C3171  1  0.497000  0.056900  0.903300  1.0
  C  C3172  1  0.503000  0.556900  0.596700  1.0
  C  C3173  1  0.527200  0.968400  0.082600  1.0
  C  C3174  1  0.472800  0.468400  0.417400  1.0
  C  C3175  1  0.472800  0.031600  0.917400  1.0
  C  C3176  1  0.527200  0.531600  0.582600  1.0
  C  C3177  1  0.594700  0.947800  0.088800  1.0
  C  C3178  1  0.405300  0.447800  0.411200  1.0
  C  C3179  1  0.405300  0.052200  0.911200  1.0
  C  C3180  1  0.594700  0.552200  0.588800  1.0
  C  C3181  1  0.565600  0.938400  0.205400  1.0
  C  C3182  1  0.434400  0.438400  0.294600  1.0
  C  C3183  1  0.434400  0.061600  0.794600  1.0
  C  C3184  1  0.565600  0.561600  0.705400  1.0
  C  C3185  1  0.602200  0.943900  0.194400  1.0
  C  C3186  1  0.397800  0.443900  0.305600  1.0
  C  C3187  1  0.397800  0.056100  0.805600  1.0
  C  C3188  1  0.602200  0.556100  0.694400  1.0
  C  C3189  1  0.660500  0.979900  0.206200  1.0
  C  C3190  1  0.339500  0.479900  0.293800  1.0
  C  C3191  1  0.339500  0.020100  0.793800  1.0
  C  C3192  1  0.660500  0.520100  0.706200  1.0
  C  C3193  1  0.460500  0.602100  0.051100  1.0
  C  C3194  1  0.539500  0.102100  0.448900  1.0
  C  C3195  1  0.539500  0.397900  0.948900  1.0
  C  C3196  1  0.460500  0.897900  0.551100  1.0
  C  C3197  1  0.450200  0.592700  0.012100  1.0
  C  C3198  1  0.549800  0.092700  0.487900  1.0
  C  C3199  1  0.549800  0.407300  0.987900  1.0
  C  C3200  1  0.450200  0.907300  0.512100  1.0
  C  C3201  1  0.495700  0.555300  0.002100  1.0
  C  C3202  1  0.504300  0.055300  0.497900  1.0
  C  C3203  1  0.504300  0.444700  0.997900  1.0
  C  C3204  1  0.495700  0.944700  0.502100  1.0
  C  C3205  1  0.477100  0.515700  0.095500  1.0
  C  C3206  1  0.522900  0.015700  0.404500  1.0
  C  C3207  1  0.522900  0.484300  0.904500  1.0
  C  C3208  1  0.477100  0.984300  0.595500  1.0
  C  C3209  1  0.493100  0.484800  0.117800  1.0
  C  C3210  1  0.506900  0.984800  0.382200  1.0
  C  C3211  1  0.506900  0.515200  0.882200  1.0
  C  C3212  1  0.493100  0.015200  0.617800  1.0
  C  C3213  1  0.562200  0.493300  0.107200  1.0
  C  C3214  1  0.437800  0.993300  0.392800  1.0
  C  C3215  1  0.437800  0.506700  0.892800  1.0
  C  C3216  1  0.562200  0.006700  0.607200  1.0
  C  C3217  1  0.566100  0.555100  0.181200  1.0
  C  C3218  1  0.433900  0.055100  0.318800  1.0
  C  C3219  1  0.433900  0.444900  0.818800  1.0
  C  C3220  1  0.566100  0.944900  0.681200  1.0
  C  C3221  1  0.600900  0.558000  0.212200  1.0
  C  C3222  1  0.399100  0.058000  0.287800  1.0
  C  C3223  1  0.399100  0.442000  0.787800  1.0
  C  C3224  1  0.600900  0.942000  0.712200  1.0
  C  C3225  1  0.635800  0.533000  0.267400  1.0
  C  C3226  1  0.364200  0.033000  0.232600  1.0
  C  C3227  1  0.364200  0.467000  0.732600  1.0
  C  C3228  1  0.635800  0.967000  0.767400  1.0
  C  C3229  1  0.209600  0.520600  0.313400  1.0
  C  C3230  1  0.790400  0.020600  0.186600  1.0
  C  C3231  1  0.790400  0.479400  0.686600  1.0
  C  C3232  1  0.209600  0.979400  0.813400  1.0
  C  C3233  1  0.232800  0.515000  0.286500  1.0
  C  C3234  1  0.767200  0.015000  0.213500  1.0
  C  C3235  1  0.767200  0.485000  0.713500  1.0
  C  C3236  1  0.232800  0.985000  0.786500  1.0
  C  C3237  1  0.233300  0.516800  0.224500  1.0
  C  C3238  1  0.766700  0.016800  0.275500  1.0
  C  C3239  1  0.766700  0.483200  0.775500  1.0
  C  C3240  1  0.233300  0.983200  0.724500  1.0
  C  C3241  1  0.179700  0.557500  0.393500  1.0
  C  C3242  1  0.820300  0.057500  0.106500  1.0
  C  C3243  1  0.820300  0.442500  0.606500  1.0
  C  C3244  1  0.179700  0.942500  0.893500  1.0
  C  C3245  1  0.169000  0.592700  0.404100  1.0
  C  C3246  1  0.831000  0.092700  0.095900  1.0
  C  C3247  1  0.831000  0.407300  0.595900  1.0
  C  C3248  1  0.169000  0.907300  0.904100  1.0
  C  C3249  1  0.173100  0.662100  0.398300  1.0
  C  C3250  1  0.826900  0.162100  0.101700  1.0
  C  C3251  1  0.826900  0.337900  0.601700  1.0
  C  C3252  1  0.173100  0.837900  0.898300  1.0
  C  C3253  1  0.277200  0.602900  0.468100  1.0
  C  C3254  1  0.722800  0.102900  0.031900  1.0
  C  C3255  1  0.722800  0.397100  0.531900  1.0
  C  C3256  1  0.277200  0.897100  0.968100  1.0
  C  C3257  1  0.269500  0.586900  0.500500  1.0
  C  C3258  1  0.730500  0.086900  0.999500  1.0
  C  C3259  1  0.730500  0.413100  0.499500  1.0
  C  C3260  1  0.269500  0.913100  0.000500  1.0
  C  C3261  1  0.336100  0.565400  0.510400  1.0
  C  C3262  1  0.663900  0.065400  0.989600  1.0
  C  C3263  1  0.663900  0.434600  0.489600  1.0
  C  C3264  1  0.336100  0.934600  0.010400  1.0
  C  C3265  1  0.764500  0.611400  0.983400  1.0
  C  C3266  1  0.235500  0.111400  0.516600  1.0
  C  C3267  1  0.235500  0.388600  0.016600  1.0
  C  C3268  1  0.764500  0.888600  0.483400  1.0
  C  C3269  1  0.778500  0.604100  0.022800  1.0
  C  C3270  1  0.221500  0.104100  0.477200  1.0
  C  C3271  1  0.221500  0.395900  0.977200  1.0
  C  C3272  1  0.778500  0.895900  0.522800  1.0
  C  C3273  1  0.798500  0.560900  0.068500  1.0
  C  C3274  1  0.201500  0.060900  0.431500  1.0
  C  C3275  1  0.201500  0.439100  0.931500  1.0
  C  C3276  1  0.798500  0.939100  0.568500  1.0
  C  C3277  1  0.740200  0.522900  0.937900  1.0
  C  C3278  1  0.259800  0.022900  0.562100  1.0
  C  C3279  1  0.259800  0.477100  0.062100  1.0
  C  C3280  1  0.740200  0.977100  0.437900  1.0
  C  C3281  1  0.710900  0.497100  0.943100  1.0
  C  C3282  1  0.289100  0.997100  0.556900  1.0
  C  C3283  1  0.289100  0.502900  0.056900  1.0
  C  C3284  1  0.710900  0.002900  0.443100  1.0
  C  C3285  1  0.641200  0.487000  0.946000  1.0
  C  C3286  1  0.358800  0.987000  0.554000  1.0
  C  C3287  1  0.358800  0.513000  0.054000  1.0
  C  C3288  1  0.641200  0.013000  0.446000  1.0
  C  C3289  1  0.705100  0.525900  0.829200  1.0
  C  C3290  1  0.294900  0.025900  0.670800  1.0
  C  C3291  1  0.294900  0.474100  0.170800  1.0
  C  C3292  1  0.705100  0.974100  0.329200  1.0
  C  C3293  1  0.666000  0.513500  0.808700  1.0
  C  C3294  1  0.334000  0.013500  0.691300  1.0
  C  C3295  1  0.334000  0.486500  0.191300  1.0
  C  C3296  1  0.666000  0.986500  0.308700  1.0
  C  C3297  1  0.611300  0.521000  0.835300  1.0
  C  C3298  1  0.388700  0.021000  0.664700  1.0
  C  C3299  1  0.388700  0.479000  0.164700  1.0
  C  C3300  1  0.611300  0.979000  0.335300  1.0
  C  C3301  1  0.077100  0.551000  0.704900  1.0
  C  C3302  1  0.922900  0.051000  0.795100  1.0
  C  C3303  1  0.922900  0.449000  0.295100  1.0
  C  C3304  1  0.077100  0.949000  0.204900  1.0
  C  C3305  1  0.112300  0.554400  0.734900  1.0
  C  C3306  1  0.887700  0.054400  0.765100  1.0
  C  C3307  1  0.887700  0.445600  0.265100  1.0
  C  C3308  1  0.112300  0.945600  0.234900  1.0
  C  C3309  1  0.108700  0.494000  0.731800  1.0
  C  C3310  1  0.891300  0.994000  0.768200  1.0
  C  C3311  1  0.891300  0.506000  0.268200  1.0
  C  C3312  1  0.108700  0.006000  0.231800  1.0
  C  C3313  1  0.005800  0.496000  0.636900  1.0
  C  C3314  1  0.994200  0.996000  0.863100  1.0
  C  C3315  1  0.994200  0.504000  0.363100  1.0
  C  C3316  1  0.005800  0.004000  0.136900  1.0
  C  C3317  1  0.028700  0.473700  0.618300  1.0
  C  C3318  1  0.971300  0.973700  0.881700  1.0
  C  C3319  1  0.971300  0.526300  0.381700  1.0
  C  C3320  1  0.028700  0.026300  0.118300  1.0
  C  C3321  1  0.084200  0.461900  0.591700  1.0
  C  C3322  1  0.915800  0.961900  0.908300  1.0
  C  C3323  1  0.915800  0.538100  0.408300  1.0
  C  C3324  1  0.084200  0.038100  0.091700  1.0
  C  C3325  1  0.979800  0.584000  0.572100  1.0
  C  C3326  1  0.020200  0.084000  0.927900  1.0
  C  C3327  1  0.020200  0.416000  0.427900  1.0
  C  C3328  1  0.979800  0.916000  0.072100  1.0
  C  C3329  1  0.961100  0.586800  0.532900  1.0
  C  C3330  1  0.038900  0.086800  0.967100  1.0
  C  C3331  1  0.038900  0.413200  0.467100  1.0
  C  C3332  1  0.961100  0.913200  0.032900  1.0
  C  C3333  1  0.971800  0.522600  0.543000  1.0
  C  C3334  1  0.028200  0.022600  0.957000  1.0
  C  C3335  1  0.028200  0.477400  0.457000  1.0
  C  C3336  1  0.971800  0.977400  0.043000  1.0
  C  C3337  1  0.059400  0.894100  0.657900  1.0
  C  C3338  1  0.940600  0.394100  0.842100  1.0
  C  C3339  1  0.940600  0.105900  0.342100  1.0
  C  C3340  1  0.059400  0.605900  0.157900  1.0
  C  C3341  1  0.097400  0.912500  0.666300  1.0
  C  C3342  1  0.902600  0.412500  0.833700  1.0
  C  C3343  1  0.902600  0.087500  0.333700  1.0
  C  C3344  1  0.097400  0.587500  0.166300  1.0
  C  C3345  1  0.129100  0.969200  0.669200  1.0
  C  C3346  1  0.870900  0.469200  0.830800  1.0
  C  C3347  1  0.870900  0.030800  0.330800  1.0
  C  C3348  1  0.129100  0.530800  0.169200  1.0
  C  C3349  1  0.993600  0.975500  0.638200  1.0
  C  C3350  1  0.006400  0.475500  0.861800  1.0
  C  C3351  1  0.006400  0.024500  0.361800  1.0
  C  C3352  1  0.993600  0.524500  0.138200  1.0
  C  C3353  1  0.987000  0.982900  0.674100  1.0
  C  C3354  1  0.013000  0.482900  0.825900  1.0
  C  C3355  1  0.013000  0.017100  0.325900  1.0
  C  C3356  1  0.987000  0.517100  0.174100  1.0
  C  C3357  1  0.919000  0.991200  0.651700  1.0
  C  C3358  1  0.081000  0.491200  0.848300  1.0
  C  C3359  1  0.081000  0.008800  0.348300  1.0
  C  C3360  1  0.919000  0.508800  0.151700  1.0
  C  C3361  1  0.920700  0.918400  0.560900  1.0
  C  C3362  1  0.079300  0.418400  0.939100  1.0
  C  C3363  1  0.079300  0.081600  0.439100  1.0
  C  C3364  1  0.920700  0.581600  0.060900  1.0
  C  C3365  1  0.889400  0.929900  0.529300  1.0
  C  C3366  1  0.110600  0.429900  0.970700  1.0
  C  C3367  1  0.110600  0.070100  0.470700  1.0
  C  C3368  1  0.889400  0.570100  0.029300  1.0
  C  C3369  1  0.847900  0.977300  0.500300  1.0
  C  C3370  1  0.152100  0.477300  0.999700  1.0
  C  C3371  1  0.152100  0.022700  0.499700  1.0
  C  C3372  1  0.847900  0.522700  0.000300  1.0
  C  C3373  1  0.810800  0.946200  0.944400  1.0
  C  C3374  1  0.189200  0.446200  0.555600  1.0
  C  C3375  1  0.189200  0.053800  0.055600  1.0
  C  C3376  1  0.810800  0.553800  0.444400  1.0
  C  C3377  1  0.847300  0.950800  0.973300  1.0
  C  C3378  1  0.152700  0.450800  0.526700  1.0
  C  C3379  1  0.152700  0.049200  0.026700  1.0
  C  C3380  1  0.847300  0.549200  0.473300  1.0
  C  C3381  1  0.835100  0.929400  0.023400  1.0
  C  C3382  1  0.164900  0.429400  0.476600  1.0
  C  C3383  1  0.164900  0.070600  0.976600  1.0
  C  C3384  1  0.835100  0.570600  0.523400  1.0
  C  C3385  1  0.724200  0.976600  0.858000  1.0
  C  C3386  1  0.275800  0.476600  0.642000  1.0
  C  C3387  1  0.275800  0.023400  0.142000  1.0
  C  C3388  1  0.724200  0.523400  0.358000  1.0
  C  C3389  1  0.730600  0.011600  0.875500  1.0
  C  C3390  1  0.269400  0.511600  0.624500  1.0
  C  C3391  1  0.269400  0.988400  0.124500  1.0
  C  C3392  1  0.730600  0.488400  0.375500  1.0
  C  C3393  1  0.789700  0.011500  0.851700  1.0
  C  C3394  1  0.210300  0.511500  0.648300  1.0
  C  C3395  1  0.210300  0.988500  0.148300  1.0
  C  C3396  1  0.789700  0.488500  0.351700  1.0
  C  C3397  1  0.665300  0.883300  0.851900  1.0
  C  C3398  1  0.334700  0.383300  0.648100  1.0
  C  C3399  1  0.334700  0.116700  0.148100  1.0
  C  C3400  1  0.665300  0.616700  0.351900  1.0
  C  C3401  1  0.669200  0.890200  0.890600  1.0
  C  C3402  1  0.330800  0.390200  0.609400  1.0
  C  C3403  1  0.330800  0.109800  0.109400  1.0
  C  C3404  1  0.669200  0.609800  0.390600  1.0
  C  C3405  1  0.660000  0.936600  0.934500  1.0
  C  C3406  1  0.340000  0.436600  0.565500  1.0
  C  C3407  1  0.340000  0.063400  0.065500  1.0
  C  C3408  1  0.660000  0.563400  0.434500  1.0
  C  C3409  1  0.360400  0.765900  0.360300  1.0
  C  C3410  1  0.639600  0.265900  0.139700  1.0
  C  C3411  1  0.639600  0.234100  0.639700  1.0
  C  C3412  1  0.360400  0.734100  0.860300  1.0
  C  C3413  1  0.374200  0.745400  0.329300  1.0
  C  C3414  1  0.625800  0.245400  0.170700  1.0
  C  C3415  1  0.625800  0.254600  0.670700  1.0
  C  C3416  1  0.374200  0.754600  0.829300  1.0
  C  C3417  1  0.415200  0.761000  0.329800  1.0
  C  C3418  1  0.584800  0.261000  0.170200  1.0
  C  C3419  1  0.584800  0.239000  0.670200  1.0
  C  C3420  1  0.415200  0.739000  0.829800  1.0
  C  C3421  1  0.375000  0.703500  0.335700  1.0
  C  C3422  1  0.625000  0.203500  0.164300  1.0
  C  C3423  1  0.625000  0.296500  0.664300  1.0
  C  C3424  1  0.375000  0.796500  0.835700  1.0
  C  C3425  1  0.354400  0.674600  0.272600  1.0
  C  C3426  1  0.645600  0.174600  0.227400  1.0
  C  C3427  1  0.645600  0.325400  0.727400  1.0
  C  C3428  1  0.354400  0.825400  0.772600  1.0
  C  C3429  1  0.389200  0.679100  0.308000  1.0
  C  C3430  1  0.610800  0.179100  0.192000  1.0
  C  C3431  1  0.610800  0.320900  0.692000  1.0
  C  C3432  1  0.389200  0.820900  0.808000  1.0
  C  C3433  1  0.399300  0.642200  0.327000  1.0
  C  C3434  1  0.600700  0.142200  0.173000  1.0
  C  C3435  1  0.600700  0.357800  0.673000  1.0
  C  C3436  1  0.399300  0.857800  0.827000  1.0
  C  C3437  1  0.441200  0.678300  0.274900  1.0
  C  C3438  1  0.558800  0.178300  0.225100  1.0
  C  C3439  1  0.558800  0.321700  0.725100  1.0
  C  C3440  1  0.441200  0.821700  0.774900  1.0
  C  C3441  1  0.301800  0.823600  0.249200  1.0
  C  C3442  1  0.698200  0.323600  0.250800  1.0
  C  C3443  1  0.698200  0.176400  0.750800  1.0
  C  C3444  1  0.301800  0.676400  0.749200  1.0
  C  C3445  1  0.324700  0.790400  0.239400  1.0
  C  C3446  1  0.675300  0.290400  0.260600  1.0
  C  C3447  1  0.675300  0.209600  0.760600  1.0
  C  C3448  1  0.324700  0.709600  0.739400  1.0
  C  C3449  1  0.294300  0.760600  0.227500  1.0
  C  C3450  1  0.705700  0.260600  0.272500  1.0
  C  C3451  1  0.705700  0.239400  0.772500  1.0
  C  C3452  1  0.294300  0.739400  0.727500  1.0
  C  C3453  1  0.345500  0.800400  0.207900  1.0
  C  C3454  1  0.654500  0.300400  0.292100  1.0
  C  C3455  1  0.654500  0.199600  0.792100  1.0
  C  C3456  1  0.345500  0.699600  0.707900  1.0
  C  C3457  1  0.412300  0.768000  0.224400  1.0
  C  C3458  1  0.587700  0.268000  0.275600  1.0
  C  C3459  1  0.587700  0.232000  0.775600  1.0
  C  C3460  1  0.412300  0.732000  0.724400  1.0
  C  C3461  1  0.371300  0.770700  0.195900  1.0
  C  C3462  1  0.628700  0.270700  0.304100  1.0
  C  C3463  1  0.628700  0.229300  0.804100  1.0
  C  C3464  1  0.371300  0.729300  0.695900  1.0
  C  C3465  1  0.376600  0.781300  0.157600  1.0
  C  C3466  1  0.623400  0.281300  0.342400  1.0
  C  C3467  1  0.623400  0.218700  0.842400  1.0
  C  C3468  1  0.376600  0.718700  0.657600  1.0
  C  C3469  1  0.364200  0.707100  0.179900  1.0
  C  C3470  1  0.635800  0.207100  0.320100  1.0
  C  C3471  1  0.635800  0.292900  0.820100  1.0
  C  C3472  1  0.364200  0.792900  0.679900  1.0
  C  C3473  1  0.857700  0.769000  0.861400  1.0
  C  C3474  1  0.142300  0.269000  0.638600  1.0
  C  C3475  1  0.142300  0.231000  0.138600  1.0
  C  C3476  1  0.857700  0.731000  0.361400  1.0
  C  C3477  1  0.873000  0.745400  0.832200  1.0
  C  C3478  1  0.127000  0.245400  0.667800  1.0
  C  C3479  1  0.127000  0.254600  0.167800  1.0
  C  C3480  1  0.873000  0.754600  0.332200  1.0
  C  C3481  1  0.914100  0.758800  0.833100  1.0
  C  C3482  1  0.085900  0.258800  0.666900  1.0
  C  C3483  1  0.085900  0.241200  0.166900  1.0
  C  C3484  1  0.914100  0.741200  0.333100  1.0
  C  C3485  1  0.873900  0.704600  0.844500  1.0
  C  C3486  1  0.126100  0.204600  0.655500  1.0
  C  C3487  1  0.126100  0.295400  0.155500  1.0
  C  C3488  1  0.873900  0.795400  0.344500  1.0
  C  C3489  1  0.850100  0.668800  0.783300  1.0
  C  C3490  1  0.149900  0.168800  0.716700  1.0
  C  C3491  1  0.149900  0.331200  0.216700  1.0
  C  C3492  1  0.850100  0.831200  0.283300  1.0
  C  C3493  1  0.885800  0.677000  0.816900  1.0
  C  C3494  1  0.114200  0.177000  0.683100  1.0
  C  C3495  1  0.114200  0.323000  0.183100  1.0
  C  C3496  1  0.885800  0.823000  0.316900  1.0
  C  C3497  1  0.897000  0.641300  0.838700  1.0
  C  C3498  1  0.103000  0.141300  0.661300  1.0
  C  C3499  1  0.103000  0.358700  0.161300  1.0
  C  C3500  1  0.897000  0.858700  0.338700  1.0
  C  C3501  1  0.938900  0.671500  0.785800  1.0
  C  C3502  1  0.061100  0.171500  0.714200  1.0
  C  C3503  1  0.061100  0.328500  0.214200  1.0
  C  C3504  1  0.938900  0.828500  0.285800  1.0
  C  C3505  1  0.802600  0.815300  0.746400  1.0
  C  C3506  1  0.197400  0.315300  0.753600  1.0
  C  C3507  1  0.197400  0.184700  0.253600  1.0
  C  C3508  1  0.802600  0.684700  0.246400  1.0
  C  C3509  1  0.826000  0.780400  0.739500  1.0
  C  C3510  1  0.174000  0.280400  0.760500  1.0
  C  C3511  1  0.174000  0.219600  0.260500  1.0
  C  C3512  1  0.826000  0.719600  0.239500  1.0
  C  C3513  1  0.795200  0.750700  0.730100  1.0
  C  C3514  1  0.204800  0.250700  0.769900  1.0
  C  C3515  1  0.204800  0.249300  0.269900  1.0
  C  C3516  1  0.795200  0.749300  0.230100  1.0
  C  C3517  1  0.847500  0.786800  0.708000  1.0
  C  C3518  1  0.152500  0.286800  0.792000  1.0
  C  C3519  1  0.152500  0.213200  0.292000  1.0
  C  C3520  1  0.847500  0.713200  0.208000  1.0
  C  C3521  1  0.880300  0.764700  0.658300  1.0
  C  C3522  1  0.119700  0.264700  0.841700  1.0
  C  C3523  1  0.119700  0.235300  0.341700  1.0
  C  C3524  1  0.880300  0.735300  0.158300  1.0
  C  C3525  1  0.874200  0.755400  0.697400  1.0
  C  C3526  1  0.125800  0.255400  0.802600  1.0
  C  C3527  1  0.125800  0.244600  0.302600  1.0
  C  C3528  1  0.874200  0.744600  0.197400  1.0
  C  C3529  1  0.915100  0.755700  0.726300  1.0
  C  C3530  1  0.084900  0.255700  0.773700  1.0
  C  C3531  1  0.084900  0.244300  0.273700  1.0
  C  C3532  1  0.915100  0.744300  0.226300  1.0
  C  C3533  1  0.866400  0.691300  0.689200  1.0
  C  C3534  1  0.133600  0.191300  0.810800  1.0
  C  C3535  1  0.133600  0.308700  0.310800  1.0
  C  C3536  1  0.866400  0.808700  0.189200  1.0
  N  N3537  1  0.169300  0.754880  0.151150  1.0
  N  N3538  1  0.830700  0.254880  0.348850  1.0
  N  N3539  1  0.830700  0.245120  0.848850  1.0
  N  N3540  1  0.169300  0.745120  0.651150  1.0
  N  N3541  1  0.533140  0.781640  0.417560  1.0
  N  N3542  1  0.466860  0.281640  0.082440  1.0
  N  N3543  1  0.466860  0.218360  0.582440  1.0
  N  N3544  1  0.533140  0.718360  0.917560  1.0
  N  N3545  1  0.207610  0.802100  0.108770  1.0
  N  N3546  1  0.792390  0.302100  0.391230  1.0
  N  N3547  1  0.792390  0.197900  0.891230  1.0
  N  N3548  1  0.207610  0.697900  0.608770  1.0
  N  N3549  1  0.566500  0.741410  0.368360  1.0
  N  N3550  1  0.433500  0.241410  0.131640  1.0
  N  N3551  1  0.433500  0.258590  0.631640  1.0
  N  N3552  1  0.566500  0.758590  0.868360  1.0
  N  N3553  1  0.236550  0.737300  0.078250  1.0
  N  N3554  1  0.763450  0.237300  0.421750  1.0
  N  N3555  1  0.763450  0.262700  0.921750  1.0
  N  N3556  1  0.236550  0.762700  0.578250  1.0
  N  N3557  1  0.542300  0.674730  0.395670  1.0
  N  N3558  1  0.457700  0.174730  0.104330  1.0
  N  N3559  1  0.457700  0.325270  0.604330  1.0
  N  N3560  1  0.542300  0.825270  0.895670  1.0
  N  N3561  1  0.200750  0.693100  0.122790  1.0
  N  N3562  1  0.799250  0.193100  0.377210  1.0
  N  N3563  1  0.799250  0.306900  0.877210  1.0
  N  N3564  1  0.200750  0.806900  0.622790  1.0
  N  N3565  1  0.508170  0.715540  0.446300  1.0
  N  N3566  1  0.491830  0.215540  0.053700  1.0
  N  N3567  1  0.491830  0.284460  0.553700  1.0
  N  N3568  1  0.508170  0.784460  0.946300  1.0
  N  N3569  1  0.006870  0.726800  0.952930  1.0
  N  N3570  1  0.993130  0.226800  0.547070  1.0
  N  N3571  1  0.993130  0.273200  0.047070  1.0
  N  N3572  1  0.006870  0.773200  0.452930  1.0
  N  N3573  1  0.702450  0.671260  0.633330  1.0
  N  N3574  1  0.297550  0.171260  0.866670  1.0
  N  N3575  1  0.297550  0.328740  0.366670  1.0
  N  N3576  1  0.702450  0.828740  0.133330  1.0
  N  N3577  1  0.044900  0.682870  0.907120  1.0
  N  N3578  1  0.955100  0.182870  0.592880  1.0
  N  N3579  1  0.955100  0.317130  0.092880  1.0
  N  N3580  1  0.044900  0.817130  0.407120  1.0
  N  N3581  1  0.738930  0.714320  0.585880  1.0
  N  N3582  1  0.261070  0.214320  0.914120  1.0
  N  N3583  1  0.261070  0.285680  0.414120  1.0
  N  N3584  1  0.738930  0.785680  0.085880  1.0
  N  N3585  1  0.066000  0.747610  0.874240  1.0
  N  N3586  1  0.934000  0.247610  0.625760  1.0
  N  N3587  1  0.934000  0.252390  0.125760  1.0
  N  N3588  1  0.066000  0.752390  0.374240  1.0
  N  N3589  1  0.706100  0.779140  0.611700  1.0
  N  N3590  1  0.293900  0.279140  0.888300  1.0
  N  N3591  1  0.293900  0.220860  0.388300  1.0
  N  N3592  1  0.706100  0.720860  0.111700  1.0
  N  N3593  1  0.030100  0.791090  0.920290  1.0
  N  N3594  1  0.969900  0.291090  0.579710  1.0
  N  N3595  1  0.969900  0.208910  0.079710  1.0
  N  N3596  1  0.030100  0.708910  0.420290  1.0
  N  N3597  1  0.670430  0.735910  0.656970  1.0
  N  N3598  1  0.329570  0.235910  0.843030  1.0
  N  N3599  1  0.329570  0.264090  0.343030  1.0
  N  N3600  1  0.670430  0.764090  0.156970  1.0
  N  N3601  1  0.345500  0.753800  0.292700  1.0
  N  N3602  1  0.654500  0.253800  0.207300  1.0
  N  N3603  1  0.654500  0.246200  0.707300  1.0
  N  N3604  1  0.345500  0.746200  0.792700  1.0
  N  N3605  1  0.447400  0.773600  0.333500  1.0
  N  N3606  1  0.552600  0.273600  0.166500  1.0
  N  N3607  1  0.552600  0.226400  0.666500  1.0
  N  N3608  1  0.447400  0.726400  0.833500  1.0
  N  N3609  1  0.355700  0.779100  0.273800  1.0
  N  N3610  1  0.644300  0.279100  0.226200  1.0
  N  N3611  1  0.644300  0.220900  0.726200  1.0
  N  N3612  1  0.355700  0.720900  0.773800  1.0
  N  N3613  1  0.267200  0.740400  0.220100  1.0
  N  N3614  1  0.732800  0.240400  0.279900  1.0
  N  N3615  1  0.732800  0.259600  0.779900  1.0
  N  N3616  1  0.267200  0.759600  0.720100  1.0
  N  N3617  1  0.844100  0.750800  0.795400  1.0
  N  N3618  1  0.155900  0.250800  0.704600  1.0
  N  N3619  1  0.155900  0.249200  0.204600  1.0
  N  N3620  1  0.844100  0.749200  0.295400  1.0
  N  N3621  1  0.946500  0.771200  0.836400  1.0
  N  N3622  1  0.053500  0.271200  0.663600  1.0
  N  N3623  1  0.053500  0.228800  0.163600  1.0
  N  N3624  1  0.946500  0.728800  0.336400  1.0
  N  N3625  1  0.856200  0.772500  0.775100  1.0
  N  N3626  1  0.143800  0.272500  0.724900  1.0
  N  N3627  1  0.143800  0.227500  0.224900  1.0
  N  N3628  1  0.856200  0.727500  0.275100  1.0
  N  N3629  1  0.768600  0.729700  0.722700  1.0
  N  N3630  1  0.231400  0.229700  0.777300  1.0
  N  N3631  1  0.231400  0.270300  0.277300  1.0
  N  N3632  1  0.768600  0.770300  0.222700  1.0
  N  N3633  1  0.494900  0.657200  0.570500  1.0
  N  N3634  1  0.505100  0.157200  0.929500  1.0
  N  N3635  1  0.505100  0.342800  0.429500  1.0
  N  N3636  1  0.494900  0.842800  0.070500  1.0
  N  N3637  1  0.068800  0.646700  0.635800  1.0
  N  N3638  1  0.931200  0.146700  0.864200  1.0
  N  N3639  1  0.931200  0.353300  0.364200  1.0
  N  N3640  1  0.068800  0.853300  0.135800  1.0
  N  N3641  1  0.560800  0.828600  0.623800  1.0
  N  N3642  1  0.439200  0.328600  0.876200  1.0
  N  N3643  1  0.439200  0.171400  0.376200  1.0
  N  N3644  1  0.560800  0.671400  0.123800  1.0
  N  N3645  1  0.673600  0.831400  0.403400  1.0
  N  N3646  1  0.326400  0.331400  0.096600  1.0
  N  N3647  1  0.326400  0.168600  0.596600  1.0
  N  N3648  1  0.673600  0.668600  0.903400  1.0
  N  N3649  1  0.006400  0.682400  0.090000  1.0
  N  N3650  1  0.993600  0.182400  0.410000  1.0
  N  N3651  1  0.993600  0.317600  0.910000  1.0
  N  N3652  1  0.006400  0.817600  0.590000  1.0
  O  O3653  1  0.700900  0.509300  0.619000  1.0
  O  O3654  1  0.299100  0.009300  0.881000  1.0
  O  O3655  1  0.299100  0.490700  0.381000  1.0
  O  O3656  1  0.700900  0.990700  0.119000  1.0
  O  O3657  1  0.584300  0.644900  0.646200  1.0
  O  O3658  1  0.415700  0.144900  0.853800  1.0
  O  O3659  1  0.415700  0.355100  0.353800  1.0
  O  O3660  1  0.584300  0.855100  0.146200  1.0
  O  O3661  1  0.550300  0.736100  0.594200  1.0
  O  O3662  1  0.449700  0.236100  0.905800  1.0
  O  O3663  1  0.449700  0.263900  0.405800  1.0
  O  O3664  1  0.550300  0.763900  0.094200  1.0
  O  O3665  1  0.613300  0.719500  0.562200  1.0
  O  O3666  1  0.386700  0.219500  0.937800  1.0
  O  O3667  1  0.386700  0.280500  0.437800  1.0
  O  O3668  1  0.613300  0.780500  0.062200  1.0
  O  O3669  1  0.628700  0.715300  0.465100  1.0
  O  O3670  1  0.371300  0.215300  0.034900  1.0
  O  O3671  1  0.371300  0.284700  0.534900  1.0
  O  O3672  1  0.628700  0.784700  0.965100  1.0
  O  O3673  1  0.619100  0.772800  0.511200  1.0
  O  O3674  1  0.380900  0.272800  0.988800  1.0
  O  O3675  1  0.380900  0.227200  0.488800  1.0
  O  O3676  1  0.619100  0.727200  0.011200  1.0
  O  O3677  1  0.553600  0.813100  0.518300  1.0
  O  O3678  1  0.446400  0.313100  0.981700  1.0
  O  O3679  1  0.446400  0.186900  0.481700  1.0
  O  O3680  1  0.553600  0.686900  0.018300  1.0
  O  O3681  1  0.694400  0.728300  0.430700  1.0
  O  O3682  1  0.305600  0.228300  0.069300  1.0
  O  O3683  1  0.305600  0.271700  0.569300  1.0
  O  O3684  1  0.694400  0.771700  0.930700  1.0
  O  O3685  1  0.691100  0.806700  0.510300  1.0
  O  O3686  1  0.308900  0.306700  0.989700  1.0
  O  O3687  1  0.308900  0.193300  0.489700  1.0
  O  O3688  1  0.691100  0.693300  0.010300  1.0
  O  O3689  1  0.594900  0.907700  0.593100  1.0
  O  O3690  1  0.405100  0.407700  0.906900  1.0
  O  O3691  1  0.405100  0.092300  0.406900  1.0
  O  O3692  1  0.594900  0.592300  0.093100  1.0
  O  O3693  1  0.664800  0.881000  0.508200  1.0
  O  O3694  1  0.335200  0.381000  0.991800  1.0
  O  O3695  1  0.335200  0.119000  0.491800  1.0
  O  O3696  1  0.664800  0.619000  0.008200  1.0
  O  O3697  1  0.586000  0.882000  0.516400  1.0
  O  O3698  1  0.414000  0.382000  0.983600  1.0
  O  O3699  1  0.414000  0.118000  0.483600  1.0
  O  O3700  1  0.586000  0.618000  0.016400  1.0
  O  O3701  1  0.246400  0.685600  0.942200  1.0
  O  O3702  1  0.753600  0.185600  0.557800  1.0
  O  O3703  1  0.753600  0.314400  0.057800  1.0
  O  O3704  1  0.246400  0.814400  0.442200  1.0
  O  O3705  1  0.099600  0.986600  0.805700  1.0
  O  O3706  1  0.900400  0.486600  0.694300  1.0
  O  O3707  1  0.900400  0.013400  0.194300  1.0
  O  O3708  1  0.099600  0.513400  0.305700  1.0
  O  O3709  1  0.053800  0.727200  0.593800  1.0
  O  O3710  1  0.946200  0.227200  0.906200  1.0
  O  O3711  1  0.946200  0.272800  0.406200  1.0
  O  O3712  1  0.053800  0.772800  0.093800  1.0
  O  O3713  1  0.685000  0.600000  0.533900  1.0
  O  O3714  1  0.315000  0.100000  0.966100  1.0
  O  O3715  1  0.315000  0.400000  0.466100  1.0
  O  O3716  1  0.685000  0.900000  0.033900  1.0
  O  O3717  1  0.758000  0.822700  0.941100  1.0
  O  O3718  1  0.242000  0.322700  0.558900  1.0
  O  O3719  1  0.242000  0.177300  0.058900  1.0
  O  O3720  1  0.758000  0.677300  0.441100  1.0
  O  O3721  1  0.618200  0.658700  0.515800  1.0
  O  O3722  1  0.381800  0.158700  0.984200  1.0
  O  O3723  1  0.381800  0.341300  0.484200  1.0
  O  O3724  1  0.618200  0.841300  0.015800  1.0
  O  O3725  1  0.720000  0.610000  0.521300  1.0
  O  O3726  1  0.280000  0.110000  0.978700  1.0
  O  O3727  1  0.280000  0.390000  0.478700  1.0
  O  O3728  1  0.720000  0.890000  0.021300  1.0
  O  O3729  1  0.120700  0.553300  0.273500  1.0
  O  O3730  1  0.879300  0.053300  0.226500  1.0
  O  O3731  1  0.879300  0.446700  0.726500  1.0
  O  O3732  1  0.120700  0.946700  0.773500  1.0
  O  O3733  1  0.646700  0.593900  0.927600  1.0
  O  O3734  1  0.353300  0.093900  0.572400  1.0
  O  O3735  1  0.353300  0.406100  0.072400  1.0
  O  O3736  1  0.646700  0.906100  0.427600  1.0
  O  O3737  1  0.096600  0.561800  0.611000  1.0
  O  O3738  1  0.903400  0.061800  0.889000  1.0
  O  O3739  1  0.903400  0.438200  0.389000  1.0
  O  O3740  1  0.096600  0.938200  0.111000  1.0
  O  O3741  1  0.577000  0.930000  0.451300  1.0
  O  O3742  1  0.423000  0.430000  0.048700  1.0
  O  O3743  1  0.423000  0.070000  0.548700  1.0
  O  O3744  1  0.577000  0.570000  0.951300  1.0
  O  O3745  1  0.195400  0.972100  0.603800  1.0
  O  O3746  1  0.804600  0.472100  0.896200  1.0
  O  O3747  1  0.804600  0.027900  0.396200  1.0
  O  O3748  1  0.195400  0.527900  0.103800  1.0
  O  O3749  1  0.201700  0.726100  0.925500  1.0
  O  O3750  1  0.798300  0.226100  0.574500  1.0
  O  O3751  1  0.798300  0.273900  0.074500  1.0
  O  O3752  1  0.201700  0.773900  0.425500  1.0
  O  O3753  1  0.076100  0.941400  0.933100  1.0
  O  O3754  1  0.923900  0.441400  0.566900  1.0
  O  O3755  1  0.923900  0.058600  0.066900  1.0
  O  O3756  1  0.076100  0.558600  0.433100  1.0
  O  O3757  1  0.122800  0.796700  0.011500  1.0
  O  O3758  1  0.877200  0.296700  0.488500  1.0
  O  O3759  1  0.877200  0.203300  0.988500  1.0
  O  O3760  1  0.122800  0.703300  0.511500  1.0
  O  O3761  1  0.192700  0.844100  0.002300  1.0
  O  O3762  1  0.807300  0.344100  0.497700  1.0
  O  O3763  1  0.807300  0.155900  0.997700  1.0
  O  O3764  1  0.192700  0.655900  0.502300  1.0
  O  O3765  1  0.398800  0.571300  0.510500  1.0
  O  O3766  1  0.601200  0.071300  0.989500  1.0
  O  O3767  1  0.601200  0.428700  0.489500  1.0
  O  O3768  1  0.398800  0.928700  0.010500  1.0
  O  O3769  1  0.316200  0.064000  0.385000  1.0
  O  O3770  1  0.683800  0.564000  0.115000  1.0
  O  O3771  1  0.683800  0.936000  0.615000  1.0
  O  O3772  1  0.316200  0.436000  0.885000  1.0
  O  O3773  1  0.108800  0.771100  0.558900  1.0
  O  O3774  1  0.891200  0.271100  0.941100  1.0
  O  O3775  1  0.891200  0.228900  0.441100  1.0
  O  O3776  1  0.108800  0.728900  0.058900  1.0
  O  O3777  1  0.044600  0.670100  0.521700  1.0
  O  O3778  1  0.955400  0.170100  0.978300  1.0
  O  O3779  1  0.955400  0.329900  0.478300  1.0
  O  O3780  1  0.044600  0.829900  0.021700  1.0
  O  O3781  1  0.543600  0.625200  0.501800  1.0
  O  O3782  1  0.456400  0.125200  0.998200  1.0
  O  O3783  1  0.456400  0.374800  0.498200  1.0
  O  O3784  1  0.543600  0.874800  0.001800  1.0
  O  O3785  1  0.768400  0.878700  0.987800  1.0
  O  O3786  1  0.231600  0.378700  0.512200  1.0
  O  O3787  1  0.231600  0.121300  0.012200  1.0
  O  O3788  1  0.768400  0.621300  0.487800  1.0
  O  O3789  1  0.096100  0.564800  0.258400  1.0
  O  O3790  1  0.903900  0.064800  0.241600  1.0
  O  O3791  1  0.903900  0.435200  0.741600  1.0
  O  O3792  1  0.096100  0.935200  0.758400  1.0
  O  O3793  1  0.198100  0.907300  0.343100  1.0
  O  O3794  1  0.801900  0.407300  0.156900  1.0
  O  O3795  1  0.801900  0.092700  0.656900  1.0
  O  O3796  1  0.198100  0.592700  0.843100  1.0
  O  O3797  1  0.155100  0.928700  0.396600  1.0
  O  O3798  1  0.844900  0.428700  0.103400  1.0
  O  O3799  1  0.844900  0.071300  0.603400  1.0
  O  O3800  1  0.155100  0.571300  0.896600  1.0
  O  O3801  1  0.251000  0.951200  0.396300  1.0
  O  O3802  1  0.749000  0.451200  0.103700  1.0
  O  O3803  1  0.749000  0.048800  0.603700  1.0
  O  O3804  1  0.251000  0.548800  0.896300  1.0
  O  O3805  1  0.292100  0.007600  0.349500  1.0
  O  O3806  1  0.707900  0.507600  0.150500  1.0
  O  O3807  1  0.707900  0.992400  0.650500  1.0
  O  O3808  1  0.292100  0.492400  0.849500  1.0
  O  O3809  1  0.335200  0.931800  0.419300  1.0
  O  O3810  1  0.664800  0.431800  0.080700  1.0
  O  O3811  1  0.664800  0.068200  0.580700  1.0
  O  O3812  1  0.335200  0.568200  0.919300  1.0
  O  O3813  1  0.305700  0.905500  0.499100  1.0
  O  O3814  1  0.694300  0.405500  0.000900  1.0
  O  O3815  1  0.694300  0.094500  0.500900  1.0
  O  O3816  1  0.305700  0.594500  0.999100  1.0
  O  O3817  1  0.418200  0.944500  0.108100  1.0
  O  O3818  1  0.581800  0.444500  0.391900  1.0
  O  O3819  1  0.581800  0.055500  0.891900  1.0
  O  O3820  1  0.418200  0.555500  0.608100  1.0
  O  O3821  1  0.431700  0.984300  0.183700  1.0
  O  O3822  1  0.568300  0.484300  0.316300  1.0
  O  O3823  1  0.568300  0.015700  0.816300  1.0
  O  O3824  1  0.431700  0.515700  0.683700  1.0
  O  O3825  1  0.502600  0.952200  0.134500  1.0
  O  O3826  1  0.497400  0.452200  0.365500  1.0
  O  O3827  1  0.497400  0.047800  0.865500  1.0
  O  O3828  1  0.502600  0.547800  0.634500  1.0
  O  O3829  1  0.568600  0.972100  0.102900  1.0
  O  O3830  1  0.431400  0.472100  0.397100  1.0
  O  O3831  1  0.431400  0.027900  0.897100  1.0
  O  O3832  1  0.568600  0.527900  0.602900  1.0
  O  O3833  1  0.545200  0.905900  0.188700  1.0
  O  O3834  1  0.454800  0.405900  0.311300  1.0
  O  O3835  1  0.454800  0.094100  0.811300  1.0
  O  O3836  1  0.545200  0.594100  0.688700  1.0
  O  O3837  1  0.623900  0.972500  0.217400  1.0
  O  O3838  1  0.376100  0.472500  0.282600  1.0
  O  O3839  1  0.376100  0.027500  0.782600  1.0
  O  O3840  1  0.623900  0.527500  0.717400  1.0
  O  O3841  1  0.435500  0.586400  0.072900  1.0
  O  O3842  1  0.564500  0.086400  0.427100  1.0
  O  O3843  1  0.564500  0.413600  0.927100  1.0
  O  O3844  1  0.435500  0.913600  0.572900  1.0
  O  O3845  1  0.456100  0.554800  0.008900  1.0
  O  O3846  1  0.543900  0.054800  0.491100  1.0
  O  O3847  1  0.543900  0.445200  0.991100  1.0
  O  O3848  1  0.456100  0.945200  0.508900  1.0
  O  O3849  1  0.501500  0.545400  0.114000  1.0
  O  O3850  1  0.498500  0.045400  0.386000  1.0
  O  O3851  1  0.498500  0.454600  0.886000  1.0
  O  O3852  1  0.501500  0.954600  0.614000  1.0
  O  O3853  1  0.532000  0.471800  0.117800  1.0
  O  O3854  1  0.468000  0.971800  0.382200  1.0
  O  O3855  1  0.468000  0.528200  0.882200  1.0
  O  O3856  1  0.532000  0.028200  0.617800  1.0
  O  O3857  1  0.528600  0.549800  0.191100  1.0
  O  O3858  1  0.471400  0.049800  0.308900  1.0
  O  O3859  1  0.471400  0.450200  0.808900  1.0
  O  O3860  1  0.528600  0.950200  0.691100  1.0
  O  O3861  1  0.605000  0.525100  0.233500  1.0
  O  O3862  1  0.395000  0.025100  0.266500  1.0
  O  O3863  1  0.395000  0.474900  0.766500  1.0
  O  O3864  1  0.605000  0.974900  0.733500  1.0
  O  O3865  1  0.201300  0.558300  0.319000  1.0
  O  O3866  1  0.798700  0.058300  0.181000  1.0
  O  O3867  1  0.798700  0.441700  0.681000  1.0
  O  O3868  1  0.201300  0.941700  0.819000  1.0
  O  O3869  1  0.210100  0.527200  0.250700  1.0
  O  O3870  1  0.789900  0.027200  0.249300  1.0
  O  O3871  1  0.789900  0.472800  0.749300  1.0
  O  O3872  1  0.210100  0.972800  0.750700  1.0
  O  O3873  1  0.221800  0.548800  0.399300  1.0
  O  O3874  1  0.778200  0.048800  0.100700  1.0
  O  O3875  1  0.778200  0.451200  0.600700  1.0
  O  O3876  1  0.221800  0.951200  0.899300  1.0
  O  O3877  1  0.176000  0.625200  0.385500  1.0
  O  O3878  1  0.824000  0.125200  0.114500  1.0
  O  O3879  1  0.824000  0.374800  0.614500  1.0
  O  O3880  1  0.176000  0.874800  0.885500  1.0
  O  O3881  1  0.290900  0.580600  0.441900  1.0
  O  O3882  1  0.709100  0.080600  0.058100  1.0
  O  O3883  1  0.709100  0.419400  0.558100  1.0
  O  O3884  1  0.290900  0.919400  0.941900  1.0
  O  O3885  1  0.296200  0.558100  0.515600  1.0
  O  O3886  1  0.703800  0.058100  0.984400  1.0
  O  O3887  1  0.703800  0.441900  0.484400  1.0
  O  O3888  1  0.296200  0.941900  0.015600  1.0
  O  O3889  1  0.790900  0.596200  0.962500  1.0
  O  O3890  1  0.209100  0.096200  0.537500  1.0
  O  O3891  1  0.209100  0.403800  0.037500  1.0
  O  O3892  1  0.790900  0.903800  0.462500  1.0
  O  O3893  1  0.780900  0.565700  0.028500  1.0
  O  O3894  1  0.219100  0.065700  0.471500  1.0
  O  O3895  1  0.219100  0.434300  0.971500  1.0
  O  O3896  1  0.780900  0.934300  0.528500  1.0
  O  O3897  1  0.722900  0.556700  0.921700  1.0
  O  O3898  1  0.277100  0.056700  0.578300  1.0
  O  O3899  1  0.277100  0.443300  0.078300  1.0
  O  O3900  1  0.722900  0.943300  0.421700  1.0
  O  O3901  1  0.677100  0.509400  0.955600  1.0
  O  O3902  1  0.322900  0.009400  0.544400  1.0
  O  O3903  1  0.322900  0.490600  0.044400  1.0
  O  O3904  1  0.677100  0.990600  0.455600  1.0
  O  O3905  1  0.700500  0.560100  0.846600  1.0
  O  O3906  1  0.299500  0.060100  0.653400  1.0
  O  O3907  1  0.299500  0.439900  0.153400  1.0
  O  O3908  1  0.700500  0.939900  0.346600  1.0
  O  O3909  1  0.643100  0.496800  0.831200  1.0
  O  O3910  1  0.356900  0.996800  0.668800  1.0
  O  O3911  1  0.356900  0.503200  0.168800  1.0
  O  O3912  1  0.643100  0.003200  0.331200  1.0
  O  O3913  1  0.040100  0.545100  0.715200  1.0
  O  O3914  1  0.959900  0.045100  0.784800  1.0
  O  O3915  1  0.959900  0.454900  0.284800  1.0
  O  O3916  1  0.040100  0.954900  0.215200  1.0
  O  O3917  1  0.120200  0.523200  0.758600  1.0
  O  O3918  1  0.879800  0.023200  0.741400  1.0
  O  O3919  1  0.879800  0.476800  0.241400  1.0
  O  O3920  1  0.120200  0.976800  0.258600  1.0
  O  O3921  1  0.015300  0.534000  0.634700  1.0
  O  O3922  1  0.984700  0.034000  0.865300  1.0
  O  O3923  1  0.984700  0.466000  0.365300  1.0
  O  O3924  1  0.015300  0.966000  0.134700  1.0
  O  O3925  1  0.065000  0.487300  0.611600  1.0
  O  O3926  1  0.935000  0.987300  0.888400  1.0
  O  O3927  1  0.935000  0.512700  0.388400  1.0
  O  O3928  1  0.065000  0.012700  0.111600  1.0
  O  O3929  1  0.951500  0.571800  0.592300  1.0
  O  O3930  1  0.048500  0.071800  0.907700  1.0
  O  O3931  1  0.048500  0.428200  0.407700  1.0
  O  O3932  1  0.951500  0.928200  0.092300  1.0
  O  O3933  1  0.957200  0.551500  0.516600  1.0
  O  O3934  1  0.042800  0.051500  0.983400  1.0
  O  O3935  1  0.042800  0.448500  0.483400  1.0
  O  O3936  1  0.957200  0.948500  0.016600  1.0
  O  O3937  1  0.037200  0.903000  0.684800  1.0
  O  O3938  1  0.962800  0.403000  0.815200  1.0
  O  O3939  1  0.962800  0.097000  0.315200  1.0
  O  O3940  1  0.037200  0.597000  0.184800  1.0
  O  O3941  1  0.090900  0.950200  0.658800  1.0
  O  O3942  1  0.909100  0.450200  0.841200  1.0
  O  O3943  1  0.909100  0.049800  0.341200  1.0
  O  O3944  1  0.090900  0.549800  0.158800  1.0
  O  O3945  1  0.990600  0.939200  0.623200  1.0
  O  O3946  1  0.009400  0.439200  0.876800  1.0
  O  O3947  1  0.009400  0.060800  0.376800  1.0
  O  O3948  1  0.990600  0.560800  0.123200  1.0
  O  O3949  1  0.949600  0.976100  0.683200  1.0
  O  O3950  1  0.050400  0.476100  0.816800  1.0
  O  O3951  1  0.050400  0.023900  0.316800  1.0
  O  O3952  1  0.949600  0.523900  0.183200  1.0
  O  O3953  1  0.908100  0.920600  0.595400  1.0
  O  O3954  1  0.091900  0.420600  0.904600  1.0
  O  O3955  1  0.091900  0.079400  0.404600  1.0
  O  O3956  1  0.908100  0.579400  0.095400  1.0
  O  O3957  1  0.881400  0.967800  0.532100  1.0
  O  O3958  1  0.118600  0.467800  0.967900  1.0
  O  O3959  1  0.118600  0.032200  0.467900  1.0
  O  O3960  1  0.881400  0.532200  0.032100  1.0
  O  O3961  1  0.822200  0.935200  0.911000  1.0
  O  O3962  1  0.177800  0.435200  0.589000  1.0
  O  O3963  1  0.177800  0.064800  0.089000  1.0
  O  O3964  1  0.822200  0.564800  0.411000  1.0
  O  O3965  1  0.838600  0.964400  0.006500  1.0
  O  O3966  1  0.161400  0.464400  0.493500  1.0
  O  O3967  1  0.161400  0.035600  0.993500  1.0
  O  O3968  1  0.838600  0.535600  0.506500  1.0
  O  O3969  1  0.741500  0.949600  0.885900  1.0
  O  O3970  1  0.258500  0.449600  0.614100  1.0
  O  O3971  1  0.258500  0.050400  0.114100  1.0
  O  O3972  1  0.741500  0.550400  0.385900  1.0
  O  O3973  1  0.772000  0.021900  0.881900  1.0
  O  O3974  1  0.228000  0.521900  0.618100  1.0
  O  O3975  1  0.228000  0.978100  0.118100  1.0
  O  O3976  1  0.772000  0.478100  0.381900  1.0
  O  O3977  1  0.690800  0.903000  0.833200  1.0
  O  O3978  1  0.309200  0.403000  0.666800  1.0
  O  O3979  1  0.309200  0.097000  0.166800  1.0
  O  O3980  1  0.690800  0.597000  0.333200  1.0
  O  O3981  1  0.651600  0.924000  0.896000  1.0
  O  O3982  1  0.348400  0.424000  0.604000  1.0
  O  O3983  1  0.348400  0.076000  0.104000  1.0
  O  O3984  1  0.651600  0.576000  0.396000  1.0
  O  O3985  1  0.422700  0.696000  0.301000  1.0
  O  O3986  1  0.577300  0.196000  0.199000  1.0
  O  O3987  1  0.577300  0.304000  0.699000  1.0
  O  O3988  1  0.422700  0.804000  0.801000  1.0
  O  O3989  1  0.348900  0.738500  0.193800  1.0
  O  O3990  1  0.651100  0.238500  0.306200  1.0
  O  O3991  1  0.651100  0.261500  0.806200  1.0
  O  O3992  1  0.348900  0.761500  0.693800  1.0
  O  O3993  1  0.918500  0.692700  0.806800  1.0
  O  O3994  1  0.081500  0.192700  0.693200  1.0
  O  O3995  1  0.081500  0.307300  0.193200  1.0
  O  O3996  1  0.918500  0.807300  0.306800  1.0
  O  O3997  1  0.851000  0.724600  0.697300  1.0
  O  O3998  1  0.149000  0.224600  0.802700  1.0
  O  O3999  1  0.149000  0.275400  0.302700  1.0
  O  O4000  1  0.851000  0.775400  0.197300  1.0
  O  O4001  1  0.465800  0.635200  0.548500  1.0
  O  O4002  1  0.534200  0.135200  0.951500  1.0
  O  O4003  1  0.534200  0.364800  0.451500  1.0
  O  O4004  1  0.465800  0.864800  0.048500  1.0
  O  O4005  1  0.485000  0.685500  0.590000  1.0
  O  O4006  1  0.515000  0.185500  0.910000  1.0
  O  O4007  1  0.515000  0.314500  0.410000  1.0
  O  O4008  1  0.485000  0.814500  0.090000  1.0
  O  O4009  1  0.534200  0.649300  0.571900  1.0
  O  O4010  1  0.465800  0.149300  0.928100  1.0
  O  O4011  1  0.465800  0.350700  0.428100  1.0
  O  O4012  1  0.534200  0.850700  0.071900  1.0
  O  O4013  1  0.092100  0.654500  0.612100  1.0
  O  O4014  1  0.907900  0.154500  0.887900  1.0
  O  O4015  1  0.907900  0.345500  0.387900  1.0
  O  O4016  1  0.092100  0.845500  0.112100  1.0
  O  O4017  1  0.056400  0.679100  0.647600  1.0
  O  O4018  1  0.943600  0.179100  0.852400  1.0
  O  O4019  1  0.943600  0.320900  0.352400  1.0
  O  O4020  1  0.056400  0.820900  0.147600  1.0
  O  O4021  1  0.058700  0.613600  0.646700  1.0
  O  O4022  1  0.941300  0.113600  0.853300  1.0
  O  O4023  1  0.941300  0.386400  0.353300  1.0
  O  O4024  1  0.058700  0.886400  0.146700  1.0
  O  O4025  1  0.584300  0.819100  0.600000  1.0
  O  O4026  1  0.415700  0.319100  0.900000  1.0
  O  O4027  1  0.415700  0.180900  0.400000  1.0
  O  O4028  1  0.584300  0.680900  0.100000  1.0
  O  O4029  1  0.553100  0.864300  0.629700  1.0
  O  O4030  1  0.446900  0.364300  0.870300  1.0
  O  O4031  1  0.446900  0.135700  0.370300  1.0
  O  O4032  1  0.553100  0.635700  0.129700  1.0
  O  O4033  1  0.547300  0.798900  0.639300  1.0
  O  O4034  1  0.452700  0.298900  0.860700  1.0
  O  O4035  1  0.452700  0.201100  0.360700  1.0
  O  O4036  1  0.547300  0.701100  0.139300  1.0
  O  O4037  1  0.671300  0.867200  0.390000  1.0
  O  O4038  1  0.328700  0.367200  0.110000  1.0
  O  O4039  1  0.328700  0.132800  0.610000  1.0
  O  O4040  1  0.671300  0.632800  0.890000  1.0
  O  O4041  1  0.649300  0.820300  0.426500  1.0
  O  O4042  1  0.350700  0.320300  0.073500  1.0
  O  O4043  1  0.350700  0.179700  0.573500  1.0
  O  O4044  1  0.649300  0.679700  0.926500  1.0
  O  O4045  1  0.700300  0.806600  0.393900  1.0
  O  O4046  1  0.299700  0.306600  0.106100  1.0
  O  O4047  1  0.299700  0.193400  0.606100  1.0
  O  O4048  1  0.700300  0.693400  0.893900  1.0
  O  O4049  1  0.974700  0.705600  0.090800  1.0
  O  O4050  1  0.025300  0.205600  0.409200  1.0
  O  O4051  1  0.025300  0.294400  0.909200  1.0
  O  O4052  1  0.974700  0.794400  0.590800  1.0
  O  O4053  1  0.985900  0.651700  0.073100  1.0
  O  O4054  1  0.014100  0.151700  0.426900  1.0
  O  O4055  1  0.014100  0.348300  0.926900  1.0
  O  O4056  1  0.985900  0.848300  0.573100  1.0
  O  O4057  1  0.044200  0.698000  0.105500  1.0
  O  O4058  1  0.955800  0.198000  0.394500  1.0
  O  O4059  1  0.955800  0.302000  0.894500  1.0
  O  O4060  1  0.044200  0.802000  0.605500  1.0
