# generated using pymatgen
data_H196Pd2C220N13ClO48
_symmetry_space_group_name_H-M   'P 1'
_cell_length_a   21.71430000
_cell_length_b   27.99060000
_cell_length_c   33.19960000
_cell_angle_alpha   90.00000000
_cell_angle_beta   90.00000000
_cell_angle_gamma   92.99100000
_symmetry_Int_Tables_number   1
_chemical_formula_structural   H196Pd2C220N13ClO48
_chemical_formula_sum   'H784 Pd8 C880 N52 Cl4 O192'
_cell_volume   20151.10513942
_cell_formula_units_Z   4
loop_
 _symmetry_equiv_pos_site_id
 _symmetry_equiv_pos_as_xyz
  1  'x, y, z'
loop_
 _atom_site_type_symbol
 _atom_site_label
 _atom_site_symmetry_multiplicity
 _atom_site_fract_x
 _atom_site_fract_y
 _atom_site_fract_z
 _atom_site_occupancy
  H  H1  1  0.158000  0.178500  0.157000  1
  H  H2  1  0.342000  0.321500  0.657000  1
  H  H3  1  0.842000  0.821500  0.843000  1
  H  H4  1  0.658000  0.678500  0.343000  1
  H  H5  1  0.145600  0.206100  0.091100  1
  H  H6  1  0.354400  0.293900  0.591100  1
  H  H7  1  0.854400  0.793900  0.908900  1
  H  H8  1  0.645600  0.706100  0.408900  1
  H  H9  1  0.054300  0.241200  0.072500  1
  H  H10  1  0.445700  0.258800  0.572500  1
  H  H11  1  0.945700  0.758800  0.927500  1
  H  H12  1  0.554300  0.741200  0.427500  1
  H  H13  1  0.988000  0.221100  0.185700  1
  H  H14  1  0.512000  0.278900  0.685700  1
  H  H15  1  0.012000  0.778900  0.814300  1
  H  H16  1  0.488000  0.721100  0.314300  1
  H  H17  1  0.048500  0.321200  0.138900  1
  H  H18  1  0.451500  0.178800  0.638900  1
  H  H19  1  0.951500  0.678800  0.861100  1
  H  H20  1  0.548500  0.821200  0.361100  1
  H  H21  1  0.050900  0.404100  0.143800  1
  H  H22  1  0.449100  0.095900  0.643800  1
  H  H23  1  0.949100  0.595900  0.856200  1
  H  H24  1  0.550900  0.904100  0.356200  1
  H  H25  1  0.959700  0.444800  0.132000  1
  H  H26  1  0.540300  0.055200  0.632000  1
  H  H27  1  0.040300  0.555200  0.868000  1
  H  H28  1  0.459700  0.944800  0.368000  1
  H  H29  1  0.873600  0.402900  0.109700  1
  H  H30  1  0.626400  0.097100  0.609700  1
  H  H31  1  0.126400  0.597100  0.890300  1
  H  H32  1  0.373600  0.902900  0.390300  1
  H  H33  1  0.755400  0.247000  0.083600  1
  H  H34  1  0.744600  0.253000  0.583600  1
  H  H35  1  0.244600  0.753000  0.916400  1
  H  H36  1  0.255400  0.747000  0.416400  1
  H  H37  1  0.751300  0.166900  0.085800  1
  H  H38  1  0.748700  0.333100  0.585800  1
  H  H39  1  0.248700  0.833100  0.914200  1
  H  H40  1  0.251300  0.666900  0.414200  1
  H  H41  1  0.842900  0.125200  0.095000  1
  H  H42  1  0.657100  0.374800  0.595000  1
  H  H43  1  0.157100  0.874800  0.905000  1
  H  H44  1  0.342900  0.625200  0.405000  1
  H  H45  1  0.930000  0.165900  0.112400  1
  H  H46  1  0.570000  0.334100  0.612400  1
  H  H47  1  0.070000  0.834100  0.887600  1
  H  H48  1  0.430000  0.665900  0.387600  1
  H  H49  1  0.354300  0.205100  0.253600  1
  H  H50  1  0.145700  0.294900  0.753600  1
  H  H51  1  0.645700  0.794900  0.746400  1
  H  H52  1  0.854300  0.705100  0.246400  1
  H  H53  1  0.349800  0.287600  0.243300  1
  H  H54  1  0.150200  0.212400  0.743300  1
  H  H55  1  0.650200  0.712400  0.756700  1
  H  H56  1  0.849800  0.787600  0.256700  1
  H  H57  1  0.426100  0.328700  0.205100  1
  H  H58  1  0.073900  0.171300  0.705100  1
  H  H59  1  0.573900  0.671300  0.794900  1
  H  H60  1  0.926100  0.828700  0.294900  1
  H  H61  1  0.511300  0.205000  0.187500  1
  H  H62  1  0.988700  0.295000  0.687500  1
  H  H63  1  0.488700  0.795000  0.812500  1
  H  H64  1  0.011300  0.705000  0.312500  1
  H  H65  1  0.527600  0.327000  0.243100  1
  H  H66  1  0.972400  0.173000  0.743100  1
  H  H67  1  0.472400  0.673000  0.756900  1
  H  H68  1  0.027600  0.827000  0.256900  1
  H  H69  1  0.595800  0.384500  0.274100  1
  H  H70  1  0.904200  0.115500  0.774100  1
  H  H71  1  0.404200  0.615500  0.725900  1
  H  H72  1  0.095800  0.884500  0.225900  1
  H  H73  1  0.675100  0.422900  0.235100  1
  H  H74  1  0.824900  0.077100  0.735100  1
  H  H75  1  0.324900  0.577100  0.764900  1
  H  H76  1  0.175100  0.922900  0.264900  1
  H  H77  1  0.689600  0.401600  0.170300  1
  H  H78  1  0.810400  0.098400  0.670300  1
  H  H79  1  0.310400  0.598400  0.829700  1
  H  H80  1  0.189600  0.901600  0.329700  1
  H  H81  1  0.626700  0.300700  0.049200  1
  H  H82  1  0.873300  0.199300  0.549200  1
  H  H83  1  0.373300  0.699300  0.950800  1
  H  H84  1  0.126700  0.800700  0.450800  1
  H  H85  1  0.552700  0.250000  0.019600  1
  H  H86  1  0.947300  0.250000  0.519600  1
  H  H87  1  0.447300  0.750000  0.980400  1
  H  H88  1  0.052700  0.750000  0.480400  1
  H  H89  1  0.471000  0.218500  0.054400  1
  H  H90  1  0.029000  0.281500  0.554400  1
  H  H91  1  0.529000  0.781500  0.945600  1
  H  H92  1  0.971000  0.718500  0.445600  1
  H  H93  1  0.453200  0.241400  0.119500  1
  H  H94  1  0.046800  0.258600  0.619500  1
  H  H95  1  0.546800  0.758600  0.880500  1
  H  H96  1  0.953200  0.741400  0.380500  1
  H  H97  1  0.739300  0.310400  0.135800  1
  H  H98  1  0.760700  0.189600  0.635800  1
  H  H99  1  0.260700  0.689600  0.864200  1
  H  H100  1  0.239300  0.810400  0.364200  1
  H  H101  1  0.152100  0.278400  0.216900  1
  H  H102  1  0.347900  0.221600  0.716900  1
  H  H103  1  0.847900  0.721600  0.783100  1
  H  H104  1  0.652100  0.778400  0.283100  1
  H  H105  1  0.135700  0.359500  0.227300  1
  H  H106  1  0.364300  0.140500  0.727300  1
  H  H107  1  0.864300  0.640500  0.772700  1
  H  H108  1  0.635700  0.859500  0.272700  1
  H  H109  1  0.051000  0.381800  0.265100  1
  H  H110  1  0.449000  0.118200  0.765100  1
  H  H111  1  0.949000  0.618200  0.734900  1
  H  H112  1  0.551000  0.881800  0.234900  1
  H  H113  1  0.999100  0.242100  0.282200  1
  H  H114  1  0.500900  0.257900  0.782200  1
  H  H115  1  0.000900  0.757900  0.717800  1
  H  H116  1  0.499100  0.742100  0.217800  1
  H  H117  1  0.941400  0.339700  0.217900  1
  H  H118  1  0.558600  0.160300  0.717900  1
  H  H119  1  0.058600  0.660300  0.782100  1
  H  H120  1  0.441400  0.839700  0.282100  1
  H  H121  1  0.857800  0.358900  0.187300  1
  H  H122  1  0.642200  0.141100  0.687300  1
  H  H123  1  0.142200  0.641100  0.812700  1
  H  H124  1  0.357800  0.858900  0.312700  1
  H  H125  1  0.773300  0.387800  0.222800  1
  H  H126  1  0.726700  0.112200  0.722800  1
  H  H127  1  0.226700  0.612200  0.777200  1
  H  H128  1  0.273300  0.887800  0.277200  1
  H  H129  1  0.767300  0.376300  0.291700  1
  H  H130  1  0.732700  0.123700  0.791700  1
  H  H131  1  0.232700  0.623700  0.708300  1
  H  H132  1  0.267300  0.876300  0.208300  1
  H  H133  1  0.864600  0.330600  0.419500  1
  H  H134  1  0.635400  0.169400  0.919500  1
  H  H135  1  0.135400  0.669400  0.580500  1
  H  H136  1  0.364600  0.830600  0.080500  1
  H  H137  1  0.947600  0.296100  0.453100  1
  H  H138  1  0.552400  0.203900  0.953100  1
  H  H139  1  0.052400  0.703900  0.546900  1
  H  H140  1  0.447600  0.796100  0.046900  1
  H  H141  1  0.039600  0.277900  0.415200  1
  H  H142  1  0.460400  0.222100  0.915200  1
  H  H143  1  0.960400  0.722100  0.584800  1
  H  H144  1  0.539600  0.777900  0.084800  1
  H  H145  1  0.045700  0.297600  0.349600  1
  H  H146  1  0.454300  0.202400  0.849600  1
  H  H147  1  0.954300  0.702400  0.650400  1
  H  H148  1  0.545700  0.797600  0.150400  1
  H  H149  1  0.366400  0.094400  0.306800  1
  H  H150  1  0.133600  0.405600  0.806800  1
  H  H151  1  0.633600  0.905600  0.693200  1
  H  H152  1  0.866400  0.594400  0.193200  1
  H  H153  1  0.374500  0.109900  0.375800  1
  H  H154  1  0.125500  0.390100  0.875800  1
  H  H155  1  0.625500  0.890100  0.624200  1
  H  H156  1  0.874500  0.609900  0.124200  1
  H  H157  1  0.452600  0.163200  0.400000  1
  H  H158  1  0.047400  0.336800  0.900000  1
  H  H159  1  0.547400  0.836800  0.600000  1
  H  H160  1  0.952600  0.663200  0.100000  1
  H  H161  1  0.514400  0.185300  0.286000  1
  H  H162  1  0.985600  0.314700  0.786000  1
  H  H163  1  0.485600  0.814700  0.714000  1
  H  H164  1  0.014400  0.685300  0.214000  1
  H  H165  1  0.582300  0.126700  0.360900  1
  H  H166  1  0.917700  0.373300  0.860900  1
  H  H167  1  0.417700  0.873300  0.639100  1
  H  H168  1  0.082300  0.626700  0.139100  1
  H  H169  1  0.679300  0.102500  0.375500  1
  H  H170  1  0.820700  0.397500  0.875500  1
  H  H171  1  0.320700  0.897500  0.624500  1
  H  H172  1  0.179300  0.602500  0.124500  1
  H  H173  1  0.757600  0.161000  0.392500  1
  H  H174  1  0.742400  0.339000  0.892500  1
  H  H175  1  0.242400  0.839000  0.607500  1
  H  H176  1  0.257600  0.661000  0.107500  1
  H  H177  1  0.741300  0.239900  0.393100  1
  H  H178  1  0.758700  0.260100  0.893100  1
  H  H179  1  0.258700  0.760100  0.606900  1
  H  H180  1  0.241300  0.739900  0.106900  1
  H  H181  1  0.599000  0.370200  0.357600  1
  H  H182  1  0.901000  0.129800  0.857600  1
  H  H183  1  0.401000  0.629800  0.642400  1
  H  H184  1  0.099000  0.870200  0.142400  1
  H  H185  1  0.502500  0.392300  0.339900  1
  H  H186  1  0.997500  0.107700  0.839900  1
  H  H187  1  0.497500  0.607700  0.660100  1
  H  H188  1  0.002500  0.892300  0.160100  1
  H  H189  1  0.422000  0.334100  0.328900  1
  H  H190  1  0.078000  0.165900  0.828900  1
  H  H191  1  0.578000  0.665900  0.671100  1
  H  H192  1  0.922000  0.834100  0.171100  1
  H  H193  1  0.437100  0.258400  0.338200  1
  H  H194  1  0.062900  0.241600  0.838200  1
  H  H195  1  0.562900  0.741600  0.661800  1
  H  H196  1  0.937100  0.758400  0.161800  1
  H  H197  1  0.744800  0.298400  0.335900  1
  H  H198  1  0.755200  0.201600  0.835900  1
  H  H199  1  0.255200  0.701600  0.664100  1
  H  H200  1  0.244800  0.798400  0.164100  1
  H  H201  1  0.157800  0.215600  0.310100  1
  H  H202  1  0.342200  0.284400  0.810100  1
  H  H203  1  0.842200  0.784400  0.689900  1
  H  H204  1  0.657800  0.715600  0.189900  1
  H  H205  1  0.153500  0.201700  0.379600  1
  H  H206  1  0.346500  0.298300  0.879600  1
  H  H207  1  0.846500  0.798300  0.620400  1
  H  H208  1  0.653500  0.701700  0.120400  1
  H  H209  1  0.077900  0.148000  0.406200  1
  H  H210  1  0.422100  0.352000  0.906200  1
  H  H211  1  0.922100  0.852000  0.593800  1
  H  H212  1  0.577900  0.648000  0.093800  1
  H  H213  1  0.010900  0.122200  0.293900  1
  H  H214  1  0.489100  0.377800  0.793900  1
  H  H215  1  0.989100  0.877800  0.706100  1
  H  H216  1  0.510900  0.622200  0.206100  1
  H  H217  1  0.970900  0.182200  0.396100  1
  H  H218  1  0.529100  0.317800  0.896100  1
  H  H219  1  0.029100  0.817800  0.603900  1
  H  H220  1  0.470900  0.682200  0.103900  1
  H  H221  1  0.896700  0.205400  0.444100  1
  H  H222  1  0.603300  0.294600  0.944100  1
  H  H223  1  0.103300  0.794600  0.555900  1
  H  H224  1  0.396700  0.705400  0.055900  1
  H  H225  1  0.820100  0.152800  0.464800  1
  H  H226  1  0.679900  0.347200  0.964800  1
  H  H227  1  0.179900  0.847200  0.535200  1
  H  H228  1  0.320100  0.652800  0.035200  1
  H  H229  1  0.820400  0.071200  0.447500  1
  H  H230  1  0.679600  0.428800  0.947500  1
  H  H231  1  0.179600  0.928800  0.552500  1
  H  H232  1  0.320400  0.571200  0.052500  1
  H  H233  1  0.904000  0.944500  0.360400  1
  H  H234  1  0.596000  0.555500  0.860400  1
  H  H235  1  0.096000  0.055500  0.639600  1
  H  H236  1  0.404000  0.444500  0.139600  1
  H  H237  1  0.982200  0.920500  0.316800  1
  H  H238  1  0.517800  0.579500  0.816800  1
  H  H239  1  0.017800  0.079500  0.683200  1
  H  H240  1  0.482200  0.420500  0.183200  1
  H  H241  1  0.060900  0.970800  0.298400  1
  H  H242  1  0.439100  0.529200  0.798400  1
  H  H243  1  0.939100  0.029200  0.701600  1
  H  H244  1  0.560900  0.470800  0.201600  1
  H  H245  1  0.066900  0.052700  0.319500  1
  H  H246  1  0.433100  0.447300  0.819500  1
  H  H247  1  0.933100  0.947300  0.680500  1
  H  H248  1  0.566900  0.552700  0.180500  1
  H  H249  1  0.381100  0.025700  0.217200  1
  H  H250  1  0.118900  0.474300  0.717200  1
  H  H251  1  0.618900  0.974300  0.782800  1
  H  H252  1  0.881100  0.525700  0.282800  1
  H  H253  1  0.398600  0.948300  0.239500  1
  H  H254  1  0.101400  0.551700  0.739500  1
  H  H255  1  0.601400  0.051700  0.760500  1
  H  H256  1  0.898600  0.448300  0.260500  1
  H  H257  1  0.484400  0.934700  0.279700  1
  H  H258  1  0.015600  0.565300  0.779700  1
  H  H259  1  0.515600  0.065300  0.720300  1
  H  H260  1  0.984400  0.434700  0.220300  1
  H  H261  1  0.535200  0.076000  0.275300  1
  H  H262  1  0.964800  0.424000  0.775300  1
  H  H263  1  0.464800  0.924000  0.724700  1
  H  H264  1  0.035200  0.576000  0.224700  1
  H  H265  1  0.597000  0.976800  0.232500  1
  H  H266  1  0.903000  0.523200  0.732500  1
  H  H267  1  0.403000  0.023200  0.767500  1
  H  H268  1  0.097000  0.476800  0.267500  1
  H  H269  1  0.689500  0.944900  0.206600  1
  H  H270  1  0.810500  0.555100  0.706600  1
  H  H271  1  0.310500  0.055100  0.793400  1
  H  H272  1  0.189500  0.444900  0.293400  1
  H  H273  1  0.767300  0.918800  0.252700  1
  H  H274  1  0.732700  0.581200  0.752700  1
  H  H275  1  0.232700  0.081200  0.747300  1
  H  H276  1  0.267300  0.418800  0.247300  1
  H  H277  1  0.762900  0.940800  0.319100  1
  H  H278  1  0.737100  0.559200  0.819100  1
  H  H279  1  0.237100  0.059200  0.680900  1
  H  H280  1  0.262900  0.440800  0.180900  1
  H  H281  1  0.652900  0.012700  0.433700  1
  H  H282  1  0.847100  0.487300  0.933700  1
  H  H283  1  0.347100  0.987300  0.566300  1
  H  H284  1  0.152900  0.512700  0.066300  1
  H  H285  1  0.566300  0.048500  0.457400  1
  H  H286  1  0.933700  0.451500  0.957400  1
  H  H287  1  0.433700  0.951500  0.542600  1
  H  H288  1  0.066300  0.548500  0.042600  1
  H  H289  1  0.484500  0.065400  0.414800  1
  H  H290  1  0.015500  0.434600  0.914800  1
  H  H291  1  0.515500  0.934600  0.585200  1
  H  H292  1  0.984500  0.565400  0.085200  1
  H  H293  1  0.484500  0.035100  0.348500  1
  H  H294  1  0.015500  0.464900  0.848500  1
  H  H295  1  0.515500  0.964900  0.651500  1
  H  H296  1  0.984500  0.535100  0.151500  1
  H  H297  1  0.780500  0.030900  0.363700  1
  H  H298  1  0.719500  0.469100  0.863700  1
  H  H299  1  0.219500  0.969100  0.636300  1
  H  H300  1  0.280500  0.530900  0.136300  1
  H  H301  1  0.161200  0.099000  0.255500  1
  H  H302  1  0.338800  0.401000  0.755500  1
  H  H303  1  0.838800  0.901000  0.744500  1
  H  H304  1  0.661200  0.599000  0.244500  1
  H  H305  1  0.163100  0.018300  0.237400  1
  H  H306  1  0.336900  0.481700  0.737400  1
  H  H307  1  0.836900  0.981700  0.762600  1
  H  H308  1  0.663100  0.518300  0.262600  1
  H  H309  1  0.086000  0.984000  0.195700  1
  H  H310  1  0.414000  0.516000  0.695700  1
  H  H311  1  0.914000  0.016000  0.804300  1
  H  H312  1  0.586000  0.484000  0.304300  1
  H  H313  1  0.005000  0.111100  0.190300  1
  H  H314  1  0.495000  0.388900  0.690300  1
  H  H315  1  0.995000  0.888900  0.809700  1
  H  H316  1  0.505000  0.611100  0.309700  1
  H  H317  1  0.976400  0.982600  0.234600  1
  H  H318  1  0.523600  0.517400  0.734600  1
  H  H319  1  0.023600  0.017400  0.765400  1
  H  H320  1  0.476400  0.482600  0.265400  1
  H  H321  1  0.915900  0.919100  0.253700  1
  H  H322  1  0.584100  0.580900  0.753700  1
  H  H323  1  0.084100  0.080900  0.746300  1
  H  H324  1  0.415900  0.419100  0.246300  1
  H  H325  1  0.832900  0.887600  0.207800  1
  H  H326  1  0.667100  0.612400  0.707800  1
  H  H327  1  0.167100  0.112400  0.792200  1
  H  H328  1  0.332900  0.387600  0.292200  1
  H  H329  1  0.823400  0.921900  0.145300  1
  H  H330  1  0.676600  0.578100  0.645300  1
  H  H331  1  0.176600  0.078100  0.854700  1
  H  H332  1  0.323400  0.421900  0.354700  1
  H  H333  1  0.891000  0.041900  0.043400  1
  H  H334  1  0.609000  0.458100  0.543400  1
  H  H335  1  0.109000  0.958100  0.956600  1
  H  H336  1  0.391000  0.541900  0.456600  1
  H  H337  1  0.955700  0.101000  0.022300  1
  H  H338  1  0.544300  0.399000  0.522300  1
  H  H339  1  0.044300  0.899000  0.977700  1
  H  H340  1  0.455700  0.601000  0.477700  1
  H  H341  1  0.045200  0.124800  0.060900  1
  H  H342  1  0.454800  0.375200  0.560900  1
  H  H343  1  0.954800  0.875200  0.939100  1
  H  H344  1  0.545200  0.624800  0.439100  1
  H  H345  1  0.054700  0.094100  0.124900  1
  H  H346  1  0.445300  0.405900  0.624900  1
  H  H347  1  0.945300  0.905900  0.875100  1
  H  H348  1  0.554700  0.594100  0.375100  1
  H  H349  1  0.370300  0.145600  0.153900  1
  H  H350  1  0.129700  0.354400  0.653900  1
  H  H351  1  0.629700  0.854400  0.846100  1
  H  H352  1  0.870300  0.645600  0.346100  1
  H  H353  1  0.382300  0.130800  0.085100  1
  H  H354  1  0.117700  0.369200  0.585100  1
  H  H355  1  0.617700  0.869200  0.914900  1
  H  H356  1  0.882300  0.630800  0.414900  1
  H  H357  1  0.468000  0.091500  0.062100  1
  H  H358  1  0.032000  0.408500  0.562100  1
  H  H359  1  0.532000  0.908500  0.937900  1
  H  H360  1  0.968000  0.591500  0.437900  1
  H  H361  1  0.530000  0.081900  0.176800  1
  H  H362  1  0.970000  0.418100  0.676800  1
  H  H363  1  0.470000  0.918100  0.823200  1
  H  H364  1  0.030000  0.581900  0.323200  1
  H  H365  1  0.565900  0.146300  0.070900  1
  H  H366  1  0.934100  0.353700  0.570900  1
  H  H367  1  0.434100  0.853700  0.929100  1
  H  H368  1  0.065900  0.646300  0.429100  1
  H  H369  1  0.631200  0.176500  0.023400  1
  H  H370  1  0.868800  0.323500  0.523400  1
  H  H371  1  0.368800  0.823500  0.976600  1
  H  H372  1  0.131200  0.676500  0.476600  1
  H  H373  1  0.712600  0.133500  0.998200  1
  H  H374  1  0.787400  0.366500  0.498200  1
  H  H375  1  0.287400  0.866500  0.001800  1
  H  H376  1  0.212600  0.633500  0.501800  1
  H  H377  1  0.730100  0.057300  0.024500  1
  H  H378  1  0.769900  0.442700  0.524500  1
  H  H379  1  0.269900  0.942700  0.975500  1
  H  H380  1  0.230100  0.557300  0.475500  1
  H  H381  1  0.673100  0.923800  0.117500  1
  H  H382  1  0.826900  0.576200  0.617500  1
  H  H383  1  0.326900  0.076200  0.882500  1
  H  H384  1  0.173100  0.423800  0.382500  1
  H  H385  1  0.597400  0.886400  0.159500  1
  H  H386  1  0.902600  0.613600  0.659500  1
  H  H387  1  0.402600  0.113600  0.840500  1
  H  H388  1  0.097400  0.386400  0.340500  1
  H  H389  1  0.506900  0.926700  0.175600  1
  H  H390  1  0.993100  0.573300  0.675600  1
  H  H391  1  0.493100  0.073300  0.824400  1
  H  H392  1  0.006900  0.426700  0.324400  1
  H  H393  1  0.491200  1.000000  0.150900  1
  H  H394  1  0.008800  0.500000  0.650900  1
  H  H395  1  0.508800  0.000000  0.849100  1
  H  H396  1  0.991200  0.500000  0.349100  1
  H  H397  1  0.780100  0.026800  0.108800  1
  H  H398  1  0.719900  0.473200  0.608800  1
  H  H399  1  0.219900  0.973200  0.891200  1
  H  H400  1  0.280100  0.526800  0.391200  1
  H  H401  1  0.585600  0.405200  0.105700  1
  H  H402  1  0.914400  0.094800  0.605700  1
  H  H403  1  0.414400  0.594800  0.894300  1
  H  H404  1  0.085600  0.905200  0.394300  1
  H  H405  1  0.562500  0.440900  0.071800  1
  H  H406  1  0.937500  0.059100  0.571800  1
  H  H407  1  0.437500  0.559100  0.928200  1
  H  H408  1  0.062500  0.940900  0.428200  1
  H  H409  1  0.618200  0.477600  0.130800  1
  H  H410  1  0.881800  0.022400  0.630800  1
  H  H411  1  0.381800  0.522400  0.869200  1
  H  H412  1  0.118200  0.977600  0.369200  1
  H  H413  1  0.679400  0.460200  0.109500  1
  H  H414  1  0.820600  0.039800  0.609500  1
  H  H415  1  0.320600  0.539800  0.890500  1
  H  H416  1  0.179400  0.960200  0.390500  1
  H  H417  1  0.674800  0.577800  0.080200  1
  H  H418  1  0.825200  0.922200  0.580200  1
  H  H419  1  0.325200  0.422200  0.919800  1
  H  H420  1  0.174800  0.077800  0.419800  1
  H  H421  1  0.718300  0.540300  0.100700  1
  H  H422  1  0.781700  0.959700  0.600700  1
  H  H423  1  0.281700  0.459700  0.899300  1
  H  H424  1  0.218300  0.040300  0.399300  1
  H  H425  1  0.658900  0.557300  0.124200  1
  H  H426  1  0.841100  0.942700  0.624200  1
  H  H427  1  0.341100  0.442700  0.875800  1
  H  H428  1  0.158900  0.057300  0.375800  1
  H  H429  1  0.703200  0.474300  0.036900  1
  H  H430  1  0.796800  0.025700  0.536900  1
  H  H431  1  0.296800  0.525700  0.963100  1
  H  H432  1  0.203200  0.974300  0.463100  1
  H  H433  1  0.734400  0.485000  0.993900  1
  H  H434  1  0.765600  0.015000  0.493900  1
  H  H435  1  0.265600  0.515000  0.006100  1
  H  H436  1  0.234400  0.985000  0.506100  1
  H  H437  1  0.791400  0.521800  0.049700  1
  H  H438  1  0.708600  0.978200  0.549700  1
  H  H439  1  0.208600  0.478200  0.950300  1
  H  H440  1  0.291400  0.021800  0.450300  1
  H  H441  1  0.805900  0.469200  0.064800  1
  H  H442  1  0.694100  0.030800  0.564800  1
  H  H443  1  0.194100  0.530800  0.935200  1
  H  H444  1  0.305900  0.969200  0.435200  1
  H  H445  1  0.938900  0.506400  0.015500  1
  H  H446  1  0.561100  0.993600  0.515500  1
  H  H447  1  0.061100  0.493600  0.984500  1
  H  H448  1  0.438900  0.006400  0.484500  1
  H  H449  1  0.913100  0.485100  0.057300  1
  H  H450  1  0.586900  0.014900  0.557300  1
  H  H451  1  0.086900  0.514900  0.942700  1
  H  H452  1  0.413100  0.985100  0.442700  1
  H  H453  1  0.899400  0.538700  0.044500  1
  H  H454  1  0.600600  0.961300  0.544500  1
  H  H455  1  0.100600  0.461300  0.955500  1
  H  H456  1  0.399400  0.038700  0.455500  1
  H  H457  1  0.845700  0.391600  0.977900  1
  H  H458  1  0.654300  0.108400  0.477900  1
  H  H459  1  0.154300  0.608400  0.022100  1
  H  H460  1  0.345700  0.891600  0.522100  1
  H  H461  1  0.811600  0.340500  0.986900  1
  H  H462  1  0.688400  0.159500  0.486900  1
  H  H463  1  0.188400  0.659500  0.013100  1
  H  H464  1  0.311600  0.840500  0.513100  1
  H  H465  1  0.914400  0.312600  0.004000  1
  H  H466  1  0.585600  0.187400  0.504000  1
  H  H467  1  0.085600  0.687400  0.996000  1
  H  H468  1  0.414400  0.812600  0.496000  1
  H  H469  1  0.902200  0.321200  0.957000  1
  H  H470  1  0.597800  0.178800  0.457000  1
  H  H471  1  0.097800  0.678800  0.043000  1
  H  H472  1  0.402200  0.821200  0.543000  1
  H  H473  1  0.020700  0.401400  0.018400  1
  H  H474  1  0.479300  0.098600  0.518400  1
  H  H475  1  0.979300  0.598600  0.981600  1
  H  H476  1  0.520700  0.901400  0.481600  1
  H  H477  1  0.996200  0.349400  0.033100  1
  H  H478  1  0.503800  0.150600  0.533100  1
  H  H479  1  0.003800  0.650600  0.966900  1
  H  H480  1  0.496200  0.849400  0.466900  1
  H  H481  1  0.953800  0.394000  0.038300  1
  H  H482  1  0.546200  0.106000  0.538300  1
  H  H483  1  0.046200  0.606000  0.961700  1
  H  H484  1  0.453800  0.894000  0.461700  1
  H  H485  1  0.831100  0.447100  0.348400  1
  H  H486  1  0.668900  0.052900  0.848400  1
  H  H487  1  0.168900  0.552900  0.651600  1
  H  H488  1  0.331100  0.947100  0.151600  1
  H  H489  1  0.898000  0.433400  0.363700  1
  H  H490  1  0.602000  0.066600  0.863700  1
  H  H491  1  0.102000  0.566600  0.636300  1
  H  H492  1  0.398000  0.933400  0.136300  1
  H  H493  1  0.891900  0.518100  0.362900  1
  H  H494  1  0.608100  0.981900  0.862900  1
  H  H495  1  0.108100  0.481900  0.637100  1
  H  H496  1  0.391900  0.018100  0.137100  1
  H  H497  1  0.833600  0.514000  0.392600  1
  H  H498  1  0.666400  0.986000  0.892600  1
  H  H499  1  0.166400  0.486000  0.607400  1
  H  H500  1  0.333600  0.014000  0.107400  1
  H  H501  1  0.908400  0.504700  0.478600  1
  H  H502  1  0.591600  0.995300  0.978600  1
  H  H503  1  0.091600  0.495300  0.521400  1
  H  H504  1  0.408400  0.004700  0.021400  1
  H  H505  1  0.850600  0.476000  0.458500  1
  H  H506  1  0.649400  0.024000  0.958500  1
  H  H507  1  0.149400  0.524000  0.541500  1
  H  H508  1  0.350600  0.976000  0.041500  1
  H  H509  1  0.856300  0.533200  0.456200  1
  H  H510  1  0.643700  0.966800  0.956200  1
  H  H511  1  0.143700  0.466800  0.543800  1
  H  H512  1  0.356300  0.033200  0.043800  1
  H  H513  1  0.741000  0.477000  0.414100  1
  H  H514  1  0.759000  0.023000  0.914100  1
  H  H515  1  0.259000  0.523000  0.585900  1
  H  H516  1  0.241000  0.977000  0.085900  1
  H  H517  1  0.723900  0.489700  0.459700  1
  H  H518  1  0.776100  0.010300  0.959700  1
  H  H519  1  0.276100  0.510300  0.540300  1
  H  H520  1  0.223900  0.989700  0.040300  1
  H  H521  1  0.640300  0.500800  0.412800  1
  H  H522  1  0.859700  0.999200  0.912800  1
  H  H523  1  0.359700  0.499200  0.587200  1
  H  H524  1  0.140300  0.000800  0.087200  1
  H  H525  1  0.636400  0.444200  0.405400  1
  H  H526  1  0.863600  0.055800  0.905400  1
  H  H527  1  0.363600  0.555800  0.594600  1
  H  H528  1  0.136400  0.944200  0.094600  1
  H  H529  1  0.519500  0.463100  0.473200  1
  H  H530  1  0.980500  0.036900  0.973200  1
  H  H531  1  0.480500  0.536900  0.526800  1
  H  H532  1  0.019500  0.963100  0.026800  1
  H  H533  1  0.532500  0.443000  0.429100  1
  H  H534  1  0.967500  0.057000  0.929100  1
  H  H535  1  0.467500  0.557000  0.570900  1
  H  H536  1  0.032500  0.943000  0.070900  1
  H  H537  1  0.539300  0.499300  0.437600  1
  H  H538  1  0.960700  0.000700  0.937600  1
  H  H539  1  0.460700  0.500700  0.562400  1
  H  H540  1  0.039300  0.999300  0.062400  1
  H  H541  1  0.602600  0.338500  0.492300  1
  H  H542  1  0.897400  0.161500  0.992300  1
  H  H543  1  0.397400  0.661500  0.507700  1
  H  H544  1  0.102600  0.838500  0.007700  1
  H  H545  1  0.670800  0.363400  0.490100  1
  H  H546  1  0.829200  0.136600  0.990100  1
  H  H547  1  0.329200  0.636600  0.509900  1
  H  H548  1  0.170800  0.863400  0.009900  1
  H  H549  1  0.659100  0.275600  0.508000  1
  H  H550  1  0.840900  0.224400  0.008000  1
  H  H551  1  0.340900  0.724400  0.492000  1
  H  H552  1  0.159100  0.775600  0.992000  1
  H  H553  1  0.651700  0.268100  0.460400  1
  H  H554  1  0.848300  0.231900  0.960400  1
  H  H555  1  0.348300  0.731900  0.539600  1
  H  H556  1  0.151700  0.768100  0.039600  1
  H  H557  1  0.806900  0.253600  0.481400  1
  H  H558  1  0.693100  0.246400  0.981400  1
  H  H559  1  0.193100  0.746400  0.518600  1
  H  H560  1  0.306900  0.753600  0.018600  1
  H  H561  1  0.745300  0.224500  0.467000  1
  H  H562  1  0.754700  0.275500  0.967000  1
  H  H563  1  0.254700  0.775500  0.533000  1
  H  H564  1  0.245300  0.724500  0.033000  1
  H  H565  1  0.753400  0.239900  0.513200  1
  H  H566  1  0.746600  0.260100  0.013200  1
  H  H567  1  0.246600  0.760100  0.486800  1
  H  H568  1  0.253400  0.739900  0.986800  1
  H  H569  1  0.858000  0.959000  0.501900  1
  H  H570  1  0.642000  0.541000  0.001900  1
  H  H571  1  0.142000  0.041000  0.498100  1
  H  H572  1  0.358000  0.459000  0.998100  1
  H  H573  1  0.905100  0.001800  0.487900  1
  H  H574  1  0.594900  0.498200  0.987900  1
  H  H575  1  0.094900  0.998200  0.512100  1
  H  H576  1  0.405100  0.501800  0.012100  1
  H  H577  1  0.987200  0.964300  0.508400  1
  H  H578  1  0.512800  0.535700  0.008400  1
  H  H579  1  0.012800  0.035700  0.491600  1
  H  H580  1  0.487200  0.464300  0.991600  1
  H  H581  1  0.938400  0.936300  0.537200  1
  H  H582  1  0.561600  0.563700  0.037200  1
  H  H583  1  0.061600  0.063700  0.462800  1
  H  H584  1  0.438400  0.436300  0.962800  1
  H  H585  1  0.943400  0.829500  0.495000  1
  H  H586  1  0.556600  0.670500  0.995000  1
  H  H587  1  0.056600  0.170500  0.505000  1
  H  H588  1  0.443400  0.329500  0.005000  1
  H  H589  1  0.890200  0.861700  0.511800  1
  H  H590  1  0.609800  0.638300  0.011800  1
  H  H591  1  0.109800  0.138300  0.488200  1
  H  H592  1  0.390200  0.361700  0.988200  1
  H  H593  1  0.952000  0.856600  0.537300  1
  H  H594  1  0.548000  0.643400  0.037300  1
  H  H595  1  0.048000  0.143400  0.462700  1
  H  H596  1  0.452000  0.356600  0.962700  1
  H  H597  1  0.769200  0.840500  0.418300  1
  H  H598  1  0.730800  0.659500  0.918300  1
  H  H599  1  0.230800  0.159500  0.581700  1
  H  H600  1  0.269200  0.340500  0.081700  1
  H  H601  1  0.782200  0.820000  0.462400  1
  H  H602  1  0.717800  0.680000  0.962400  1
  H  H603  1  0.217800  0.180000  0.537600  1
  H  H604  1  0.282200  0.320000  0.037600  1
  H  H605  1  0.886300  0.869400  0.447000  1
  H  H606  1  0.613700  0.630600  0.947000  1
  H  H607  1  0.113700  0.130600  0.553000  1
  H  H608  1  0.386300  0.369400  0.053000  1
  H  H609  1  0.877700  0.812500  0.442000  1
  H  H610  1  0.622300  0.687500  0.942000  1
  H  H611  1  0.122300  0.187500  0.558000  1
  H  H612  1  0.377700  0.312500  0.058000  1
  H  H613  1  0.823400  0.835200  0.341400  1
  H  H614  1  0.676600  0.664800  0.841400  1
  H  H615  1  0.176600  0.164800  0.658600  1
  H  H616  1  0.323400  0.335200  0.158600  1
  H  H617  1  0.799600  0.878200  0.367900  1
  H  H618  1  0.700400  0.621800  0.867900  1
  H  H619  1  0.200400  0.121800  0.632100  1
  H  H620  1  0.299600  0.378200  0.132100  1
  H  H621  1  0.785800  0.824100  0.382100  1
  H  H622  1  0.714200  0.675900  0.882100  1
  H  H623  1  0.214200  0.175900  0.617900  1
  H  H624  1  0.285800  0.324100  0.117900  1
  H  H625  1  0.652600  0.836700  0.417400  1
  H  H626  1  0.847400  0.663300  0.917400  1
  H  H627  1  0.347400  0.163300  0.582600  1
  H  H628  1  0.152600  0.336700  0.082600  1
  H  H629  1  0.726100  0.846500  0.417700  1
  H  H630  1  0.773900  0.653500  0.917700  1
  H  H631  1  0.273900  0.153500  0.582300  1
  H  H632  1  0.226100  0.346500  0.082300  1
  H  H633  1  0.646200  0.851400  0.349300  1
  H  H634  1  0.853800  0.648600  0.849300  1
  H  H635  1  0.353800  0.148600  0.650700  1
  H  H636  1  0.146200  0.351400  0.150700  1
  H  H637  1  0.714200  0.876700  0.347900  1
  H  H638  1  0.785800  0.623300  0.847900  1
  H  H639  1  0.285800  0.123300  0.652100  1
  H  H640  1  0.214200  0.376700  0.152100  1
  H  H641  1  0.770800  0.779300  0.310700  1
  H  H642  1  0.729200  0.720700  0.810700  1
  H  H643  1  0.229200  0.220700  0.689300  1
  H  H644  1  0.270800  0.279300  0.189300  1
  H  H645  1  0.784000  0.835200  0.319300  1
  H  H646  1  0.716000  0.664800  0.819300  1
  H  H647  1  0.216000  0.164800  0.680700  1
  H  H648  1  0.284000  0.335200  0.180700  1
  H  H649  1  0.727000  0.817500  0.291500  1
  H  H650  1  0.773000  0.682500  0.791500  1
  H  H651  1  0.273000  0.182500  0.708500  1
  H  H652  1  0.227000  0.317500  0.208500  1
  H  H653  1  0.852900  0.851300  0.057500  1
  H  H654  1  0.647100  0.648700  0.557500  1
  H  H655  1  0.147100  0.148700  0.942500  1
  H  H656  1  0.352900  0.351300  0.442500  1
  H  H657  1  0.889800  0.871500  0.096300  1
  H  H658  1  0.610200  0.628500  0.596300  1
  H  H659  1  0.110200  0.128500  0.903700  1
  H  H660  1  0.389800  0.371500  0.403700  1
  H  H661  1  0.958200  0.857900  0.024600  1
  H  H662  1  0.541800  0.642100  0.524600  1
  H  H663  1  0.041800  0.142100  0.975400  1
  H  H664  1  0.458200  0.357900  0.475400  1
  H  H665  1  0.982700  0.855800  0.070000  1
  H  H666  1  0.517300  0.644200  0.570000  1
  H  H667  1  0.017300  0.144200  0.930000  1
  H  H668  1  0.482700  0.355800  0.430000  1
  H  H669  1  0.980700  0.747800  0.019700  1
  H  H670  1  0.519300  0.752200  0.519700  1
  H  H671  1  0.019300  0.252200  0.980300  1
  H  H672  1  0.480700  0.247800  0.480300  1
  H  H673  1  0.013100  0.759900  0.062100  1
  H  H674  1  0.486900  0.740100  0.562100  1
  H  H675  1  0.986900  0.240100  0.937900  1
  H  H676  1  0.513100  0.259900  0.437900  1
  H  H677  1  0.020800  0.797000  0.025500  1
  H  H678  1  0.479200  0.703000  0.525500  1
  H  H679  1  0.979200  0.203000  0.974500  1
  H  H680  1  0.520800  0.297000  0.474500  1
  H  H681  1  0.853900  0.875500  0.970000  1
  H  H682  1  0.646100  0.624500  0.470000  1
  H  H683  1  0.146100  0.124500  0.030000  1
  H  H684  1  0.353900  0.375500  0.530000  1
  H  H685  1  0.844100  0.931500  0.976000  1
  H  H686  1  0.655900  0.568500  0.476000  1
  H  H687  1  0.155900  0.068500  0.024000  1
  H  H688  1  0.344100  0.431500  0.524000  1
  H  H689  1  0.758900  0.867300  0.933400  1
  H  H690  1  0.741100  0.632700  0.433400  1
  H  H691  1  0.241100  0.132700  0.066600  1
  H  H692  1  0.258900  0.367300  0.566600  1
  H  H693  1  0.749400  0.923400  0.939100  1
  H  H694  1  0.750600  0.576600  0.439100  1
  H  H695  1  0.250600  0.076600  0.060900  1
  H  H696  1  0.249400  0.423400  0.560900  1
  H  H697  1  0.804700  0.914900  0.842000  1
  H  H698  1  0.695300  0.585100  0.342000  1
  H  H699  1  0.195300  0.085100  0.158000  1
  H  H700  1  0.304700  0.414900  0.658000  1
  H  H701  1  0.749200  0.934700  0.867800  1
  H  H702  1  0.750800  0.565300  0.367800  1
  H  H703  1  0.250800  0.065300  0.132200  1
  H  H704  1  0.249200  0.434700  0.632200  1
  H  H705  1  0.755600  0.878200  0.863100  1
  H  H706  1  0.744400  0.621800  0.363100  1
  H  H707  1  0.244400  0.121800  0.136900  1
  H  H708  1  0.255600  0.378200  0.636900  1
  H  H709  1  0.682900  0.866800  0.036600  1
  H  H710  1  0.817100  0.633200  0.536600  1
  H  H711  1  0.317100  0.133200  0.963400  1
  H  H712  1  0.182900  0.366800  0.463400  1
  H  H713  1  0.660400  0.875300  0.991300  1
  H  H714  1  0.839600  0.624700  0.491300  1
  H  H715  1  0.339600  0.124700  0.008700  1
  H  H716  1  0.160400  0.375300  0.508700  1
  H  H717  1  0.577900  0.843600  0.034600  1
  H  H718  1  0.922100  0.656400  0.534600  1
  H  H719  1  0.422100  0.156400  0.965400  1
  H  H720  1  0.077900  0.343600  0.465400  1
  H  H721  1  0.584100  0.892100  0.060200  1
  H  H722  1  0.915900  0.607900  0.560200  1
  H  H723  1  0.415900  0.107900  0.939800  1
  H  H724  1  0.084100  0.392100  0.439800  1
  H  H725  1  0.475600  0.938800  0.005200  1
  H  H726  1  0.024400  0.561200  0.505200  1
  H  H727  1  0.524400  0.061200  0.994800  1
  H  H728  1  0.975600  0.438800  0.494800  1
  H  H729  1  0.519900  0.949300  0.043000  1
  H  H730  1  0.980100  0.550700  0.543000  1
  H  H731  1  0.480100  0.050700  0.957000  1
  H  H732  1  0.019900  0.449300  0.457000  1
  H  H733  1  0.476300  0.901400  0.041600  1
  H  H734  1  0.023700  0.598600  0.541600  1
  H  H735  1  0.523700  0.098600  0.958400  1
  H  H736  1  0.976300  0.401400  0.458400  1
  H  H737  1  0.815900  0.085500  0.178100  1
  H  H738  1  0.684100  0.414500  0.678100  1
  H  H739  1  0.184100  0.914500  0.821900  1
  H  H740  1  0.315900  0.585500  0.321900  1
  H  H741  1  0.761400  0.056400  0.201400  1
  H  H742  1  0.738600  0.443600  0.701400  1
  H  H743  1  0.238600  0.943600  0.798600  1
  H  H744  1  0.261400  0.556400  0.298600  1
  H  H745  1  0.831100  0.041200  0.206200  1
  H  H746  1  0.668900  0.458800  0.706200  1
  H  H747  1  0.168900  0.958800  0.793800  1
  H  H748  1  0.331100  0.541200  0.293800  1
  H  H749  1  0.673200  0.238100  0.184800  1
  H  H750  1  0.826800  0.261900  0.684800  1
  H  H751  1  0.326800  0.761900  0.815200  1
  H  H752  1  0.173200  0.738100  0.315200  1
  H  H753  1  0.737700  0.215600  0.174900  1
  H  H754  1  0.762300  0.284400  0.674900  1
  H  H755  1  0.262300  0.784400  0.825100  1
  H  H756  1  0.237700  0.715600  0.325100  1
  H  H757  1  0.736100  0.263700  0.200900  1
  H  H758  1  0.763900  0.236300  0.700900  1
  H  H759  1  0.263900  0.736300  0.799100  1
  H  H760  1  0.236100  0.763700  0.299100  1
  H  H761  1  0.748700  0.227600  0.286800  1
  H  H762  1  0.751300  0.272400  0.786800  1
  H  H763  1  0.251300  0.772400  0.713200  1
  H  H764  1  0.248700  0.727600  0.213200  1
  H  H765  1  0.676200  0.214900  0.291100  1
  H  H766  1  0.823800  0.285100  0.791100  1
  H  H767  1  0.323800  0.785100  0.708900  1
  H  H768  1  0.176200  0.714900  0.208900  1
  H  H769  1  0.700200  0.262600  0.268200  1
  H  H770  1  0.799800  0.237400  0.768200  1
  H  H771  1  0.299800  0.737400  0.731800  1
  H  H772  1  0.200200  0.762600  0.231800  1
  H  H773  1  0.828100  0.047900  0.284900  1
  H  H774  1  0.671900  0.452100  0.784900  1
  H  H775  1  0.171900  0.952100  0.715100  1
  H  H776  1  0.328100  0.547900  0.215100  1
  H  H777  1  0.762400  0.070500  0.290100  1
  H  H778  1  0.737600  0.429500  0.790100  1
  H  H779  1  0.237600  0.929500  0.709900  1
  H  H780  1  0.262400  0.570500  0.209900  1
  H  H781  1  0.823700  0.099800  0.304600  1
  H  H782  1  0.676300  0.400200  0.804600  1
  H  H783  1  0.176300  0.900200  0.695400  1
  H  H784  1  0.323700  0.599800  0.195400  1
  Pd  Pd785  1  0.441630  0.126660  0.231410  1
  Pd  Pd786  1  0.058370  0.373340  0.731410  1
  Pd  Pd787  1  0.558370  0.873340  0.768590  1
  Pd  Pd788  1  0.941630  0.626660  0.268590  1
  Pd  Pd789  1  0.083190  0.182930  0.236610  1
  Pd  Pd790  1  0.416810  0.317070  0.736610  1
  Pd  Pd791  1  0.916810  0.817070  0.763390  1
  Pd  Pd792  1  0.583190  0.682930  0.263390  1
  C  C793  1  0.121000  0.192700  0.149400  1
  C  C794  1  0.379000  0.307300  0.649400  1
  C  C795  1  0.879000  0.807300  0.850600  1
  C  C796  1  0.621000  0.692700  0.350600  1
  C  C797  1  0.113600  0.209100  0.110300  1
  C  C798  1  0.386400  0.290900  0.610300  1
  C  C799  1  0.886400  0.790900  0.889700  1
  C  C800  1  0.613600  0.709100  0.389700  1
  C  C801  1  0.059400  0.230000  0.099300  1
  C  C802  1  0.440600  0.270000  0.599300  1
  C  C803  1  0.940600  0.770000  0.900700  1
  C  C804  1  0.559400  0.730000  0.400700  1
  C  C805  1  0.012600  0.234400  0.127400  1
  C  C806  1  0.487400  0.265600  0.627400  1
  C  C807  1  0.987400  0.765600  0.872600  1
  C  C808  1  0.512600  0.734400  0.372600  1
  C  C809  1  0.020000  0.218100  0.166500  1
  C  C810  1  0.480000  0.281900  0.666500  1
  C  C811  1  0.980000  0.781900  0.833500  1
  C  C812  1  0.520000  0.718100  0.333500  1
  C  C813  1  0.012200  0.337400  0.133200  1
  C  C814  1  0.487800  0.162600  0.633200  1
  C  C815  1  0.987800  0.662600  0.866800  1
  C  C816  1  0.512200  0.837400  0.366800  1
  C  C817  1  0.013800  0.386900  0.136400  1
  C  C818  1  0.486200  0.113100  0.636400  1
  C  C819  1  0.986200  0.613100  0.863600  1
  C  C820  1  0.513800  0.886900  0.363600  1
  C  C821  1  0.960100  0.411100  0.128600  1
  C  C822  1  0.539900  0.088900  0.628600  1
  C  C823  1  0.039900  0.588900  0.871400  1
  C  C824  1  0.460100  0.911100  0.371400  1
  C  C825  1  0.908800  0.385500  0.116100  1
  C  C826  1  0.591200  0.114500  0.616100  1
  C  C827  1  0.091200  0.614500  0.883900  1
  C  C828  1  0.408800  0.885500  0.383900  1
  C  C829  1  0.903300  0.335800  0.111900  1
  C  C830  1  0.596700  0.164200  0.611900  1
  C  C831  1  0.096700  0.664200  0.888100  1
  C  C832  1  0.403300  0.835800  0.388100  1
  C  C833  1  0.848400  0.310500  0.101500  1
  C  C834  1  0.651600  0.189500  0.601500  1
  C  C835  1  0.151600  0.689500  0.898500  1
  C  C836  1  0.348400  0.810500  0.398500  1
  C  C837  1  0.845100  0.258500  0.101000  1
  C  C838  1  0.654900  0.241500  0.601000  1
  C  C839  1  0.154900  0.741500  0.899000  1
  C  C840  1  0.345100  0.758500  0.399000  1
  C  C841  1  0.791500  0.231100  0.090700  1
  C  C842  1  0.708500  0.268900  0.590700  1
  C  C843  1  0.208500  0.768900  0.909300  1
  C  C844  1  0.291500  0.731100  0.409300  1
  C  C845  1  0.789400  0.184300  0.090500  1
  C  C846  1  0.710600  0.315700  0.590500  1
  C  C847  1  0.210600  0.815700  0.909500  1
  C  C848  1  0.289400  0.684300  0.409500  1
  C  C849  1  0.843700  0.159100  0.097200  1
  C  C850  1  0.656300  0.340900  0.597200  1
  C  C851  1  0.156300  0.840900  0.902800  1
  C  C852  1  0.343700  0.659100  0.402800  1
  C  C853  1  0.894800  0.183300  0.106600  1
  C  C854  1  0.605200  0.316700  0.606600  1
  C  C855  1  0.105200  0.816700  0.893400  1
  C  C856  1  0.394800  0.683300  0.393400  1
  C  C857  1  0.901200  0.234200  0.108600  1
  C  C858  1  0.598800  0.265800  0.608600  1
  C  C859  1  0.098800  0.765800  0.891400  1
  C  C860  1  0.401200  0.734200  0.391400  1
  C  C861  1  0.955400  0.259300  0.118800  1
  C  C862  1  0.544600  0.240700  0.618800  1
  C  C863  1  0.044600  0.740700  0.881200  1
  C  C864  1  0.455400  0.759300  0.381200  1
  C  C865  1  0.959000  0.310700  0.121800  1
  C  C866  1  0.541000  0.189300  0.621800  1
  C  C867  1  0.041000  0.689300  0.878200  1
  C  C868  1  0.459000  0.810700  0.378200  1
  C  C869  1  0.385300  0.221800  0.238100  1
  C  C870  1  0.114700  0.278200  0.738100  1
  C  C871  1  0.614700  0.778200  0.761900  1
  C  C872  1  0.885300  0.721800  0.261900  1
  C  C873  1  0.382600  0.270800  0.231900  1
  C  C874  1  0.117400  0.229200  0.731900  1
  C  C875  1  0.617400  0.729200  0.768100  1
  C  C876  1  0.882600  0.770800  0.268100  1
  C  C877  1  0.427900  0.295200  0.209300  1
  C  C878  1  0.072100  0.204800  0.709300  1
  C  C879  1  0.572100  0.704800  0.790700  1
  C  C880  1  0.927900  0.795200  0.290700  1
  C  C881  1  0.475900  0.270700  0.192700  1
  C  C882  1  0.024100  0.229300  0.692700  1
  C  C883  1  0.524100  0.729300  0.807300  1
  C  C884  1  0.975900  0.770700  0.307300  1
  C  C885  1  0.478500  0.221700  0.198800  1
  C  C886  1  0.021500  0.278300  0.698800  1
  C  C887  1  0.521500  0.778300  0.801200  1
  C  C888  1  0.978500  0.721700  0.301200  1
  C  C889  1  0.560400  0.341700  0.227800  1
  C  C890  1  0.939600  0.158300  0.727800  1
  C  C891  1  0.439600  0.658300  0.772200  1
  C  C892  1  0.060400  0.841700  0.272200  1
  C  C893  1  0.600800  0.376400  0.246500  1
  C  C894  1  0.899200  0.123600  0.746500  1
  C  C895  1  0.399200  0.623600  0.753500  1
  C  C896  1  0.100800  0.876400  0.253500  1
  C  C897  1  0.648500  0.398700  0.223300  1
  C  C898  1  0.851500  0.101300  0.723300  1
  C  C899  1  0.351500  0.601300  0.776700  1
  C  C900  1  0.148500  0.898700  0.276700  1
  C  C901  1  0.656600  0.386200  0.185000  1
  C  C902  1  0.843400  0.113800  0.685000  1
  C  C903  1  0.343400  0.613800  0.815000  1
  C  C904  1  0.156600  0.886200  0.315000  1
  C  C905  1  0.618300  0.351000  0.164900  1
  C  C906  1  0.881700  0.149000  0.664900  1
  C  C907  1  0.381700  0.649000  0.835100  1
  C  C908  1  0.118300  0.851000  0.335100  1
  C  C909  1  0.627900  0.336600  0.126000  1
  C  C910  1  0.872100  0.163400  0.626000  1
  C  C911  1  0.372100  0.663400  0.874000  1
  C  C912  1  0.127900  0.836600  0.374000  1
  C  C913  1  0.584900  0.303900  0.106400  1
  C  C914  1  0.915100  0.196100  0.606400  1
  C  C915  1  0.415100  0.696100  0.893600  1
  C  C916  1  0.084900  0.803900  0.393600  1
  C  C917  1  0.591900  0.289100  0.064400  1
  C  C918  1  0.908100  0.210900  0.564400  1
  C  C919  1  0.408100  0.710900  0.935600  1
  C  C920  1  0.091900  0.789100  0.435600  1
  C  C921  1  0.548100  0.258600  0.047000  1
  C  C922  1  0.951900  0.241400  0.547000  1
  C  C923  1  0.451900  0.741400  0.953000  1
  C  C924  1  0.048100  0.758600  0.453000  1
  C  C925  1  0.499400  0.240500  0.067300  1
  C  C926  1  0.000600  0.259500  0.567300  1
  C  C927  1  0.500600  0.759500  0.932700  1
  C  C928  1  0.999400  0.740500  0.432700  1
  C  C929  1  0.489700  0.253100  0.106300  1
  C  C930  1  0.010300  0.246900  0.606300  1
  C  C931  1  0.510300  0.746900  0.893700  1
  C  C932  1  0.989700  0.753100  0.393700  1
  C  C933  1  0.534100  0.284300  0.128300  1
  C  C934  1  0.965900  0.215700  0.628300  1
  C  C935  1  0.465900  0.715700  0.871700  1
  C  C936  1  0.034100  0.784300  0.371700  1
  C  C937  1  0.525700  0.294600  0.168800  1
  C  C938  1  0.974300  0.205400  0.668800  1
  C  C939  1  0.474300  0.705400  0.831200  1
  C  C940  1  0.025700  0.794600  0.331200  1
  C  C941  1  0.567400  0.328900  0.188300  1
  C  C942  1  0.932600  0.171100  0.688300  1
  C  C943  1  0.432600  0.671100  0.811700  1
  C  C944  1  0.067400  0.828900  0.311700  1
  C  C945  1  0.792900  0.336600  0.091200  1
  C  C946  1  0.707100  0.163400  0.591200  1
  C  C947  1  0.207100  0.663400  0.908800  1
  C  C948  1  0.292900  0.836600  0.408800  1
  C  C949  1  0.740000  0.331100  0.113000  1
  C  C950  1  0.760000  0.168900  0.613000  1
  C  C951  1  0.260000  0.668900  0.887000  1
  C  C952  1  0.240000  0.831100  0.387000  1
  C  C953  1  0.684900  0.355100  0.103200  1
  C  C954  1  0.815100  0.144900  0.603200  1
  C  C955  1  0.315100  0.644900  0.896800  1
  C  C956  1  0.184900  0.855100  0.396800  1
  C  C957  1  0.687000  0.384000  0.069500  1
  C  C958  1  0.813000  0.116000  0.569500  1
  C  C959  1  0.313000  0.616000  0.930500  1
  C  C960  1  0.187000  0.884000  0.430500  1
  C  C961  1  0.741100  0.389900  0.047000  1
  C  C962  1  0.758900  0.110100  0.547000  1
  C  C963  1  0.258900  0.610100  0.953000  1
  C  C964  1  0.241100  0.889900  0.453000  1
  C  C965  1  0.792800  0.365900  0.056100  1
  C  C966  1  0.707200  0.134100  0.556100  1
  C  C967  1  0.207200  0.634100  0.943900  1
  C  C968  1  0.292800  0.865900  0.443900  1
  C  C969  1  0.117700  0.287500  0.232300  1
  C  C970  1  0.382300  0.212500  0.732300  1
  C  C971  1  0.882300  0.712500  0.767700  1
  C  C972  1  0.617700  0.787500  0.267700  1
  C  C973  1  0.108000  0.335700  0.238400  1
  C  C974  1  0.392000  0.164300  0.738400  1
  C  C975  1  0.892000  0.664300  0.761600  1
  C  C976  1  0.608000  0.835700  0.261600  1
  C  C977  1  0.057600  0.348900  0.260900  1
  C  C978  1  0.442400  0.151100  0.760900  1
  C  C979  1  0.942400  0.651100  0.739100  1
  C  C980  1  0.557600  0.848900  0.239100  1
  C  C981  1  0.017100  0.314100  0.277200  1
  C  C982  1  0.482900  0.185900  0.777200  1
  C  C983  1  0.982900  0.685900  0.722800  1
  C  C984  1  0.517100  0.814100  0.222800  1
  C  C985  1  0.026800  0.266000  0.271100  1
  C  C986  1  0.473200  0.234000  0.771100  1
  C  C987  1  0.973200  0.734000  0.728900  1
  C  C988  1  0.526800  0.766000  0.228900  1
  C  C989  1  0.906200  0.346400  0.233500  1
  C  C990  1  0.593800  0.153600  0.733500  1
  C  C991  1  0.093800  0.653600  0.766500  1
  C  C992  1  0.406200  0.846400  0.266500  1
  C  C993  1  0.858700  0.359200  0.215900  1
  C  C994  1  0.641300  0.140800  0.715900  1
  C  C995  1  0.141300  0.640800  0.784100  1
  C  C996  1  0.358700  0.859200  0.284100  1
  C  C997  1  0.806300  0.374200  0.236900  1
  C  C998  1  0.693700  0.125800  0.736900  1
  C  C999  1  0.193700  0.625800  0.763100  1
  C  C1000  1  0.306300  0.874200  0.263100  1
  C  C1001  1  0.803800  0.368900  0.277800  1
  C  C1002  1  0.696200  0.131100  0.777800  1
  C  C1003  1  0.196200  0.631100  0.722200  1
  C  C1004  1  0.303800  0.868900  0.222200  1
  C  C1005  1  0.854000  0.352900  0.299900  1
  C  C1006  1  0.646000  0.147100  0.799900  1
  C  C1007  1  0.146000  0.647100  0.700100  1
  C  C1008  1  0.354000  0.852900  0.200100  1
  C  C1009  1  0.853000  0.345400  0.342600  1
  C  C1010  1  0.647000  0.154600  0.842600  1
  C  C1011  1  0.147000  0.654600  0.657400  1
  C  C1012  1  0.353000  0.845400  0.157400  1
  C  C1013  1  0.901300  0.329900  0.362900  1
  C  C1014  1  0.598700  0.170100  0.862900  1
  C  C1015  1  0.098700  0.670100  0.637100  1
  C  C1016  1  0.401300  0.829900  0.137100  1
  C  C1017  1  0.899800  0.322300  0.404600  1
  C  C1018  1  0.600200  0.177700  0.904600  1
  C  C1019  1  0.100200  0.677700  0.595400  1
  C  C1020  1  0.399800  0.822300  0.095400  1
  C  C1021  1  0.950100  0.302400  0.425100  1
  C  C1022  1  0.549900  0.197600  0.925100  1
  C  C1023  1  0.049900  0.697600  0.574900  1
  C  C1024  1  0.450100  0.802400  0.074900  1
  C  C1025  1  0.005900  0.291700  0.402200  1
  C  C1026  1  0.494100  0.208300  0.902200  1
  C  C1027  1  0.994100  0.708300  0.597800  1
  C  C1028  1  0.505900  0.791700  0.097800  1
  C  C1029  1  0.008200  0.301700  0.363500  1
  C  C1030  1  0.491800  0.198300  0.863500  1
  C  C1031  1  0.991800  0.698300  0.636500  1
  C  C1032  1  0.508200  0.801700  0.136500  1
  C  C1033  1  0.957600  0.318200  0.341600  1
  C  C1034  1  0.542400  0.181800  0.841600  1
  C  C1035  1  0.042400  0.681800  0.658400  1
  C  C1036  1  0.457600  0.818200  0.158400  1
  C  C1037  1  0.959700  0.325600  0.299700  1
  C  C1038  1  0.540300  0.174400  0.799700  1
  C  C1039  1  0.040300  0.674400  0.700300  1
  C  C1040  1  0.459700  0.825600  0.200300  1
  C  C1041  1  0.909400  0.341400  0.278800  1
  C  C1042  1  0.590600  0.158600  0.778800  1
  C  C1043  1  0.090600  0.658600  0.721200  1
  C  C1044  1  0.409400  0.841400  0.221200  1
  C  C1045  1  0.398100  0.116000  0.316600  1
  C  C1046  1  0.101900  0.384000  0.816600  1
  C  C1047  1  0.601900  0.884000  0.683400  1
  C  C1048  1  0.898100  0.616000  0.183400  1
  C  C1049  1  0.402900  0.125200  0.357600  1
  C  C1050  1  0.097100  0.374800  0.857600  1
  C  C1051  1  0.597100  0.874800  0.642400  1
  C  C1052  1  0.902900  0.625200  0.142400  1
  C  C1053  1  0.449300  0.156900  0.372000  1
  C  C1054  1  0.050700  0.343100  0.872000  1
  C  C1055  1  0.550700  0.843100  0.628000  1
  C  C1056  1  0.949300  0.656900  0.128000  1
  C  C1057  1  0.490800  0.179200  0.345300  1
  C  C1058  1  0.009200  0.320800  0.845300  1
  C  C1059  1  0.509200  0.820800  0.654700  1
  C  C1060  1  0.990800  0.679200  0.154700  1
  C  C1061  1  0.486000  0.170000  0.304200  1
  C  C1062  1  0.014000  0.330000  0.804200  1
  C  C1063  1  0.514000  0.830000  0.695800  1
  C  C1064  1  0.986000  0.670000  0.195800  1
  C  C1065  1  0.614200  0.150000  0.367200  1
  C  C1066  1  0.885800  0.350000  0.867200  1
  C  C1067  1  0.385800  0.850000  0.632800  1
  C  C1068  1  0.114200  0.650000  0.132800  1
  C  C1069  1  0.670800  0.135400  0.375900  1
  C  C1070  1  0.829200  0.364600  0.875900  1
  C  C1071  1  0.329200  0.864600  0.624100  1
  C  C1072  1  0.170800  0.635400  0.124100  1
  C  C1073  1  0.717800  0.171100  0.385800  1
  C  C1074  1  0.782200  0.328900  0.885800  1
  C  C1075  1  0.282200  0.828900  0.614200  1
  C  C1076  1  0.217800  0.671100  0.114200  1
  C  C1077  1  0.708600  0.217600  0.386000  1
  C  C1078  1  0.791400  0.282400  0.886000  1
  C  C1079  1  0.291400  0.782400  0.614000  1
  C  C1080  1  0.208600  0.717600  0.114000  1
  C  C1081  1  0.648800  0.234000  0.375500  1
  C  C1082  1  0.851200  0.266000  0.875500  1
  C  C1083  1  0.351200  0.766000  0.624500  1
  C  C1084  1  0.148800  0.734000  0.124500  1
  C  C1085  1  0.637900  0.283600  0.372900  1
  C  C1086  1  0.862100  0.216400  0.872900  1
  C  C1087  1  0.362100  0.716400  0.627100  1
  C  C1088  1  0.137900  0.783600  0.127100  1
  C  C1089  1  0.580100  0.299400  0.360600  1
  C  C1090  1  0.919900  0.200600  0.860600  1
  C  C1091  1  0.419900  0.700600  0.639400  1
  C  C1092  1  0.080100  0.799400  0.139400  1
  C  C1093  1  0.567000  0.346000  0.354200  1
  C  C1094  1  0.933000  0.154000  0.854200  1
  C  C1095  1  0.433000  0.654000  0.645800  1
  C  C1096  1  0.067000  0.846000  0.145800  1
  C  C1097  1  0.509800  0.359300  0.343300  1
  C  C1098  1  0.990200  0.140700  0.843300  1
  C  C1099  1  0.490200  0.640700  0.656700  1
  C  C1100  1  0.009800  0.859300  0.156700  1
  C  C1101  1  0.461600  0.324600  0.337000  1
  C  C1102  1  0.038400  0.175400  0.837000  1
  C  C1103  1  0.538400  0.675400  0.663000  1
  C  C1104  1  0.961600  0.824600  0.163000  1
  C  C1105  1  0.470700  0.281200  0.341900  1
  C  C1106  1  0.029300  0.218800  0.841900  1
  C  C1107  1  0.529300  0.718800  0.658100  1
  C  C1108  1  0.970700  0.781200  0.158100  1
  C  C1109  1  0.530700  0.263900  0.353100  1
  C  C1110  1  0.969300  0.236100  0.853100  1
  C  C1111  1  0.469300  0.736100  0.646900  1
  C  C1112  1  0.030700  0.763900  0.146900  1
  C  C1113  1  0.540800  0.216700  0.358000  1
  C  C1114  1  0.959200  0.283300  0.858000  1
  C  C1115  1  0.459200  0.783300  0.642000  1
  C  C1116  1  0.040800  0.716700  0.142000  1
  C  C1117  1  0.600800  0.199000  0.367200  1
  C  C1118  1  0.899200  0.301000  0.867200  1
  C  C1119  1  0.399200  0.801000  0.632800  1
  C  C1120  1  0.100800  0.699000  0.132800  1
  C  C1121  1  0.791600  0.353800  0.365000  1
  C  C1122  1  0.708400  0.146200  0.865000  1
  C  C1123  1  0.208400  0.646200  0.635000  1
  C  C1124  1  0.291600  0.853800  0.135000  1
  C  C1125  1  0.741800  0.320500  0.357400  1
  C  C1126  1  0.758200  0.179500  0.857400  1
  C  C1127  1  0.258200  0.679500  0.642600  1
  C  C1128  1  0.241800  0.820500  0.142600  1
  C  C1129  1  0.689500  0.319300  0.380300  1
  C  C1130  1  0.810500  0.180700  0.880300  1
  C  C1131  1  0.310500  0.680700  0.619700  1
  C  C1132  1  0.189500  0.819300  0.119700  1
  C  C1133  1  0.684700  0.352900  0.412400  1
  C  C1134  1  0.815300  0.147100  0.912400  1
  C  C1135  1  0.315300  0.647100  0.587600  1
  C  C1136  1  0.184700  0.852900  0.087600  1
  C  C1137  1  0.733200  0.387300  0.418500  1
  C  C1138  1  0.766800  0.112700  0.918500  1
  C  C1139  1  0.266800  0.612700  0.581500  1
  C  C1140  1  0.233200  0.887300  0.081500  1
  C  C1141  1  0.784600  0.388400  0.394400  1
  C  C1142  1  0.715400  0.111600  0.894400  1
  C  C1143  1  0.215400  0.611600  0.605600  1
  C  C1144  1  0.284600  0.888400  0.105600  1
  C  C1145  1  0.127100  0.193800  0.320900  1
  C  C1146  1  0.372900  0.306200  0.820900  1
  C  C1147  1  0.872900  0.806200  0.679100  1
  C  C1148  1  0.627100  0.693800  0.179100  1
  C  C1149  1  0.124600  0.185600  0.362200  1
  C  C1150  1  0.375400  0.314400  0.862200  1
  C  C1151  1  0.875400  0.814400  0.637800  1
  C  C1152  1  0.624600  0.685600  0.137800  1
  C  C1153  1  0.079600  0.153700  0.378000  1
  C  C1154  1  0.420400  0.346300  0.878000  1
  C  C1155  1  0.920400  0.846300  0.622000  1
  C  C1156  1  0.579600  0.653700  0.122000  1
  C  C1157  1  0.037300  0.130100  0.352600  1
  C  C1158  1  0.462700  0.369900  0.852600  1
  C  C1159  1  0.962700  0.869900  0.647400  1
  C  C1160  1  0.537300  0.630100  0.147400  1
  C  C1161  1  0.039800  0.138400  0.311300  1
  C  C1162  1  0.460200  0.361600  0.811300  1
  C  C1163  1  0.960200  0.861600  0.688700  1
  C  C1164  1  0.539800  0.638400  0.188700  1
  C  C1165  1  0.940900  0.159300  0.406100  1
  C  C1166  1  0.559100  0.340700  0.906100  1
  C  C1167  1  0.059100  0.840700  0.593900  1
  C  C1168  1  0.440900  0.659300  0.093900  1
  C  C1169  1  0.895400  0.173400  0.434400  1
  C  C1170  1  0.604600  0.326600  0.934400  1
  C  C1171  1  0.104600  0.826600  0.565600  1
  C  C1172  1  0.395400  0.673400  0.065600  1
  C  C1173  1  0.851200  0.142000  0.447400  1
  C  C1174  1  0.648800  0.358000  0.947400  1
  C  C1175  1  0.148800  0.858000  0.552600  1
  C  C1176  1  0.351200  0.642000  0.052600  1
  C  C1177  1  0.849600  0.093700  0.436000  1
  C  C1178  1  0.650400  0.406300  0.936000  1
  C  C1179  1  0.150400  0.906300  0.564000  1
  C  C1180  1  0.349600  0.593700  0.064000  1
  C  C1181  1  0.893700  0.079100  0.406100  1
  C  C1182  1  0.606300  0.420900  0.906100  1
  C  C1183  1  0.106300  0.920900  0.593900  1
  C  C1184  1  0.393700  0.579100  0.093900  1
  C  C1185  1  0.890200  0.032600  0.393100  1
  C  C1186  1  0.609800  0.467400  0.893100  1
  C  C1187  1  0.109800  0.967400  0.606900  1
  C  C1188  1  0.390200  0.532600  0.106900  1
  C  C1189  1  0.939500  0.015700  0.366700  1
  C  C1190  1  0.560500  0.484300  0.866700  1
  C  C1191  1  0.060500  0.984300  0.633300  1
  C  C1192  1  0.439500  0.515700  0.133300  1
  C  C1193  1  0.936600  0.966500  0.352500  1
  C  C1194  1  0.563400  0.533500  0.852500  1
  C  C1195  1  0.063400  0.033500  0.647500  1
  C  C1196  1  0.436600  0.466500  0.147500  1
  C  C1197  1  0.983600  0.952400  0.326600  1
  C  C1198  1  0.516400  0.547600  0.826600  1
  C  C1199  1  0.016400  0.047600  0.673400  1
  C  C1200  1  0.483600  0.452400  0.173400  1
  C  C1201  1  0.029700  0.982200  0.315400  1
  C  C1202  1  0.470300  0.517800  0.815400  1
  C  C1203  1  0.970300  0.017800  0.684600  1
  C  C1204  1  0.529700  0.482200  0.184600  1
  C  C1205  1  0.034000  0.031500  0.328300  1
  C  C1206  1  0.466000  0.468500  0.828300  1
  C  C1207  1  0.966000  0.968500  0.671700  1
  C  C1208  1  0.534000  0.531500  0.171700  1
  C  C1209  1  0.987600  0.047400  0.354600  1
  C  C1210  1  0.512400  0.452600  0.854600  1
  C  C1211  1  0.012400  0.952600  0.645400  1
  C  C1212  1  0.487600  0.547400  0.145400  1
  C  C1213  1  0.987500  0.095900  0.368200  1
  C  C1214  1  0.512500  0.404100  0.868200  1
  C  C1215  1  0.012500  0.904100  0.631800  1
  C  C1216  1  0.487500  0.595900  0.131800  1
  C  C1217  1  0.941100  0.113800  0.393700  1
  C  C1218  1  0.558900  0.386200  0.893700  1
  C  C1219  1  0.058900  0.886200  0.606300  1
  C  C1220  1  0.441100  0.613800  0.106300  1
  C  C1221  1  0.415900  0.020200  0.233500  1
  C  C1222  1  0.084100  0.479800  0.733500  1
  C  C1223  1  0.584100  0.979800  0.766500  1
  C  C1224  1  0.915900  0.520200  0.266500  1
  C  C1225  1  0.426300  0.974200  0.246700  1
  C  C1226  1  0.073700  0.525800  0.746700  1
  C  C1227  1  0.573700  0.025800  0.753300  1
  C  C1228  1  0.926300  0.474200  0.253300  1
  C  C1229  1  0.477300  0.966100  0.270600  1
  C  C1230  1  0.022700  0.533900  0.770600  1
  C  C1231  1  0.522700  0.033900  0.729400  1
  C  C1232  1  0.977300  0.466100  0.229400  1
  C  C1233  1  0.517900  0.004100  0.281300  1
  C  C1234  1  0.982100  0.495900  0.781300  1
  C  C1235  1  0.482100  0.995900  0.718700  1
  C  C1236  1  0.017900  0.504100  0.218700  1
  C  C1237  1  0.507500  0.050100  0.268000  1
  C  C1238  1  0.992500  0.449900  0.768000  1
  C  C1239  1  0.492500  0.949900  0.732000  1
  C  C1240  1  0.007500  0.550100  0.232000  1
  C  C1241  1  0.629900  0.969600  0.250000  1
  C  C1242  1  0.870100  0.530400  0.750000  1
  C  C1243  1  0.370100  0.030400  0.750000  1
  C  C1244  1  0.129900  0.469600  0.250000  1
  C  C1245  1  0.684800  0.949400  0.234800  1
  C  C1246  1  0.815200  0.550600  0.734800  1
  C  C1247  1  0.315200  0.050600  0.765200  1
  C  C1248  1  0.184800  0.449400  0.265200  1
  C  C1249  1  0.733500  0.935700  0.262400  1
  C  C1250  1  0.766500  0.564300  0.762400  1
  C  C1251  1  0.266500  0.064300  0.737600  1
  C  C1252  1  0.233500  0.435700  0.237600  1
  C  C1253  1  0.729600  0.947500  0.301800  1
  C  C1254  1  0.770400  0.552500  0.801800  1
  C  C1255  1  0.270400  0.052500  0.698200  1
  C  C1256  1  0.229600  0.447500  0.198200  1
  C  C1257  1  0.677500  0.969700  0.318400  1
  C  C1258  1  0.822500  0.530300  0.818400  1
  C  C1259  1  0.322500  0.030300  0.681600  1
  C  C1260  1  0.177500  0.469700  0.181600  1
  C  C1261  1  0.673500  0.981900  0.359300  1
  C  C1262  1  0.826500  0.518100  0.859300  1
  C  C1263  1  0.326500  0.018100  0.640700  1
  C  C1264  1  0.173500  0.481900  0.140700  1
  C  C1265  1  0.621800  0.001600  0.374100  1
  C  C1266  1  0.878200  0.498400  0.874100  1
  C  C1267  1  0.378200  0.998400  0.625900  1
  C  C1268  1  0.121800  0.501600  0.125900  1
  C  C1269  1  0.619300  0.017400  0.416100  1
  C  C1270  1  0.880700  0.482600  0.916100  1
  C  C1271  1  0.380700  0.982600  0.583900  1
  C  C1272  1  0.119300  0.517400  0.083900  1
  C  C1273  1  0.567800  0.039300  0.429900  1
  C  C1274  1  0.932200  0.460700  0.929900  1
  C  C1275  1  0.432200  0.960700  0.570100  1
  C  C1276  1  0.067800  0.539300  0.070100  1
  C  C1277  1  0.518200  0.048400  0.405100  1
  C  C1278  1  0.981800  0.451600  0.905100  1
  C  C1279  1  0.481800  0.951600  0.594900  1
  C  C1280  1  0.018200  0.548400  0.094900  1
  C  C1281  1  0.519500  0.031700  0.365200  1
  C  C1282  1  0.980500  0.468300  0.865200  1
  C  C1283  1  0.480500  0.968300  0.634800  1
  C  C1284  1  0.019500  0.531700  0.134800  1
  C  C1285  1  0.571600  0.009700  0.349100  1
  C  C1286  1  0.928400  0.490300  0.849100  1
  C  C1287  1  0.428400  0.990300  0.650900  1
  C  C1288  1  0.071600  0.509700  0.150900  1
  C  C1289  1  0.573200  0.999200  0.307600  1
  C  C1290  1  0.926800  0.500800  0.807600  1
  C  C1291  1  0.426800  0.000800  0.692400  1
  C  C1292  1  0.073200  0.499200  0.192400  1
  C  C1293  1  0.626800  0.978100  0.291400  1
  C  C1294  1  0.873200  0.521900  0.791400  1
  C  C1295  1  0.373200  0.021900  0.708600  1
  C  C1296  1  0.126800  0.478100  0.208600  1
  C  C1297  1  0.835800  0.999400  0.401500  1
  C  C1298  1  0.664200  0.500600  0.901500  1
  C  C1299  1  0.164200  0.000600  0.598500  1
  C  C1300  1  0.335800  0.499400  0.098500  1
  C  C1301  1  0.782200  0.004500  0.381600  1
  C  C1302  1  0.717800  0.495500  0.881600  1
  C  C1303  1  0.217800  0.995500  0.618400  1
  C  C1304  1  0.282200  0.504500  0.118400  1
  C  C1305  1  0.729000  0.974200  0.385100  1
  C  C1306  1  0.771000  0.525800  0.885100  1
  C  C1307  1  0.271000  0.025800  0.614900  1
  C  C1308  1  0.229000  0.474200  0.114900  1
  C  C1309  1  0.730700  0.936300  0.411900  1
  C  C1310  1  0.769300  0.563700  0.911900  1
  C  C1311  1  0.269300  0.063700  0.588100  1
  C  C1312  1  0.230700  0.436300  0.088100  1
  C  C1313  1  0.783300  0.928900  0.433300  1
  C  C1314  1  0.716700  0.571100  0.933300  1
  C  C1315  1  0.216700  0.071100  0.566700  1
  C  C1316  1  0.283300  0.428900  0.066700  1
  C  C1317  1  0.838100  0.958800  0.427400  1
  C  C1318  1  0.661900  0.541200  0.927400  1
  C  C1319  1  0.161900  0.041200  0.572600  1
  C  C1320  1  0.338100  0.458800  0.072600  1
  C  C1321  1  0.129900  0.085100  0.238600  1
  C  C1322  1  0.370100  0.414900  0.738600  1
  C  C1323  1  0.870100  0.914900  0.761400  1
  C  C1324  1  0.629900  0.585100  0.261400  1
  C  C1325  1  0.131000  0.037100  0.227800  1
  C  C1326  1  0.369000  0.462900  0.727800  1
  C  C1327  1  0.869000  0.962900  0.772200  1
  C  C1328  1  0.631000  0.537100  0.272200  1
  C  C1329  1  0.085200  0.016700  0.203100  1
  C  C1330  1  0.414800  0.483300  0.703100  1
  C  C1331  1  0.914800  0.983300  0.796900  1
  C  C1332  1  0.585200  0.516700  0.296900  1
  C  C1333  1  0.038200  0.044300  0.189100  1
  C  C1334  1  0.461800  0.455700  0.689100  1
  C  C1335  1  0.961800  0.955700  0.810900  1
  C  C1336  1  0.538200  0.544300  0.310900  1
  C  C1337  1  0.037100  0.092200  0.199800  1
  C  C1338  1  0.462900  0.407800  0.699800  1
  C  C1339  1  0.962900  0.907800  0.800200  1
  C  C1340  1  0.537100  0.592200  0.300200  1
  C  C1341  1  0.947400  0.968900  0.216000  1
  C  C1342  1  0.552600  0.531100  0.716000  1
  C  C1343  1  0.052600  0.031100  0.784000  1
  C  C1344  1  0.447400  0.468900  0.284000  1
  C  C1345  1  0.910800  0.932900  0.227900  1
  C  C1346  1  0.589200  0.567100  0.727900  1
  C  C1347  1  0.089200  0.067100  0.772100  1
  C  C1348  1  0.410800  0.432900  0.272100  1
  C  C1349  1  0.860300  0.913400  0.199700  1
  C  C1350  1  0.639700  0.586600  0.699700  1
  C  C1351  1  0.139700  0.086600  0.800300  1
  C  C1352  1  0.360300  0.413400  0.300300  1
  C  C1353  1  0.855200  0.933600  0.162900  1
  C  C1354  1  0.644800  0.566400  0.662900  1
  C  C1355  1  0.144800  0.066400  0.837100  1
  C  C1356  1  0.355200  0.433600  0.337100  1
  C  C1357  1  0.896300  0.971800  0.149700  1
  C  C1358  1  0.603700  0.528200  0.649700  1
  C  C1359  1  0.103700  0.028200  0.850300  1
  C  C1360  1  0.396300  0.471800  0.350300  1
  C  C1361  1  0.889500  0.991700  0.111600  1
  C  C1362  1  0.610500  0.508300  0.611600  1
  C  C1363  1  0.110500  0.008300  0.888400  1
  C  C1364  1  0.389500  0.491700  0.388400  1
  C  C1365  1  0.930100  0.027200  0.099300  1
  C  C1366  1  0.569900  0.472800  0.599300  1
  C  C1367  1  0.069900  0.972800  0.900700  1
  C  C1368  1  0.430100  0.527200  0.400700  1
  C  C1369  1  0.924600  0.051700  0.060400  1
  C  C1370  1  0.575400  0.448300  0.560400  1
  C  C1371  1  0.075400  0.948300  0.939600  1
  C  C1372  1  0.424600  0.551700  0.439600  1
  C  C1373  1  0.962900  0.086200  0.047400  1
  C  C1374  1  0.537100  0.413800  0.547400  1
  C  C1375  1  0.037100  0.913800  0.952600  1
  C  C1376  1  0.462900  0.586200  0.452600  1
  C  C1377  1  0.015500  0.101600  0.071000  1
  C  C1378  1  0.484500  0.398400  0.571000  1
  C  C1379  1  0.984500  0.898400  0.929000  1
  C  C1380  1  0.515500  0.601600  0.429000  1
  C  C1381  1  0.021700  0.082100  0.108300  1
  C  C1382  1  0.478300  0.417900  0.608300  1
  C  C1383  1  0.978300  0.917900  0.891700  1
  C  C1384  1  0.521700  0.582100  0.391700  1
  C  C1385  1  0.981900  0.045100  0.123600  1
  C  C1386  1  0.518100  0.454900  0.623600  1
  C  C1387  1  0.018100  0.954900  0.876400  1
  C  C1388  1  0.481900  0.545100  0.376400  1
  C  C1389  1  0.987800  0.026500  0.162400  1
  C  C1390  1  0.512200  0.473500  0.662400  1
  C  C1391  1  0.012200  0.973500  0.837600  1
  C  C1392  1  0.487800  0.526500  0.337600  1
  C  C1393  1  0.945600  0.988800  0.175800  1
  C  C1394  1  0.554400  0.511200  0.675800  1
  C  C1395  1  0.054400  0.011200  0.824200  1
  C  C1396  1  0.445600  0.488800  0.324200  1
  C  C1397  1  0.405200  0.129700  0.144600  1
  C  C1398  1  0.094800  0.370300  0.644600  1
  C  C1399  1  0.594800  0.870300  0.855400  1
  C  C1400  1  0.905200  0.629700  0.355400  1
  C  C1401  1  0.412200  0.120900  0.103700  1
  C  C1402  1  0.087800  0.379100  0.603700  1
  C  C1403  1  0.587800  0.879100  0.896300  1
  C  C1404  1  0.912200  0.620900  0.396300  1
  C  C1405  1  0.463200  0.097500  0.090060  1
  C  C1406  1  0.036800  0.402500  0.590060  1
  C  C1407  1  0.536800  0.902500  0.909940  1
  C  C1408  1  0.963200  0.597500  0.409940  1
  C  C1409  1  0.507100  0.083000  0.117300  1
  C  C1410  1  0.992900  0.417000  0.617300  1
  C  C1411  1  0.492900  0.917000  0.882700  1
  C  C1412  1  0.007100  0.583000  0.382700  1
  C  C1413  1  0.500000  0.091800  0.158200  1
  C  C1414  1  1.000000  0.408200  0.658200  1
  C  C1415  1  0.500000  0.908200  0.841800  1
  C  C1416  1  1.000000  0.591800  0.341800  1
  C  C1417  1  0.598100  0.127600  0.061300  1
  C  C1418  1  0.901900  0.372400  0.561300  1
  C  C1419  1  0.401900  0.872400  0.938700  1
  C  C1420  1  0.098100  0.627600  0.438700  1
  C  C1421  1  0.637000  0.145300  0.033600  1
  C  C1422  1  0.863000  0.354700  0.533600  1
  C  C1423  1  0.363000  0.854700  0.966400  1
  C  C1424  1  0.137000  0.645300  0.466400  1
  C  C1425  1  0.686400  0.119900  0.018600  1
  C  C1426  1  0.813600  0.380100  0.518600  1
  C  C1427  1  0.313600  0.880100  0.981400  1
  C  C1428  1  0.186400  0.619900  0.481400  1
  C  C1429  1  0.696600  0.074600  0.034200  1
  C  C1430  1  0.803400  0.425400  0.534200  1
  C  C1431  1  0.303400  0.925400  0.965800  1
  C  C1432  1  0.196600  0.574600  0.465800  1
  C  C1433  1  0.656800  0.053900  0.064600  1
  C  C1434  1  0.843200  0.446100  0.564600  1
  C  C1435  1  0.343200  0.946100  0.935400  1
  C  C1436  1  0.156800  0.553900  0.435400  1
  C  C1437  1  0.669000  0.008700  0.080500  1
  C  C1438  1  0.831000  0.491300  0.580500  1
  C  C1439  1  0.331000  0.991300  0.919500  1
  C  C1440  1  0.169000  0.508700  0.419500  1
  C  C1441  1  0.625900  0.988400  0.107500  1
  C  C1442  1  0.874100  0.511600  0.607500  1
  C  C1443  1  0.374100  0.011600  0.892500  1
  C  C1444  1  0.125900  0.488400  0.392500  1
  C  C1445  1  0.636600  0.939400  0.124000  1
  C  C1446  1  0.863400  0.560600  0.624000  1
  C  C1447  1  0.363400  0.060600  0.876000  1
  C  C1448  1  0.136600  0.439400  0.376000  1
  C  C1449  1  0.591800  0.917400  0.148900  1
  C  C1450  1  0.908200  0.582600  0.648900  1
  C  C1451  1  0.408200  0.082600  0.851100  1
  C  C1452  1  0.091800  0.417400  0.351100  1
  C  C1453  1  0.537200  0.941800  0.158600  1
  C  C1454  1  0.962800  0.558200  0.658600  1
  C  C1455  1  0.462800  0.058200  0.841400  1
  C  C1456  1  0.037200  0.441800  0.341400  1
  C  C1457  1  0.528300  0.985300  0.144200  1
  C  C1458  1  0.971700  0.514700  0.644200  1
  C  C1459  1  0.471700  0.014700  0.855800  1
  C  C1460  1  0.028300  0.485300  0.355800  1
  C  C1461  1  0.571900  0.010700  0.119100  1
  C  C1462  1  0.928100  0.489300  0.619100  1
  C  C1463  1  0.428100  0.989300  0.880900  1
  C  C1464  1  0.071900  0.510700  0.380900  1
  C  C1465  1  0.561400  0.058600  0.103700  1
  C  C1466  1  0.938600  0.441400  0.603700  1
  C  C1467  1  0.438600  0.941400  0.896300  1
  C  C1468  1  0.061400  0.558600  0.396300  1
  C  C1469  1  0.604700  0.080000  0.077000  1
  C  C1470  1  0.895300  0.420000  0.577000  1
  C  C1471  1  0.395300  0.920000  0.923000  1
  C  C1472  1  0.104700  0.580000  0.423000  1
  C  C1473  1  0.836300  0.941100  0.057000  1
  C  C1474  1  0.663700  0.558900  0.557000  1
  C  C1475  1  0.163700  0.058900  0.943000  1
  C  C1476  1  0.336300  0.441100  0.443000  1
  C  C1477  1  0.834400  0.976300  0.086600  1
  C  C1478  1  0.665600  0.523700  0.586600  1
  C  C1479  1  0.165600  0.023700  0.913400  1
  C  C1480  1  0.334400  0.476300  0.413400  1
  C  C1481  1  0.780400  0.999600  0.091600  1
  C  C1482  1  0.719600  0.500400  0.591600  1
  C  C1483  1  0.219600  0.000400  0.908400  1
  C  C1484  1  0.280400  0.499600  0.408400  1
  C  C1485  1  0.726200  0.984100  0.071800  1
  C  C1486  1  0.773800  0.515900  0.571800  1
  C  C1487  1  0.273800  0.015900  0.928200  1
  C  C1488  1  0.226200  0.484100  0.428200  1
  C  C1489  1  0.728400  0.946600  0.043300  1
  C  C1490  1  0.771600  0.553400  0.543300  1
  C  C1491  1  0.271600  0.053400  0.956700  1
  C  C1492  1  0.228400  0.446600  0.456700  1
  C  C1493  1  0.782800  0.925500  0.035800  1
  C  C1494  1  0.717200  0.574500  0.535800  1
  C  C1495  1  0.217200  0.074500  0.964200  1
  C  C1496  1  0.282800  0.425500  0.464200  1
  C  C1497  1  0.599500  0.428800  0.084900  1
  C  C1498  1  0.900500  0.071200  0.584900  1
  C  C1499  1  0.400500  0.571200  0.915100  1
  C  C1500  1  0.099500  0.928800  0.415100  1
  C  C1501  1  0.636900  0.470000  0.104500  1
  C  C1502  1  0.863100  0.030000  0.604500  1
  C  C1503  1  0.363100  0.530000  0.895500  1
  C  C1504  1  0.136900  0.970000  0.395500  1
  C  C1505  1  0.675700  0.549700  0.097700  1
  C  C1506  1  0.824300  0.950300  0.597700  1
  C  C1507  1  0.324300  0.450300  0.902300  1
  C  C1508  1  0.175700  0.049700  0.402300  1
  C  C1509  1  0.739600  0.468600  0.020000  1
  C  C1510  1  0.760400  0.031400  0.520000  1
  C  C1511  1  0.260400  0.531400  0.980000  1
  C  C1512  1  0.239600  0.968600  0.480000  1
  C  C1513  1  0.797700  0.488700  0.040700  1
  C  C1514  1  0.702300  0.011300  0.540700  1
  C  C1515  1  0.202300  0.511300  0.959300  1
  C  C1516  1  0.297700  0.988700  0.459300  1
  C  C1517  1  0.904500  0.506100  0.034600  1
  C  C1518  1  0.595500  0.993900  0.534600  1
  C  C1519  1  0.095500  0.493900  0.965400  1
  C  C1520  1  0.404500  0.006100  0.465400  1
  C  C1521  1  0.847900  0.361900  0.993800  1
  C  C1522  1  0.652100  0.138100  0.493800  1
  C  C1523  1  0.152100  0.638100  0.006200  1
  C  C1524  1  0.347900  0.861900  0.506200  1
  C  C1525  1  0.907000  0.337300  0.983500  1
  C  C1526  1  0.593000  0.162700  0.483500  1
  C  C1527  1  0.093000  0.662700  0.016500  1
  C  C1528  1  0.407000  0.837300  0.516500  1
  C  C1529  1  0.984300  0.379500  0.021000  1
  C  C1530  1  0.515700  0.120500  0.521000  1
  C  C1531  1  0.015700  0.620500  0.979000  1
  C  C1532  1  0.484300  0.879500  0.479000  1
  C  C1533  1  0.859200  0.447800  0.371900  1
  C  C1534  1  0.640800  0.052200  0.871900  1
  C  C1535  1  0.140800  0.552200  0.628100  1
  C  C1536  1  0.359200  0.947800  0.128100  1
  C  C1537  1  0.872800  0.499400  0.385400  1
  C  C1538  1  0.627200  0.000600  0.885400  1
  C  C1539  1  0.127200  0.500600  0.614600  1
  C  C1540  1  0.372800  0.999400  0.114600  1
  C  C1541  1  0.879400  0.504000  0.456000  1
  C  C1542  1  0.620600  0.996000  0.956000  1
  C  C1543  1  0.120600  0.496000  0.544000  1
  C  C1544  1  0.379400  0.004000  0.044000  1
  C  C1545  1  0.714500  0.467300  0.437300  1
  C  C1546  1  0.785500  0.032700  0.937300  1
  C  C1547  1  0.285500  0.532700  0.562700  1
  C  C1548  1  0.214500  0.967300  0.062700  1
  C  C1549  1  0.647000  0.469500  0.425500  1
  C  C1550  1  0.853000  0.030500  0.925500  1
  C  C1551  1  0.353000  0.530500  0.574500  1
  C  C1552  1  0.147000  0.969500  0.074500  1
  C  C1553  1  0.544900  0.467500  0.449000  1
  C  C1554  1  0.955100  0.032500  0.949000  1
  C  C1555  1  0.455100  0.532500  0.551000  1
  C  C1556  1  0.044900  0.967500  0.051000  1
  C  C1557  1  0.642400  0.338700  0.477800  1
  C  C1558  1  0.857600  0.161300  0.977800  1
  C  C1559  1  0.357600  0.661300  0.522200  1
  C  C1560  1  0.142400  0.838700  0.022200  1
  C  C1561  1  0.669700  0.289700  0.481400  1
  C  C1562  1  0.830300  0.210300  0.981400  1
  C  C1563  1  0.330300  0.710300  0.518600  1
  C  C1564  1  0.169700  0.789700  0.018600  1
  C  C1565  1  0.762200  0.249400  0.485300  1
  C  C1566  1  0.737800  0.250600  0.985300  1
  C  C1567  1  0.237800  0.750600  0.514700  1
  C  C1568  1  0.262200  0.749400  0.014700  1
  C  C1569  1  0.897200  0.966600  0.487600  1
  C  C1570  1  0.602800  0.533400  0.987600  1
  C  C1571  1  0.102800  0.033400  0.512400  1
  C  C1572  1  0.397200  0.466600  0.012400  1
  C  C1573  1  0.949700  0.942600  0.508800  1
  C  C1574  1  0.550300  0.557400  0.008800  1
  C  C1575  1  0.050300  0.057400  0.491200  1
  C  C1576  1  0.449700  0.442600  0.991200  1
  C  C1577  1  0.935000  0.858600  0.510000  1
  C  C1578  1  0.565000  0.641400  0.010000  1
  C  C1579  1  0.065000  0.141400  0.490000  1
  C  C1580  1  0.435000  0.358600  0.990000  1
  C  C1581  1  0.794300  0.845600  0.443000  1
  C  C1582  1  0.705700  0.654400  0.943000  1
  C  C1583  1  0.205700  0.154400  0.557000  1
  C  C1584  1  0.294300  0.345600  0.057000  1
  C  C1585  1  0.862600  0.843000  0.432700  1
  C  C1586  1  0.637400  0.657000  0.932700  1
  C  C1587  1  0.137400  0.157000  0.567300  1
  C  C1588  1  0.362600  0.343000  0.067300  1
  C  C1589  1  0.816000  0.846000  0.368800  1
  C  C1590  1  0.684000  0.654000  0.868800  1
  C  C1591  1  0.184000  0.154000  0.631200  1
  C  C1592  1  0.316000  0.346000  0.131200  1
  C  C1593  1  0.687100  0.856700  0.405800  1
  C  C1594  1  0.812900  0.643300  0.905800  1
  C  C1595  1  0.312900  0.143300  0.594200  1
  C  C1596  1  0.187100  0.356700  0.094200  1
  C  C1597  1  0.689000  0.850200  0.360100  1
  C  C1598  1  0.811000  0.649800  0.860100  1
  C  C1599  1  0.311000  0.149800  0.639900  1
  C  C1600  1  0.189000  0.350200  0.139900  1
  C  C1601  1  0.752000  0.810000  0.315100  1
  C  C1602  1  0.748000  0.690000  0.815100  1
  C  C1603  1  0.248000  0.190000  0.684900  1
  C  C1604  1  0.252000  0.310000  0.184900  1
  C  C1605  1  0.890200  0.870300  0.066500  1
  C  C1606  1  0.609800  0.629700  0.566500  1
  C  C1607  1  0.109800  0.129700  0.933500  1
  C  C1608  1  0.390200  0.370300  0.433500  1
  C  C1609  1  0.947700  0.846600  0.052100  1
  C  C1610  1  0.552300  0.653400  0.552100  1
  C  C1611  1  0.052300  0.153400  0.947900  1
  C  C1612  1  0.447700  0.346600  0.447900  1
  C  C1613  1  0.992500  0.773500  0.038700  1
  C  C1614  1  0.507500  0.726500  0.538700  1
  C  C1615  1  0.007500  0.226500  0.961300  1
  C  C1616  1  0.492500  0.273500  0.461300  1
  C  C1617  1  0.822500  0.899700  0.973100  1
  C  C1618  1  0.677500  0.600300  0.473100  1
  C  C1619  1  0.177500  0.100300  0.026900  1
  C  C1620  1  0.322500  0.399700  0.526900  1
  C  C1621  1  0.780700  0.899100  0.936000  1
  C  C1622  1  0.719300  0.600900  0.436000  1
  C  C1623  1  0.219300  0.100900  0.064000  1
  C  C1624  1  0.280700  0.399100  0.564000  1
  C  C1625  1  0.778400  0.909200  0.865700  1
  C  C1626  1  0.721600  0.590800  0.365700  1
  C  C1627  1  0.221600  0.090800  0.134300  1
  C  C1628  1  0.278400  0.409200  0.634300  1
  C  C1629  1  0.656100  0.885900  0.019500  1
  C  C1630  1  0.843900  0.614100  0.519500  1
  C  C1631  1  0.343900  0.114100  0.980500  1
  C  C1632  1  0.156100  0.385900  0.480500  1
  C  C1633  1  0.589000  0.878300  0.033000  1
  C  C1634  1  0.911000  0.621700  0.533000  1
  C  C1635  1  0.411000  0.121700  0.967000  1
  C  C1636  1  0.089000  0.378300  0.467000  1
  C  C1637  1  0.501500  0.924300  0.025500  1
  C  C1638  1  0.998500  0.575700  0.525500  1
  C  C1639  1  0.498500  0.075700  0.974500  1
  C  C1640  1  0.001500  0.424300  0.474500  1
  C  C1641  1  0.804700  0.068200  0.202900  1
  C  C1642  1  0.695300  0.431800  0.702900  1
  C  C1643  1  0.195300  0.931800  0.797100  1
  C  C1644  1  0.304700  0.568200  0.297100  1
  C  C1645  1  0.714500  0.232800  0.195100  1
  C  C1646  1  0.785500  0.267200  0.695100  1
  C  C1647  1  0.285500  0.767200  0.804900  1
  C  C1648  1  0.214500  0.732800  0.304900  1
  C  C1649  1  0.708500  0.229200  0.273500  1
  C  C1650  1  0.791500  0.270800  0.773500  1
  C  C1651  1  0.291500  0.770800  0.726500  1
  C  C1652  1  0.208500  0.729200  0.226500  1
  C  C1653  1  0.709100  0.202300  0.234800  1
  C  C1654  1  0.790900  0.297700  0.734800  1
  C  C1655  1  0.290900  0.797700  0.765200  1
  C  C1656  1  0.209100  0.702300  0.265200  1
  C  C1657  1  0.650400  0.169700  0.232500  1
  C  C1658  1  0.849600  0.330300  0.732500  1
  C  C1659  1  0.349600  0.830300  0.767500  1
  C  C1660  1  0.150400  0.669700  0.267500  1
  C  C1661  1  0.872600  0.129600  0.244100  1
  C  C1662  1  0.627400  0.370400  0.744100  1
  C  C1663  1  0.127400  0.870400  0.755900  1
  C  C1664  1  0.372600  0.629600  0.255900  1
  C  C1665  1  0.813300  0.102300  0.239200  1
  C  C1666  1  0.686700  0.397700  0.739200  1
  C  C1667  1  0.186700  0.897700  0.760800  1
  C  C1668  1  0.313300  0.602300  0.260800  1
  C  C1669  1  0.806200  0.077600  0.284300  1
  C  C1670  1  0.693800  0.422400  0.784300  1
  C  C1671  1  0.193800  0.922400  0.715700  1
  C  C1672  1  0.306200  0.577600  0.215700  1
  N  N1673  1  0.074200  0.197200  0.177500  1
  N  N1674  1  0.425800  0.302800  0.677500  1
  N  N1675  1  0.925800  0.802800  0.822500  1
  N  N1676  1  0.574200  0.697200  0.322500  1
  N  N1677  1  0.433200  0.197300  0.221500  1
  N  N1678  1  0.066800  0.302700  0.721500  1
  N  N1679  1  0.566800  0.802700  0.778500  1
  N  N1680  1  0.933200  0.697300  0.278500  1
  N  N1681  1  0.077100  0.252700  0.248600  1
  N  N1682  1  0.422900  0.247300  0.748600  1
  N  N1683  1  0.922900  0.747300  0.751400  1
  N  N1684  1  0.577100  0.752700  0.251400  1
  N  N1685  1  0.439700  0.138400  0.289900  1
  N  N1686  1  0.060300  0.361600  0.789900  1
  N  N1687  1  0.560300  0.861600  0.710100  1
  N  N1688  1  0.939700  0.638400  0.210100  1
  N  N1689  1  0.084700  0.170200  0.295500  1
  N  N1690  1  0.415300  0.329800  0.795500  1
  N  N1691  1  0.915300  0.829800  0.704500  1
  N  N1692  1  0.584700  0.670200  0.204500  1
  N  N1693  1  0.456500  0.058100  0.244100  1
  N  N1694  1  0.043500  0.441900  0.744100  1
  N  N1695  1  0.543500  0.941900  0.755900  1
  N  N1696  1  0.956500  0.558100  0.255900  1
  N  N1697  1  0.083000  0.112600  0.224600  1
  N  N1698  1  0.417000  0.387400  0.724600  1
  N  N1699  1  0.917000  0.887400  0.775400  1
  N  N1700  1  0.583000  0.612600  0.275400  1
  N  N1701  1  0.449000  0.115100  0.171860  1
  N  N1702  1  0.051000  0.384900  0.671860  1
  N  N1703  1  0.551000  0.884900  0.828140  1
  N  N1704  1  0.949000  0.615100  0.328140  1
  N  N1705  1  0.764300  0.175000  0.234100  1
  N  N1706  1  0.735700  0.325000  0.734100  1
  N  N1707  1  0.235700  0.825000  0.765900  1
  N  N1708  1  0.264300  0.675000  0.265900  1
  N  N1709  1  0.755100  0.130200  0.234000  1
  N  N1710  1  0.744900  0.369800  0.734000  1
  N  N1711  1  0.244900  0.869800  0.766000  1
  N  N1712  1  0.255100  0.630200  0.266000  1
  N  N1713  1  0.601300  0.147300  0.232900  1
  N  N1714  1  0.898700  0.352700  0.732900  1
  N  N1715  1  0.398700  0.852700  0.767100  1
  N  N1716  1  0.101300  0.647300  0.267100  1
  N  N1717  1  0.923100  0.161600  0.237900  1
  N  N1718  1  0.576900  0.338400  0.737900  1
  N  N1719  1  0.076900  0.838400  0.762100  1
  N  N1720  1  0.423100  0.661600  0.262100  1
  N  N1721  1  0.799000  0.483900  0.168900  1
  N  N1722  1  0.701000  0.016100  0.668900  1
  N  N1723  1  0.201000  0.516100  0.831100  1
  N  N1724  1  0.299000  0.983900  0.331100  1
  Cl  Cl1725  1  0.300400  0.104400  0.224400  1
  Cl  Cl1726  1  0.199600  0.395600  0.724400  1
  Cl  Cl1727  1  0.699600  0.895600  0.775600  1
  Cl  Cl1728  1  0.800400  0.604400  0.275600  1
  O  O1729  1  0.636500  0.406100  0.055500  1
  O  O1730  1  0.863500  0.093900  0.555500  1
  O  O1731  1  0.363500  0.593900  0.944500  1
  O  O1732  1  0.136500  0.906100  0.444500  1
  O  O1733  1  0.639100  0.511000  0.080100  1
  O  O1734  1  0.860900  0.989000  0.580100  1
  O  O1735  1  0.360900  0.489000  0.919900  1
  O  O1736  1  0.139100  0.011000  0.419900  1
  O  O1737  1  0.743800  0.418200  0.013300  1
  O  O1738  1  0.756200  0.081800  0.513300  1
  O  O1739  1  0.256200  0.581800  0.986700  1
  O  O1740  1  0.243800  0.918200  0.486700  1
  O  O1741  1  0.849100  0.488900  0.014800  1
  O  O1742  1  0.650900  0.011100  0.514800  1
  O  O1743  1  0.150900  0.511100  0.985200  1
  O  O1744  1  0.349100  0.988900  0.485200  1
  O  O1745  1  0.847000  0.372900  0.035700  1
  O  O1746  1  0.653000  0.127100  0.535700  1
  O  O1747  1  0.153000  0.627100  0.964300  1
  O  O1748  1  0.347000  0.872900  0.464300  1
  O  O1749  1  0.958000  0.370200  0.982000  1
  O  O1750  1  0.542000  0.129800  0.482000  1
  O  O1751  1  0.042000  0.629800  0.018000  1
  O  O1752  1  0.458000  0.870200  0.518000  1
  O  O1753  1  0.831300  0.421000  0.404600  1
  O  O1754  1  0.668700  0.079000  0.904600  1
  O  O1755  1  0.168700  0.579000  0.595400  1
  O  O1756  1  0.331300  0.921000  0.095400  1
  O  O1757  1  0.912700  0.501300  0.418900  1
  O  O1758  1  0.587300  0.998700  0.918900  1
  O  O1759  1  0.087300  0.498700  0.581100  1
  O  O1760  1  0.412700  0.001300  0.081100  1
  O  O1761  1  0.727100  0.419500  0.449400  1
  O  O1762  1  0.772900  0.080500  0.949400  1
  O  O1763  1  0.272900  0.580500  0.550600  1
  O  O1764  1  0.227100  0.919500  0.050600  1
  O  O1765  1  0.608300  0.463300  0.459300  1
  O  O1766  1  0.891700  0.036700  0.959300  1
  O  O1767  1  0.391700  0.536700  0.540700  1
  O  O1768  1  0.108300  0.963300  0.040700  1
  O  O1769  1  0.633000  0.349600  0.436100  1
  O  O1770  1  0.867000  0.150400  0.936100  1
  O  O1771  1  0.367000  0.650400  0.563900  1
  O  O1772  1  0.133000  0.849600  0.063900  1
  O  O1773  1  0.734300  0.293400  0.476900  1
  O  O1774  1  0.765700  0.206600  0.976900  1
  O  O1775  1  0.265700  0.706600  0.523100  1
  O  O1776  1  0.234300  0.793400  0.023100  1
  O  O1777  1  0.892500  0.950000  0.446800  1
  O  O1778  1  0.607500  0.550000  0.946800  1
  O  O1779  1  0.107500  0.050000  0.553200  1
  O  O1780  1  0.392500  0.450000  0.053200  1
  O  O1781  1  0.962500  0.899300  0.489800  1
  O  O1782  1  0.537500  0.600700  0.989800  1
  O  O1783  1  0.037500  0.100700  0.510200  1
  O  O1784  1  0.462500  0.399300  0.010200  1
  O  O1785  1  0.783300  0.891500  0.460100  1
  O  O1786  1  0.716700  0.608500  0.960100  1
  O  O1787  1  0.216700  0.108500  0.539900  1
  O  O1788  1  0.283300  0.391500  0.039900  1
  O  O1789  1  0.872000  0.848000  0.391000  1
  O  O1790  1  0.628000  0.652000  0.891000  1
  O  O1791  1  0.128000  0.152000  0.609000  1
  O  O1792  1  0.372000  0.348000  0.109000  1
  O  O1793  1  0.679300  0.906100  0.415100  1
  O  O1794  1  0.820700  0.593900  0.915100  1
  O  O1795  1  0.320700  0.093900  0.584900  1
  O  O1796  1  0.179300  0.406100  0.084900  1
  O  O1797  1  0.713000  0.806300  0.349800  1
  O  O1798  1  0.787000  0.693700  0.849800  1
  O  O1799  1  0.287000  0.193700  0.650200  1
  O  O1800  1  0.213000  0.306300  0.150200  1
  O  O1801  1  0.889600  0.917900  0.050500  1
  O  O1802  1  0.610400  0.582100  0.550500  1
  O  O1803  1  0.110400  0.082100  0.949500  1
  O  O1804  1  0.389600  0.417900  0.449500  1
  O  O1805  1  0.938500  0.796400  0.051800  1
  O  O1806  1  0.561500  0.703600  0.551800  1
  O  O1807  1  0.061500  0.203600  0.948200  1
  O  O1808  1  0.438500  0.296400  0.448200  1
  O  O1809  1  0.785900  0.889200  0.008100  1
  O  O1810  1  0.714100  0.610800  0.508100  1
  O  O1811  1  0.214100  0.110800  0.991900  1
  O  O1812  1  0.285900  0.389200  0.491900  1
  O  O1813  1  0.816000  0.909200  0.901100  1
  O  O1814  1  0.684000  0.590800  0.401100  1
  O  O1815  1  0.184000  0.090800  0.098900  1
  O  O1816  1  0.316000  0.409200  0.598900  1
  O  O1817  1  0.674400  0.935800  0.022900  1
  O  O1818  1  0.825600  0.564200  0.522900  1
  O  O1819  1  0.325600  0.064200  0.977100  1
  O  O1820  1  0.174400  0.435800  0.477100  1
  O  O1821  1  0.549200  0.899900  0.006000  1
  O  O1822  1  0.950800  0.600100  0.506000  1
  O  O1823  1  0.450800  0.100100  0.994000  1
  O  O1824  1  0.049200  0.399900  0.494000  1
  O  O1825  1  0.271100  0.992800  0.223800  1
  O  O1826  1  0.228900  0.507200  0.723800  1
  O  O1827  1  0.728900  0.007200  0.776200  1
  O  O1828  1  0.771100  0.492800  0.276200  1
  O  O1829  1  0.224000  0.196800  0.228700  1
  O  O1830  1  0.276000  0.303200  0.728700  1
  O  O1831  1  0.776000  0.803200  0.771300  1
  O  O1832  1  0.724000  0.696800  0.271300  1
  O  O1833  1  0.186600  0.941500  0.176800  1
  O  O1834  1  0.313400  0.558500  0.676800  1
  O  O1835  1  0.813400  0.058500  0.823200  1
  O  O1836  1  0.686600  0.441500  0.323200  1
  O  O1837  1  0.255000  0.229000  0.028000  1
  O  O1838  1  0.245000  0.271000  0.528000  1
  O  O1839  1  0.745000  0.771000  0.972000  1
  O  O1840  1  0.755000  0.729000  0.472000  1
  O  O1841  1  0.828000  0.834400  0.537900  1
  O  O1842  1  0.672000  0.665600  0.037900  1
  O  O1843  1  0.172000  0.165600  0.462100  1
  O  O1844  1  0.328000  0.334400  0.962100  1
  O  O1845  1  0.236200  0.108500  0.313600  1
  O  O1846  1  0.263800  0.391500  0.813600  1
  O  O1847  1  0.763800  0.891500  0.686400  1
  O  O1848  1  0.736200  0.608500  0.186400  1
  O  O1849  1  0.165000  0.310500  0.331700  1
  O  O1850  1  0.335000  0.189500  0.831700  1
  O  O1851  1  0.835000  0.689500  0.668300  1
  O  O1852  1  0.665000  0.810500  0.168300  1
  O  O1853  1  0.312000  0.224800  0.328300  1
  O  O1854  1  0.188000  0.275200  0.828300  1
  O  O1855  1  0.688000  0.775200  0.671700  1
  O  O1856  1  0.812000  0.724800  0.171700  1
  O  O1857  1  0.752100  0.806200  0.216900  1
  O  O1858  1  0.747900  0.693800  0.716900  1
  O  O1859  1  0.247900  0.193800  0.783100  1
  O  O1860  1  0.252100  0.306200  0.283100  1
  O  O1861  1  0.794200  0.448400  0.144000  1
  O  O1862  1  0.705800  0.051600  0.644000  1
  O  O1863  1  0.205800  0.551600  0.856000  1
  O  O1864  1  0.294200  0.948400  0.356000  1
  O  O1865  1  0.850100  0.506100  0.157300  1
  O  O1866  1  0.649900  0.993900  0.657300  1
  O  O1867  1  0.149900  0.493900  0.842700  1
  O  O1868  1  0.350100  0.006100  0.342700  1
  O  O1869  1  0.758400  0.488200  0.197300  1
  O  O1870  1  0.741600  0.011800  0.697300  1
  O  O1871  1  0.241600  0.511800  0.802700  1
  O  O1872  1  0.258400  0.988200  0.302700  1
  O  O1873  1  0.819000  0.712000  0.396300  1
  O  O1874  1  0.681000  0.788000  0.896300  1
  O  O1875  1  0.181000  0.288000  0.603700  1
  O  O1876  1  0.319000  0.212000  0.103700  1
  O  O1877  1  0.374000  0.173000  0.470000  1
  O  O1878  1  0.126000  0.327000  0.970000  1
  O  O1879  1  0.626000  0.827000  0.530000  1
  O  O1880  1  0.874000  0.673000  0.030000  1
  O  O1881  1  0.329000  0.239000  0.405800  1
  O  O1882  1  0.171000  0.261000  0.905800  1
  O  O1883  1  0.671000  0.761000  0.594200  1
  O  O1884  1  0.829000  0.739000  0.094200  1
  O  O1885  1  0.842700  0.708500  0.452400  1
  O  O1886  1  0.657300  0.791500  0.952400  1
  O  O1887  1  0.157300  0.291500  0.547600  1
  O  O1888  1  0.342700  0.208500  0.047600  1
  O  O1889  1  0.228000  0.335000  0.373000  1
  O  O1890  1  0.272000  0.165000  0.873000  1
  O  O1891  1  0.772000  0.665000  0.627000  1
  O  O1892  1  0.728000  0.835000  0.127000  1
  O  O1893  1  0.086000  0.769500  0.033800  1
  O  O1894  1  0.414000  0.730500  0.533800  1
  O  O1895  1  0.914000  0.230500  0.966200  1
  O  O1896  1  0.586000  0.269500  0.466200  1
  O  O1897  1  0.832000  0.724800  0.353500  1
  O  O1898  1  0.668000  0.775200  0.853500  1
  O  O1899  1  0.168000  0.275200  0.646500  1
  O  O1900  1  0.332000  0.224800  0.146500  1
  O  O1901  1  0.226000  0.359000  0.333700  1
  O  O1902  1  0.274000  0.141000  0.833700  1
  O  O1903  1  0.774000  0.641000  0.666300  1
  O  O1904  1  0.726000  0.859000  0.166300  1
  O  O1905  1  0.569000  0.469900  0.070400  1
  O  O1906  1  0.931000  0.030100  0.570400  1
  O  O1907  1  0.431000  0.530100  0.929600  1
  O  O1908  1  0.069000  0.969900  0.429600  1
  O  O1909  1  0.528100  0.090400  0.259400  1
  O  O1910  1  0.971900  0.409600  0.759400  1
  O  O1911  1  0.471900  0.909600  0.740600  1
  O  O1912  1  0.028100  0.590400  0.240600  1
  O  O1913  1  0.657000  0.905700  0.458400  1
  O  O1914  1  0.843000  0.594300  0.958400  1
  O  O1915  1  0.343000  0.094300  0.541600  1
  O  O1916  1  0.157000  0.405700  0.041600  1
  O  O1917  1  0.938000  0.834200  0.015600  1
  O  O1918  1  0.562000  0.665800  0.515600  1
  O  O1919  1  0.062000  0.165800  0.984400  1
  O  O1920  1  0.438000  0.334200  0.484400  1
