
#######################################################################
#
#                 Cambridge Crystallographic Data Centre
#                                CCDC 
#
#######################################################################
#
# If this CIF has been generated from an entry in the Cambridge 
# Structural Database, then it will include bibliographic, chemical, 
# crystal, experimental, refinement or atomic coordinate data resulting 
# from the CCDC's data processing and validation procedures.
#
#######################################################################

data_HOMLOM
_chemical_formula_moiety         
'C212 H184 N8 O24 Pd2 4+,C8 H12 N4,Cl1 1-,N1 O3 1-,2(H1 O1 1-),12(H2 O1)'
_chemical_name_systematic        
"tetrakis(\m~2~-3,3'-((4,5,6-tris(2-Methoxyethoxy)-1,3-phenylene)dianthracene-10,9-diyl)dipyridine)-di-palladium(ii) 2,2'-diazene-1,2-diylbis(2-methylpropanenitrile) clathrate chloride nitrate dihydroxide dodecahydrate"
_symmetry_cell_setting           monoclinic
_symmetry_space_group_name_H-M   'P 21/n'
_symmetry_Int_Tables_number      14
_space_group_name_Hall           '-P 2yn'
loop_
_symmetry_equiv_pos_site_id
_symmetry_equiv_pos_as_xyz
1 x,y,z
2 1/2-x,1/2+y,1/2-z
3 -x,-y,-z
4 1/2+x,1/2-y,1/2+z
_cell_length_a                   21.7143(6)
_cell_length_b                   33.1996(12)
_cell_length_c                   27.9906(10)
_cell_angle_alpha                90
_cell_angle_beta                 92.991(2)
_cell_angle_gamma                90
_cell_volume                     20151.1
_exptl_crystal_colour            'pale yellow'
_exptl_crystal_description       block
_cell_formula_units_Z            4
loop_
_atom_site_label
_atom_site_type_symbol
_atom_site_fract_x
_atom_site_fract_y
_atom_site_fract_z
Pd1 Pd 0.55837(4) 0.76859(3) 0.87334(4)
Pd2 Pd -0.08319(5) 0.76339(4) 0.81707(5)
N1 N -0.0742(4) 0.8225(2) 0.8028(4)
C1 C -0.1210(4) 0.8506(3) 0.8073(4)
H1 H -0.1580 0.8430 0.8215
C2 C -0.1136(5) 0.8897(3) 0.7909(5)
H2 H -0.1456 0.9089 0.7939
C3 C -0.0594(5) 0.9007(2) 0.7700(5)
H3 H -0.0543 0.9275 0.7588
C4 C -0.0126(4) 0.8726(3) 0.7656(4)
C5 C -0.0200(3) 0.8335(3) 0.7819(4)
H4 H 0.0120 0.8143 0.7789
C6 C -0.0122(8) 0.8668(5) 0.6626(6)
H5 H -0.0485 0.8611 0.6788
C7 C -0.0138(8) 0.8636(5) 0.6131(6)
H6 H -0.0509 0.8562 0.5959
C8 C 0.0399(9) 0.8714(6) 0.5889(7)
H7 H 0.0403 0.8680 0.5552
C9 C 0.0912(7) 0.8839(5) 0.6145(6)
H8 H 0.1264 0.8903 0.5971
C10 C 0.0967(7) 0.8881(4) 0.6642(5)
C11 C 0.1516(7) 0.8985(5) 0.6895(6)
C12 C 0.1549(7) 0.8990(5) 0.7415(6)
C13 C 0.2085(7) 0.9093(5) 0.7689(6)
H9 H 0.2446 0.9164 0.7530
C14 C 0.2106(9) 0.9095(6) 0.8157(7)
H10 H 0.2487 0.9142 0.8331
C15 C 0.1563(8) 0.9028(6) 0.8409(6)
H11 H 0.1571 0.9050 0.8748
C16 C 0.1052(8) 0.8934(5) 0.8167(6)
H12 H 0.0700 0.8876 0.8341
C17 C 0.0988(7) 0.8914(5) 0.7658(5)
C18 C 0.0446(7) 0.8812(5) 0.7407(6)
C19 C 0.0410(7) 0.8782(5) 0.6893(6)
N2 N 0.5668(3) 0.7785(3) 0.8027(2)
C20 C 0.6147(3) 0.7619(3) 0.7782(3)
H13 H 0.6457 0.7464 0.7949
C21 C 0.6174(4) 0.7681(4) 0.7292(3)
H14 H 0.6502 0.7567 0.7124
C22 C 0.5721(5) 0.7907(4) 0.7048(2)
H15 H 0.5739 0.7949 0.6713
C23 C 0.5241(4) 0.8073(3) 0.7293(3)
C24 C 0.5215(3) 0.8012(3) 0.7783(3)
H16 H 0.4887 0.8125 0.7950
C25 C 0.4396(8) 0.7722(6) 0.6583(6)
H17 H 0.4724 0.7569 0.6730
C26 C 0.3992(9) 0.7535(6) 0.6236(6)
H18 H 0.4042 0.7259 0.6155
C27 C 0.3515(8) 0.7767(5) 0.6013(6)
H19 H 0.3249 0.7649 0.5771
C28 C 0.3434(7) 0.8150(5) 0.6138(6)
H20 H 0.3104 0.8297 0.5984
C29 C 0.3817(7) 0.8351(5) 0.6490(5)
C30 C 0.3721(7) 0.8740(5) 0.6634(5)
C31 C 0.4151(6) 0.8936(5) 0.6961(5)
C32 C 0.4081(8) 0.9356(5) 0.7109(6)
H21 H 0.3733 0.9508 0.6993
C33 C 0.4519(9) 0.9530(6) 0.7414(6)
H22 H 0.4473 0.9804 0.7500
C34 C 0.5006(10) 0.9327(6) 0.7595(6)
H23 H 0.5290 0.9456 0.7815
C35 C 0.5103(9) 0.8937(7) 0.7469(6)
H24 H 0.5468 0.8805 0.7586
C36 C 0.4659(8) 0.8717(6) 0.7157(6)
C37 C 0.4743(7) 0.8312(5) 0.7054(6)
C38 C 0.4326(7) 0.8117(6) 0.6711(5)
C39 C 0.2071(7) 0.9088(4) 0.6634(5)
C40 C 0.2600(7) 0.8870(4) 0.6689(5)
H25 H 0.2607 0.8642 0.6896
C41 C 0.3151(8) 0.8968(5) 0.6449(5)
C42 C 0.3130(6) 0.9305(5) 0.6160(5)
C43 C 0.2589(8) 0.9530(4) 0.6101(5)
C44 C 0.2072(6) 0.9439(4) 0.6341(5)
N3 N -0.0771(4) 0.7514(3) 0.7473(2)
C45 C -0.1177(4) 0.7677(3) 0.7125(3)
H26 H -0.1521 0.7831 0.7216
C46 C -0.1080(4) 0.7616(3) 0.6643(3)
H27 H -0.1357 0.7727 0.6405
C47 C -0.0576(4) 0.7391(3) 0.6511(2)
H28 H -0.0510 0.7349 0.6182
C48 C -0.0171(4) 0.7228(3) 0.6859(3)
C49 C -0.0268(4) 0.7289(3) 0.7340(3)
H29 H 0.0009 0.7178 0.7579
C50 C 0.0938(8) 0.7665(6) 0.6536(7)
H30 H 0.0586 0.7821 0.6603
C51 C 0.1413(9) 0.7841(6) 0.6408(8)
H31 H 0.1422 0.8127 0.6411
C52 C 0.1937(8) 0.7631(6) 0.6258(7)
H32 H 0.2267 0.7772 0.6122
C53 C 0.1962(7) 0.7222(5) 0.6311(6)
H33 H 0.2327 0.7083 0.6237
C54 C 0.1460(7) 0.7001(5) 0.6471(5)
C55 C 0.1470(8) 0.6574(5) 0.6546(5)
C56 C 0.0987(7) 0.6371(4) 0.6701(4)
C57 C 0.1002(9) 0.5954(6) 0.6777(6)
H34 H 0.1354 0.5805 0.6694
C58 C 0.0499(10) 0.5749(6) 0.6976(7)
H35 H 0.0524 0.5469 0.7039
C59 C -0.0059(10) 0.5978(6) 0.7083(7)
H36 H -0.0396 0.5848 0.7221
C60 C -0.0082(9) 0.6365(6) 0.6983(7)
H37 H -0.0457 0.6504 0.7024
C61 C 0.0424(7) 0.6584(5) 0.6818(5)
C62 C 0.0403(7) 0.7003(5) 0.6744(6)
C63 C 0.0906(7) 0.7212(5) 0.6586(5)
N4 N 0.5603(4) 0.7101(2) 0.8616(3)
C64 C 0.6019(4) 0.6834(3) 0.8840(4)
H38 H 0.6336 0.6932 0.9056
C65 C 0.5971(5) 0.6424(3) 0.8748(4)
H39 H 0.6255 0.6242 0.8901
C66 C 0.5507(5) 0.6280(2) 0.8431(4)
H40 H 0.5474 0.6000 0.8368
C67 C 0.5092(4) 0.6547(3) 0.8208(4)
C68 C 0.5140(4) 0.6958(2) 0.8300(3)
H41 H 0.4856 0.7140 0.8147
C69 C 0.3858(8) 0.6328(6) 0.8500(6)
H42 H 0.4177 0.6391 0.8733
C70 C 0.3292(9) 0.6241(7) 0.8646(7)
H43 H 0.3207 0.6245 0.8975
C71 C 0.2822(9) 0.6142(7) 0.8289(8)
H44 H 0.2424 0.6075 0.8390
C72 C 0.2914(8) 0.6140(6) 0.7824(7)
H45 H 0.2587 0.6069 0.7601
C73 C 0.3512(7) 0.6245(5) 0.7660(6)
C74 C 0.3621(7) 0.6271(5) 0.7164(5)
C75 C 0.4199(7) 0.6394(4) 0.7006(5)
C76 C 0.4330(8) 0.6458(5) 0.6540(6)
H46 H 0.4010 0.6424 0.6298
C77 C 0.4902(8) 0.6567(6) 0.6407(6)
H47 H 0.4975 0.6601 0.6077
C78 C 0.5384(8) 0.6630(5) 0.6754(7)
H48 H 0.5780 0.6711 0.6659
C79 C 0.5293(8) 0.6581(5) 0.7188(7)
H49 H 0.5629 0.6618 0.7416
C80 C 0.4693(7) 0.6469(5) 0.7361(6)
C81 C 0.4592(7) 0.6420(5) 0.7833(5)
C82 C 0.3992(7) 0.6328(5) 0.8010(5)
C83 C 0.2084(8) 0.6350(5) 0.6462(5)
C84 C 0.2582(7) 0.6426(4) 0.6795(5)
H50 H 0.2552 0.6641 0.7016
C85 C 0.3105(7) 0.6197(5) 0.6807(5)
C86 C 0.3153(6) 0.5876(4) 0.6471(5)
C87 C 0.2668(7) 0.5815(4) 0.6127(4)
C88 C 0.2154(6) 0.6056(4) 0.6116(5)
N5 N -0.0847(4) 0.7045(2) 0.8298(4)
C89 C -0.1271(4) 0.6791(3) 0.8062(4)
H51 H -0.1578 0.6899 0.7844
C90 C -0.1246(5) 0.6378(3) 0.8144(5)
H52 H -0.1535 0.6204 0.7983
C91 C -0.0796(6) 0.6220(2) 0.8463(5)
H53 H -0.0779 0.5938 0.8520
C92 C -0.0373(5) 0.6474(3) 0.8699(4)
C93 C -0.0398(4) 0.6887(3) 0.8616(4)
H54 H -0.0109 0.7061 0.8778
C94 C 0.0591(10) 0.5939(7) 0.8407(10)
H55 H 0.0291 0.6039 0.8178
C95 C 0.1046(12) 0.5656(8) 0.8266(10)
H56 H 0.1033 0.5559 0.7946
C96 C 0.1488(10) 0.5526(7) 0.8580(8)
H57 H 0.1799 0.5352 0.8472
C97 C 0.1504(11) 0.5640(7) 0.9063(9)
H58 H 0.1796 0.5525 0.9288
C98 C 0.1063(9) 0.5939(6) 0.9209(8)
C99 C 0.1098(8) 0.6069(6) 0.9674(8)
C100 C 0.0605(9) 0.6333(6) 0.9843(8)
C101 C 0.0634(10) 0.6475(6) 1.0335(7)
H59 H 0.0960 0.6396 1.0555
C102 C 0.0164(11) 0.6734(6) 1.0476(9)
H60 H 0.0178 0.6832 1.0795
C103 C -0.0297(11) 0.6846(6) 1.0178(9)
H61 H -0.0609 0.7016 1.0292
C104 C -0.0340(9) 0.6717(6) 0.9685(7)
H62 H -0.0669 0.6805 0.9473
C105 C 0.0124(8) 0.6454(5) 0.9526(7)
C106 C 0.0125(8) 0.6318(6) 0.9041(8)
C107 C 0.0589(10) 0.6063(7) 0.8862(9)
N6 N 0.5435(3) 0.7559(2) 0.9419(2)
C108 C 0.5841(3) 0.7665(3) 0.9798(3)
H63 H 0.6189 0.7828 0.9743
C109 C 0.5737(4) 0.7533(3) 1.0258(2)
H64 H 0.6014 0.7605 1.0517
C110 C 0.5227(4) 0.7294(3) 1.0339(2)
H65 H 0.5156 0.7203 1.0653
C111 C 0.4821(3) 0.7187(3) 0.9959(3)
C112 C 0.4925(3) 0.7320(2) 0.9499(2)
H66 H 0.4648 0.7247 0.9240
C113 C 0.3701(8) 0.7500(6) 1.0304(6)
H67 H 0.4030 0.7675 1.0232
C114 C 0.3152(8) 0.7652(6) 1.0506(7)
H68 H 0.3105 0.7934 1.0551
C115 C 0.2665(10) 0.7376(6) 1.0643(8)
H69 H 0.2327 0.7473 1.0812
C116 C 0.2704(8) 0.6982(6) 1.0525(7)
H70 H 0.2371 0.6809 1.0592
C117 C 0.3225(7) 0.6816(5) 1.0303(5)
C118 C 0.3265(8) 0.6407(5) 1.0181(6)
C119 C 0.3782(8) 0.6259(5) 0.9984(6)
C120 C 0.3807(9) 0.5839(5) 0.9826(7)
H71 H 0.3471 0.5663 0.9873
C121 C 0.4322(11) 0.5701(6) 0.9607(7)
H72 H 0.4337 0.5426 0.9515
C122 C 0.4818(10) 0.5949(6) 0.9516(8)
H73 H 0.5155 0.5852 0.9346
C123 C 0.4805(8) 0.6348(5) 0.9683(6)
H74 H 0.5155 0.6515 0.9649
C124 C 0.4284(8) 0.6509(5) 0.9903(6)
C125 C 0.4268(7) 0.6924(5) 1.0008(5)
C126 C 0.3732(7) 0.7086(5) 1.0219(5)
C127 C 0.1642(9) 0.5985(6) 1.0006(6)
C128 C 0.2178(10) 0.6184(5) 0.9955(8)
H75 H 0.2195 0.6363 0.9691
C129 C 0.2710(9) 0.6149(6) 1.0258(7)
C130 C 0.2693(9) 0.5881(7) 1.0637(7)
C131 C 0.2167(12) 0.5667(6) 1.0711(7)
C132 C 0.1619(7) 0.5726(6) 1.0412(8)
N7 N -0.0830(4) 0.7754(3) 0.8874(3)
C133 C -0.1299(3) 0.7614(3) 0.9149(3)
H76 H -0.1612 0.7445 0.9010
C134 C -0.1310(4) 0.7722(3) 0.9629(3)
H77 H -0.1631 0.7626 0.9817
C135 C -0.0852(5) 0.7969(3) 0.9833(3)
H78 H -0.0860 0.8043 1.0160
C136 C -0.0382(4) 0.8109(3) 0.9557(3)
C137 C -0.0371(4) 0.8002(3) 0.9078(3)
H79 H -0.0050 0.8097 0.8889
C138 C 0.0526(7) 0.7840(5) 1.0311(6)
H80 H 0.0236 0.7654 1.0174
C139 C 0.0892(9) 0.7721(6) 1.0671(8)
H81 H 0.0841 0.7463 1.0809
C140 C 0.1397(9) 0.8003(6) 1.0866(7)
H82 H 0.1671 0.7922 1.1124
C141 C 0.1448(7) 0.8371(5) 1.0664(6)
H83 H 0.1766 0.8547 1.0781
C142 C 0.1037(7) 0.8503(5) 1.0282(6)
C143 C 0.1105(7) 0.8884(5) 1.0083(6)
C144 C 0.0699(7) 0.9007(5) 0.9728(6)
C145 C 0.0754(7) 0.9396(5) 0.9483(6)
H84 H 0.1090 0.9566 0.9581
C146 C 0.0371(9) 0.9526(5) 0.9138(7)
H85 H 0.0443 0.9777 0.8990
C147 C -0.0155(9) 0.9290(6) 0.8984(8)
H86 H -0.0452 0.9391 0.8752
C148 C -0.0217(8) 0.8917(6) 0.9179(8)
H87 H -0.0547 0.8751 0.9059
C149 C 0.0181(7) 0.8764(5) 0.9549(6)
C150 C 0.0122(7) 0.8376(5) 0.9735(6)
C151 C 0.0544(7) 0.8242(5) 1.0112(6)
N8 N 0.5510(3) 0.82814(17) 0.8849(3)
C152 C 0.5948(3) 0.8554(2) 0.8703(3)
H88 H 0.6297 0.8461 0.8544
C153 C 0.5878(4) 0.8963(2) 0.8791(3)
H89 H 0.6177 0.9149 0.8692
C154 C 0.5368(4) 0.90994(17) 0.9025(3)
H90 H 0.5320 0.9379 0.9085
C155 C 0.4929(3) 0.8827(2) 0.9170(3)
C156 C 0.5000(3) 0.8418(2) 0.9082(3)
H91 H 0.4700 0.8232 0.9181
C157 C 0.4019(7) 0.9387(5) 0.8724(6)
H92 H 0.4341 0.9291 0.8537
C158 C 0.3630(9) 0.9664(6) 0.8547(6)
H93 H 0.3688 0.9766 0.8235
C159 C 0.3136(9) 0.9814(6) 0.8801(6)
H94 H 0.2874 1.0018 0.8665
C160 C 0.3034(7) 0.9658(5) 0.9254(6)
H95 H 0.2699 0.9755 0.9427
C161 C 0.3432(7) 0.9354(5) 0.9461(6)
C162 C 0.3310(7) 0.9195(5) 0.9913(5)
C163 C 0.3741(6) 0.8925(4) 1.0116(5)
C164 C 0.3634(7) 0.8760(5) 1.0606(6)
H96 H 0.3269 0.8825 1.0762
C165 C 0.4082(8) 0.8511(5) 1.0826(6)
H97 H 0.4026 0.8405 1.1136
C166 C 0.4628(8) 0.8414(5) 1.0582(6)
H98 H 0.4931 0.8244 1.0733
C167 C 0.4717(8) 0.8558(5) 1.0147(6)
H99 H 0.5088 0.8491 1.0000
C168 C 0.4281(6) 0.8809(4) 0.9893(5)
C169 C 0.4386(6) 0.8963(4) 0.9414(5)
C170 C 0.3953(7) 0.9230(5) 0.9200(6)
C171 C 0.1637(6) 0.9430(5) 1.0589(5)
C172 C 0.1656(7) 0.9134(5) 1.0237(6)
C173 C 0.2196(7) 0.9084(5) 1.0004(6)
H100 H 0.2199 0.8912 0.9732
C174 C 0.2738(7) 0.9282(4) 1.0159(5)
C175 C 0.2716(5) 0.9567(4) 1.0534(5)
C176 C 0.2172(8) 0.9642(4) 1.0745(5)
O1 O 0.3635(5) 0.9445(3) 0.5939(5)
C177 C 0.4005(6) 0.9151(5) 0.5712(6)
H101 H 0.4144 0.8943 0.5948
H102 H 0.4375 0.9282 0.5591
C178 C 0.3631(13) 0.8955(5) 0.5300(6)
H103 H 0.3818 0.8692 0.5224
H104 H 0.3206 0.8905 0.5398
O2 O 0.3609(11) 0.9199(6) 0.4890(6)
C179 C 0.3243(14) 0.9023(9) 0.4503(8)
H105 H 0.3252 0.9198 0.4222
H106 H 0.2817 0.8993 0.4597
H107 H 0.3411 0.8758 0.4427
O3 O 0.2562(5) 0.9867(3) 0.5818(4)
C180 C 0.2604(6) 0.9800(6) 0.5314(4)
H108 H 0.2968 0.9631 0.5257
H109 H 0.2656 1.0061 0.5150
C181 C 0.2023(7) 0.9593(5) 0.5113(6)
H110 H 0.2086 0.9503 0.4782
H111 H 0.1941 0.9352 0.5308
O4 O 0.1509(5) 0.9852(4) 0.5111(6)
C182 C 0.0955(7) 0.9654(7) 0.4939(10)
H112 H 0.0611 0.9845 0.4936
H113 H 0.0869 0.9427 0.5149
H114 H 0.1006 0.9555 0.4613
O5 O 0.1530(5) 0.9643(3) 0.6271(4)
C183 C 0.1521(8) 1.0062(4) 0.6381(10)
H115 H 0.1543 1.0221 0.6084
H116 H 0.1884 1.0131 0.6595
C184 C 0.0930(10) 1.0165(7) 0.6627(9)
H117 H 0.0856 0.9960 0.6874
H118 H 0.0978 1.0430 0.6788
O6 O 0.0420(9) 1.0180(9) 0.6298(13)
C185 C 0.0157(18) 0.9790(12) 0.6205(16)
H119 H -0.0207 0.9816 0.5986
H120 H 0.0038 0.9669 0.6506
H121 H 0.0462 0.9617 0.6060
O7 O 0.1687(5) 0.5954(3) 0.5790(3)
C186 C 0.1408(8) 0.6281(4) 0.5522(5)
H122 H 0.1689 0.6516 0.5529
H123 H 0.1020 0.6363 0.5666
C187 C 0.1272(8) 0.6146(4) 0.5006(4)
H124 H 0.1081 0.6371 0.4819
H125 H 0.1664 0.6074 0.4860
O8 O 0.0873(6) 0.5811(4) 0.4987(5)
C188 C 0.1206(11) 0.5440(5) 0.4960(13)
H126 H 0.0916 0.5214 0.4953
H127 H 0.1494 0.5415 0.5240
H128 H 0.1437 0.5438 0.4668
O9 O 0.2729(4) 0.5506(3) 0.5805(3)
C189 C 0.2855(5) 0.5627(5) 0.5327(4)
H129 H 0.2590 0.5859 0.5230
H130 H 0.2761 0.5403 0.5103
C190 C 0.3530(5) 0.5745(4) 0.5305(5)
H131 H 0.3597 0.5872 0.4992
H132 H 0.3636 0.5946 0.5558
O10 O 0.3917(4) 0.5407(3) 0.5367(5)
C191 C 0.4551(6) 0.5510(6) 0.5325(8)
H133 H 0.4805 0.5268 0.5369
H134 H 0.4675 0.5709 0.5570
H135 H 0.4607 0.5624 0.5007
O11 O 0.3670(4) 0.5639(3) 0.6504(4)
C192 C 0.3576(7) 0.5222(3) 0.6613(5)
H136 H 0.3974 0.5077 0.6615
H137 H 0.3292 0.5099 0.6366
C193 C 0.3303(7) 0.5186(6) 0.7103(5)
H138 H 0.3409 0.4920 0.7244
H139 H 0.3483 0.5396 0.7319
O12 O 0.2657(7) 0.5231(7) 0.7066(5)
C194 C 0.2378(10) 0.5147(7) 0.7506(7)
H140 H 0.1931 0.5186 0.7464
H141 H 0.2547 0.5330 0.7755
H142 H 0.2466 0.4868 0.7601
O13 O 0.1075(7) 0.5532(4) 1.0500(7)
C195 C 0.1028(10) 0.5124(5) 1.0334(9)
H143 H 0.1420 0.4981 1.0410
H144 H 0.0949 0.5121 0.9982
C196 C 0.0503(15) 0.4912(8) 1.0574(11)
H145 H 0.0128 0.4916 1.0357
H146 H 0.0616 0.4628 1.0637
O14 O 0.0375(16) 0.5102(10) 1.1007(12)
C197 C 0.065(3) 0.490(2) 1.1414(12)
H147 H 0.0566 0.5050 1.1705
H148 H 0.1098 0.4882 1.1383
H149 H 0.0480 0.4627 1.1434
O15 O 0.2167(11) 0.5399(5) 1.1085(7)
C198 C 0.2057(16) 0.5570(9) 1.1544(7)
H150 H 0.2308 0.5817 1.1595
H151 H 0.2178 0.5376 1.1800
C199 C 0.1374(17) 0.5673(13) 1.157(2)
H152 H 0.1137 0.5530 1.1306
H153 H 0.1223 0.5580 1.1875
O16 O 0.128(2) 0.6090(15) 1.152(2)
C200 C 0.184(3) 0.6312(11) 1.154(3)
H154 H 0.1766 0.6586 1.1648
H155 H 0.2004 0.6321 1.1218
H156 H 0.2142 0.6179 1.1759
O17 O 0.3207(7) 0.5849(5) 1.0939(5)
C201 C 0.3129(18) 0.5942(8) 1.1433(6)
H157 H 0.3474 0.5826 1.1633
H158 H 0.2739 0.5823 1.1535
C202 C 0.311(3) 0.6399(9) 1.1498(15)
H159 H 0.3538 0.6507 1.1486
H160 H 0.2858 0.6521 1.1233
O18 O 0.287(3) 0.6502(13) 1.1937(12)
C203 C 0.248(3) 0.6849(18) 1.190(3)
H161 H 0.2292 0.6893 1.2207
H162 H 0.2160 0.6807 1.1648
H163 H 0.2730 0.7085 1.1825
O19 O 0.1104(5) 0.9495(4) 1.0821(4)
C204 C 0.1098(10) 0.9335(7) 1.1297(6)
H164 H 0.1471 0.9425 1.1487
H165 H 0.1102 0.9037 1.1285
C205 C 0.0523(9) 0.9479(8) 1.1534(6)
H166 H 0.0418 0.9754 1.1421
H167 H 0.0173 0.9300 1.1442
O20 O 0.0615(12) 0.9482(12) 1.2036(6)
C206 C 0.0075(16) 0.9613(18) 1.2265(10)
H168 H 0.0193 0.9803 1.2522
H169 H -0.0131 0.9379 1.2401
H170 H -0.0208 0.9745 1.2030
O21 O 0.2141(6) 0.9919(3) 1.1108(4)
C207 C 0.1775(6) 1.0269(3) 1.1003(8)
H171 H 0.1461 1.0300 1.1245
H172 H 0.1559 1.0240 1.0685
C208 C 0.2193(7) 1.0640(3) 1.1009(9)
H173 H 0.2411 1.0666 1.1327
H174 H 0.2506 1.0609 1.0766
O22 O 0.1840(7) 1.0989(3) 1.0908(9)
C209 C 0.2216(11) 1.1343(5) 1.0908(11)
H175 H 0.1953 1.1580 1.0851
H176 H 0.2508 1.1322 1.0653
H177 H 0.2444 1.1369 1.1218
O23 O 0.3256(5) 0.9771(3) 1.0642(4)
C210 C 0.3439(6) 0.9805(6) 1.1141(5)
H178 H 0.3171 0.9634 1.1332
H179 H 0.3396 1.0087 1.1247
C211 C 0.4110(6) 0.9670(6) 1.1217(7)
H180 H 0.4221 0.9654 1.1564
H181 H 0.4159 0.9398 1.1079
O24 O 0.4508(6) 0.9940(4) 1.1001(7)
C212 C 0.4985(11) 0.9745(7) 1.0757(9)
H182 H 0.5244 0.9948 1.0612
H183 H 0.4801 0.9570 1.0507
H184 H 0.5237 0.9584 1.0986
C213 C 0.1953(18) 0.7971(10) 0.9318(14)
H185 H 0.1841 0.8219 0.9145
H186 H 0.2386 0.7986 0.9436
H187 H 0.1689 0.7938 0.9588
C214 C 0.2855(15) 0.8049(10) 0.7672(10)
H188 H 0.3268 0.8152 0.7619
H189 H 0.2623 0.8251 0.7844
H190 H 0.2639 0.7991 0.7363
N9 N 0.2357(9) 0.7659(6) 0.8250(6)
C215 C 0.2915(15) 0.7265(9) 0.7708(12)
H191 H 0.2513 0.7132 0.7724
H192 H 0.3238 0.7089 0.7851
H193 H 0.2998 0.7318 0.7374
N10 N 0.2449(10) 0.7660(8) 0.8698(7)
C216 C 0.2909(12) 0.7652(7) 0.7977(9)
N11 N 0.3987(10) 0.7671(7) 0.8527(7)
N12 N 0.0769(10) 0.7621(7) 0.8384(10)
C217 C 0.3496(11) 0.7675(8) 0.8303(9)
C218 C 0.1274(16) 0.7559(13) 0.8704(16)
C219 C 0.1867(11) 0.7608(11) 0.8977(11)
C220 C 0.1938(17) 0.7157(10) 0.9224(13)
H194 H 0.1719 0.7151 0.9521
H195 H 0.2376 0.7099 0.9295
H196 H 0.1763 0.6954 0.9002
Cl1 Cl 0.6996(3) 0.77560(19) 0.8956(2)
O25 O 0.7289(8) 0.7762(5) 0.0072(7)
O26 O 0.7760(11) 0.7713(7) 0.8032(9)
O27 O 0.8134(9) 0.8232(6) 0.0585(7)
O28 O 0.745(4) 0.972(2) 0.771(3)
O29 O 0.172(2) 0.4621(13) 0.1656(16)
O30 O 0.7638(19) 0.6864(13) 0.8915(16)
O31 O 0.835(2) 0.6683(14) 0.6895(17)
O32 O 0.688(2) 0.6717(15) 0.7752(19)
O33 O 0.2479(16) 0.7831(11) 0.1938(13)
N13 N 0.2010(14) 0.8311(9) 0.5161(9)
O34 O 0.2058(12) 0.8560(9) 0.5516(9)
O35 O 0.1499(16) 0.8427(13) 0.4939(15)
O36 O 0.2416(14) 0.8027(9) 0.5118(12)
O37 O 0.181(3) 0.6037(17) 0.288(2)
O38 O 0.626(4) 0.530(2) 0.827(3)
O39 O 0.671(2) 0.5942(16) 0.761(2)
O40 O 0.1573(18) 0.5476(12) 0.2915(14)
O41 O 0.772(3) 0.627(2) 0.665(2)
O42 O -0.0860(19) 0.9662(13) 1.2305(15)
loop_
_geom_bond_atom_site_label_1
_geom_bond_atom_site_label_2
_geom_bond_site_symmetry_1
_geom_bond_site_symmetry_2
Pd1 N2 1_555 1_555
Pd2 N1 1_555 1_555
N1 C1 1_555 1_555
C1 H1 1_555 1_555
C2 C1 1_555 1_555
H2 C2 1_555 1_555
C3 C2 1_555 1_555
H3 C3 1_555 1_555
C4 C3 1_555 1_555
C5 N1 1_555 1_555
H4 C5 1_555 1_555
C6 H5 1_555 1_555
C7 C6 1_555 1_555
H6 C7 1_555 1_555
C8 C7 1_555 1_555
H7 C8 1_555 1_555
C9 C8 1_555 1_555
H8 C9 1_555 1_555
C10 C9 1_555 1_555
C11 C10 1_555 1_555
C12 C11 1_555 1_555
C13 C12 1_555 1_555
H9 C13 1_555 1_555
C14 C13 1_555 1_555
H10 C14 1_555 1_555
C15 C14 1_555 1_555
H11 C15 1_555 1_555
C16 C15 1_555 1_555
H12 C16 1_555 1_555
C17 C12 1_555 1_555
C18 C4 1_555 1_555
C19 C6 1_555 1_555
N2 C20 1_555 1_555
C20 H13 1_555 1_555
C21 C20 1_555 1_555
H14 C21 1_555 1_555
C22 C21 1_555 1_555
H15 C22 1_555 1_555
C23 C22 1_555 1_555
C24 N2 1_555 1_555
H16 C24 1_555 1_555
C25 H17 1_555 1_555
C26 C25 1_555 1_555
H18 C26 1_555 1_555
C27 C26 1_555 1_555
H19 C27 1_555 1_555
C28 C27 1_555 1_555
H20 C28 1_555 1_555
C29 C28 1_555 1_555
C30 C29 1_555 1_555
C31 C30 1_555 1_555
C32 C31 1_555 1_555
H21 C32 1_555 1_555
C33 C32 1_555 1_555
H22 C33 1_555 1_555
C34 C33 1_555 1_555
H23 C34 1_555 1_555
C35 C34 1_555 1_555
H24 C35 1_555 1_555
C36 C31 1_555 1_555
C37 C23 1_555 1_555
C38 C25 1_555 1_555
C39 C11 1_555 1_555
C40 C39 1_555 1_555
H25 C40 1_555 1_555
C41 C30 1_555 1_555
C42 C41 1_555 1_555
C43 C42 1_555 1_555
C44 C39 1_555 1_555
N3 Pd2 1_555 1_555
C45 N3 1_555 1_555
H26 C45 1_555 1_555
C46 C45 1_555 1_555
H27 C46 1_555 1_555
C47 C46 1_555 1_555
H28 C47 1_555 1_555
C48 C47 1_555 1_555
C49 N3 1_555 1_555
H29 C49 1_555 1_555
C50 H30 1_555 1_555
C51 C50 1_555 1_555
H31 C51 1_555 1_555
C52 C51 1_555 1_555
H32 C52 1_555 1_555
C53 C52 1_555 1_555
H33 C53 1_555 1_555
C54 C53 1_555 1_555
C55 C54 1_555 1_555
C56 C55 1_555 1_555
C57 C56 1_555 1_555
H34 C57 1_555 1_555
C58 C57 1_555 1_555
H35 C58 1_555 1_555
C59 C58 1_555 1_555
H36 C59 1_555 1_555
C60 C59 1_555 1_555
H37 C60 1_555 1_555
C61 C56 1_555 1_555
C62 C48 1_555 1_555
C63 C50 1_555 1_555
N4 Pd1 1_555 1_555
C64 N4 1_555 1_555
H38 C64 1_555 1_555
C65 C64 1_555 1_555
H39 C65 1_555 1_555
C66 C65 1_555 1_555
H40 C66 1_555 1_555
C67 C66 1_555 1_555
C68 N4 1_555 1_555
H41 C68 1_555 1_555
C69 H42 1_555 1_555
C70 C69 1_555 1_555
H43 C70 1_555 1_555
C71 C70 1_555 1_555
H44 C71 1_555 1_555
C72 C71 1_555 1_555
H45 C72 1_555 1_555
C73 C72 1_555 1_555
C74 C73 1_555 1_555
C75 C74 1_555 1_555
C76 C75 1_555 1_555
H46 C76 1_555 1_555
C77 C76 1_555 1_555
H47 C77 1_555 1_555
C78 C77 1_555 1_555
H48 C78 1_555 1_555
C79 C78 1_555 1_555
H49 C79 1_555 1_555
C80 C75 1_555 1_555
C81 C67 1_555 1_555
C82 C69 1_555 1_555
C83 C55 1_555 1_555
C84 C83 1_555 1_555
H50 C84 1_555 1_555
C85 C74 1_555 1_555
C86 C85 1_555 1_555
C87 C86 1_555 1_555
C88 C83 1_555 1_555
N5 Pd2 1_555 1_555
C89 N5 1_555 1_555
H51 C89 1_555 1_555
C90 C89 1_555 1_555
H52 C90 1_555 1_555
C91 C90 1_555 1_555
H53 C91 1_555 1_555
C92 C91 1_555 1_555
C93 N5 1_555 1_555
H54 C93 1_555 1_555
C94 H55 1_555 1_555
C95 C94 1_555 1_555
H56 C95 1_555 1_555
C96 C95 1_555 1_555
H57 C96 1_555 1_555
C97 C96 1_555 1_555
H58 C97 1_555 1_555
C98 C97 1_555 1_555
C99 C98 1_555 1_555
C100 C99 1_555 1_555
C101 C100 1_555 1_555
H59 C101 1_555 1_555
C102 C101 1_555 1_555
H60 C102 1_555 1_555
C103 C102 1_555 1_555
H61 C103 1_555 1_555
C104 C103 1_555 1_555
H62 C104 1_555 1_555
C105 C100 1_555 1_555
C106 C92 1_555 1_555
C107 C94 1_555 1_555
N6 Pd1 1_555 1_555
C108 N6 1_555 1_555
H63 C108 1_555 1_555
C109 C108 1_555 1_555
H64 C109 1_555 1_555
C110 C109 1_555 1_555
H65 C110 1_555 1_555
C111 C110 1_555 1_555
C112 N6 1_555 1_555
H66 C112 1_555 1_555
C113 H67 1_555 1_555
C114 C113 1_555 1_555
H68 C114 1_555 1_555
C115 C114 1_555 1_555
H69 C115 1_555 1_555
C116 C115 1_555 1_555
H70 C116 1_555 1_555
C117 C116 1_555 1_555
C118 C117 1_555 1_555
C119 C118 1_555 1_555
C120 C119 1_555 1_555
H71 C120 1_555 1_555
C121 C120 1_555 1_555
H72 C121 1_555 1_555
C122 C121 1_555 1_555
H73 C122 1_555 1_555
C123 C122 1_555 1_555
H74 C123 1_555 1_555
C124 C119 1_555 1_555
C125 C111 1_555 1_555
C126 C113 1_555 1_555
C127 C99 1_555 1_555
C128 C127 1_555 1_555
H75 C128 1_555 1_555
C129 C118 1_555 1_555
C130 C129 1_555 1_555
C131 C130 1_555 1_555
C132 C127 1_555 1_555
N7 Pd2 1_555 1_555
C133 N7 1_555 1_555
H76 C133 1_555 1_555
C134 C133 1_555 1_555
H77 C134 1_555 1_555
C135 C134 1_555 1_555
H78 C135 1_555 1_555
C136 C135 1_555 1_555
C137 N7 1_555 1_555
H79 C137 1_555 1_555
C138 H80 1_555 1_555
C139 C138 1_555 1_555
H81 C139 1_555 1_555
C140 C139 1_555 1_555
H82 C140 1_555 1_555
C141 C140 1_555 1_555
H83 C141 1_555 1_555
C142 C141 1_555 1_555
C143 C142 1_555 1_555
C144 C143 1_555 1_555
C145 C144 1_555 1_555
H84 C145 1_555 1_555
C146 C145 1_555 1_555
H85 C146 1_555 1_555
C147 C146 1_555 1_555
H86 C147 1_555 1_555
C148 C147 1_555 1_555
H87 C148 1_555 1_555
C149 C144 1_555 1_555
C150 C136 1_555 1_555
C151 C138 1_555 1_555
N8 Pd1 1_555 1_555
C152 N8 1_555 1_555
H88 C152 1_555 1_555
C153 C152 1_555 1_555
H89 C153 1_555 1_555
C154 C153 1_555 1_555
H90 C154 1_555 1_555
C155 C154 1_555 1_555
C156 N8 1_555 1_555
H91 C156 1_555 1_555
C157 H92 1_555 1_555
C158 C157 1_555 1_555
H93 C158 1_555 1_555
C159 C158 1_555 1_555
H94 C159 1_555 1_555
C160 C159 1_555 1_555
H95 C160 1_555 1_555
C161 C160 1_555 1_555
C162 C161 1_555 1_555
C163 C162 1_555 1_555
C164 C163 1_555 1_555
H96 C164 1_555 1_555
C165 C164 1_555 1_555
H97 C165 1_555 1_555
C166 C165 1_555 1_555
H98 C166 1_555 1_555
C167 C166 1_555 1_555
H99 C167 1_555 1_555
C168 C163 1_555 1_555
C169 C155 1_555 1_555
C170 C157 1_555 1_555
C171 C172 1_555 1_555
C172 C143 1_555 1_555
C173 C172 1_555 1_555
H100 C173 1_555 1_555
C174 C162 1_555 1_555
C175 C174 1_555 1_555
C176 C171 1_555 1_555
O1 C42 1_555 1_555
C177 O1 1_555 1_555
H101 C177 1_555 1_555
H102 C177 1_555 1_555
C178 C177 1_555 1_555
H103 C178 1_555 1_555
H104 C178 1_555 1_555
O2 C178 1_555 1_555
C179 O2 1_555 1_555
H105 C179 1_555 1_555
H106 C179 1_555 1_555
H107 C179 1_555 1_555
O3 C43 1_555 1_555
C180 O3 1_555 1_555
H108 C180 1_555 1_555
H109 C180 1_555 1_555
C181 C180 1_555 1_555
H110 C181 1_555 1_555
H111 C181 1_555 1_555
O4 C181 1_555 1_555
C182 O4 1_555 1_555
H112 C182 1_555 1_555
H113 C182 1_555 1_555
H114 C182 1_555 1_555
O5 C44 1_555 1_555
C183 O5 1_555 1_555
H115 C183 1_555 1_555
H116 C183 1_555 1_555
C184 C183 1_555 1_555
H117 C184 1_555 1_555
H118 C184 1_555 1_555
O6 C184 1_555 1_555
C185 O6 1_555 1_555
H119 C185 1_555 1_555
H120 C185 1_555 1_555
H121 C185 1_555 1_555
O7 C88 1_555 1_555
C186 O7 1_555 1_555
H122 C186 1_555 1_555
H123 C186 1_555 1_555
C187 C186 1_555 1_555
H124 C187 1_555 1_555
H125 C187 1_555 1_555
O8 C187 1_555 1_555
C188 O8 1_555 1_555
H126 C188 1_555 1_555
H127 C188 1_555 1_555
H128 C188 1_555 1_555
O9 C87 1_555 1_555
C189 O9 1_555 1_555
H129 C189 1_555 1_555
H130 C189 1_555 1_555
C190 C189 1_555 1_555
H131 C190 1_555 1_555
H132 C190 1_555 1_555
O10 C190 1_555 1_555
C191 O10 1_555 1_555
H133 C191 1_555 1_555
H134 C191 1_555 1_555
H135 C191 1_555 1_555
O11 C86 1_555 1_555
C192 O11 1_555 1_555
H136 C192 1_555 1_555
H137 C192 1_555 1_555
C193 C192 1_555 1_555
H138 C193 1_555 1_555
H139 C193 1_555 1_555
O12 C193 1_555 1_555
C194 O12 1_555 1_555
H140 C194 1_555 1_555
H141 C194 1_555 1_555
H142 C194 1_555 1_555
O13 C132 1_555 1_555
C195 O13 1_555 1_555
H143 C195 1_555 1_555
H144 C195 1_555 1_555
C196 C195 1_555 1_555
H145 C196 1_555 1_555
H146 C196 1_555 1_555
O14 C196 1_555 1_555
C197 O14 1_555 1_555
H147 C197 1_555 1_555
H148 C197 1_555 1_555
H149 C197 1_555 1_555
O15 C131 1_555 1_555
C198 O15 1_555 1_555
H150 C198 1_555 1_555
H151 C198 1_555 1_555
C199 C198 1_555 1_555
H152 C199 1_555 1_555
H153 C199 1_555 1_555
O16 C199 1_555 1_555
C200 O16 1_555 1_555
H154 C200 1_555 1_555
H155 C200 1_555 1_555
H156 C200 1_555 1_555
O17 C130 1_555 1_555
C201 O17 1_555 1_555
H157 C201 1_555 1_555
H158 C201 1_555 1_555
C202 C201 1_555 1_555
H159 C202 1_555 1_555
H160 C202 1_555 1_555
O18 C202 1_555 1_555
C203 O18 1_555 1_555
H161 C203 1_555 1_555
H162 C203 1_555 1_555
H163 C203 1_555 1_555
O19 C171 1_555 1_555
C204 O19 1_555 1_555
H164 C204 1_555 1_555
H165 C204 1_555 1_555
C205 C204 1_555 1_555
H166 C205 1_555 1_555
H167 C205 1_555 1_555
O20 C205 1_555 1_555
C206 O20 1_555 1_555
H168 C206 1_555 1_555
H169 C206 1_555 1_555
H170 C206 1_555 1_555
O21 C176 1_555 1_555
C207 O21 1_555 1_555
H171 C207 1_555 1_555
H172 C207 1_555 1_555
C208 C207 1_555 1_555
H173 C208 1_555 1_555
H174 C208 1_555 1_555
O22 C208 1_555 1_555
C209 O22 1_555 1_555
H175 C209 1_555 1_555
H176 C209 1_555 1_555
H177 C209 1_555 1_555
O23 C175 1_555 1_555
C210 O23 1_555 1_555
H178 C210 1_555 1_555
H179 C210 1_555 1_555
C211 C210 1_555 1_555
H180 C211 1_555 1_555
H181 C211 1_555 1_555
O24 C211 1_555 1_555
C212 O24 1_555 1_555
H182 C212 1_555 1_555
H183 C212 1_555 1_555
H184 C212 1_555 1_555
C213 H185 1_555 1_555
H186 C213 1_555 1_555
H187 C213 1_555 1_555
C214 H188 1_555 1_555
H189 C214 1_555 1_555
H190 C214 1_555 1_555
N9 N10 1_555 1_555
C215 H191 1_555 1_555
H192 C215 1_555 1_555
H193 C215 1_555 1_555
N10 C219 1_555 1_555
C216 C214 1_555 1_555
N11 C217 1_555 1_555
N12 C218 1_555 1_555
C217 C216 1_555 1_555
C218 C219 1_555 1_555
C219 C213 1_555 1_555
C220 C219 1_555 1_555
H194 C220 1_555 1_555
H195 C220 1_555 1_555
H196 C220 1_555 1_555
N13 O34 1_555 1_555
O35 N13 1_555 1_555
O36 N13 1_555 1_555
C4 C5 1_555 1_555
C10 C19 1_555 1_555
C16 C17 1_555 1_555
C17 C18 1_555 1_555
C18 C19 1_555 1_555
C23 C24 1_555 1_555
C29 C38 1_555 1_555
C35 C36 1_555 1_555
C36 C37 1_555 1_555
C37 C38 1_555 1_555
C40 C41 1_555 1_555
C43 C44 1_555 1_555
C48 C49 1_555 1_555
C54 C63 1_555 1_555
C60 C61 1_555 1_555
C61 C62 1_555 1_555
C62 C63 1_555 1_555
C67 C68 1_555 1_555
C73 C82 1_555 1_555
C79 C80 1_555 1_555
C80 C81 1_555 1_555
C81 C82 1_555 1_555
C84 C85 1_555 1_555
C87 C88 1_555 1_555
C92 C93 1_555 1_555
C98 C107 1_555 1_555
C104 C105 1_555 1_555
C105 C106 1_555 1_555
C106 C107 1_555 1_555
C111 C112 1_555 1_555
C117 C126 1_555 1_555
C123 C124 1_555 1_555
C124 C125 1_555 1_555
C125 C126 1_555 1_555
C128 C129 1_555 1_555
C131 C132 1_555 1_555
C136 C137 1_555 1_555
C142 C151 1_555 1_555
C148 C149 1_555 1_555
C149 C150 1_555 1_555
C150 C151 1_555 1_555
C155 C156 1_555 1_555
C161 C170 1_555 1_555
C167 C168 1_555 1_555
C168 C169 1_555 1_555
C169 C170 1_555 1_555
C173 C174 1_555 1_555
C175 C176 1_555 1_555
N9 C216 1_555 1_555
C215 C216 1_555 1_555

#END
