# generated using pymatgen
data_Ga4H265C328N28O43
_symmetry_space_group_name_H-M   'P 1'
_cell_length_a   26.73930000
_cell_length_b   30.83170000
_cell_length_c   38.52280000
_cell_angle_alpha   90.00000000
_cell_angle_beta   109.85300000
_cell_angle_gamma   90.00000000
_symmetry_Int_Tables_number   1
_chemical_formula_structural   Ga4H265C328N28O43
_chemical_formula_sum   'Ga16 H1060 C1312 N112 O172'
_cell_volume   29871.36719631
_cell_formula_units_Z   4
loop_
 _symmetry_equiv_pos_site_id
 _symmetry_equiv_pos_as_xyz
  1  'x, y, z'
loop_
 _atom_site_type_symbol
 _atom_site_label
 _atom_site_symmetry_multiplicity
 _atom_site_fract_x
 _atom_site_fract_y
 _atom_site_fract_z
 _atom_site_occupancy
  Ga  Ga1  1  0.980680  0.459660  0.393750  1
  Ga  Ga2  1  0.519320  0.959660  0.106250  1
  Ga  Ga3  1  0.019320  0.540340  0.606250  1
  Ga  Ga4  1  0.480680  0.040340  0.893750  1
  Ga  Ga5  1  0.662590  0.479620  0.056910  1
  Ga  Ga6  1  0.837410  0.979620  0.443090  1
  Ga  Ga7  1  0.337410  0.520380  0.943090  1
  Ga  Ga8  1  0.162590  0.020380  0.556910  1
  Ga  Ga9  1  0.869410  0.820580  0.235180  1
  Ga  Ga10  1  0.630590  0.320580  0.264820  1
  Ga  Ga11  1  0.130590  0.179420  0.764820  1
  Ga  Ga12  1  0.369410  0.679420  0.735180  1
  Ga  Ga13  1  0.154570  0.553070  0.133790  1
  Ga  Ga14  1  0.345430  0.053070  0.366210  1
  Ga  Ga15  1  0.845430  0.446930  0.866210  1
  Ga  Ga16  1  0.654570  0.946930  0.633790  1
  H  H17  1  0.022100  0.572700  0.374100  1
  H  H18  1  0.477900  0.072700  0.125900  1
  H  H19  1  0.977900  0.427300  0.625900  1
  H  H20  1  0.522100  0.927300  0.874100  1
  H  H21  1  0.856700  0.717400  0.279900  1
  H  H22  1  0.643300  0.217400  0.220100  1
  H  H23  1  0.143300  0.282600  0.720100  1
  H  H24  1  0.356700  0.782600  0.779900  1
  H  H25  1  0.027300  0.429000  0.313600  1
  H  H26  1  0.472700  0.929000  0.186400  1
  H  H27  1  0.972700  0.571000  0.686400  1
  H  H28  1  0.527300  0.071000  0.813600  1
  H  H29  1  0.149500  0.548400  0.229100  1
  H  H30  1  0.350500  0.048400  0.270900  1
  H  H31  1  0.850500  0.451600  0.770900  1
  H  H32  1  0.649500  0.951600  0.729100  1
  H  H33  1  0.858100  0.480700  0.309700  1
  H  H34  1  0.641900  0.980700  0.190300  1
  H  H35  1  0.141900  0.519300  0.690300  1
  H  H36  1  0.358100  0.019300  0.809700  1
  H  H37  1  0.771700  0.426200  0.135400  1
  H  H38  1  0.728300  0.926200  0.364600  1
  H  H39  1  0.228300  0.573800  0.864600  1
  H  H40  1  0.271700  0.073800  0.635400  1
  H  H41  1  0.786200  0.532300  0.055600  1
  H  H42  1  0.713800  0.032300  0.444400  1
  H  H43  1  0.213800  0.467700  0.944400  1
  H  H44  1  0.286200  0.967700  0.555600  1
  H  H45  1  0.036600  0.480100  0.124300  1
  H  H46  1  0.463400  0.980100  0.375700  1
  H  H47  1  0.963400  0.519900  0.875700  1
  H  H48  1  0.536600  0.019900  0.624300  1
  H  H49  1  0.667900  0.566800  0.126800  1
  H  H50  1  0.832100  0.066800  0.373200  1
  H  H51  1  0.332100  0.433200  0.873200  1
  H  H52  1  0.167900  0.933200  0.626800  1
  H  H53  1  0.807000  0.744500  0.154100  1
  H  H54  1  0.693000  0.244500  0.345900  1
  H  H55  1  0.193000  0.255500  0.845900  1
  H  H56  1  0.307000  0.755500  0.654100  1
  H  H57  1  0.992300  0.753300  0.245100  1
  H  H58  1  0.507700  0.253300  0.254900  1
  H  H59  1  0.007700  0.246700  0.754900  1
  H  H60  1  0.492300  0.746700  0.745100  1
  H  H61  1  0.054700  0.643200  0.122500  1
  H  H62  1  0.445300  0.143200  0.377500  1
  H  H63  1  0.945300  0.356800  0.877500  1
  H  H64  1  0.554700  0.856800  0.622500  1
  H  H65  1  0.174400  0.571600  0.458000  1
  H  H66  1  0.325600  0.071600  0.042000  1
  H  H67  1  0.825600  0.428400  0.542000  1
  H  H68  1  0.674400  0.928400  0.958000  1
  H  H69  1  0.200000  0.509000  0.492200  1
  H  H70  1  0.300000  0.009000  0.007800  1
  H  H71  1  0.800000  0.491000  0.507800  1
  H  H72  1  0.700000  0.991000  0.992200  1
  H  H73  1  0.142800  0.450500  0.480300  1
  H  H74  1  0.357200  0.950500  0.019700  1
  H  H75  1  0.857200  0.549500  0.519700  1
  H  H76  1  0.642800  0.049500  0.980300  1
  H  H77  1  0.957100  0.561800  0.335900  1
  H  H78  1  0.542900  0.061800  0.164100  1
  H  H79  1  0.042900  0.438200  0.664100  1
  H  H80  1  0.457100  0.938200  0.835900  1
  H  H81  1  0.871100  0.554600  0.300000  1
  H  H82  1  0.628900  0.054600  0.200000  1
  H  H83  1  0.128900  0.445400  0.700000  1
  H  H84  1  0.371100  0.945400  0.800000  1
  H  H85  1  0.817900  0.616000  0.278000  1
  H  H86  1  0.682100  0.116000  0.222000  1
  H  H87  1  0.182100  0.384000  0.722000  1
  H  H88  1  0.317900  0.884000  0.778000  1
  H  H89  1  0.932800  0.731100  0.321600  1
  H  H90  1  0.567200  0.231100  0.178400  1
  H  H91  1  0.067200  0.268900  0.678400  1
  H  H92  1  0.432800  0.768900  0.821600  1
  H  H93  1  0.018700  0.737600  0.356100  1
  H  H94  1  0.481300  0.237600  0.143900  1
  H  H95  1  0.981300  0.262400  0.643900  1
  H  H96  1  0.518700  0.762400  0.856100  1
  H  H97  1  0.069700  0.677800  0.384100  1
  H  H98  1  0.430300  0.177800  0.115900  1
  H  H99  1  0.930300  0.322200  0.615900  1
  H  H100  1  0.569700  0.822200  0.884100  1
  H  H101  1  0.697700  0.733700  0.279200  1
  H  H102  1  0.802300  0.233700  0.220800  1
  H  H103  1  0.302300  0.266300  0.720800  1
  H  H104  1  0.197700  0.766300  0.779200  1
  H  H105  1  0.658200  0.797100  0.255000  1
  H  H106  1  0.841800  0.297100  0.245000  1
  H  H107  1  0.341800  0.202900  0.745000  1
  H  H108  1  0.158200  0.702900  0.755000  1
  H  H109  1  0.702400  0.848100  0.232200  1
  H  H110  1  0.797600  0.348100  0.267800  1
  H  H111  1  0.297600  0.151900  0.767800  1
  H  H112  1  0.202400  0.651900  0.732200  1
  H  H113  1  0.978100  0.297600  0.307400  1
  H  H114  1  0.521900  0.797600  0.192600  1
  H  H115  1  0.021900  0.702400  0.692600  1
  H  H116  1  0.478100  0.202400  0.807400  1
  H  H117  1  0.938100  0.274400  0.347100  1
  H  H118  1  0.561900  0.774400  0.152900  1
  H  H119  1  0.061900  0.725600  0.652900  1
  H  H120  1  0.438100  0.225600  0.847100  1
  H  H121  1  0.929100  0.321400  0.393400  1
  H  H122  1  0.570900  0.821400  0.106600  1
  H  H123  1  0.070900  0.678600  0.606600  1
  H  H124  1  0.429100  0.178600  0.893400  1
  H  H125  1  0.039700  0.490700  0.320000  1
  H  H126  1  0.460300  0.990700  0.180000  1
  H  H127  1  0.960300  0.509300  0.680000  1
  H  H128  1  0.539700  0.009300  0.820000  1
  H  H129  1  0.062900  0.561400  0.326300  1
  H  H130  1  0.437100  0.061400  0.173700  1
  H  H131  1  0.937100  0.438600  0.673700  1
  H  H132  1  0.562900  0.938600  0.826300  1
  H  H133  1  0.117500  0.591800  0.297100  1
  H  H134  1  0.382500  0.091800  0.202900  1
  H  H135  1  0.882500  0.408200  0.702900  1
  H  H136  1  0.617500  0.908200  0.797100  1
  H  H137  1  0.151900  0.477000  0.230100  1
  H  H138  1  0.348100  0.977000  0.269900  1
  H  H139  1  0.848100  0.523000  0.769900  1
  H  H140  1  0.651900  0.023000  0.730100  1
  H  H141  1  0.127600  0.407800  0.221600  1
  H  H142  1  0.372400  0.907800  0.278400  1
  H  H143  1  0.872400  0.592200  0.778400  1
  H  H144  1  0.627600  0.092200  0.721600  1
  H  H145  1  0.077800  0.375100  0.254600  1
  H  H146  1  0.422200  0.875100  0.245400  1
  H  H147  1  0.922200  0.624900  0.745400  1
  H  H148  1  0.577800  0.124900  0.754600  1
  H  H149  1  0.285400  0.627900  0.279200  1
  H  H150  1  0.214600  0.127900  0.220800  1
  H  H151  1  0.714600  0.372100  0.720800  1
  H  H152  1  0.785400  0.872100  0.779200  1
  H  H153  1  0.329200  0.655300  0.240500  1
  H  H154  1  0.170800  0.155300  0.259500  1
  H  H155  1  0.670800  0.344700  0.759500  1
  H  H156  1  0.829200  0.844700  0.740500  1
  H  H157  1  0.293600  0.638600  0.176800  1
  H  H158  1  0.206400  0.138600  0.323200  1
  H  H159  1  0.706400  0.361400  0.823200  1
  H  H160  1  0.793600  0.861400  0.676800  1
  H  H161  1  0.758700  0.523000  0.369300  1
  H  H162  1  0.741300  0.023000  0.130700  1
  H  H163  1  0.241300  0.477000  0.630700  1
  H  H164  1  0.258700  0.977000  0.869300  1
  H  H165  1  0.796700  0.523900  0.434200  1
  H  H166  1  0.703300  0.023900  0.065800  1
  H  H167  1  0.203300  0.476100  0.565800  1
  H  H168  1  0.296700  0.976100  0.934200  1
  H  H169  1  0.883400  0.503900  0.462100  1
  H  H170  1  0.616600  0.003900  0.037900  1
  H  H171  1  0.116600  0.496100  0.537900  1
  H  H172  1  0.383400  0.996100  0.962100  1
  H  H173  1  0.877700  0.425800  0.288300  1
  H  H174  1  0.622300  0.925800  0.211700  1
  H  H175  1  0.122300  0.574200  0.711700  1
  H  H176  1  0.377700  0.074200  0.788300  1
  H  H177  1  0.901400  0.369200  0.259800  1
  H  H178  1  0.598600  0.869200  0.240200  1
  H  H179  1  0.098600  0.630800  0.740200  1
  H  H180  1  0.401400  0.130800  0.759800  1
  H  H181  1  0.860800  0.357300  0.196400  1
  H  H182  1  0.639200  0.857300  0.303600  1
  H  H183  1  0.139200  0.642700  0.803600  1
  H  H184  1  0.360800  0.142700  0.696400  1
  H  H185  1  0.754500  0.478700  0.156700  1
  H  H186  1  0.745500  0.978700  0.343300  1
  H  H187  1  0.245500  0.521300  0.843300  1
  H  H188  1  0.254500  0.021300  0.656700  1
  H  H189  1  0.731500  0.536600  0.185100  1
  H  H190  1  0.768500  0.036600  0.314900  1
  H  H191  1  0.268500  0.463400  0.814900  1
  H  H192  1  0.231500  0.963400  0.685100  1
  H  H193  1  0.767600  0.543200  0.250400  1
  H  H194  1  0.732400  0.043200  0.249600  1
  H  H195  1  0.232400  0.456800  0.749600  1
  H  H196  1  0.267600  0.956800  0.750400  1
  H  H197  1  0.693300  0.376600  0.984600  1
  H  H198  1  0.806700  0.876600  0.515400  1
  H  H199  1  0.306700  0.623400  0.015400  1
  H  H200  1  0.193300  0.123400  0.484600  1
  H  H201  1  0.757600  0.324200  0.010200  1
  H  H202  1  0.742400  0.824200  0.489800  1
  H  H203  1  0.242400  0.675800  0.989800  1
  H  H204  1  0.257600  0.175800  0.510200  1
  H  H205  1  0.806800  0.325100  0.072000  1
  H  H206  1  0.693200  0.825100  0.428000  1
  H  H207  1  0.193200  0.674900  0.928000  1
  H  H208  1  0.306800  0.174900  0.572000  1
  H  H209  1  0.712900  0.609500  0.957600  1
  H  H210  1  0.787100  0.109500  0.542400  1
  H  H211  1  0.287100  0.390500  0.042400  1
  H  H212  1  0.212900  0.890500  0.457600  1
  H  H213  1  0.624400  0.605300  0.933600  1
  H  H214  1  0.875600  0.105300  0.566400  1
  H  H215  1  0.375600  0.394700  0.066400  1
  H  H216  1  0.124400  0.894700  0.433600  1
  H  H217  1  0.574600  0.564700  0.960500  1
  H  H218  1  0.925400  0.064700  0.539500  1
  H  H219  1  0.425400  0.435300  0.039500  1
  H  H220  1  0.074600  0.935300  0.460500  1
  H  H221  1  0.818900  0.467100  0.052400  1
  H  H222  1  0.681100  0.967100  0.447600  1
  H  H223  1  0.181100  0.532900  0.947600  1
  H  H224  1  0.318900  0.032900  0.552400  1
  H  H225  1  0.858800  0.401100  0.067200  1
  H  H226  1  0.641200  0.901100  0.432800  1
  H  H227  1  0.141200  0.598900  0.932800  1
  H  H228  1  0.358800  0.098900  0.567200  1
  H  H229  1  0.948100  0.395000  0.097600  1
  H  H230  1  0.551900  0.895000  0.402400  1
  H  H231  1  0.051900  0.605000  0.902400  1
  H  H232  1  0.448100  0.105000  0.597600  1
  H  H233  1  0.008300  0.538500  0.112500  1
  H  H234  1  0.491700  0.038500  0.387500  1
  H  H235  1  0.991700  0.461500  0.887500  1
  H  H236  1  0.508300  0.961500  0.612500  1
  H  H237  1  0.967900  0.603400  0.098000  1
  H  H238  1  0.532100  0.103400  0.402000  1
  H  H239  1  0.032100  0.396600  0.902000  1
  H  H240  1  0.467900  0.896600  0.598000  1
  H  H241  1  0.875500  0.608400  0.068200  1
  H  H242  1  0.624500  0.108400  0.431800  1
  H  H243  1  0.124500  0.391600  0.931800  1
  H  H244  1  0.375500  0.891600  0.568200  1
  H  H245  1  0.253900  0.432700  0.164100  1
  H  H246  1  0.246100  0.932700  0.335900  1
  H  H247  1  0.746100  0.567300  0.835900  1
  H  H248  1  0.753900  0.067300  0.664100  1
  H  H249  1  0.215200  0.367300  0.166200  1
  H  H250  1  0.284800  0.867300  0.333800  1
  H  H251  1  0.784800  0.632700  0.833800  1
  H  H252  1  0.715200  0.132700  0.666200  1
  H  H253  1  0.125700  0.363500  0.153500  1
  H  H254  1  0.374300  0.863500  0.346500  1
  H  H255  1  0.874300  0.636500  0.846500  1
  H  H256  1  0.625700  0.136500  0.653500  1
  H  H257  1  0.535600  0.520900  0.154500  1
  H  H258  1  0.964400  0.020900  0.345500  1
  H  H259  1  0.464400  0.479100  0.845500  1
  H  H260  1  0.035600  0.979100  0.654500  1
  H  H261  1  0.496300  0.458800  0.126700  1
  H  H262  1  0.003700  0.958800  0.373300  1
  H  H263  1  0.503700  0.541200  0.873300  1
  H  H264  1  0.996300  0.041200  0.626700  1
  H  H265  1  0.527900  0.423000  0.086600  1
  H  H266  1  0.972100  0.923000  0.413400  1
  H  H267  1  0.472100  0.577000  0.913400  1
  H  H268  1  0.027900  0.077000  0.586600  1
  H  H269  1  0.710600  0.586200  0.099500  1
  H  H270  1  0.789400  0.086200  0.400500  1
  H  H271  1  0.289400  0.413800  0.900500  1
  H  H272  1  0.210600  0.913800  0.599500  1
  H  H273  1  0.766000  0.612100  0.071000  1
  H  H274  1  0.734000  0.112100  0.429000  1
  H  H275  1  0.234000  0.387900  0.929000  1
  H  H276  1  0.266000  0.887900  0.571000  1
  H  H277  1  0.807900  0.679800  0.085800  1
  H  H278  1  0.692100  0.179800  0.414200  1
  H  H279  1  0.192100  0.320200  0.914200  1
  H  H280  1  0.307900  0.820200  0.585800  1
  H  H281  1  0.748900  0.730800  0.176600  1
  H  H282  1  0.751100  0.230800  0.323400  1
  H  H283  1  0.251100  0.269200  0.823400  1
  H  H284  1  0.248900  0.769200  0.676600  1
  H  H285  1  0.699900  0.702400  0.209000  1
  H  H286  1  0.800100  0.202400  0.291000  1
  H  H287  1  0.300100  0.297600  0.791000  1
  H  H288  1  0.199900  0.797600  0.709000  1
  H  H289  1  0.658000  0.633900  0.194800  1
  H  H290  1  0.842000  0.133900  0.305200  1
  H  H291  1  0.342000  0.366100  0.805200  1
  H  H292  1  0.158000  0.866100  0.694800  1
  H  H293  1  0.906700  0.910500  0.155400  1
  H  H294  1  0.593300  0.410500  0.344600  1
  H  H295  1  0.093300  0.089500  0.844600  1
  H  H296  1  0.406700  0.589500  0.655400  1
  H  H297  1  0.881200  0.890200  0.091400  1
  H  H298  1  0.618800  0.390200  0.408600  1
  H  H299  1  0.118800  0.109800  0.908600  1
  H  H300  1  0.381200  0.609800  0.591400  1
  H  H301  1  0.837100  0.826100  0.073600  1
  H  H302  1  0.662900  0.326100  0.426400  1
  H  H303  1  0.162900  0.173900  0.926400  1
  H  H304  1  0.337100  0.673900  0.573600  1
  H  H305  1  0.089300  0.809300  0.347400  1
  H  H306  1  0.410700  0.309300  0.152600  1
  H  H307  1  0.910700  0.190700  0.652600  1
  H  H308  1  0.589300  0.690700  0.847400  1
  H  H309  1  0.052400  0.862600  0.372000  1
  H  H310  1  0.447600  0.362600  0.128000  1
  H  H311  1  0.947600  0.137400  0.628000  1
  H  H312  1  0.552400  0.637400  0.872000  1
  H  H313  1  0.965600  0.884500  0.341800  1
  H  H314  1  0.534400  0.384500  0.158200  1
  H  H315  1  0.034400  0.115500  0.658200  1
  H  H316  1  0.465600  0.615500  0.841800  1
  H  H317  1  0.965600  0.763800  0.192000  1
  H  H318  1  0.534400  0.263800  0.308000  1
  H  H319  1  0.034400  0.236200  0.808000  1
  H  H320  1  0.465600  0.736200  0.692000  1
  H  H321  1  0.925000  0.763200  0.128900  1
  H  H322  1  0.575000  0.263200  0.371100  1
  H  H323  1  0.075000  0.236800  0.871100  1
  H  H324  1  0.425000  0.736800  0.628900  1
  H  H325  1  0.957300  0.718000  0.092000  1
  H  H326  1  0.542700  0.218000  0.408000  1
  H  H327  1  0.042700  0.282000  0.908000  1
  H  H328  1  0.457300  0.782000  0.592000  1
  H  H329  1  0.095200  0.644800  0.175800  1
  H  H330  1  0.404800  0.144800  0.324200  1
  H  H331  1  0.904800  0.355200  0.824200  1
  H  H332  1  0.595200  0.855200  0.675800  1
  H  H333  1  0.128800  0.640100  0.238500  1
  H  H334  1  0.371200  0.140100  0.261500  1
  H  H335  1  0.871200  0.359900  0.761500  1
  H  H336  1  0.628800  0.859900  0.738500  1
  H  H337  1  0.097000  0.685900  0.276000  1
  H  H338  1  0.403000  0.185900  0.224000  1
  H  H339  1  0.903000  0.314100  0.724000  1
  H  H340  1  0.597000  0.814100  0.776000  1
  H  H341  1  0.129600  0.568700  0.012400  1
  H  H342  1  0.370400  0.068700  0.487600  1
  H  H343  1  0.870400  0.431300  0.987600  1
  H  H344  1  0.629600  0.931300  0.512400  1
  H  H345  1  0.078800  0.626500  0.981000  1
  H  H346  1  0.421200  0.126500  0.519000  1
  H  H347  1  0.921200  0.373500  0.019000  1
  H  H348  1  0.578800  0.873500  0.481000  1
  H  H349  1  0.037800  0.671300  0.010900  1
  H  H350  1  0.462200  0.171300  0.489100  1
  H  H351  1  0.962200  0.328700  0.989100  1
  H  H352  1  0.537800  0.828700  0.510900  1
  H  H353  1  0.347000  0.385500  0.182700  1
  H  H354  1  0.153000  0.885500  0.317300  1
  H  H355  1  0.653000  0.614500  0.817300  1
  H  H356  1  0.847000  0.114500  0.682700  1
  H  H357  1  0.374300  0.342700  0.202000  1
  H  H358  1  0.125700  0.842700  0.298000  1
  H  H359  1  0.625700  0.657300  0.798000  1
  H  H360  1  0.874300  0.157300  0.702000  1
  H  H361  1  0.320600  0.357900  0.206000  1
  H  H362  1  0.179400  0.857900  0.294000  1
  H  H363  1  0.679400  0.642100  0.794000  1
  H  H364  1  0.820600  0.142100  0.706000  1
  H  H365  1  0.314200  0.383300  0.126000  1
  H  H366  1  0.185800  0.883300  0.374000  1
  H  H367  1  0.685800  0.616700  0.874000  1
  H  H368  1  0.814200  0.116700  0.626000  1
  H  H369  1  0.263600  0.354800  0.107100  1
  H  H370  1  0.236400  0.854800  0.392900  1
  H  H371  1  0.736400  0.645200  0.892900  1
  H  H372  1  0.763600  0.145200  0.607100  1
  H  H373  1  0.319300  0.339600  0.106500  1
  H  H374  1  0.180700  0.839600  0.393500  1
  H  H375  1  0.680700  0.660400  0.893500  1
  H  H376  1  0.819300  0.160400  0.606500  1
  H  H377  1  0.301800  0.277400  0.179600  1
  H  H378  1  0.198200  0.777400  0.320400  1
  H  H379  1  0.698200  0.722600  0.820400  1
  H  H380  1  0.801800  0.222600  0.679600  1
  H  H381  1  0.102800  0.812300  0.433700  1
  H  H382  1  0.397200  0.312300  0.066300  1
  H  H383  1  0.897200  0.187700  0.566300  1
  H  H384  1  0.602800  0.687700  0.933700  1
  H  H385  1  0.100300  0.800200  0.472600  1
  H  H386  1  0.399700  0.300200  0.027400  1
  H  H387  1  0.899700  0.199800  0.527400  1
  H  H388  1  0.600300  0.699800  0.972600  1
  H  H389  1  0.051600  0.790600  0.436900  1
  H  H390  1  0.448400  0.290600  0.063100  1
  H  H391  1  0.948400  0.209400  0.563100  1
  H  H392  1  0.551600  0.709400  0.936900  1
  H  H393  1  0.146000  0.773600  0.411000  1
  H  H394  1  0.354000  0.273600  0.089000  1
  H  H395  1  0.854000  0.226400  0.589000  1
  H  H396  1  0.646000  0.726400  0.911000  1
  H  H397  1  0.122200  0.727000  0.400100  1
  H  H398  1  0.377800  0.227000  0.099900  1
  H  H399  1  0.877800  0.273000  0.599900  1
  H  H400  1  0.622200  0.773000  0.900100  1
  H  H401  1  0.174900  0.733100  0.433600  1
  H  H402  1  0.325100  0.233100  0.066400  1
  H  H403  1  0.825100  0.266900  0.566400  1
  H  H404  1  0.674900  0.766900  0.933600  1
  H  H405  1  0.112900  0.688500  0.458000  1
  H  H406  1  0.387100  0.188500  0.042000  1
  H  H407  1  0.887100  0.311500  0.542000  1
  H  H408  1  0.612900  0.811500  0.958000  1
  H  H409  1  0.014700  0.099400  0.267100  1
  H  H410  1  0.485300  0.599400  0.232900  1
  H  H411  1  0.985300  0.900600  0.732900  1
  H  H412  1  0.514700  0.400600  0.767100  1
  H  H413  1  0.971400  0.104300  0.286000  1
  H  H414  1  0.528600  0.604300  0.214000  1
  H  H415  1  0.028600  0.895700  0.714000  1
  H  H416  1  0.471400  0.395700  0.786000  1
  H  H417  1  0.002200  0.060400  0.288900  1
  H  H418  1  0.497800  0.560400  0.211100  1
  H  H419  1  0.997800  0.939600  0.711100  1
  H  H420  1  0.502200  0.439600  0.788900  1
  H  H421  1  0.088300  0.131100  0.293600  1
  H  H422  1  0.411700  0.631100  0.206400  1
  H  H423  1  0.911700  0.868900  0.706400  1
  H  H424  1  0.588300  0.368900  0.793600  1
  H  H425  1  0.123600  0.112600  0.332000  1
  H  H426  1  0.376400  0.612600  0.168000  1
  H  H427  1  0.876400  0.887400  0.668000  1
  H  H428  1  0.623600  0.387400  0.832000  1
  H  H429  1  0.094600  0.157300  0.329700  1
  H  H430  1  0.405400  0.657300  0.170300  1
  H  H431  1  0.905400  0.842700  0.670300  1
  H  H432  1  0.594600  0.342700  0.829700  1
  H  H433  1  0.012100  0.083900  0.354700  1
  H  H434  1  0.487900  0.583900  0.145300  1
  H  H435  1  0.987900  0.916100  0.645300  1
  H  H436  1  0.512100  0.416100  0.854700  1
  H  H437  1  0.103200  0.463200  0.989300  1
  H  H438  1  0.396800  0.963200  0.510700  1
  H  H439  1  0.896800  0.536800  0.010700  1
  H  H440  1  0.603200  0.036800  0.489300  1
  H  H441  1  0.079900  0.496000  0.010900  1
  H  H442  1  0.420100  0.996000  0.489100  1
  H  H443  1  0.920100  0.504000  0.989100  1
  H  H444  1  0.579900  0.004000  0.510900  1
  H  H445  1  0.042100  0.463200  0.983000  1
  H  H446  1  0.457900  0.963200  0.517000  1
  H  H447  1  0.957900  0.536800  0.017000  1
  H  H448  1  0.542100  0.036800  0.483000  1
  H  H449  1  0.048700  0.422500  0.067300  1
  H  H450  1  0.451300  0.922500  0.432700  1
  H  H451  1  0.951300  0.577500  0.932700  1
  H  H452  1  0.548700  0.077500  0.567300  1
  H  H453  1  0.009900  0.439200  0.029200  1
  H  H454  1  0.490100  0.939200  0.470800  1
  H  H455  1  0.990100  0.560800  0.970800  1
  H  H456  1  0.509900  0.060800  0.529200  1
  H  H457  1  0.047700  0.471900  0.057200  1
  H  H458  1  0.452300  0.971900  0.442800  1
  H  H459  1  0.952300  0.528100  0.942800  1
  H  H460  1  0.547700  0.028100  0.557200  1
  H  H461  1  0.165600  0.438600  0.047700  1
  H  H462  1  0.334400  0.938600  0.452300  1
  H  H463  1  0.834400  0.561400  0.952300  1
  H  H464  1  0.665600  0.061400  0.547700  1
  H  H465  1  0.144400  0.424500  0.079300  1
  H  H466  1  0.355600  0.924500  0.420700  1
  H  H467  1  0.855600  0.575500  0.920700  1
  H  H468  1  0.644400  0.075500  0.579300  1
  H  H469  1  0.140600  0.473100  0.066800  1
  H  H470  1  0.359400  0.973100  0.433200  1
  H  H471  1  0.859400  0.526900  0.933200  1
  H  H472  1  0.640600  0.026900  0.566800  1
  H  H473  1  0.045200  0.385600  0.998600  1
  H  H474  1  0.454800  0.885600  0.501400  1
  H  H475  1  0.954800  0.614400  0.001400  1
  H  H476  1  0.545200  0.114400  0.498600  1
  H  H477  1  0.104100  0.389000  0.999400  1
  H  H478  1  0.395900  0.889000  0.500600  1
  H  H479  1  0.895900  0.611000  0.000600  1
  H  H480  1  0.604100  0.111000  0.499400  1
  H  H481  1  0.172800  0.353100  0.047600  1
  H  H482  1  0.327200  0.853100  0.452400  1
  H  H483  1  0.827200  0.646900  0.952400  1
  H  H484  1  0.672800  0.146900  0.547600  1
  H  H485  1  0.195000  0.295700  0.088600  1
  H  H486  1  0.305000  0.795700  0.411400  1
  H  H487  1  0.805000  0.704300  0.911400  1
  H  H488  1  0.695000  0.204300  0.588600  1
  H  H489  1  0.131600  0.263500  0.107900  1
  H  H490  1  0.368400  0.763500  0.392100  1
  H  H491  1  0.868400  0.736500  0.892100  1
  H  H492  1  0.631600  0.236500  0.607900  1
  H  H493  1  0.046300  0.289700  0.088700  1
  H  H494  1  0.453700  0.789700  0.411300  1
  H  H495  1  0.953700  0.710300  0.911300  1
  H  H496  1  0.546300  0.210300  0.588700  1
  H  H497  1  0.023400  0.348600  0.047400  1
  H  H498  1  0.476600  0.848600  0.452600  1
  H  H499  1  0.976600  0.651400  0.952600  1
  H  H500  1  0.523400  0.151400  0.547400  1
  H  H501  1  0.924800  0.690200  0.218300  1
  H  H502  1  0.575200  0.190200  0.281700  1
  H  H503  1  0.075200  0.309800  0.781700  1
  H  H504  1  0.424800  0.809800  0.718300  1
  H  H505  1  0.884000  0.671800  0.235700  1
  H  H506  1  0.616000  0.171800  0.264300  1
  H  H507  1  0.116000  0.328200  0.764300  1
  H  H508  1  0.384000  0.828200  0.735700  1
  H  H509  1  0.864300  0.687500  0.194500  1
  H  H510  1  0.635700  0.187500  0.305500  1
  H  H511  1  0.135700  0.312500  0.805500  1
  H  H512  1  0.364300  0.812500  0.694500  1
  H  H513  1  0.944500  0.648700  0.169100  1
  H  H514  1  0.555500  0.148700  0.330900  1
  H  H515  1  0.055500  0.351300  0.830900  1
  H  H516  1  0.444500  0.851300  0.669100  1
  H  H517  1  0.883400  0.646600  0.146800  1
  H  H518  1  0.616600  0.146600  0.353200  1
  H  H519  1  0.116600  0.353400  0.853200  1
  H  H520  1  0.383400  0.853400  0.646800  1
  H  H521  1  0.916700  0.603700  0.157000  1
  H  H522  1  0.583300  0.103700  0.343000  1
  H  H523  1  0.083300  0.396300  0.843000  1
  H  H524  1  0.416700  0.896300  0.657000  1
  H  H525  1  0.856900  0.576100  0.186500  1
  H  H526  1  0.643100  0.076100  0.313500  1
  H  H527  1  0.143100  0.423900  0.813500  1
  H  H528  1  0.356900  0.923900  0.686500  1
  H  H529  1  0.823500  0.618800  0.175400  1
  H  H530  1  0.676500  0.118800  0.324600  1
  H  H531  1  0.176500  0.381200  0.824600  1
  H  H532  1  0.323500  0.881200  0.675400  1
  H  H533  1  0.843200  0.603100  0.216500  1
  H  H534  1  0.656800  0.103100  0.283500  1
  H  H535  1  0.156800  0.396900  0.783500  1
  H  H536  1  0.343200  0.896900  0.716500  1
  H  H537  1  0.977600  0.625200  0.235800  1
  H  H538  1  0.522400  0.125200  0.264200  1
  H  H539  1  0.022400  0.374800  0.764200  1
  H  H540  1  0.477600  0.874800  0.735800  1
  H  H541  1  0.937500  0.604900  0.252800  1
  H  H542  1  0.562500  0.104900  0.247200  1
  H  H543  1  0.062500  0.395100  0.747200  1
  H  H544  1  0.437500  0.895100  0.752800  1
  H  H545  1  0.016800  0.582300  0.201000  1
  H  H546  1  0.483200  0.082300  0.299000  1
  H  H547  1  0.983200  0.417700  0.799000  1
  H  H548  1  0.516800  0.917700  0.701000  1
  H  H549  1  0.037900  0.515000  0.184000  1
  H  H550  1  0.462100  0.015000  0.316000  1
  H  H551  1  0.962100  0.485000  0.816000  1
  H  H552  1  0.537900  0.985000  0.684000  1
  H  H553  1  0.990500  0.455900  0.191400  1
  H  H554  1  0.509500  0.955900  0.308600  1
  H  H555  1  0.009500  0.544100  0.808600  1
  H  H556  1  0.490500  0.044100  0.691400  1
  H  H557  1  0.927300  0.461300  0.217900  1
  H  H558  1  0.572700  0.961300  0.282100  1
  H  H559  1  0.072700  0.538700  0.782100  1
  H  H560  1  0.427300  0.038700  0.717900  1
  H  H561  1  0.905200  0.528000  0.236000  1
  H  H562  1  0.594800  0.028000  0.264000  1
  H  H563  1  0.094800  0.472000  0.764000  1
  H  H564  1  0.405200  0.972000  0.736000  1
  H  H565  1  0.854300  0.376600  0.344900  1
  H  H566  1  0.645700  0.876600  0.155100  1
  H  H567  1  0.145700  0.623400  0.655100  1
  H  H568  1  0.354300  0.123400  0.844900  1
  H  H569  1  0.826100  0.421700  0.342200  1
  H  H570  1  0.673900  0.921700  0.157800  1
  H  H571  1  0.173900  0.578300  0.657800  1
  H  H572  1  0.326100  0.078300  0.842200  1
  H  H573  1  0.798500  0.384400  0.314700  1
  H  H574  1  0.701500  0.884400  0.185300  1
  H  H575  1  0.201500  0.615600  0.685300  1
  H  H576  1  0.298500  0.115600  0.814700  1
  H  H577  1  0.749200  0.428300  0.360700  1
  H  H578  1  0.750800  0.928300  0.139300  1
  H  H579  1  0.250800  0.571700  0.639300  1
  H  H580  1  0.249200  0.071700  0.860700  1
  H  H581  1  0.724700  0.387100  0.372700  1
  H  H582  1  0.775300  0.887100  0.127300  1
  H  H583  1  0.275300  0.612900  0.627300  1
  H  H584  1  0.224700  0.112900  0.872700  1
  H  H585  1  0.722200  0.392300  0.331600  1
  H  H586  1  0.777800  0.892300  0.168400  1
  H  H587  1  0.277800  0.607700  0.668400  1
  H  H588  1  0.222200  0.107700  0.831600  1
  H  H589  1  0.817500  0.313700  0.365500  1
  H  H590  1  0.682500  0.813700  0.134500  1
  H  H591  1  0.182500  0.686300  0.634500  1
  H  H592  1  0.317500  0.186300  0.865500  1
  H  H593  1  0.763000  0.323600  0.334500  1
  H  H594  1  0.737000  0.823600  0.165500  1
  H  H595  1  0.237000  0.676400  0.665500  1
  H  H596  1  0.263000  0.176400  0.834500  1
  H  H597  1  0.765600  0.318400  0.375500  1
  H  H598  1  0.734400  0.818400  0.124500  1
  H  H599  1  0.234400  0.681600  0.624500  1
  H  H600  1  0.265600  0.181600  0.875500  1
  H  H601  1  0.864700  0.372500  0.408900  1
  H  H602  1  0.635300  0.872500  0.091100  1
  H  H603  1  0.135300  0.627500  0.591100  1
  H  H604  1  0.364700  0.127500  0.908900  1
  H  H605  1  0.836700  0.417700  0.406000  1
  H  H606  1  0.663300  0.917700  0.094000  1
  H  H607  1  0.163300  0.582300  0.594000  1
  H  H608  1  0.336700  0.082300  0.906000  1
  H  H609  1  0.777900  0.430800  0.437800  1
  H  H610  1  0.722100  0.930800  0.062200  1
  H  H611  1  0.222100  0.569200  0.562200  1
  H  H612  1  0.277900  0.069200  0.937800  1
  H  H613  1  0.739100  0.409200  0.483300  1
  H  H614  1  0.760900  0.909200  0.016700  1
  H  H615  1  0.260900  0.590800  0.516700  1
  H  H616  1  0.239100  0.090800  0.983300  1
  H  H617  1  0.749300  0.340500  0.502400  1
  H  H618  1  0.750700  0.840500  0.997600  1
  H  H619  1  0.250700  0.659500  0.497600  1
  H  H620  1  0.249300  0.159500  0.002400  1
  H  H621  1  0.790600  0.293000  0.484700  1
  H  H622  1  0.709400  0.793000  0.015300  1
  H  H623  1  0.209400  0.707000  0.515300  1
  H  H624  1  0.290600  0.207000  0.984700  1
  H  H625  1  0.835500  0.310500  0.440600  1
  H  H626  1  0.664500  0.810500  0.059400  1
  H  H627  1  0.164500  0.689500  0.559400  1
  H  H628  1  0.335500  0.189500  0.940600  1
  H  H629  1  0.944300  0.254500  0.193000  1
  H  H630  1  0.555700  0.754500  0.307000  1
  H  H631  1  0.055700  0.745500  0.807000  1
  H  H632  1  0.444300  0.245500  0.693000  1
  H  H633  1  0.902400  0.292200  0.183800  1
  H  H634  1  0.597600  0.792200  0.316200  1
  H  H635  1  0.097600  0.707800  0.816200  1
  H  H636  1  0.402400  0.207800  0.683800  1
  H  H637  1  0.949100  0.291600  0.221800  1
  H  H638  1  0.550900  0.791600  0.278200  1
  H  H639  1  0.050900  0.708400  0.778200  1
  H  H640  1  0.449100  0.208400  0.721800  1
  H  H641  1  0.986500  0.373700  0.173400  1
  H  H642  1  0.513500  0.873700  0.326600  1
  H  H643  1  0.013500  0.626300  0.826600  1
  H  H644  1  0.486500  0.126300  0.673400  1
  H  H645  1  0.974800  0.364200  0.209800  1
  H  H646  1  0.525200  0.864200  0.290200  1
  H  H647  1  0.025200  0.635800  0.790200  1
  H  H648  1  0.474800  0.135800  0.709800  1
  H  H649  1  0.928100  0.364800  0.171900  1
  H  H650  1  0.571900  0.864800  0.328100  1
  H  H651  1  0.071900  0.635200  0.828100  1
  H  H652  1  0.428100  0.135200  0.671900  1
  H  H653  1  0.978500  0.318400  0.128200  1
  H  H654  1  0.521500  0.818400  0.371800  1
  H  H655  1  0.021500  0.681600  0.871800  1
  H  H656  1  0.478500  0.181600  0.628200  1
  H  H657  1  0.919800  0.309900  0.126400  1
  H  H658  1  0.580200  0.809900  0.373600  1
  H  H659  1  0.080200  0.690100  0.873600  1
  H  H660  1  0.419800  0.190100  0.626400  1
  H  H661  1  0.960400  0.271400  0.134100  1
  H  H662  1  0.539600  0.771400  0.365900  1
  H  H663  1  0.039600  0.728600  0.865900  1
  H  H664  1  0.460400  0.228600  0.634100  1
  H  H665  1  0.050700  0.319900  0.186900  1
  H  H666  1  0.449300  0.819900  0.313100  1
  H  H667  1  0.949300  0.680100  0.813100  1
  H  H668  1  0.550700  0.180100  0.686900  1
  H  H669  1  0.041200  0.307200  0.223500  1
  H  H670  1  0.458800  0.807200  0.276500  1
  H  H671  1  0.958800  0.692800  0.776500  1
  H  H672  1  0.541200  0.192800  0.723500  1
  H  H673  1  0.029000  0.227500  0.235100  1
  H  H674  1  0.471000  0.727500  0.264900  1
  H  H675  1  0.971000  0.772500  0.764900  1
  H  H676  1  0.529000  0.272500  0.735100  1
  H  H677  1  0.057900  0.158200  0.228400  1
  H  H678  1  0.442100  0.658200  0.271600  1
  H  H679  1  0.942100  0.841800  0.771600  1
  H  H680  1  0.557900  0.341800  0.728400  1
  H  H681  1  0.089300  0.141800  0.180400  1
  H  H682  1  0.410700  0.641800  0.319600  1
  H  H683  1  0.910700  0.858200  0.819600  1
  H  H684  1  0.589300  0.358200  0.680400  1
  H  H685  1  0.099900  0.197800  0.143500  1
  H  H686  1  0.400100  0.697800  0.356500  1
  H  H687  1  0.900100  0.802200  0.856500  1
  H  H688  1  0.599900  0.302200  0.643500  1
  H  H689  1  0.072500  0.266200  0.149600  1
  H  H690  1  0.427500  0.766200  0.350400  1
  H  H691  1  0.927500  0.733800  0.850400  1
  H  H692  1  0.572500  0.233800  0.649600  1
  H  H693  1  0.647000  0.383600  0.169300  1
  H  H694  1  0.853000  0.883600  0.330700  1
  H  H695  1  0.353000  0.616400  0.830700  1
  H  H696  1  0.147000  0.116400  0.669300  1
  H  H697  1  0.702100  0.385500  0.163300  1
  H  H698  1  0.797900  0.885500  0.336700  1
  H  H699  1  0.297900  0.614500  0.836700  1
  H  H700  1  0.202100  0.114500  0.663300  1
  H  H701  1  0.693900  0.354000  0.192900  1
  H  H702  1  0.806100  0.854000  0.307100  1
  H  H703  1  0.306100  0.646000  0.807100  1
  H  H704  1  0.193900  0.146000  0.692900  1
  H  H705  1  0.591300  0.317800  0.150100  1
  H  H706  1  0.908700  0.817800  0.349900  1
  H  H707  1  0.408700  0.682200  0.849900  1
  H  H708  1  0.091300  0.182200  0.650100  1
  H  H709  1  0.639900  0.290200  0.174300  1
  H  H710  1  0.860100  0.790200  0.325700  1
  H  H711  1  0.360100  0.709800  0.825700  1
  H  H712  1  0.139900  0.209800  0.674300  1
  H  H713  1  0.612100  0.279000  0.132400  1
  H  H714  1  0.887900  0.779000  0.367600  1
  H  H715  1  0.387900  0.721000  0.867600  1
  H  H716  1  0.112100  0.221000  0.632400  1
  H  H717  1  0.604300  0.372100  0.105700  1
  H  H718  1  0.895700  0.872100  0.394300  1
  H  H719  1  0.395700  0.627900  0.894300  1
  H  H720  1  0.104300  0.127900  0.605700  1
  H  H721  1  0.659200  0.373800  0.099500  1
  H  H722  1  0.840800  0.873800  0.400500  1
  H  H723  1  0.340800  0.626200  0.900500  1
  H  H724  1  0.159200  0.126200  0.599500  1
  H  H725  1  0.730900  0.325900  0.134600  1
  H  H726  1  0.769100  0.825900  0.365400  1
  H  H727  1  0.269100  0.674100  0.865400  1
  H  H728  1  0.230900  0.174100  0.634600  1
  H  H729  1  0.695900  0.284000  0.123100  1
  H  H730  1  0.804100  0.784000  0.376900  1
  H  H731  1  0.304100  0.716000  0.876900  1
  H  H732  1  0.195900  0.216000  0.623100  1
  H  H733  1  0.723700  0.295100  0.164900  1
  H  H734  1  0.776300  0.795100  0.335100  1
  H  H735  1  0.276300  0.704900  0.835100  1
  H  H736  1  0.223700  0.204900  0.664900  1
  H  H737  1  0.538500  0.320800  0.073000  1
  H  H738  1  0.961500  0.820800  0.427000  1
  H  H739  1  0.461500  0.679200  0.927000  1
  H  H740  1  0.038500  0.179200  0.573000  1
  H  H741  1  0.504500  0.274500  0.019000  1
  H  H742  1  0.995500  0.774500  0.481000  1
  H  H743  1  0.495500  0.725500  0.981000  1
  H  H744  1  0.004500  0.225500  0.519000  1
  H  H745  1  0.560600  0.254700  0.990300  1
  H  H746  1  0.939400  0.754700  0.509700  1
  H  H747  1  0.439400  0.745300  0.009700  1
  H  H748  1  0.060600  0.245300  0.490300  1
  H  H749  1  0.645000  0.277000  0.006900  1
  H  H750  1  0.855000  0.777000  0.493100  1
  H  H751  1  0.355000  0.723000  0.993100  1
  H  H752  1  0.145000  0.223000  0.506900  1
  H  H753  1  0.678400  0.322600  0.059000  1
  H  H754  1  0.821600  0.822600  0.441000  1
  H  H755  1  0.321600  0.677400  0.941000  1
  H  H756  1  0.178400  0.177400  0.559000  1
  H  H757  1  0.257000  0.498000  0.109500  1
  H  H758  1  0.243000  0.998000  0.390500  1
  H  H759  1  0.743000  0.502000  0.890500  1
  H  H760  1  0.757000  0.002000  0.609500  1
  H  H761  1  0.286200  0.467500  0.090200  1
  H  H762  1  0.213800  0.967500  0.409800  1
  H  H763  1  0.713800  0.532500  0.909800  1
  H  H764  1  0.786200  0.032500  0.590200  1
  H  H765  1  0.338300  0.499400  0.054500  1
  H  H766  1  0.161700  0.999400  0.445500  1
  H  H767  1  0.661700  0.500600  0.945500  1
  H  H768  1  0.838300  0.000600  0.554500  1
  H  H769  1  0.369800  0.530900  0.086300  1
  H  H770  1  0.130200  0.030900  0.413700  1
  H  H771  1  0.630200  0.469100  0.913700  1
  H  H772  1  0.869800  0.969100  0.586300  1
  H  H773  1  0.336400  0.549500  0.047500  1
  H  H774  1  0.163600  0.049500  0.452500  1
  H  H775  1  0.663600  0.450500  0.952500  1
  H  H776  1  0.836400  0.950500  0.547500  1
  H  H777  1  0.320900  0.576900  0.115600  1
  H  H778  1  0.179100  0.076900  0.384400  1
  H  H779  1  0.679100  0.423100  0.884400  1
  H  H780  1  0.820900  0.923100  0.615600  1
  H  H781  1  0.258500  0.576400  0.100700  1
  H  H782  1  0.241500  0.076400  0.399300  1
  H  H783  1  0.741500  0.423600  0.899300  1
  H  H784  1  0.758500  0.923600  0.600700  1
  H  H785  1  0.289700  0.596000  0.076500  1
  H  H786  1  0.210300  0.096000  0.423500  1
  H  H787  1  0.710300  0.404000  0.923500  1
  H  H788  1  0.789700  0.904000  0.576500  1
  H  H789  1  0.241100  0.500500  0.032700  1
  H  H790  1  0.258900  0.000500  0.467300  1
  H  H791  1  0.758900  0.499500  0.967300  1
  H  H792  1  0.741100  0.999500  0.532700  1
  H  H793  1  0.242400  0.550900  0.027400  1
  H  H794  1  0.257600  0.050900  0.472600  1
  H  H795  1  0.757600  0.449100  0.972600  1
  H  H796  1  0.742400  0.949100  0.527400  1
  H  H797  1  0.211200  0.531200  0.051600  1
  H  H798  1  0.288800  0.031200  0.448400  1
  H  H799  1  0.788800  0.468800  0.948400  1
  H  H800  1  0.711200  0.968800  0.551600  1
  H  H801  1  0.378700  0.451900  0.119500  1
  H  H802  1  0.121300  0.951900  0.380500  1
  H  H803  1  0.621300  0.548100  0.880500  1
  H  H804  1  0.878700  0.048100  0.619500  1
  H  H805  1  0.448200  0.442800  0.174400  1
  H  H806  1  0.051800  0.942800  0.325600  1
  H  H807  1  0.551800  0.557200  0.825600  1
  H  H808  1  0.948200  0.057200  0.674400  1
  H  H809  1  0.448400  0.483200  0.225100  1
  H  H810  1  0.051600  0.983200  0.274900  1
  H  H811  1  0.551600  0.516800  0.774900  1
  H  H812  1  0.948400  0.016800  0.725100  1
  H  H813  1  0.378600  0.524200  0.223700  1
  H  H814  1  0.121400  0.024200  0.276300  1
  H  H815  1  0.621400  0.475800  0.776300  1
  H  H816  1  0.878600  0.975800  0.723700  1
  H  H817  1  0.309100  0.535400  0.169000  1
  H  H818  1  0.190900  0.035400  0.331000  1
  H  H819  1  0.690900  0.464600  0.831000  1
  H  H820  1  0.809100  0.964600  0.669000  1
  H  H821  1  0.205000  0.402900  0.540400  1
  H  H822  1  0.295000  0.902900  0.959600  1
  H  H823  1  0.795000  0.597100  0.459600  1
  H  H824  1  0.705000  0.097100  0.040400  1
  H  H825  1  0.192500  0.360000  0.557700  1
  H  H826  1  0.307500  0.860000  0.942300  1
  H  H827  1  0.807500  0.640000  0.442300  1
  H  H828  1  0.692500  0.140000  0.057700  1
  H  H829  1  0.154600  0.375400  0.519000  1
  H  H830  1  0.345400  0.875400  0.981000  1
  H  H831  1  0.845400  0.624600  0.481000  1
  H  H832  1  0.654600  0.124600  0.019000  1
  H  H833  1  0.241100  0.352300  0.470200  1
  H  H834  1  0.258900  0.852300  0.029800  1
  H  H835  1  0.758900  0.647700  0.529800  1
  H  H836  1  0.741100  0.147700  0.970200  1
  H  H837  1  0.233900  0.398800  0.484200  1
  H  H838  1  0.266100  0.898800  0.015800  1
  H  H839  1  0.766100  0.601200  0.515800  1
  H  H840  1  0.733900  0.101200  0.984200  1
  H  H841  1  0.183900  0.370600  0.463700  1
  H  H842  1  0.316100  0.870600  0.036300  1
  H  H843  1  0.816100  0.629400  0.536300  1
  H  H844  1  0.683900  0.129400  0.963700  1
  H  H845  1  0.212200  0.287900  0.500100  1
  H  H846  1  0.287800  0.787900  0.999900  1
  H  H847  1  0.787800  0.712100  0.499900  1
  H  H848  1  0.712200  0.212100  0.000100  1
  H  H849  1  0.157900  0.310200  0.496400  1
  H  H850  1  0.342100  0.810200  0.003600  1
  H  H851  1  0.842100  0.689800  0.503600  1
  H  H852  1  0.657900  0.189800  0.996400  1
  H  H853  1  0.195900  0.294800  0.535200  1
  H  H854  1  0.304100  0.794800  0.964800  1
  H  H855  1  0.804100  0.705200  0.464800  1
  H  H856  1  0.695900  0.205200  0.035200  1
  H  H857  1  0.299600  0.368800  0.535700  1
  H  H858  1  0.200400  0.868800  0.964300  1
  H  H859  1  0.700400  0.631200  0.464300  1
  H  H860  1  0.799600  0.131200  0.035700  1
  H  H861  1  0.291200  0.321100  0.520200  1
  H  H862  1  0.208800  0.821100  0.979800  1
  H  H863  1  0.708800  0.678900  0.479800  1
  H  H864  1  0.791200  0.178900  0.020200  1
  H  H865  1  0.285900  0.262000  0.558900  1
  H  H866  1  0.214100  0.762000  0.941100  1
  H  H867  1  0.714100  0.738000  0.441100  1
  H  H868  1  0.785900  0.238000  0.058900  1
  H  H869  1  0.300100  0.231100  0.616500  1
  H  H870  1  0.199900  0.731100  0.883500  1
  H  H871  1  0.699900  0.768900  0.383500  1
  H  H872  1  0.800100  0.268900  0.116500  1
  H  H873  1  0.315000  0.274300  0.666900  1
  H  H874  1  0.185000  0.774300  0.833100  1
  H  H875  1  0.685000  0.725700  0.333100  1
  H  H876  1  0.815000  0.225700  0.166900  1
  H  H877  1  0.318800  0.348600  0.662000  1
  H  H878  1  0.181200  0.848600  0.838000  1
  H  H879  1  0.681200  0.651400  0.338000  1
  H  H880  1  0.818800  0.151400  0.162000  1
  H  H881  1  0.293000  0.379800  0.603900  1
  H  H882  1  0.207000  0.879800  0.896100  1
  H  H883  1  0.707000  0.620200  0.396100  1
  H  H884  1  0.793000  0.120200  0.103900  1
  H  H885  1  0.043800  0.048200  0.431800  1
  H  H886  1  0.456200  0.548200  0.068200  1
  H  H887  1  0.956200  0.951800  0.568200  1
  H  H888  1  0.543800  0.451800  0.931800  1
  H  H889  1  0.006000  0.022100  0.447500  1
  H  H890  1  0.494000  0.522100  0.052500  1
  H  H891  1  0.994000  0.977900  0.552500  1
  H  H892  1  0.506000  0.477900  0.947500  1
  H  H893  1  0.064200  0.032700  0.473000  1
  H  H894  1  0.435800  0.532700  0.027000  1
  H  H895  1  0.935800  0.967300  0.527000  1
  H  H896  1  0.564200  0.467300  0.973000  1
  H  H897  1  0.979700  0.104300  0.410400  1
  H  H898  1  0.520300  0.604300  0.089600  1
  H  H899  1  0.020300  0.895700  0.589600  1
  H  H900  1  0.479700  0.395700  0.910400  1
  H  H901  1  0.940500  0.078600  0.424900  1
  H  H902  1  0.559500  0.578600  0.075100  1
  H  H903  1  0.059500  0.921400  0.575100  1
  H  H904  1  0.440500  0.421400  0.924900  1
  H  H905  1  0.071300  0.119200  0.453000  1
  H  H906  1  0.428700  0.619200  0.047000  1
  H  H907  1  0.928700  0.880800  0.547000  1
  H  H908  1  0.571300  0.380800  0.953000  1
  H  H909  1  0.089500  0.103200  0.494100  1
  H  H910  1  0.410500  0.603200  0.005900  1
  H  H911  1  0.910500  0.896800  0.505900  1
  H  H912  1  0.589500  0.396800  0.994100  1
  H  H913  1  0.049500  0.142000  0.481400  1
  H  H914  1  0.450500  0.642000  0.018600  1
  H  H915  1  0.950500  0.858000  0.518600  1
  H  H916  1  0.549500  0.358000  0.981400  1
  H  H917  1  0.988000  0.105400  0.503000  1
  H  H918  1  0.512000  0.605400  0.997000  1
  H  H919  1  0.012000  0.894600  0.497000  1
  H  H920  1  0.488000  0.394600  0.003000  1
  H  H921  1  0.029900  0.068000  0.516700  1
  H  H922  1  0.470100  0.568000  0.983300  1
  H  H923  1  0.970100  0.932000  0.483300  1
  H  H924  1  0.529900  0.432000  0.016700  1
  H  H925  1  0.971700  0.057400  0.491100  1
  H  H926  1  0.528300  0.557400  0.008900  1
  H  H927  1  0.028300  0.942600  0.508900  1
  H  H928  1  0.471700  0.442600  0.991100  1
  H  H929  1  0.845800  0.177500  0.462400  1
  H  H930  1  0.654200  0.677500  0.037600  1
  H  H931  1  0.154200  0.822500  0.537600  1
  H  H932  1  0.345800  0.322500  0.962400  1
  H  H933  1  0.990700  0.179500  0.416800  1
  H  H934  1  0.509300  0.679500  0.083200  1
  H  H935  1  0.009300  0.820500  0.583200  1
  H  H936  1  0.490700  0.320500  0.916800  1
  H  H937  1  0.890900  0.114100  0.454800  1
  H  H938  1  0.609100  0.614100  0.045200  1
  H  H939  1  0.109100  0.885900  0.545200  1
  H  H940  1  0.390900  0.385900  0.954800  1
  H  H941  1  0.879600  0.236300  0.451100  1
  H  H942  1  0.620400  0.736300  0.048900  1
  H  H943  1  0.120400  0.763700  0.548900  1
  H  H944  1  0.379600  0.263700  0.951100  1
  H  H945  1  0.936200  0.248900  0.423900  1
  H  H946  1  0.563800  0.748900  0.076100  1
  H  H947  1  0.063800  0.751100  0.576100  1
  H  H948  1  0.436200  0.251100  0.923900  1
  H  H949  1  0.706800  0.455900  0.262800  1
  H  H950  1  0.793200  0.955900  0.237200  1
  H  H951  1  0.293200  0.544100  0.737200  1
  H  H952  1  0.206800  0.044100  0.762800  1
  H  H953  1  0.671700  0.440700  0.223200  1
  H  H954  1  0.828300  0.940700  0.276800  1
  H  H955  1  0.328300  0.559300  0.776800  1
  H  H956  1  0.171700  0.059300  0.723200  1
  H  H957  1  0.669800  0.415400  0.258000  1
  H  H958  1  0.830200  0.915400  0.242000  1
  H  H959  1  0.330200  0.584600  0.742000  1
  H  H960  1  0.169800  0.084600  0.758000  1
  H  H961  1  0.549700  0.472100  0.229600  1
  H  H962  1  0.950300  0.972100  0.270400  1
  H  H963  1  0.450300  0.527900  0.770400  1
  H  H964  1  0.049700  0.027900  0.729600  1
  H  H965  1  0.573800  0.425400  0.237800  1
  H  H966  1  0.926200  0.925400  0.262200  1
  H  H967  1  0.426200  0.574600  0.762200  1
  H  H968  1  0.073800  0.074600  0.737800  1
  H  H969  1  0.575700  0.450700  0.203000  1
  H  H970  1  0.924300  0.950700  0.297000  1
  H  H971  1  0.424300  0.549300  0.797000  1
  H  H972  1  0.075700  0.049300  0.703000  1
  H  H973  1  0.628900  0.445700  0.298900  1
  H  H974  1  0.871100  0.945700  0.201100  1
  H  H975  1  0.371100  0.554300  0.701100  1
  H  H976  1  0.128900  0.054300  0.798900  1
  H  H977  1  0.667600  0.485300  0.304900  1
  H  H978  1  0.832400  0.985300  0.195100  1
  H  H979  1  0.332400  0.514700  0.695100  1
  H  H980  1  0.167600  0.014700  0.804900  1
  H  H981  1  0.671000  0.526800  0.249700  1
  H  H982  1  0.829000  0.026800  0.250300  1
  H  H983  1  0.329000  0.473200  0.750300  1
  H  H984  1  0.171000  0.973200  0.749700  1
  H  H985  1  0.609400  0.534600  0.235800  1
  H  H986  1  0.890600  0.034600  0.264200  1
  H  H987  1  0.390600  0.465400  0.764200  1
  H  H988  1  0.109400  0.965400  0.735800  1
  H  H989  1  0.635900  0.511800  0.210000  1
  H  H990  1  0.864100  0.011800  0.290000  1
  H  H991  1  0.364100  0.488200  0.790000  1
  H  H992  1  0.135900  0.988200  0.710000  1
  H  H993  1  0.537900  0.455900  0.293300  1
  H  H994  1  0.962100  0.955900  0.206700  1
  H  H995  1  0.462100  0.544100  0.706700  1
  H  H996  1  0.037900  0.044100  0.793300  1
  H  H997  1  0.474300  0.500000  0.304500  1
  H  H998  1  0.025700  0.000000  0.195500  1
  H  H999  1  0.525700  0.500000  0.695500  1
  H  H1000  1  0.974300  0.000000  0.804500  1
  H  H1001  1  0.488500  0.570700  0.314300  1
  H  H1002  1  0.011500  0.070700  0.185700  1
  H  H1003  1  0.511500  0.429300  0.685700  1
  H  H1004  1  0.988500  0.929300  0.814300  1
  H  H1005  1  0.567400  0.602100  0.315300  1
  H  H1006  1  0.932600  0.102100  0.184700  1
  H  H1007  1  0.432600  0.397900  0.684700  1
  H  H1008  1  0.067400  0.897900  0.815300  1
  H  H1009  1  0.632800  0.560000  0.305500  1
  H  H1010  1  0.867200  0.060000  0.194500  1
  H  H1011  1  0.367200  0.440000  0.694500  1
  H  H1012  1  0.132800  0.940000  0.805500  1
  H  H1013  1  0.970200  0.649600  0.502800  1
  H  H1014  1  0.529800  0.149600  0.997200  1
  H  H1015  1  0.029800  0.350400  0.497200  1
  H  H1016  1  0.470200  0.850400  0.002800  1
  H  H1017  1  0.031000  0.660000  0.513800  1
  H  H1018  1  0.469000  0.160000  0.986200  1
  H  H1019  1  0.969000  0.340000  0.486200  1
  H  H1020  1  0.531000  0.840000  0.013800  1
  H  H1021  1  0.011100  0.627800  0.537800  1
  H  H1022  1  0.488900  0.127800  0.962200  1
  H  H1023  1  0.988900  0.372200  0.462200  1
  H  H1024  1  0.511100  0.872200  0.037800  1
  H  H1025  1  0.068700  0.559200  0.490100  1
  H  H1026  1  0.431300  0.059200  0.009900  1
  H  H1027  1  0.931300  0.440800  0.509900  1
  H  H1028  1  0.568700  0.940800  0.990100  1
  H  H1029  1  0.071300  0.572500  0.530000  1
  H  H1030  1  0.428700  0.072500  0.970000  1
  H  H1031  1  0.928700  0.427500  0.470000  1
  H  H1032  1  0.571300  0.927500  0.030000  1
  H  H1033  1  0.091200  0.604700  0.506000  1
  H  H1034  1  0.408800  0.104700  0.994000  1
  H  H1035  1  0.908800  0.395300  0.494000  1
  H  H1036  1  0.591200  0.895300  0.006000  1
  H  H1037  1  0.937500  0.577400  0.480900  1
  H  H1038  1  0.562500  0.077400  0.019100  1
  H  H1039  1  0.062500  0.422600  0.519100  1
  H  H1040  1  0.437500  0.922600  0.980900  1
  H  H1041  1  0.980100  0.556700  0.515600  1
  H  H1042  1  0.519900  0.056700  0.984400  1
  H  H1043  1  0.019900  0.443300  0.484400  1
  H  H1044  1  0.480100  0.943300  0.015600  1
  H  H1045  1  0.977000  0.542400  0.475900  1
  H  H1046  1  0.523000  0.042400  0.024100  1
  H  H1047  1  0.023000  0.457600  0.524100  1
  H  H1048  1  0.477000  0.957600  0.975900  1
  H  H1049  1  0.029300  0.635600  0.450400  1
  H  H1050  1  0.470700  0.135600  0.049600  1
  H  H1051  1  0.970700  0.364400  0.549600  1
  H  H1052  1  0.529300  0.864400  0.950400  1
  H  H1053  1  0.006200  0.589700  0.436800  1
  H  H1054  1  0.493800  0.089700  0.063200  1
  H  H1055  1  0.993800  0.410300  0.563200  1
  H  H1056  1  0.506200  0.910300  0.936800  1
  H  H1057  1  0.913400  0.579400  0.404700  1
  H  H1058  1  0.586600  0.079400  0.095300  1
  H  H1059  1  0.086600  0.420600  0.595300  1
  H  H1060  1  0.413400  0.920600  0.904700  1
  H  H1061  1  0.831800  0.609900  0.372200  1
  H  H1062  1  0.668200  0.109900  0.127800  1
  H  H1063  1  0.168200  0.390100  0.627800  1
  H  H1064  1  0.331800  0.890100  0.872200  1
  H  H1065  1  0.819100  0.683000  0.374300  1
  H  H1066  1  0.680900  0.183000  0.125700  1
  H  H1067  1  0.180900  0.317000  0.625700  1
  H  H1068  1  0.319100  0.817000  0.874300  1
  H  H1069  1  0.885200  0.725900  0.413400  1
  H  H1070  1  0.614800  0.225900  0.086600  1
  H  H1071  1  0.114800  0.274100  0.586600  1
  H  H1072  1  0.385200  0.774100  0.913400  1
  H  H1073  1  0.965600  0.697100  0.446800  1
  H  H1074  1  0.534400  0.197100  0.053200  1
  H  H1075  1  0.034400  0.302900  0.553200  1
  H  H1076  1  0.465600  0.802900  0.946800  1
  C  C1077  1  0.083200  0.476000  0.438600  1
  C  C1078  1  0.416800  0.976000  0.061400  1
  C  C1079  1  0.916800  0.524000  0.561400  1
  C  C1080  1  0.583200  0.024000  0.938600  1
  C  C1081  1  0.068600  0.514700  0.415900  1
  C  C1082  1  0.431400  0.014700  0.084100  1
  C  C1083  1  0.931400  0.485300  0.584100  1
  C  C1084  1  0.568600  0.985300  0.915900  1
  C  C1085  1  0.102800  0.551000  0.422900  1
  C  C1086  1  0.397200  0.051000  0.077100  1
  C  C1087  1  0.897200  0.449000  0.577100  1
  C  C1088  1  0.602800  0.949000  0.922900  1
  C  C1089  1  0.151700  0.547800  0.452500  1
  C  C1090  1  0.348300  0.047800  0.047500  1
  C  C1091  1  0.848300  0.452200  0.547500  1
  C  C1092  1  0.651700  0.952200  0.952500  1
  C  C1093  1  0.167100  0.510500  0.473500  1
  C  C1094  1  0.332900  0.010500  0.026500  1
  C  C1095  1  0.832900  0.489500  0.526500  1
  C  C1096  1  0.667100  0.989500  0.973500  1
  C  C1097  1  0.132400  0.475500  0.466100  1
  C  C1098  1  0.367600  0.975500  0.033900  1
  C  C1099  1  0.867600  0.524500  0.533900  1
  C  C1100  1  0.632400  0.024500  0.966100  1
  C  C1101  1  0.089700  0.591400  0.404300  1
  C  C1102  1  0.410300  0.091400  0.095700  1
  C  C1103  1  0.910300  0.408600  0.595700  1
  C  C1104  1  0.589700  0.908600  0.904300  1
  C  C1105  1  0.012800  0.633800  0.361500  1
  C  C1106  1  0.487200  0.133800  0.138500  1
  C  C1107  1  0.987200  0.366200  0.638500  1
  C  C1108  1  0.512800  0.866200  0.861500  1
  C  C1109  1  0.960300  0.627100  0.338100  1
  C  C1110  1  0.539700  0.127100  0.161900  1
  C  C1111  1  0.039700  0.372900  0.661900  1
  C  C1112  1  0.460300  0.872900  0.838100  1
  C  C1113  1  0.936700  0.586600  0.327700  1
  C  C1114  1  0.563300  0.086600  0.172300  1
  C  C1115  1  0.063300  0.413400  0.672300  1
  C  C1116  1  0.436700  0.913400  0.827700  1
  C  C1117  1  0.885500  0.582100  0.306100  1
  C  C1118  1  0.614500  0.082100  0.193900  1
  C  C1119  1  0.114500  0.417900  0.693900  1
  C  C1120  1  0.385500  0.917900  0.806100  1
  C  C1121  1  0.853400  0.619200  0.292700  1
  C  C1122  1  0.646600  0.119200  0.207300  1
  C  C1123  1  0.146600  0.380800  0.707300  1
  C  C1124  1  0.353400  0.880800  0.792700  1
  C  C1125  1  0.874200  0.658600  0.301300  1
  C  C1126  1  0.625800  0.158600  0.198700  1
  C  C1127  1  0.125800  0.341400  0.698700  1
  C  C1128  1  0.374200  0.841400  0.801300  1
  C  C1129  1  0.928800  0.665000  0.323800  1
  C  C1130  1  0.571200  0.165000  0.176200  1
  C  C1131  1  0.071200  0.335000  0.676200  1
  C  C1132  1  0.428800  0.835000  0.823800  1
  C  C1133  1  0.952700  0.706500  0.331300  1
  C  C1134  1  0.547300  0.206500  0.168700  1
  C  C1135  1  0.047300  0.293500  0.668700  1
  C  C1136  1  0.452700  0.793500  0.831300  1
  C  C1137  1  0.003300  0.710200  0.352200  1
  C  C1138  1  0.496700  0.210200  0.147800  1
  C  C1139  1  0.996700  0.289800  0.647800  1
  C  C1140  1  0.503300  0.789800  0.852200  1
  C  C1141  1  0.034700  0.674100  0.368700  1
  C  C1142  1  0.465300  0.174100  0.131300  1
  C  C1143  1  0.965300  0.325900  0.631300  1
  C  C1144  1  0.534700  0.825900  0.868700  1
  C  C1145  1  0.792100  0.703000  0.286200  1
  C  C1146  1  0.707900  0.203000  0.213800  1
  C  C1147  1  0.207900  0.297000  0.713800  1
  C  C1148  1  0.292100  0.797000  0.786200  1
  C  C1149  1  0.768800  0.745000  0.270900  1
  C  C1150  1  0.731200  0.245000  0.229100  1
  C  C1151  1  0.231200  0.255000  0.729100  1
  C  C1152  1  0.268800  0.755000  0.770900  1
  C  C1153  1  0.715900  0.753800  0.270000  1
  C  C1154  1  0.784100  0.253800  0.230000  1
  C  C1155  1  0.284100  0.246200  0.730000  1
  C  C1156  1  0.215900  0.746200  0.770000  1
  C  C1157  1  0.692600  0.791400  0.255700  1
  C  C1158  1  0.807400  0.291400  0.244300  1
  C  C1159  1  0.307400  0.208600  0.744300  1
  C  C1160  1  0.192600  0.708600  0.755700  1
  C  C1161  1  0.719200  0.822100  0.241700  1
  C  C1162  1  0.780800  0.322100  0.258300  1
  C  C1163  1  0.280800  0.177900  0.758300  1
  C  C1164  1  0.219200  0.677900  0.741700  1
  C  C1165  1  0.770100  0.814400  0.241900  1
  C  C1166  1  0.729900  0.314400  0.258100  1
  C  C1167  1  0.229900  0.185600  0.758100  1
  C  C1168  1  0.270100  0.685600  0.741900  1
  C  C1169  1  0.794900  0.775000  0.256700  1
  C  C1170  1  0.705100  0.275000  0.243300  1
  C  C1171  1  0.205100  0.225000  0.743300  1
  C  C1172  1  0.294900  0.725000  0.756700  1
  C  C1173  1  0.958200  0.373600  0.375700  1
  C  C1174  1  0.541800  0.873600  0.124300  1
  C  C1175  1  0.041800  0.626400  0.624300  1
  C  C1176  1  0.458200  0.126400  0.875700  1
  C  C1177  1  0.983100  0.389000  0.350300  1
  C  C1178  1  0.516900  0.889000  0.149700  1
  C  C1179  1  0.016900  0.611000  0.649700  1
  C  C1180  1  0.483100  0.111000  0.850300  1
  C  C1181  1  0.989600  0.359300  0.324700  1
  C  C1182  1  0.510400  0.859300  0.175300  1
  C  C1183  1  0.010400  0.640700  0.675300  1
  C  C1184  1  0.489600  0.140700  0.824700  1
  C  C1185  1  0.973100  0.316900  0.324500  1
  C  C1186  1  0.526900  0.816900  0.175500  1
  C  C1187  1  0.026900  0.683100  0.675500  1
  C  C1188  1  0.473100  0.183100  0.824500  1
  C  C1189  1  0.949900  0.302900  0.348400  1
  C  C1190  1  0.550100  0.802900  0.151600  1
  C  C1191  1  0.050100  0.697100  0.651600  1
  C  C1192  1  0.449900  0.197100  0.848400  1
  C  C1193  1  0.943200  0.331400  0.375900  1
  C  C1194  1  0.556800  0.831400  0.124100  1
  C  C1195  1  0.056800  0.668600  0.624100  1
  C  C1196  1  0.443200  0.168600  0.875900  1
  C  C1197  1  0.017100  0.371900  0.298200  1
  C  C1198  1  0.482900  0.871900  0.201800  1
  C  C1199  1  0.982900  0.628100  0.701800  1
  C  C1200  1  0.517100  0.128100  0.798200  1
  C  C1201  1  0.066800  0.430200  0.280100  1
  C  C1202  1  0.433200  0.930200  0.219900  1
  C  C1203  1  0.933200  0.569800  0.719900  1
  C  C1204  1  0.566800  0.069800  0.780100  1
  C  C1205  1  0.079000  0.474300  0.284400  1
  C  C1206  1  0.421000  0.974300  0.215600  1
  C  C1207  1  0.921000  0.525700  0.715600  1
  C  C1208  1  0.579000  0.025700  0.784400  1
  C  C1209  1  0.061200  0.501800  0.307500  1
  C  C1210  1  0.438800  0.001800  0.192500  1
  C  C1211  1  0.938800  0.498200  0.692500  1
  C  C1212  1  0.561200  0.998200  0.807500  1
  C  C1213  1  0.075400  0.543900  0.311300  1
  C  C1214  1  0.424600  0.043900  0.188700  1
  C  C1215  1  0.924600  0.456100  0.688700  1
  C  C1216  1  0.575400  0.956100  0.811300  1
  C  C1217  1  0.108200  0.562600  0.293600  1
  C  C1218  1  0.391800  0.062600  0.206400  1
  C  C1219  1  0.891800  0.437400  0.706400  1
  C  C1220  1  0.608200  0.937400  0.793600  1
  C  C1221  1  0.126200  0.537600  0.271200  1
  C  C1222  1  0.373800  0.037600  0.228800  1
  C  C1223  1  0.873800  0.462400  0.728800  1
  C  C1224  1  0.626200  0.962400  0.771200  1
  C  C1225  1  0.112300  0.493300  0.266100  1
  C  C1226  1  0.387700  0.993300  0.233900  1
  C  C1227  1  0.887700  0.506700  0.733900  1
  C  C1228  1  0.612300  0.006700  0.766100  1
  C  C1229  1  0.130400  0.465500  0.242300  1
  C  C1230  1  0.369600  0.965500  0.257700  1
  C  C1231  1  0.869600  0.534500  0.757700  1
  C  C1232  1  0.630400  0.034500  0.742300  1
  C  C1233  1  0.116700  0.424500  0.237900  1
  C  C1234  1  0.383300  0.924500  0.262100  1
  C  C1235  1  0.883300  0.575500  0.762100  1
  C  C1236  1  0.616700  0.075500  0.737900  1
  C  C1237  1  0.085500  0.404600  0.257300  1
  C  C1238  1  0.414500  0.904600  0.242700  1
  C  C1239  1  0.914500  0.595400  0.742700  1
  C  C1240  1  0.585500  0.095400  0.757300  1
  C  C1241  1  0.198900  0.581300  0.264800  1
  C  C1242  1  0.301100  0.081300  0.235200  1
  C  C1243  1  0.801100  0.418700  0.735200  1
  C  C1244  1  0.698900  0.918700  0.764800  1
  C  C1245  1  0.224500  0.598900  0.239200  1
  C  C1246  1  0.275500  0.098900  0.260800  1
  C  C1247  1  0.775500  0.401100  0.760800  1
  C  C1248  1  0.724500  0.901100  0.739200  1
  C  C1249  1  0.271700  0.622700  0.253900  1
  C  C1250  1  0.228300  0.122700  0.246100  1
  C  C1251  1  0.728300  0.377300  0.746100  1
  C  C1252  1  0.771700  0.877300  0.753900  1
  C  C1253  1  0.298400  0.638800  0.231100  1
  C  C1254  1  0.201600  0.138800  0.268900  1
  C  C1255  1  0.701600  0.361200  0.768900  1
  C  C1256  1  0.798400  0.861200  0.731100  1
  C  C1257  1  0.276300  0.628700  0.192500  1
  C  C1258  1  0.223700  0.128700  0.307500  1
  C  C1259  1  0.723700  0.371300  0.807500  1
  C  C1260  1  0.776300  0.871300  0.692500  1
  C  C1261  1  0.232300  0.605900  0.178600  1
  C  C1262  1  0.267700  0.105900  0.321400  1
  C  C1263  1  0.767700  0.394100  0.821400  1
  C  C1264  1  0.732300  0.894100  0.678600  1
  C  C1265  1  0.204200  0.590400  0.200900  1
  C  C1266  1  0.295800  0.090400  0.299100  1
  C  C1267  1  0.795800  0.409600  0.799100  1
  C  C1268  1  0.704200  0.909600  0.700900  1
  C  C1269  1  0.902400  0.493700  0.417000  1
  C  C1270  1  0.597600  0.993700  0.083000  1
  C  C1271  1  0.097600  0.506300  0.583000  1
  C  C1272  1  0.402400  0.006300  0.917000  1
  C  C1273  1  0.877900  0.494000  0.375700  1
  C  C1274  1  0.622100  0.994000  0.124300  1
  C  C1275  1  0.122100  0.506000  0.624300  1
  C  C1276  1  0.377900  0.006000  0.875700  1
  C  C1277  1  0.826300  0.505600  0.360200  1
  C  C1278  1  0.673700  0.005600  0.139800  1
  C  C1279  1  0.173700  0.494400  0.639800  1
  C  C1280  1  0.326300  0.994400  0.860200  1
  C  C1281  1  0.794400  0.516100  0.380900  1
  C  C1282  1  0.705600  0.016100  0.119100  1
  C  C1283  1  0.205600  0.483900  0.619100  1
  C  C1284  1  0.294400  0.983900  0.880900  1
  C  C1285  1  0.817100  0.516100  0.419800  1
  C  C1286  1  0.682900  0.016100  0.080200  1
  C  C1287  1  0.182900  0.483900  0.580200  1
  C  C1288  1  0.317100  0.983900  0.919800  1
  C  C1289  1  0.869500  0.504500  0.436400  1
  C  C1290  1  0.630500  0.004500  0.063600  1
  C  C1291  1  0.130500  0.495500  0.563600  1
  C  C1292  1  0.369500  0.995500  0.936400  1
  C  C1293  1  0.798300  0.504600  0.319000  1
  C  C1294  1  0.701700  0.004600  0.181000  1
  C  C1295  1  0.201700  0.495400  0.681000  1
  C  C1296  1  0.298300  0.995400  0.819000  1
  C  C1297  1  0.809000  0.487300  0.259200  1
  C  C1298  1  0.691000  0.987300  0.240800  1
  C  C1299  1  0.191000  0.512700  0.740800  1
  C  C1300  1  0.309000  0.012700  0.759200  1
  C  C1301  1  0.825300  0.453500  0.242200  1
  C  C1302  1  0.674700  0.953500  0.257800  1
  C  C1303  1  0.174700  0.546500  0.757800  1
  C  C1304  1  0.325300  0.046500  0.742200  1
  C  C1305  1  0.862500  0.422700  0.262800  1
  C  C1306  1  0.637500  0.922700  0.237200  1
  C  C1307  1  0.137500  0.577300  0.737200  1
  C  C1308  1  0.362500  0.077300  0.762800  1
  C  C1309  1  0.876000  0.388800  0.245800  1
  C  C1310  1  0.624000  0.888800  0.254200  1
  C  C1311  1  0.124000  0.611200  0.754200  1
  C  C1312  1  0.376000  0.111200  0.745800  1
  C  C1313  1  0.852500  0.382100  0.207200  1
  C  C1314  1  0.647500  0.882100  0.292800  1
  C  C1315  1  0.147500  0.617900  0.792800  1
  C  C1316  1  0.352500  0.117900  0.707200  1
  C  C1317  1  0.818500  0.411300  0.186200  1
  C  C1318  1  0.681500  0.911300  0.313800  1
  C  C1319  1  0.181500  0.588700  0.813800  1
  C  C1320  1  0.318500  0.088700  0.686200  1
  C  C1321  1  0.804000  0.448800  0.202300  1
  C  C1322  1  0.696000  0.948800  0.297700  1
  C  C1323  1  0.196000  0.551200  0.797700  1
  C  C1324  1  0.304000  0.051200  0.702300  1
  C  C1325  1  0.768700  0.481000  0.182200  1
  C  C1326  1  0.731300  0.981000  0.317800  1
  C  C1327  1  0.231300  0.519000  0.817800  1
  C  C1328  1  0.268700  0.019000  0.682200  1
  C  C1329  1  0.754700  0.515600  0.199000  1
  C  C1330  1  0.745300  0.015600  0.301000  1
  C  C1331  1  0.245300  0.484400  0.801000  1
  C  C1332  1  0.254700  0.984400  0.699000  1
  C  C1333  1  0.776000  0.519300  0.238700  1
  C  C1334  1  0.724000  0.019300  0.261300  1
  C  C1335  1  0.224000  0.480700  0.761300  1
  C  C1336  1  0.276000  0.980700  0.738700  1
  C  C1337  1  0.804900  0.375400  0.125400  1
  C  C1338  1  0.695100  0.875400  0.374600  1
  C  C1339  1  0.195100  0.624600  0.874600  1
  C  C1340  1  0.304900  0.124600  0.625400  1
  C  C1341  1  0.769900  0.378700  0.085600  1
  C  C1342  1  0.730100  0.878700  0.414400  1
  C  C1343  1  0.230100  0.621300  0.914400  1
  C  C1344  1  0.269900  0.121300  0.585600  1
  C  C1345  1  0.733200  0.410600  0.070100  1
  C  C1346  1  0.766800  0.910600  0.429900  1
  C  C1347  1  0.266800  0.589400  0.929900  1
  C  C1348  1  0.233200  0.089400  0.570100  1
  C  C1349  1  0.704100  0.409200  0.031300  1
  C  C1350  1  0.795900  0.909200  0.468700  1
  C  C1351  1  0.295900  0.590800  0.968700  1
  C  C1352  1  0.204100  0.090800  0.531300  1
  C  C1353  1  0.712900  0.377400  0.009700  1
  C  C1354  1  0.787100  0.877400  0.490300  1
  C  C1355  1  0.287100  0.622600  0.990300  1
  C  C1356  1  0.212900  0.122600  0.509700  1
  C  C1357  1  0.751600  0.345700  0.025200  1
  C  C1358  1  0.748400  0.845700  0.474800  1
  C  C1359  1  0.248400  0.654300  0.974800  1
  C  C1360  1  0.251600  0.154300  0.525200  1
  C  C1361  1  0.780600  0.345900  0.062200  1
  C  C1362  1  0.719400  0.845900  0.437800  1
  C  C1363  1  0.219400  0.654100  0.937800  1
  C  C1364  1  0.280600  0.154100  0.562200  1
  C  C1365  1  0.637600  0.541100  0.003000  1
  C  C1366  1  0.862400  0.041100  0.497000  1
  C  C1367  1  0.362400  0.458900  0.997000  1
  C  C1368  1  0.137600  0.958900  0.503000  1
  C  C1369  1  0.693100  0.544300  0.018500  1
  C  C1370  1  0.806900  0.044300  0.481500  1
  C  C1371  1  0.306900  0.455700  0.981500  1
  C  C1372  1  0.193100  0.955700  0.518500  1
  C  C1373  1  0.723800  0.568200  0.002500  1
  C  C1374  1  0.776200  0.068200  0.497500  1
  C  C1375  1  0.276200  0.431800  0.997500  1
  C  C1376  1  0.223800  0.931800  0.502500  1
  C  C1377  1  0.694500  0.592300  0.969100  1
  C  C1378  1  0.805500  0.092300  0.530900  1
  C  C1379  1  0.305500  0.407700  0.030900  1
  C  C1380  1  0.194500  0.907700  0.469100  1
  C  C1381  1  0.641800  0.589900  0.955000  1
  C  C1382  1  0.858200  0.089900  0.545000  1
  C  C1383  1  0.358200  0.410100  0.045000  1
  C  C1384  1  0.141800  0.910100  0.455000  1
  C  C1385  1  0.611500  0.565200  0.971000  1
  C  C1386  1  0.888500  0.065200  0.529000  1
  C  C1387  1  0.388500  0.434800  0.029000  1
  C  C1388  1  0.111500  0.934800  0.471000  1
  C  C1389  1  0.780500  0.570900  0.015900  1
  C  C1390  1  0.719500  0.070900  0.484100  1
  C  C1391  1  0.219500  0.429100  0.984100  1
  C  C1392  1  0.280500  0.929100  0.515900  1
  C  C1393  1  0.861400  0.545400  0.065100  1
  C  C1394  1  0.638600  0.045400  0.434900  1
  C  C1395  1  0.138600  0.454600  0.934900  1
  C  C1396  1  0.361400  0.954600  0.565100  1
  C  C1397  1  0.885300  0.503800  0.074900  1
  C  C1398  1  0.614700  0.003800  0.425100  1
  C  C1399  1  0.114700  0.496200  0.925100  1
  C  C1400  1  0.385300  0.996200  0.574900  1
  C  C1401  1  0.855300  0.465500  0.065000  1
  C  C1402  1  0.644700  0.965500  0.435000  1
  C  C1403  1  0.144700  0.534500  0.935000  1
  C  C1404  1  0.355300  0.034500  0.565000  1
  C  C1405  1  0.879300  0.426100  0.073900  1
  C  C1406  1  0.620700  0.926100  0.426100  1
  C  C1407  1  0.120700  0.573900  0.926100  1
  C  C1408  1  0.379300  0.073900  0.573900  1
  C  C1409  1  0.933000  0.422500  0.092400  1
  C  C1410  1  0.567000  0.922500  0.407600  1
  C  C1411  1  0.067000  0.577500  0.907600  1
  C  C1412  1  0.433000  0.077500  0.592400  1
  C  C1413  1  0.965000  0.458300  0.103500  1
  C  C1414  1  0.535000  0.958300  0.396500  1
  C  C1415  1  0.035000  0.541700  0.896500  1
  C  C1416  1  0.465000  0.041700  0.603500  1
  C  C1417  1  0.941600  0.500100  0.093400  1
  C  C1418  1  0.558400  0.000100  0.406600  1
  C  C1419  1  0.058400  0.499900  0.906600  1
  C  C1420  1  0.441600  0.999900  0.593400  1
  C  C1421  1  0.971600  0.539600  0.101100  1
  C  C1422  1  0.528400  0.039600  0.398900  1
  C  C1423  1  0.028400  0.460400  0.898900  1
  C  C1424  1  0.471600  0.960400  0.601100  1
  C  C1425  1  0.947600  0.578200  0.092200  1
  C  C1426  1  0.552400  0.078200  0.407800  1
  C  C1427  1  0.052400  0.421800  0.907800  1
  C  C1428  1  0.447600  0.921800  0.592200  1
  C  C1429  1  0.891400  0.581300  0.074000  1
  C  C1430  1  0.608600  0.081300  0.426000  1
  C  C1431  1  0.108600  0.418700  0.926000  1
  C  C1432  1  0.391400  0.918700  0.574000  1
  C  C1433  1  0.051300  0.420000  0.134300  1
  C  C1434  1  0.448700  0.920000  0.365700  1
  C  C1435  1  0.948700  0.580000  0.865700  1
  C  C1436  1  0.551300  0.080000  0.634300  1
  C  C1437  1  0.108700  0.427700  0.144100  1
  C  C1438  1  0.391300  0.927700  0.355900  1
  C  C1439  1  0.891300  0.572300  0.855900  1
  C  C1440  1  0.608700  0.072300  0.644100  1
  C  C1441  1  0.132100  0.467300  0.143500  1
  C  C1442  1  0.367900  0.967300  0.356500  1
  C  C1443  1  0.867900  0.532700  0.856500  1
  C  C1444  1  0.632100  0.032700  0.643500  1
  C  C1445  1  0.188800  0.470000  0.151200  1
  C  C1446  1  0.311200  0.970000  0.348800  1
  C  C1447  1  0.811200  0.530000  0.848800  1
  C  C1448  1  0.688800  0.030000  0.651200  1
  C  C1449  1  0.217400  0.431600  0.159200  1
  C  C1450  1  0.282600  0.931600  0.340800  1
  C  C1451  1  0.782600  0.568400  0.840800  1
  C  C1452  1  0.717400  0.068400  0.659200  1
  C  C1453  1  0.194500  0.392300  0.160400  1
  C  C1454  1  0.305500  0.892300  0.339600  1
  C  C1455  1  0.805500  0.607700  0.839600  1
  C  C1456  1  0.694500  0.107700  0.660400  1
  C  C1457  1  0.141300  0.390300  0.152900  1
  C  C1458  1  0.358700  0.890300  0.347100  1
  C  C1459  1  0.858700  0.609700  0.847100  1
  C  C1460  1  0.641300  0.109700  0.652900  1
  C  C1461  1  0.587000  0.463400  0.089100  1
  C  C1462  1  0.913000  0.963400  0.410900  1
  C  C1463  1  0.413000  0.536600  0.910900  1
  C  C1464  1  0.087000  0.036600  0.589100  1
  C  C1465  1  0.614600  0.501900  0.108100  1
  C  C1466  1  0.885400  0.001900  0.391900  1
  C  C1467  1  0.385400  0.498100  0.891900  1
  C  C1468  1  0.114600  0.998100  0.608100  1
  C  C1469  1  0.595500  0.524200  0.132500  1
  C  C1470  1  0.904500  0.024200  0.367500  1
  C  C1471  1  0.404500  0.475800  0.867500  1
  C  C1472  1  0.095500  0.975800  0.632500  1
  C  C1473  1  0.549500  0.506600  0.138600  1
  C  C1474  1  0.950500  0.006600  0.361400  1
  C  C1475  1  0.450500  0.493400  0.861400  1
  C  C1476  1  0.049500  0.993400  0.638600  1
  C  C1477  1  0.525600  0.469700  0.121800  1
  C  C1478  1  0.974400  0.969700  0.378200  1
  C  C1479  1  0.474400  0.530300  0.878200  1
  C  C1480  1  0.025600  0.030300  0.621800  1
  C  C1481  1  0.544500  0.448500  0.097600  1
  C  C1482  1  0.955500  0.948500  0.402400  1
  C  C1483  1  0.455500  0.551500  0.902400  1
  C  C1484  1  0.044500  0.051500  0.597600  1
  C  C1485  1  0.617000  0.566000  0.149900  1
  C  C1486  1  0.883000  0.066000  0.350100  1
  C  C1487  1  0.383000  0.434000  0.850100  1
  C  C1488  1  0.117000  0.934000  0.649900  1
  C  C1489  1  0.683700  0.622500  0.151900  1
  C  C1490  1  0.816300  0.122500  0.348100  1
  C  C1491  1  0.316300  0.377500  0.848100  1
  C  C1492  1  0.183700  0.877500  0.651900  1
  C  C1493  1  0.715600  0.638500  0.133200  1
  C  C1494  1  0.784400  0.138500  0.366800  1
  C  C1495  1  0.284400  0.361500  0.866800  1
  C  C1496  1  0.215600  0.861500  0.633200  1
  C  C1497  1  0.726200  0.613400  0.105900  1
  C  C1498  1  0.773800  0.113400  0.394100  1
  C  C1499  1  0.273800  0.386600  0.894100  1
  C  C1500  1  0.226200  0.886600  0.605900  1
  C  C1501  1  0.759400  0.629000  0.088900  1
  C  C1502  1  0.740600  0.129000  0.411100  1
  C  C1503  1  0.240600  0.371000  0.911100  1
  C  C1504  1  0.259400  0.871000  0.588900  1
  C  C1505  1  0.784600  0.670300  0.097500  1
  C  C1506  1  0.715400  0.170300  0.402500  1
  C  C1507  1  0.215400  0.329700  0.902500  1
  C  C1508  1  0.284600  0.829700  0.597500  1
  C  C1509  1  0.774000  0.695600  0.123000  1
  C  C1510  1  0.726000  0.195600  0.377000  1
  C  C1511  1  0.226000  0.304400  0.877000  1
  C  C1512  1  0.274000  0.804400  0.623000  1
  C  C1513  1  0.742100  0.679300  0.141600  1
  C  C1514  1  0.757900  0.179300  0.358400  1
  C  C1515  1  0.257900  0.320700  0.858400  1
  C  C1516  1  0.242100  0.820700  0.641600  1
  C  C1517  1  0.733800  0.703400  0.170600  1
  C  C1518  1  0.766200  0.203400  0.329400  1
  C  C1519  1  0.266200  0.296600  0.829400  1
  C  C1520  1  0.233800  0.796600  0.670600  1
  C  C1521  1  0.703800  0.686400  0.189600  1
  C  C1522  1  0.796200  0.186400  0.310400  1
  C  C1523  1  0.296200  0.313600  0.810400  1
  C  C1524  1  0.203800  0.813600  0.689600  1
  C  C1525  1  0.677900  0.645000  0.181100  1
  C  C1526  1  0.822100  0.145000  0.318900  1
  C  C1527  1  0.322100  0.355000  0.818900  1
  C  C1528  1  0.177900  0.855000  0.681100  1
  C  C1529  1  0.812300  0.763100  0.108800  1
  C  C1530  1  0.687700  0.263100  0.391200  1
  C  C1531  1  0.187700  0.236900  0.891200  1
  C  C1532  1  0.312300  0.736900  0.608800  1
  C  C1533  1  0.839200  0.804400  0.123200  1
  C  C1534  1  0.660800  0.304400  0.376800  1
  C  C1535  1  0.160800  0.195600  0.876800  1
  C  C1536  1  0.339200  0.695600  0.623200  1
  C  C1537  1  0.854400  0.815600  0.161100  1
  C  C1538  1  0.645600  0.315600  0.338900  1
  C  C1539  1  0.145600  0.184400  0.838900  1
  C  C1540  1  0.354400  0.684400  0.661100  1
  C  C1541  1  0.878200  0.856600  0.172300  1
  C  C1542  1  0.621800  0.356600  0.327700  1
  C  C1543  1  0.121800  0.143400  0.827700  1
  C  C1544  1  0.378200  0.643400  0.672300  1
  C  C1545  1  0.889400  0.884300  0.147300  1
  C  C1546  1  0.610600  0.384300  0.352700  1
  C  C1547  1  0.110600  0.115700  0.852700  1
  C  C1548  1  0.389400  0.615700  0.647300  1
  C  C1549  1  0.874000  0.872300  0.108600  1
  C  C1550  1  0.626000  0.372300  0.391400  1
  C  C1551  1  0.126000  0.127700  0.891400  1
  C  C1552  1  0.374000  0.627700  0.608600  1
  C  C1553  1  0.848700  0.833500  0.098500  1
  C  C1554  1  0.651300  0.333500  0.401500  1
  C  C1555  1  0.151300  0.166500  0.901500  1
  C  C1556  1  0.348700  0.666500  0.598500  1
  C  C1557  1  0.949100  0.842900  0.298400  1
  C  C1558  1  0.550900  0.342900  0.201600  1
  C  C1559  1  0.050900  0.157100  0.701600  1
  C  C1560  1  0.449100  0.657100  0.798400  1
  C  C1561  1  0.973900  0.810100  0.283600  1
  C  C1562  1  0.526100  0.310100  0.216400  1
  C  C1563  1  0.026100  0.189900  0.716400  1
  C  C1564  1  0.473900  0.689900  0.783600  1
  C  C1565  1  0.024400  0.796400  0.301500  1
  C  C1566  1  0.475600  0.296400  0.198500  1
  C  C1567  1  0.975600  0.203600  0.698500  1
  C  C1568  1  0.524400  0.703600  0.801500  1
  C  C1569  1  0.054200  0.817500  0.335200  1
  C  C1570  1  0.445800  0.317500  0.164800  1
  C  C1571  1  0.945800  0.182500  0.664800  1
  C  C1572  1  0.554200  0.682500  0.835200  1
  C  C1573  1  0.032500  0.849500  0.349900  1
  C  C1574  1  0.467500  0.349500  0.150100  1
  C  C1575  1  0.967500  0.150500  0.650100  1
  C  C1576  1  0.532500  0.650500  0.849900  1
  C  C1577  1  0.980200  0.862500  0.331700  1
  C  C1578  1  0.519800  0.362500  0.168300  1
  C  C1579  1  0.019800  0.137500  0.668300  1
  C  C1580  1  0.480200  0.637500  0.831700  1
  C  C1581  1  0.051500  0.762400  0.288300  1
  C  C1582  1  0.448500  0.262400  0.211700  1
  C  C1583  1  0.948500  0.237600  0.711700  1
  C  C1584  1  0.551500  0.737600  0.788300  1
  C  C1585  1  0.043900  0.716100  0.234000  1
  C  C1586  1  0.456100  0.216100  0.266000  1
  C  C1587  1  0.956100  0.283900  0.766000  1
  C  C1588  1  0.543900  0.783900  0.734000  1
  C  C1589  1  0.019700  0.717300  0.194700  1
  C  C1590  1  0.480300  0.217300  0.305300  1
  C  C1591  1  0.980300  0.282700  0.805300  1
  C  C1592  1  0.519700  0.782700  0.694700  1
  C  C1593  1  0.977800  0.745100  0.177700  1
  C  C1594  1  0.522200  0.245100  0.322300  1
  C  C1595  1  0.022200  0.254900  0.822300  1
  C  C1596  1  0.477800  0.754900  0.677700  1
  C  C1597  1  0.954000  0.745300  0.139900  1
  C  C1598  1  0.546000  0.245300  0.360100  1
  C  C1599  1  0.046000  0.254700  0.860100  1
  C  C1600  1  0.454000  0.754700  0.639900  1
  C  C1601  1  0.973700  0.718000  0.117500  1
  C  C1602  1  0.526300  0.218000  0.382500  1
  C  C1603  1  0.026300  0.282000  0.882500  1
  C  C1604  1  0.473700  0.782000  0.617500  1
  C  C1605  1  0.016800  0.691800  0.133700  1
  C  C1606  1  0.483200  0.191800  0.366300  1
  C  C1607  1  0.983200  0.308200  0.866300  1
  C  C1608  1  0.516800  0.808200  0.633700  1
  C  C1609  1  0.039900  0.690000  0.172100  1
  C  C1610  1  0.460100  0.190000  0.327900  1
  C  C1611  1  0.960100  0.310000  0.827900  1
  C  C1612  1  0.539900  0.810000  0.672100  1
  C  C1613  1  0.081100  0.662400  0.189800  1
  C  C1614  1  0.418900  0.162400  0.310200  1
  C  C1615  1  0.918900  0.337600  0.810200  1
  C  C1616  1  0.581100  0.837600  0.689800  1
  C  C1617  1  0.101900  0.660000  0.227500  1
  C  C1618  1  0.398100  0.160000  0.272500  1
  C  C1619  1  0.898100  0.340000  0.772500  1
  C  C1620  1  0.601900  0.840000  0.727500  1
  C  C1621  1  0.082700  0.687700  0.250400  1
  C  C1622  1  0.417300  0.187700  0.249600  1
  C  C1623  1  0.917300  0.312300  0.749600  1
  C  C1624  1  0.582700  0.812300  0.750400  1
  C  C1625  1  0.032600  0.671400  0.075900  1
  C  C1626  1  0.467400  0.171400  0.424100  1
  C  C1627  1  0.967400  0.328600  0.924100  1
  C  C1628  1  0.532600  0.828600  0.575900  1
  C  C1629  1  0.059100  0.639200  0.059700  1
  C  C1630  1  0.440900  0.139200  0.440300  1
  C  C1631  1  0.940900  0.360800  0.940300  1
  C  C1632  1  0.559100  0.860800  0.559700  1
  C  C1633  1  0.088600  0.605200  0.078500  1
  C  C1634  1  0.411400  0.105200  0.421500  1
  C  C1635  1  0.911400  0.394800  0.921500  1
  C  C1636  1  0.588600  0.894800  0.578500  1
  C  C1637  1  0.117900  0.578500  0.061500  1
  C  C1638  1  0.382100  0.078500  0.438500  1
  C  C1639  1  0.882100  0.421500  0.938500  1
  C  C1640  1  0.617900  0.921500  0.561500  1
  C  C1641  1  0.112600  0.586600  0.024300  1
  C  C1642  1  0.387400  0.086600  0.475700  1
  C  C1643  1  0.887400  0.413400  0.975700  1
  C  C1644  1  0.612600  0.913400  0.524300  1
  C  C1645  1  0.082100  0.621100  0.005400  1
  C  C1646  1  0.417900  0.121100  0.494600  1
  C  C1647  1  0.917900  0.378900  0.994600  1
  C  C1648  1  0.582100  0.878900  0.505400  1
  C  C1649  1  0.056900  0.647500  0.023300  1
  C  C1650  1  0.443100  0.147500  0.476700  1
  C  C1651  1  0.943100  0.352500  0.976700  1
  C  C1652  1  0.556900  0.852500  0.523300  1
  C  C1653  1  0.340900  0.356600  0.189700  1
  C  C1654  1  0.159100  0.856600  0.310300  1
  C  C1655  1  0.659100  0.643400  0.810300  1
  C  C1656  1  0.840900  0.143400  0.689700  1
  C  C1657  1  0.301100  0.354100  0.120800  1
  C  C1658  1  0.198900  0.854100  0.379200  1
  C  C1659  1  0.698900  0.645900  0.879200  1
  C  C1660  1  0.801100  0.145900  0.620800  1
  C  C1661  1  0.296200  0.289800  0.156500  1
  C  C1662  1  0.203800  0.789800  0.343500  1
  C  C1663  1  0.703800  0.710200  0.843500  1
  C  C1664  1  0.796200  0.210200  0.656500  1
  C  C1665  1  0.089700  0.791700  0.447200  1
  C  C1666  1  0.410300  0.291700  0.052800  1
  C  C1667  1  0.910300  0.208300  0.552800  1
  C  C1668  1  0.589700  0.708300  0.947200  1
  C  C1669  1  0.140900  0.745600  0.420300  1
  C  C1670  1  0.359100  0.245600  0.079700  1
  C  C1671  1  0.859100  0.254400  0.579700  1
  C  C1672  1  0.640900  0.754400  0.920300  1
  C  C1673  1  0.098400  0.715000  0.461200  1
  C  C1674  1  0.401600  0.215000  0.038800  1
  C  C1675  1  0.901600  0.285000  0.538800  1
  C  C1676  1  0.598400  0.785000  0.961200  1
  C  C1677  1  0.005000  0.091400  0.288000  1
  C  C1678  1  0.495000  0.591400  0.212000  1
  C  C1679  1  0.995000  0.908600  0.712000  1
  C  C1680  1  0.505000  0.408600  0.788000  1
  C  C1681  1  0.092100  0.128800  0.319200  1
  C  C1682  1  0.407900  0.628800  0.180800  1
  C  C1683  1  0.907900  0.871200  0.680800  1
  C  C1684  1  0.592100  0.371200  0.819200  1
  C  C1685  1  0.041500  0.099500  0.354100  1
  C  C1686  1  0.458500  0.599500  0.145900  1
  C  C1687  1  0.958500  0.900500  0.645900  1
  C  C1688  1  0.541500  0.400500  0.854100  1
  C  C1689  1  0.231500  0.294700  0.004800  1
  C  C1690  1  0.268500  0.794700  0.495200  1
  C  C1691  1  0.768500  0.705300  0.995200  1
  C  C1692  1  0.731500  0.205300  0.504800  1
  C  C1693  1  0.184500  0.263300  0.000300  1
  C  C1694  1  0.315500  0.763300  0.499700  1
  C  C1695  1  0.815500  0.736700  0.999700  1
  C  C1696  1  0.684500  0.236700  0.500300  1
  C  C1697  1  0.143200  0.294300  0.976000  1
  C  C1698  1  0.356800  0.794300  0.524000  1
  C  C1699  1  0.856800  0.705700  0.024000  1
  C  C1700  1  0.643200  0.205700  0.476000  1
  C  C1701  1  0.076900  0.467200  0.000900  1
  C  C1702  1  0.423100  0.967200  0.499100  1
  C  C1703  1  0.923100  0.532800  0.999100  1
  C  C1704  1  0.576900  0.032800  0.500900  1
  C  C1705  1  0.044400  0.442900  0.047600  1
  C  C1706  1  0.455600  0.942900  0.452400  1
  C  C1707  1  0.955600  0.557100  0.952400  1
  C  C1708  1  0.544400  0.057100  0.547600  1
  C  C1709  1  0.138800  0.443600  0.058600  1
  C  C1710  1  0.361200  0.943600  0.441400  1
  C  C1711  1  0.861200  0.556400  0.941400  1
  C  C1712  1  0.638800  0.056400  0.558600  1
  C  C1713  1  0.081600  0.390400  0.014600  1
  C  C1714  1  0.418400  0.890400  0.485400  1
  C  C1715  1  0.918400  0.609600  0.985400  1
  C  C1716  1  0.581600  0.109600  0.514600  1
  C  C1717  1  0.097300  0.354900  0.042400  1
  C  C1718  1  0.402700  0.854900  0.457600  1
  C  C1719  1  0.902700  0.645100  0.957600  1
  C  C1720  1  0.597300  0.145100  0.542400  1
  C  C1721  1  0.146800  0.340300  0.055300  1
  C  C1722  1  0.353200  0.840300  0.444700  1
  C  C1723  1  0.853200  0.659700  0.944700  1
  C  C1724  1  0.646800  0.159700  0.555300  1
  C  C1725  1  0.160200  0.305900  0.080000  1
  C  C1726  1  0.339800  0.805900  0.420000  1
  C  C1727  1  0.839800  0.694100  0.920000  1
  C  C1728  1  0.660200  0.194100  0.580000  1
  C  C1729  1  0.122400  0.286900  0.091800  1
  C  C1730  1  0.377600  0.786900  0.408200  1
  C  C1731  1  0.877600  0.713100  0.908200  1
  C  C1732  1  0.622400  0.213100  0.591800  1
  C  C1733  1  0.071600  0.302300  0.080200  1
  C  C1734  1  0.428400  0.802300  0.419800  1
  C  C1735  1  0.928400  0.697700  0.919800  1
  C  C1736  1  0.571600  0.197700  0.580200  1
  C  C1737  1  0.057700  0.337300  0.055200  1
  C  C1738  1  0.442300  0.837300  0.444800  1
  C  C1739  1  0.942300  0.662700  0.944800  1
  C  C1740  1  0.557700  0.162700  0.555200  1
  C  C1741  1  0.323700  0.166000  0.146500  1
  C  C1742  1  0.176300  0.666000  0.353500  1
  C  C1743  1  0.676300  0.834000  0.853500  1
  C  C1744  1  0.823700  0.334000  0.646500  1
  C  C1745  1  0.227900  0.163300  0.138100  1
  C  C1746  1  0.272100  0.663300  0.361900  1
  C  C1747  1  0.772100  0.836700  0.861900  1
  C  C1748  1  0.727900  0.336700  0.638100  1
  C  C1749  1  0.258900  0.170100  0.083000  1
  C  C1750  1  0.241100  0.670100  0.417000  1
  C  C1751  1  0.741100  0.829900  0.917000  1
  C  C1752  1  0.758900  0.329900  0.583000  1
  C  C1753  1  0.273900  0.101100  0.118200  1
  C  C1754  1  0.226100  0.601100  0.381800  1
  C  C1755  1  0.726100  0.898900  0.881800  1
  C  C1756  1  0.773900  0.398900  0.618200  1
  C  C1757  1  0.143400  0.171900  0.086300  1
  C  C1758  1  0.356600  0.671900  0.413700  1
  C  C1759  1  0.856600  0.828100  0.913700  1
  C  C1760  1  0.643400  0.328100  0.586300  1
  C  C1761  1  0.176200  0.148800  0.117800  1
  C  C1762  1  0.323800  0.648800  0.382200  1
  C  C1763  1  0.823800  0.851200  0.882200  1
  C  C1764  1  0.676200  0.351200  0.617800  1
  C  C1765  1  0.157500  0.111300  0.129800  1
  C  C1766  1  0.342500  0.611300  0.370200  1
  C  C1767  1  0.842500  0.888700  0.870200  1
  C  C1768  1  0.657500  0.388700  0.629800  1
  C  C1769  1  0.091300  0.156600  0.067400  1
  C  C1770  1  0.408700  0.656600  0.432600  1
  C  C1771  1  0.908700  0.843400  0.932600  1
  C  C1772  1  0.591300  0.343400  0.567400  1
  C  C1773  1  0.104700  0.096900  0.111600  1
  C  C1774  1  0.395300  0.596900  0.388400  1
  C  C1775  1  0.895300  0.903100  0.888400  1
  C  C1776  1  0.604700  0.403100  0.611600  1
  C  C1777  1  0.070800  0.122000  0.082100  1
  C  C1778  1  0.429200  0.622000  0.417900  1
  C  C1779  1  0.929200  0.878000  0.917900  1
  C  C1780  1  0.570800  0.378000  0.582100  1
  C  C1781  1  0.892800  0.673600  0.213500  1
  C  C1782  1  0.607200  0.173600  0.286500  1
  C  C1783  1  0.107200  0.326400  0.786500  1
  C  C1784  1  0.392800  0.826400  0.713500  1
  C  C1785  1  0.912500  0.632400  0.165200  1
  C  C1786  1  0.587500  0.132400  0.334800  1
  C  C1787  1  0.087500  0.367600  0.834800  1
  C  C1788  1  0.412500  0.867600  0.665200  1
  C  C1789  1  0.851900  0.604800  0.194400  1
  C  C1790  1  0.648100  0.104800  0.305600  1
  C  C1791  1  0.148100  0.395200  0.805600  1
  C  C1792  1  0.351900  0.895200  0.694400  1
  C  C1793  1  0.946100  0.607200  0.230400  1
  C  C1794  1  0.553900  0.107200  0.269600  1
  C  C1795  1  0.053900  0.392800  0.769600  1
  C  C1796  1  0.446100  0.892800  0.730400  1
  C  C1797  1  0.959100  0.563000  0.220100  1
  C  C1798  1  0.540900  0.063000  0.279900  1
  C  C1799  1  0.040900  0.437000  0.779900  1
  C  C1800  1  0.459100  0.937000  0.720100  1
  C  C1801  1  0.998500  0.557900  0.204500  1
  C  C1802  1  0.501500  0.057900  0.295500  1
  C  C1803  1  0.001500  0.442100  0.795500  1
  C  C1804  1  0.498500  0.942100  0.704500  1
  C  C1805  1  0.011000  0.518100  0.194100  1
  C  C1806  1  0.489000  0.018100  0.305900  1
  C  C1807  1  0.989000  0.481900  0.805900  1
  C  C1808  1  0.511000  0.981900  0.694100  1
  C  C1809  1  0.983000  0.483000  0.199000  1
  C  C1810  1  0.517000  0.983000  0.301000  1
  C  C1811  1  0.017000  0.517000  0.801000  1
  C  C1812  1  0.483000  0.017000  0.699000  1
  C  C1813  1  0.944900  0.486200  0.214500  1
  C  C1814  1  0.555100  0.986200  0.285500  1
  C  C1815  1  0.055100  0.513800  0.785500  1
  C  C1816  1  0.444900  0.013800  0.714500  1
  C  C1817  1  0.931600  0.525800  0.225400  1
  C  C1818  1  0.568400  0.025800  0.274600  1
  C  C1819  1  0.068400  0.474200  0.774600  1
  C  C1820  1  0.431600  0.974200  0.725400  1
  C  C1821  1  0.820600  0.390900  0.339500  1
  C  C1822  1  0.679400  0.890900  0.160500  1
  C  C1823  1  0.179400  0.609100  0.660500  1
  C  C1824  1  0.320600  0.109100  0.839500  1
  C  C1825  1  0.743200  0.397700  0.356900  1
  C  C1826  1  0.756800  0.897700  0.143100  1
  C  C1827  1  0.256800  0.602300  0.643100  1
  C  C1828  1  0.243200  0.102300  0.856900  1
  C  C1829  1  0.784200  0.328700  0.359800  1
  C  C1830  1  0.715800  0.828700  0.140200  1
  C  C1831  1  0.215800  0.671300  0.640200  1
  C  C1832  1  0.284200  0.171300  0.859800  1
  C  C1833  1  0.830700  0.386600  0.404300  1
  C  C1834  1  0.669300  0.886600  0.095700  1
  C  C1835  1  0.169300  0.613400  0.595700  1
  C  C1836  1  0.330700  0.113400  0.904300  1
  C  C1837  1  0.808100  0.372900  0.433600  1
  C  C1838  1  0.691900  0.872900  0.066400  1
  C  C1839  1  0.191900  0.627100  0.566400  1
  C  C1840  1  0.308100  0.127100  0.933600  1
  C  C1841  1  0.781300  0.402400  0.446500  1
  C  C1842  1  0.718700  0.902400  0.053500  1
  C  C1843  1  0.218700  0.597600  0.553500  1
  C  C1844  1  0.281300  0.097600  0.946500  1
  C  C1845  1  0.757900  0.389600  0.474000  1
  C  C1846  1  0.742100  0.889600  0.026000  1
  C  C1847  1  0.242100  0.610400  0.526000  1
  C  C1848  1  0.257900  0.110400  0.974000  1
  C  C1849  1  0.764700  0.348700  0.485100  1
  C  C1850  1  0.735300  0.848700  0.014900  1
  C  C1851  1  0.235300  0.651300  0.514900  1
  C  C1852  1  0.264700  0.151300  0.985100  1
  C  C1853  1  0.788700  0.320900  0.475200  1
  C  C1854  1  0.711300  0.820900  0.024800  1
  C  C1855  1  0.211300  0.679100  0.524800  1
  C  C1856  1  0.288700  0.179100  0.975200  1
  C  C1857  1  0.815300  0.331000  0.447800  1
  C  C1858  1  0.684700  0.831000  0.052200  1
  C  C1859  1  0.184700  0.669000  0.552200  1
  C  C1860  1  0.315300  0.169000  0.947800  1
  C  C1861  1  0.939100  0.284900  0.196000  1
  C  C1862  1  0.560900  0.784900  0.304000  1
  C  C1863  1  0.060900  0.715100  0.804000  1
  C  C1864  1  0.439100  0.215100  0.696000  1
  C  C1865  1  0.964800  0.357400  0.184100  1
  C  C1866  1  0.535200  0.857400  0.315900  1
  C  C1867  1  0.035200  0.642600  0.815900  1
  C  C1868  1  0.464800  0.142600  0.684100  1
  C  C1869  1  0.956300  0.301700  0.138200  1
  C  C1870  1  0.543700  0.801700  0.361800  1
  C  C1871  1  0.043700  0.698300  0.861800  1
  C  C1872  1  0.456300  0.198300  0.638200  1
  C  C1873  1  0.030900  0.300700  0.197400  1
  C  C1874  1  0.469100  0.800700  0.302600  1
  C  C1875  1  0.969100  0.699300  0.802600  1
  C  C1876  1  0.530900  0.199300  0.697400  1
  C  C1877  1  0.046500  0.254800  0.193200  1
  C  C1878  1  0.453500  0.754800  0.306800  1
  C  C1879  1  0.953500  0.745200  0.806800  1
  C  C1880  1  0.546500  0.245200  0.693200  1
  C  C1881  1  0.042800  0.221800  0.216500  1
  C  C1882  1  0.457200  0.721800  0.283500  1
  C  C1883  1  0.957200  0.778200  0.783500  1
  C  C1884  1  0.542800  0.278200  0.716500  1
  C  C1885  1  0.059900  0.179900  0.212100  1
  C  C1886  1  0.440100  0.679900  0.287900  1
  C  C1887  1  0.940100  0.820100  0.787900  1
  C  C1888  1  0.559900  0.320100  0.712100  1
  C  C1889  1  0.079800  0.170000  0.184000  1
  C  C1890  1  0.420200  0.670000  0.316000  1
  C  C1891  1  0.920200  0.830000  0.816000  1
  C  C1892  1  0.579800  0.330000  0.684000  1
  C  C1893  1  0.085000  0.203500  0.161600  1
  C  C1894  1  0.415000  0.703500  0.338400  1
  C  C1895  1  0.915000  0.796500  0.838400  1
  C  C1896  1  0.585000  0.296500  0.661600  1
  C  C1897  1  0.068900  0.244500  0.165300  1
  C  C1898  1  0.431100  0.744500  0.334700  1
  C  C1899  1  0.931100  0.755500  0.834700  1
  C  C1900  1  0.568900  0.255500  0.665300  1
  C  C1901  1  0.677200  0.366900  0.169100  1
  C  C1902  1  0.822800  0.866900  0.330900  1
  C  C1903  1  0.322800  0.633100  0.830900  1
  C  C1904  1  0.177200  0.133100  0.669100  1
  C  C1905  1  0.622300  0.302100  0.150200  1
  C  C1906  1  0.877700  0.802100  0.349800  1
  C  C1907  1  0.377700  0.697900  0.849800  1
  C  C1908  1  0.122300  0.197900  0.650200  1
  C  C1909  1  0.633400  0.354400  0.103900  1
  C  C1910  1  0.866600  0.854400  0.396100  1
  C  C1911  1  0.366600  0.645600  0.896100  1
  C  C1912  1  0.133400  0.145600  0.603900  1
  C  C1913  1  0.706600  0.307100  0.140800  1
  C  C1914  1  0.793400  0.807100  0.359200  1
  C  C1915  1  0.293400  0.692900  0.859200  1
  C  C1916  1  0.206600  0.192900  0.640800  1
  C  C1917  1  0.612000  0.324700  0.071100  1
  C  C1918  1  0.888000  0.824700  0.428900  1
  C  C1919  1  0.388000  0.675300  0.928900  1
  C  C1920  1  0.112000  0.175300  0.571100  1
  C  C1921  1  0.560500  0.312000  0.060100  1
  C  C1922  1  0.939500  0.812000  0.439900  1
  C  C1923  1  0.439500  0.688000  0.939900  1
  C  C1924  1  0.060500  0.188000  0.560100  1
  C  C1925  1  0.539600  0.284000  0.027400  1
  C  C1926  1  0.960400  0.784000  0.472600  1
  C  C1927  1  0.460400  0.716000  0.972600  1
  C  C1928  1  0.039600  0.216000  0.527400  1
  C  C1929  1  0.573200  0.272900  0.010600  1
  C  C1930  1  0.926800  0.772900  0.489400  1
  C  C1931  1  0.426800  0.727100  0.989400  1
  C  C1932  1  0.073200  0.227100  0.510600  1
  C  C1933  1  0.623600  0.285600  0.020300  1
  C  C1934  1  0.876400  0.785600  0.479700  1
  C  C1935  1  0.376400  0.714400  0.979700  1
  C  C1936  1  0.123600  0.214400  0.520300  1
  C  C1937  1  0.643500  0.312900  0.051700  1
  C  C1938  1  0.856500  0.812900  0.448300  1
  C  C1939  1  0.356500  0.687100  0.948300  1
  C  C1940  1  0.143500  0.187100  0.551700  1
  C  C1941  1  0.289000  0.494800  0.103200  1
  C  C1942  1  0.211000  0.994800  0.396800  1
  C  C1943  1  0.711000  0.505200  0.896800  1
  C  C1944  1  0.789000  0.005200  0.603200  1
  C  C1945  1  0.338000  0.527400  0.065300  1
  C  C1946  1  0.162000  0.027400  0.434700  1
  C  C1947  1  0.662000  0.472600  0.934700  1
  C  C1948  1  0.838000  0.972600  0.565300  1
  C  C1949  1  0.289800  0.573800  0.094000  1
  C  C1950  1  0.210200  0.073800  0.406000  1
  C  C1951  1  0.710200  0.426200  0.906000  1
  C  C1952  1  0.789800  0.926200  0.594000  1
  C  C1953  1  0.242100  0.528100  0.044400  1
  C  C1954  1  0.257900  0.028100  0.455600  1
  C  C1955  1  0.757900  0.471900  0.955600  1
  C  C1956  1  0.742100  0.971900  0.544400  1
  C  C1957  1  0.335600  0.492300  0.138200  1
  C  C1958  1  0.164400  0.992300  0.361800  1
  C  C1959  1  0.664400  0.507700  0.861800  1
  C  C1960  1  0.835600  0.007700  0.638200  1
  C  C1961  1  0.378200  0.466500  0.140500  1
  C  C1962  1  0.121800  0.966500  0.359500  1
  C  C1963  1  0.621800  0.533500  0.859500  1
  C  C1964  1  0.878200  0.033500  0.640500  1
  C  C1965  1  0.420300  0.461400  0.173000  1
  C  C1966  1  0.079700  0.961400  0.327000  1
  C  C1967  1  0.579700  0.538600  0.827000  1
  C  C1968  1  0.920300  0.038600  0.673000  1
  C  C1969  1  0.419500  0.485000  0.203300  1
  C  C1970  1  0.080500  0.985000  0.296700  1
  C  C1971  1  0.580500  0.515000  0.796700  1
  C  C1972  1  0.919500  0.015000  0.703300  1
  C  C1973  1  0.378700  0.510300  0.202300  1
  C  C1974  1  0.121300  0.010300  0.297700  1
  C  C1975  1  0.621300  0.489700  0.797700  1
  C  C1976  1  0.878700  0.989700  0.702300  1
  C  C1977  1  0.336400  0.516200  0.170000  1
  C  C1978  1  0.163600  0.016200  0.330000  1
  C  C1979  1  0.663600  0.483800  0.830000  1
  C  C1980  1  0.836400  0.983800  0.670000  1
  C  C1981  1  0.190900  0.374000  0.535100  1
  C  C1982  1  0.309100  0.874000  0.964900  1
  C  C1983  1  0.809100  0.626000  0.464900  1
  C  C1984  1  0.690900  0.126000  0.035100  1
  C  C1985  1  0.219900  0.369900  0.480400  1
  C  C1986  1  0.280100  0.869900  0.019600  1
  C  C1987  1  0.780100  0.630100  0.519600  1
  C  C1988  1  0.719900  0.130100  0.980400  1
  C  C1989  1  0.194400  0.306900  0.511900  1
  C  C1990  1  0.305600  0.806900  0.988100  1
  C  C1991  1  0.805600  0.693100  0.488100  1
  C  C1992  1  0.694400  0.193100  0.011900  1
  C  C1993  1  0.280000  0.342100  0.534800  1
  C  C1994  1  0.220000  0.842100  0.965200  1
  C  C1995  1  0.720000  0.657900  0.465200  1
  C  C1996  1  0.780000  0.157900  0.034800  1
  C  C1997  1  0.291100  0.323500  0.576400  1
  C  C1998  1  0.208900  0.823500  0.923600  1
  C  C1999  1  0.708900  0.676500  0.423600  1
  C  C2000  1  0.791100  0.176500  0.076400  1
  C  C2001  1  0.291500  0.279500  0.579500  1
  C  C2002  1  0.208500  0.779500  0.920500  1
  C  C2003  1  0.708500  0.720500  0.420500  1
  C  C2004  1  0.791500  0.220500  0.079500  1
  C  C2005  1  0.300300  0.261100  0.614000  1
  C  C2006  1  0.199700  0.761100  0.886000  1
  C  C2007  1  0.699700  0.738900  0.386000  1
  C  C2008  1  0.800300  0.238900  0.114000  1
  C  C2009  1  0.309200  0.286800  0.643900  1
  C  C2010  1  0.190800  0.786800  0.856100  1
  C  C2011  1  0.690800  0.713200  0.356100  1
  C  C2012  1  0.809200  0.213200  0.143900  1
  C  C2013  1  0.309900  0.331400  0.640900  1
  C  C2014  1  0.190100  0.831400  0.859100  1
  C  C2015  1  0.690100  0.668600  0.359100  1
  C  C2016  1  0.809900  0.168600  0.140900  1
  C  C2017  1  0.297300  0.349900  0.606700  1
  C  C2018  1  0.202700  0.849900  0.893300  1
  C  C2019  1  0.702700  0.650100  0.393300  1
  C  C2020  1  0.797300  0.150100  0.106700  1
  C  C2021  1  0.033900  0.043200  0.453200  1
  C  C2022  1  0.466100  0.543200  0.046800  1
  C  C2023  1  0.966100  0.956800  0.546800  1
  C  C2024  1  0.533900  0.456800  0.953200  1
  C  C2025  1  0.967800  0.100800  0.431300  1
  C  C2026  1  0.532200  0.600800  0.068700  1
  C  C2027  1  0.032200  0.899200  0.568700  1
  C  C2028  1  0.467800  0.399200  0.931300  1
  C  C2029  1  0.060400  0.114800  0.474100  1
  C  C2030  1  0.439600  0.614800  0.025900  1
  C  C2031  1  0.939600  0.885200  0.525900  1
  C  C2032  1  0.560400  0.385200  0.974100  1
  C  C2033  1  0.999900  0.078200  0.496500  1
  C  C2034  1  0.500100  0.578200  0.003500  1
  C  C2035  1  0.000100  0.921800  0.503500  1
  C  C2036  1  0.499900  0.421800  0.996500  1
  C  C2037  1  0.874500  0.177700  0.454000  1
  C  C2038  1  0.625500  0.677700  0.046000  1
  C  C2039  1  0.125500  0.822300  0.546000  1
  C  C2040  1  0.374500  0.322300  0.954000  1
  C  C2041  1  0.943200  0.142000  0.436800  1
  C  C2042  1  0.556800  0.642000  0.063200  1
  C  C2043  1  0.056800  0.858000  0.563200  1
  C  C2044  1  0.443200  0.358000  0.936800  1
  C  C2045  1  0.962600  0.179000  0.425900  1
  C  C2046  1  0.537400  0.679000  0.074100  1
  C  C2047  1  0.037400  0.821000  0.574100  1
  C  C2048  1  0.462600  0.321000  0.925900  1
  C  C2049  1  0.901900  0.141000  0.449200  1
  C  C2050  1  0.598100  0.641000  0.050800  1
  C  C2051  1  0.098100  0.859000  0.550800  1
  C  C2052  1  0.401900  0.359000  0.949200  1
  C  C2053  1  0.894700  0.211300  0.445300  1
  C  C2054  1  0.605300  0.711300  0.054700  1
  C  C2055  1  0.105300  0.788700  0.554700  1
  C  C2056  1  0.394700  0.288700  0.945300  1
  C  C2057  1  0.930200  0.221000  0.430700  1
  C  C2058  1  0.569800  0.721000  0.069300  1
  C  C2059  1  0.069800  0.779000  0.569300  1
  C  C2060  1  0.430200  0.279000  0.930700  1
  C  C2061  1  0.673300  0.443500  0.248400  1
  C  C2062  1  0.826700  0.943500  0.251600  1
  C  C2063  1  0.326700  0.556500  0.751600  1
  C  C2064  1  0.173300  0.056500  0.748400  1
  C  C2065  1  0.577700  0.453400  0.228200  1
  C  C2066  1  0.922300  0.953400  0.271800  1
  C  C2067  1  0.422300  0.546600  0.771800  1
  C  C2068  1  0.077700  0.046600  0.728200  1
  C  C2069  1  0.632600  0.474700  0.290300  1
  C  C2070  1  0.867400  0.974700  0.209700  1
  C  C2071  1  0.367400  0.525300  0.709700  1
  C  C2072  1  0.132600  0.025300  0.790300  1
  C  C2073  1  0.637100  0.515200  0.235100  1
  C  C2074  1  0.862900  0.015200  0.264900  1
  C  C2075  1  0.362900  0.484800  0.764900  1
  C  C2076  1  0.137100  0.984800  0.735100  1
  C  C2077  1  0.592200  0.503000  0.296800  1
  C  C2078  1  0.907800  0.003000  0.203200  1
  C  C2079  1  0.407800  0.497000  0.703200  1
  C  C2080  1  0.092200  0.997000  0.796800  1
  C  C2081  1  0.544500  0.485400  0.297400  1
  C  C2082  1  0.955500  0.985400  0.202600  1
  C  C2083  1  0.455500  0.514600  0.702600  1
  C  C2084  1  0.044500  0.014600  0.797400  1
  C  C2085  1  0.506100  0.512100  0.304300  1
  C  C2086  1  0.993900  0.012100  0.195700  1
  C  C2087  1  0.493900  0.487900  0.695700  1
  C  C2088  1  0.006100  0.987900  0.804300  1
  C  C2089  1  0.514700  0.553600  0.310300  1
  C  C2090  1  0.985300  0.053600  0.189700  1
  C  C2091  1  0.485300  0.446400  0.689700  1
  C  C2092  1  0.014700  0.946400  0.810300  1
  C  C2093  1  0.561900  0.572500  0.310800  1
  C  C2094  1  0.938100  0.072500  0.189200  1
  C  C2095  1  0.438100  0.427500  0.689200  1
  C  C2096  1  0.061900  0.927500  0.810800  1
  C  C2097  1  0.600700  0.547400  0.304600  1
  C  C2098  1  0.899300  0.047400  0.195400  1
  C  C2099  1  0.399300  0.452600  0.695400  1
  C  C2100  1  0.100700  0.952600  0.804600  1
  C  C2101  1  0.005500  0.637900  0.513200  1
  C  C2102  1  0.494500  0.137900  0.986800  1
  C  C2103  1  0.994500  0.362100  0.486800  1
  C  C2104  1  0.505500  0.862100  0.013200  1
  C  C2105  1  0.065300  0.582800  0.505400  1
  C  C2106  1  0.434700  0.082800  0.994600  1
  C  C2107  1  0.934700  0.417200  0.494600  1
  C  C2108  1  0.565300  0.917200  0.005400  1
  C  C2109  1  0.973100  0.566300  0.490700  1
  C  C2110  1  0.526900  0.066300  0.009300  1
  C  C2111  1  0.026900  0.433700  0.509300  1
  C  C2112  1  0.473100  0.933700  0.990700  1
  C  C2113  1  0.001800  0.615100  0.450400  1
  C  C2114  1  0.498200  0.115100  0.049600  1
  C  C2115  1  0.998200  0.384900  0.549600  1
  C  C2116  1  0.501800  0.884900  0.950400  1
  C  C2117  1  0.950000  0.634700  0.430000  1
  C  C2118  1  0.550000  0.134700  0.070000  1
  C  C2119  1  0.050000  0.365300  0.570000  1
  C  C2120  1  0.450000  0.865300  0.930000  1
  C  C2121  1  0.908100  0.609000  0.406700  1
  C  C2122  1  0.591900  0.109000  0.093300  1
  C  C2123  1  0.091900  0.391000  0.593300  1
  C  C2124  1  0.408100  0.891000  0.906700  1
  C  C2125  1  0.859200  0.627400  0.386800  1
  C  C2126  1  0.640800  0.127400  0.113200  1
  C  C2127  1  0.140800  0.372600  0.613200  1
  C  C2128  1  0.359200  0.872600  0.886800  1
  C  C2129  1  0.851300  0.670700  0.388600  1
  C  C2130  1  0.648700  0.170700  0.111400  1
  C  C2131  1  0.148700  0.329300  0.611400  1
  C  C2132  1  0.351300  0.829300  0.888600  1
  C  C2133  1  0.891200  0.696400  0.411600  1
  C  C2134  1  0.608800  0.196400  0.088400  1
  C  C2135  1  0.108800  0.303600  0.588400  1
  C  C2136  1  0.391200  0.803600  0.911600  1
  C  C2137  1  0.939300  0.679100  0.431700  1
  C  C2138  1  0.560700  0.179100  0.068300  1
  C  C2139  1  0.060700  0.320900  0.568300  1
  C  C2140  1  0.439300  0.820900  0.931700  1
  C  C2141  1  0.692700  0.011400  0.878500  1
  C  C2142  1  0.807300  0.511400  0.621500  1
  C  C2143  1  0.307300  0.988600  0.121500  1
  C  C2144  1  0.192700  0.488600  0.378500  1
  C  C2145  1  0.643200  0.078900  0.883500  1
  C  C2146  1  0.856800  0.578900  0.616500  1
  C  C2147  1  0.356800  0.921100  0.116500  1
  C  C2148  1  0.143200  0.421100  0.383500  1
  C  C2149  1  0.287100  0.312000  0.264300  1
  C  C2150  1  0.212900  0.812000  0.235700  1
  C  C2151  1  0.712900  0.688000  0.735700  1
  C  C2152  1  0.787100  0.188000  0.764300  1
  C  C2153  1  0.220800  0.308100  0.231600  1
  C  C2154  1  0.279200  0.808100  0.268400  1
  C  C2155  1  0.779200  0.691900  0.768400  1
  C  C2156  1  0.720800  0.191900  0.731600  1
  C  C2157  1  0.221100  0.259300  0.221100  1
  C  C2158  1  0.278900  0.759300  0.278900  1
  C  C2159  1  0.778900  0.740700  0.778900  1
  C  C2160  1  0.721100  0.240700  0.721100  1
  C  C2161  1  0.280700  0.249700  0.253400  1
  C  C2162  1  0.219300  0.749700  0.246600  1
  C  C2163  1  0.719300  0.750300  0.746600  1
  C  C2164  1  0.780700  0.250300  0.753400  1
  C  C2165  1  0.342500  0.497200  0.600400  1
  C  C2166  1  0.157500  0.997200  0.899600  1
  C  C2167  1  0.657500  0.502800  0.399600  1
  C  C2168  1  0.842500  0.002800  0.100400  1
  C  C2169  1  0.454200  0.384400  0.298500  1
  C  C2170  1  0.045800  0.884400  0.201500  1
  C  C2171  1  0.545800  0.615600  0.701500  1
  C  C2172  1  0.954200  0.115600  0.798500  1
  C  C2173  1  0.468200  0.369900  0.331000  1
  C  C2174  1  0.031800  0.869900  0.169000  1
  C  C2175  1  0.531800  0.630100  0.669000  1
  C  C2176  1  0.968200  0.130100  0.831000  1
  C  C2177  1  0.473900  0.368700  0.271600  1
  C  C2178  1  0.026100  0.868700  0.228400  1
  C  C2179  1  0.526100  0.631300  0.728400  1
  C  C2180  1  0.973900  0.131300  0.771600  1
  C  C2181  1  0.978700  0.205400  0.273100  1
  C  C2182  1  0.521300  0.705400  0.226900  1
  C  C2183  1  0.021300  0.794600  0.726900  1
  C  C2184  1  0.478700  0.294600  0.773100  1
  C  C2185  1  0.943600  0.187400  0.318700  1
  C  C2186  1  0.556400  0.687400  0.181300  1
  C  C2187  1  0.056400  0.812600  0.681300  1
  C  C2188  1  0.443600  0.312600  0.818700  1
  C  C2189  1  0.941200  0.195000  0.290400  1
  C  C2190  1  0.558800  0.695000  0.209600  1
  C  C2191  1  0.058800  0.805000  0.709600  1
  C  C2192  1  0.441200  0.305000  0.790400  1
  C  C2193  1  0.276100  0.491900  0.243800  1
  C  C2194  1  0.223900  0.991900  0.256200  1
  C  C2195  1  0.723900  0.508100  0.756200  1
  C  C2196  1  0.776100  0.008100  0.743800  1
  C  C2197  1  0.326700  0.505800  0.284500  1
  C  C2198  1  0.173300  0.005800  0.215500  1
  C  C2199  1  0.673300  0.494200  0.715500  1
  C  C2200  1  0.826700  0.994200  0.784500  1
  C  C2201  1  0.372000  0.528700  0.308900  1
  C  C2202  1  0.128000  0.028700  0.191100  1
  C  C2203  1  0.628000  0.471300  0.691100  1
  C  C2204  1  0.872000  0.971300  0.808900  1
  C  C2205  1  0.203900  0.665300  0.082300  1
  C  C2206  1  0.296100  0.165300  0.417700  1
  C  C2207  1  0.796100  0.334700  0.917700  1
  C  C2208  1  0.703900  0.834700  0.582300  1
  C  C2209  1  0.197800  0.709200  0.103900  1
  C  C2210  1  0.302200  0.209200  0.396100  1
  C  C2211  1  0.802200  0.290800  0.896100  1
  C  C2212  1  0.697800  0.790800  0.603900  1
  C  C2213  1  0.212400  0.765500  0.112200  1
  C  C2214  1  0.287600  0.265500  0.387800  1
  C  C2215  1  0.787600  0.234500  0.887800  1
  C  C2216  1  0.712400  0.734500  0.612200  1
  C  C2217  1  0.174900  0.705600  0.138100  1
  C  C2218  1  0.325100  0.205600  0.361900  1
  C  C2219  1  0.825100  0.294400  0.861900  1
  C  C2220  1  0.674900  0.794400  0.638100  1
  C  C2221  1  0.169600  0.744300  0.152100  1
  C  C2222  1  0.330400  0.244300  0.347900  1
  C  C2223  1  0.830400  0.255700  0.847900  1
  C  C2224  1  0.669600  0.755700  0.652100  1
  C  C2225  1  0.678500  0.291700  0.924300  1
  C  C2226  1  0.821500  0.791700  0.575700  1
  C  C2227  1  0.321500  0.708300  0.075700  1
  C  C2228  1  0.178500  0.208300  0.424300  1
  C  C2229  1  0.457000  0.349300  0.287800  1
  C  C2230  1  0.043000  0.849300  0.212200  1
  C  C2231  1  0.543000  0.650700  0.712200  1
  C  C2232  1  0.957000  0.150700  0.787800  1
  C  C2233  1  0.629500  0.291100  0.922500  1
  C  C2234  1  0.870500  0.791100  0.577500  1
  C  C2235  1  0.370500  0.708900  0.077500  1
  C  C2236  1  0.129500  0.208900  0.422500  1
  C  C2237  1  0.411700  0.404900  0.286400  1
  C  C2238  1  0.088300  0.904900  0.213600  1
  C  C2239  1  0.588300  0.595100  0.713600  1
  C  C2240  1  0.911700  0.095100  0.786400  1
  C  C2241  1  0.434700  0.237800  0.545800  1
  C  C2242  1  0.065300  0.737800  0.954200  1
  C  C2243  1  0.565300  0.762200  0.454200  1
  C  C2244  1  0.934700  0.262200  0.045800  1
  C  C2245  1  0.354900  0.246100  0.499200  1
  C  C2246  1  0.145100  0.746100  0.000800  1
  C  C2247  1  0.645100  0.753900  0.500800  1
  C  C2248  1  0.854900  0.253900  0.999200  1
  C  C2249  1  0.902100  0.172300  0.251800  1
  C  C2250  1  0.597900  0.672300  0.248200  1
  C  C2251  1  0.097900  0.827700  0.748200  1
  C  C2252  1  0.402100  0.327700  0.751800  1
  C  C2253  1  0.929500  0.194900  0.269200  1
  C  C2254  1  0.570500  0.694900  0.230800  1
  C  C2255  1  0.070500  0.805100  0.730800  1
  C  C2256  1  0.429500  0.305100  0.769200  1
  C  C2257  1  0.878900  0.148400  0.247100  1
  C  C2258  1  0.621100  0.648400  0.252900  1
  C  C2259  1  0.121100  0.851600  0.752900  1
  C  C2260  1  0.378900  0.351600  0.747100  1
  C  C2261  1  0.224900  0.079900  0.097400  1
  C  C2262  1  0.275100  0.579900  0.402600  1
  C  C2263  1  0.775100  0.920100  0.902600  1
  C  C2264  1  0.724900  0.420100  0.597400  1
  C  C2265  1  0.138200  0.034800  0.047600  1
  C  C2266  1  0.361800  0.534800  0.452400  1
  C  C2267  1  0.861800  0.965200  0.952400  1
  C  C2268  1  0.638200  0.465200  0.547600  1
  C  C2269  1  0.185100  0.074200  0.038000  1
  C  C2270  1  0.314900  0.574200  0.462000  1
  C  C2271  1  0.814900  0.925800  0.962000  1
  C  C2272  1  0.685100  0.425800  0.538000  1
  C  C2273  1  0.460400  0.264800  0.513300  1
  C  C2274  1  0.039600  0.764800  0.986700  1
  C  C2275  1  0.539600  0.735200  0.486700  1
  C  C2276  1  0.960400  0.235200  0.013300  1
  C  C2277  1  0.641600  0.221300  0.804100  1
  C  C2278  1  0.858400  0.721300  0.695900  1
  C  C2279  1  0.358400  0.778700  0.195900  1
  C  C2280  1  0.141600  0.278700  0.304100  1
  C  C2281  1  0.723300  0.598300  0.320000  1
  C  C2282  1  0.776700  0.098300  0.180000  1
  C  C2283  1  0.276700  0.401700  0.680000  1
  C  C2284  1  0.223300  0.901700  0.820000  1
  C  C2285  1  0.631200  0.111900  0.889500  1
  C  C2286  1  0.868800  0.611900  0.610500  1
  C  C2287  1  0.368800  0.888100  0.110500  1
  C  C2288  1  0.131200  0.388100  0.389500  1
  C  C2289  1  0.213400  0.274100  0.008400  1
  C  C2290  1  0.286600  0.774100  0.491600  1
  C  C2291  1  0.786600  0.725900  0.991600  1
  C  C2292  1  0.713400  0.225900  0.508400  1
  C  C2293  1  0.173300  0.228500  0.014300  1
  C  C2294  1  0.326700  0.728500  0.485700  1
  C  C2295  1  0.826700  0.771500  0.985700  1
  C  C2296  1  0.673300  0.271500  0.514300  1
  C  C2297  1  0.414500  0.347300  0.558200  1
  C  C2298  1  0.085500  0.847300  0.941800  1
  C  C2299  1  0.585500  0.652700  0.441800  1
  C  C2300  1  0.914500  0.152700  0.058200  1
  C  C2301  1  0.748400  0.084100  0.888100  1
  C  C2302  1  0.751600  0.584100  0.611900  1
  C  C2303  1  0.251600  0.915900  0.111900  1
  C  C2304  1  0.248400  0.415900  0.388100  1
  C  C2305  1  0.706300  0.054800  0.853400  1
  C  C2306  1  0.793700  0.554800  0.646600  1
  C  C2307  1  0.293700  0.945200  0.146600  1
  C  C2308  1  0.206300  0.445200  0.353400  1
  C  C2309  1  0.050100  0.189300  0.952200  1
  C  C2310  1  0.449900  0.689300  0.547800  1
  C  C2311  1  0.949900  0.810700  0.047800  1
  C  C2312  1  0.550100  0.310700  0.452200  1
  C  C2313  1  0.080200  0.152800  0.980800  1
  C  C2314  1  0.419800  0.652800  0.519200  1
  C  C2315  1  0.919800  0.847200  0.019200  1
  C  C2316  1  0.580200  0.347200  0.480800  1
  C  C2317  1  0.122300  0.124400  0.992400  1
  C  C2318  1  0.377700  0.624400  0.507600  1
  C  C2319  1  0.877700  0.875600  0.007600  1
  C  C2320  1  0.622300  0.375600  0.492400  1
  C  C2321  1  0.301000  0.477000  0.281300  1
  C  C2322  1  0.199000  0.977000  0.218700  1
  C  C2323  1  0.699000  0.523000  0.718700  1
  C  C2324  1  0.801000  0.023000  0.781300  1
  C  C2325  1  0.585800  0.139600  0.942600  1
  C  C2326  1  0.914200  0.639600  0.557400  1
  C  C2327  1  0.414200  0.860400  0.057400  1
  C  C2328  1  0.085800  0.360400  0.442600  1
  C  C2329  1  0.338100  0.458100  0.267600  1
  C  C2330  1  0.161900  0.958100  0.232400  1
  C  C2331  1  0.661900  0.541900  0.732400  1
  C  C2332  1  0.838100  0.041900  0.767600  1
  C  C2333  1  0.137100  0.913400  0.024700  1
  C  C2334  1  0.362900  0.413400  0.475300  1
  C  C2335  1  0.862900  0.086600  0.975300  1
  C  C2336  1  0.637100  0.586600  0.524700  1
  C  C2337  1  0.484500  0.477800  0.400200  1
  C  C2338  1  0.015500  0.977800  0.099800  1
  C  C2339  1  0.515500  0.522200  0.599800  1
  C  C2340  1  0.984500  0.022200  0.900200  1
  C  C2341  1  0.458600  0.286000  0.575000  1
  C  C2342  1  0.041400  0.786000  0.925000  1
  C  C2343  1  0.541400  0.714000  0.425000  1
  C  C2344  1  0.958600  0.214000  0.075000  1
  C  C2345  1  0.930000  0.186600  0.230600  1
  C  C2346  1  0.570000  0.686600  0.269400  1
  C  C2347  1  0.070000  0.813400  0.769400  1
  C  C2348  1  0.430000  0.313400  0.730600  1
  C  C2349  1  0.627800  0.209600  0.903000  1
  C  C2350  1  0.872200  0.709600  0.597000  1
  C  C2351  1  0.372200  0.790400  0.097000  1
  C  C2352  1  0.127800  0.290400  0.403000  1
  C  C2353  1  0.344500  0.489400  0.563700  1
  C  C2354  1  0.155500  0.989400  0.936300  1
  C  C2355  1  0.655500  0.510600  0.436300  1
  C  C2356  1  0.844500  0.010600  0.063700  1
  C  C2357  1  0.385100  0.231300  0.532600  1
  C  C2358  1  0.114900  0.731300  0.967400  1
  C  C2359  1  0.614900  0.768700  0.467400  1
  C  C2360  1  0.885100  0.268700  0.032600  1
  C  C2361  1  0.321800  0.487300  0.545700  1
  C  C2362  1  0.178200  0.987300  0.954300  1
  C  C2363  1  0.678200  0.512700  0.454300  1
  C  C2364  1  0.821800  0.012700  0.045700  1
  C  C2365  1  0.296200  0.451400  0.548900  1
  C  C2366  1  0.203800  0.951400  0.951100  1
  C  C2367  1  0.703800  0.548600  0.451100  1
  C  C2368  1  0.796200  0.048600  0.048900  1
  C  C2369  1  0.590300  0.258800  0.903100  1
  C  C2370  1  0.909700  0.758800  0.596900  1
  C  C2371  1  0.409700  0.741200  0.096900  1
  C  C2372  1  0.090300  0.241200  0.403100  1
  C  C2373  1  0.674700  0.177200  0.826600  1
  C  C2374  1  0.825300  0.677200  0.673400  1
  C  C2375  1  0.325300  0.822800  0.173400  1
  C  C2376  1  0.174700  0.322800  0.326600  1
  C  C2377  1  0.582500  0.221900  0.928400  1
  C  C2378  1  0.917500  0.721900  0.571600  1
  C  C2379  1  0.417500  0.778100  0.071600  1
  C  C2380  1  0.082500  0.278100  0.428400  1
  C  C2381  1  0.443300  0.334600  0.604600  1
  C  C2382  1  0.056700  0.834600  0.895400  1
  C  C2383  1  0.556700  0.665400  0.395400  1
  C  C2384  1  0.943300  0.165400  0.104600  1
  C  C2385  1  0.168500  0.867600  0.050100  1
  C  C2386  1  0.331500  0.367600  0.449900  1
  C  C2387  1  0.831500  0.132400  0.949900  1
  C  C2388  1  0.668500  0.632400  0.550100  1
  N  N2389  1  0.040200  0.596400  0.379700  1
  N  N2390  1  0.459800  0.096400  0.120300  1
  N  N2391  1  0.959800  0.403600  0.620300  1
  N  N2392  1  0.540200  0.903600  0.879700  1
  N  N2393  1  0.842000  0.696600  0.287800  1
  N  N2394  1  0.658000  0.196600  0.212200  1
  N  N2395  1  0.158000  0.303400  0.712200  1
  N  N2396  1  0.342000  0.803400  0.787800  1
  N  N2397  1  0.035700  0.411600  0.299100  1
  N  N2398  1  0.464300  0.911600  0.200900  1
  N  N2399  1  0.964300  0.588400  0.700900  1
  N  N2400  1  0.535700  0.088400  0.799100  1
  N  N2401  1  0.158100  0.555400  0.252000  1
  N  N2402  1  0.341900  0.055400  0.248000  1
  N  N2403  1  0.841900  0.444600  0.748000  1
  N  N2404  1  0.658100  0.944600  0.752000  1
  N  N2405  1  0.826400  0.489700  0.298100  1
  N  N2406  1  0.673600  0.989700  0.201900  1
  N  N2407  1  0.173600  0.510300  0.701900  1
  N  N2408  1  0.326400  0.010300  0.798100  1
  N  N2409  1  0.794700  0.406900  0.146700  1
  N  N2410  1  0.705300  0.906900  0.353300  1
  N  N2411  1  0.205300  0.593100  0.853300  1
  N  N2412  1  0.294700  0.093100  0.646700  1
  N  N2413  1  0.805800  0.547400  0.046500  1
  N  N2414  1  0.694200  0.047400  0.453500  1
  N  N2415  1  0.194200  0.452600  0.953500  1
  N  N2416  1  0.305800  0.952600  0.546500  1
  N  N2417  1  0.019900  0.455800  0.121200  1
  N  N2418  1  0.480100  0.955800  0.378800  1
  N  N2419  1  0.980100  0.544200  0.878800  1
  N  N2420  1  0.519900  0.044200  0.621200  1
  N  N2421  1  0.656800  0.582600  0.141100  1
  N  N2422  1  0.843200  0.082600  0.358900  1
  N  N2423  1  0.343200  0.417400  0.858900  1
  N  N2424  1  0.156800  0.917400  0.641100  1
  N  N2425  1  0.799100  0.736000  0.131600  1
  N  N2426  1  0.700900  0.236000  0.368400  1
  N  N2427  1  0.200900  0.264000  0.868400  1
  N  N2428  1  0.299100  0.764000  0.631600  1
  N  N2429  1  0.024900  0.745400  0.254900  1
  N  N2430  1  0.475100  0.245400  0.245100  1
  N  N2431  1  0.975100  0.254600  0.745100  1
  N  N2432  1  0.524900  0.754600  0.754900  1
  N  N2433  1  0.037100  0.665700  0.111800  1
  N  N2434  1  0.462900  0.165700  0.388200  1
  N  N2435  1  0.962900  0.334300  0.888200  1
  N  N2436  1  0.537100  0.834300  0.611800  1
  N  N2437  1  0.310300  0.330900  0.155400  1
  N  N2438  1  0.189700  0.830900  0.344600  1
  N  N2439  1  0.689700  0.669100  0.844600  1
  N  N2440  1  0.810300  0.169100  0.655400  1
  N  N2441  1  0.110700  0.750300  0.444600  1
  N  N2442  1  0.389300  0.250300  0.055400  1
  N  N2443  1  0.889300  0.249700  0.555400  1
  N  N2444  1  0.610700  0.749700  0.944600  1
  N  N2445  1  0.046600  0.106900  0.322600  1
  N  N2446  1  0.453400  0.606900  0.177400  1
  N  N2447  1  0.953400  0.893100  0.677400  1
  N  N2448  1  0.546600  0.393100  0.822600  1
  N  N2449  1  0.085600  0.435100  0.030900  1
  N  N2450  1  0.414400  0.935100  0.469100  1
  N  N2451  1  0.914400  0.564900  0.969100  1
  N  N2452  1  0.585600  0.064900  0.530900  1
  N  N2453  1  0.271000  0.149300  0.121300  1
  N  N2454  1  0.229000  0.649300  0.378700  1
  N  N2455  1  0.729000  0.850700  0.878700  1
  N  N2456  1  0.771000  0.350700  0.621300  1
  N  N2457  1  0.900800  0.629700  0.201500  1
  N  N2458  1  0.599200  0.129700  0.298500  1
  N  N2459  1  0.099200  0.370300  0.798500  1
  N  N2460  1  0.400800  0.870300  0.701500  1
  N  N2461  1  0.794100  0.375500  0.365700  1
  N  N2462  1  0.705900  0.875500  0.134300  1
  N  N2463  1  0.205900  0.624500  0.634300  1
  N  N2464  1  0.294100  0.124500  0.865700  1
  N  N2465  1  0.972500  0.310200  0.179600  1
  N  N2466  1  0.527500  0.810200  0.320400  1
  N  N2467  1  0.027500  0.689800  0.820400  1
  N  N2468  1  0.472500  0.189800  0.679600  1
  N  N2469  1  0.659300  0.332100  0.140400  1
  N  N2470  1  0.840700  0.832100  0.359600  1
  N  N2471  1  0.340700  0.667900  0.859600  1
  N  N2472  1  0.159300  0.167900  0.640400  1
  N  N2473  1  0.290600  0.531000  0.077400  1
  N  N2474  1  0.209400  0.031000  0.422600  1
  N  N2475  1  0.709400  0.469000  0.922600  1
  N  N2476  1  0.790600  0.969000  0.577400  1
  N  N2477  1  0.221100  0.350300  0.518000  1
  N  N2478  1  0.278900  0.850300  0.982000  1
  N  N2479  1  0.778900  0.649700  0.482000  1
  N  N2480  1  0.721100  0.149700  0.018000  1
  N  N2481  1  0.015400  0.084000  0.464400  1
  N  N2482  1  0.484600  0.584000  0.035600  1
  N  N2483  1  0.984600  0.916000  0.535600  1
  N  N2484  1  0.515400  0.416000  0.964400  1
  N  N2485  1  0.629300  0.472000  0.250200  1
  N  N2486  1  0.870700  0.972000  0.249800  1
  N  N2487  1  0.370700  0.528000  0.749800  1
  N  N2488  1  0.129300  0.028000  0.750200  1
  N  N2489  1  0.011700  0.601400  0.490300  1
  N  N2490  1  0.488300  0.101400  0.009700  1
  N  N2491  1  0.988300  0.398600  0.509700  1
  N  N2492  1  0.511700  0.898600  0.990300  1
  N  N2493  1  0.706400  0.063200  0.902300  1
  N  N2494  1  0.793600  0.563200  0.597700  1
  N  N2495  1  0.293600  0.936800  0.097700  1
  N  N2496  1  0.206400  0.436800  0.402300  1
  N  N2497  1  0.134200  0.272500  0.980400  1
  N  N2498  1  0.365800  0.772500  0.519600  1
  N  N2499  1  0.865800  0.727500  0.019600  1
  N  N2500  1  0.634200  0.227500  0.480400  1
  O  O2501  1  0.049100  0.444200  0.431000  1
  O  O2502  1  0.450900  0.944200  0.069000  1
  O  O2503  1  0.950900  0.555800  0.569000  1
  O  O2504  1  0.549100  0.055800  0.931000  1
  O  O2505  1  0.020400  0.513300  0.389800  1
  O  O2506  1  0.479600  0.013300  0.110200  1
  O  O2507  1  0.979600  0.486700  0.610200  1
  O  O2508  1  0.520400  0.986700  0.889800  1
  O  O2509  1  0.122300  0.622200  0.411600  1
  O  O2510  1  0.377700  0.122200  0.088400  1
  O  O2511  1  0.877700  0.377800  0.588400  1
  O  O2512  1  0.622300  0.877800  0.911600  1
  O  O2513  1  0.765900  0.675600  0.296700  1
  O  O2514  1  0.734100  0.175600  0.203300  1
  O  O2515  1  0.234100  0.324400  0.703300  1
  O  O2516  1  0.265900  0.824400  0.796700  1
  O  O2517  1  0.797700  0.842500  0.228300  1
  O  O2518  1  0.702300  0.342500  0.271700  1
  O  O2519  1  0.202300  0.157500  0.771700  1
  O  O2520  1  0.297700  0.657500  0.728300  1
  O  O2521  1  0.844800  0.770200  0.256700  1
  O  O2522  1  0.655200  0.270200  0.243300  1
  O  O2523  1  0.155200  0.229800  0.743300  1
  O  O2524  1  0.344800  0.729800  0.756700  1
  O  O2525  1  0.951700  0.403200  0.400000  1
  O  O2526  1  0.548300  0.903200  0.100000  1
  O  O2527  1  0.048300  0.596800  0.600000  1
  O  O2528  1  0.451700  0.096800  0.900000  1
  O  O2529  1  0.995900  0.430200  0.352200  1
  O  O2530  1  0.504100  0.930200  0.147800  1
  O  O2531  1  0.004100  0.569800  0.647800  1
  O  O2532  1  0.495900  0.069800  0.852200  1
  O  O2533  1  0.019800  0.343500  0.275200  1
  O  O2534  1  0.480200  0.843500  0.224800  1
  O  O2535  1  0.980200  0.656500  0.724800  1
  O  O2536  1  0.519800  0.156500  0.775200  1
  O  O2537  1  0.217200  0.592500  0.298800  1
  O  O2538  1  0.282800  0.092500  0.201200  1
  O  O2539  1  0.782800  0.407500  0.701200  1
  O  O2540  1  0.717200  0.907500  0.798800  1
  O  O2541  1  0.160700  0.567400  0.185300  1
  O  O2542  1  0.339300  0.067400  0.314700  1
  O  O2543  1  0.839300  0.432600  0.814700  1
  O  O2544  1  0.660700  0.932600  0.685300  1
  O  O2545  1  0.211000  0.596700  0.141800  1
  O  O2546  1  0.289000  0.096700  0.358200  1
  O  O2547  1  0.789000  0.403300  0.858200  1
  O  O2548  1  0.711000  0.903300  0.641800  1
  O  O2549  1  0.952700  0.484000  0.430200  1
  O  O2550  1  0.547300  0.984000  0.069800  1
  O  O2551  1  0.047300  0.516000  0.569800  1
  O  O2552  1  0.452700  0.016000  0.930200  1
  O  O2553  1  0.911900  0.482300  0.358200  1
  O  O2554  1  0.588100  0.982300  0.141800  1
  O  O2555  1  0.088100  0.517700  0.641800  1
  O  O2556  1  0.411900  0.017700  0.858200  1
  O  O2557  1  0.751800  0.517700  0.305400  1
  O  O2558  1  0.748200  0.017700  0.194600  1
  O  O2559  1  0.248200  0.482300  0.694600  1
  O  O2560  1  0.251800  0.982300  0.805400  1
  O  O2561  1  0.837300  0.346500  0.137100  1
  O  O2562  1  0.662700  0.846500  0.362900  1
  O  O2563  1  0.162700  0.653500  0.862900  1
  O  O2564  1  0.337300  0.153500  0.637100  1
  O  O2565  1  0.721500  0.442500  0.089100  1
  O  O2566  1  0.778500  0.942500  0.410900  1
  O  O2567  1  0.278500  0.557500  0.910900  1
  O  O2568  1  0.221500  0.057500  0.589100  1
  O  O2569  1  0.668000  0.440000  0.018400  1
  O  O2570  1  0.832000  0.940000  0.481600  1
  O  O2571  1  0.332000  0.560000  0.981600  1
  O  O2572  1  0.168000  0.060000  0.518400  1
  O  O2573  1  0.611800  0.516600  0.019800  1
  O  O2574  1  0.888200  0.016600  0.480200  1
  O  O2575  1  0.388200  0.483400  0.980200  1
  O  O2576  1  0.111800  0.983400  0.519800  1
  O  O2577  1  0.715400  0.520900  0.049500  1
  O  O2578  1  0.784600  0.020900  0.450500  1
  O  O2579  1  0.284600  0.479100  0.950500  1
  O  O2580  1  0.215400  0.979100  0.549500  1
  O  O2581  1  0.807200  0.593300  0.001100  1
  O  O2582  1  0.692800  0.093300  0.498900  1
  O  O2583  1  0.192800  0.406700  0.998900  1
  O  O2584  1  0.307200  0.906700  0.501100  1
  O  O2585  1  0.031700  0.384200  0.134700  1
  O  O2586  1  0.468300  0.884200  0.365300  1
  O  O2587  1  0.968300  0.615800  0.865300  1
  O  O2588  1  0.531700  0.115800  0.634700  1
  O  O2589  1  0.105600  0.504100  0.134100  1
  O  O2590  1  0.394400  0.004100  0.365900  1
  O  O2591  1  0.894400  0.495900  0.865900  1
  O  O2592  1  0.605600  0.995900  0.634100  1
  O  O2593  1  0.208500  0.508000  0.148500  1
  O  O2594  1  0.291500  0.008000  0.351500  1
  O  O2595  1  0.791500  0.492000  0.851500  1
  O  O2596  1  0.708500  0.992000  0.648500  1
  O  O2597  1  0.606700  0.445000  0.065300  1
  O  O2598  1  0.893300  0.945000  0.434700  1
  O  O2599  1  0.393300  0.555000  0.934700  1
  O  O2600  1  0.106700  0.055000  0.565300  1
  O  O2601  1  0.655800  0.513800  0.099100  1
  O  O2602  1  0.844200  0.013800  0.400900  1
  O  O2603  1  0.344200  0.486200  0.900900  1
  O  O2604  1  0.155800  0.986200  0.599100  1
  O  O2605  1  0.595700  0.584500  0.170100  1
  O  O2606  1  0.904300  0.084500  0.329900  1
  O  O2607  1  0.404300  0.415500  0.829900  1
  O  O2608  1  0.095700  0.915500  0.670100  1
  O  O2609  1  0.800800  0.754700  0.074400  1
  O  O2610  1  0.699200  0.254700  0.425600  1
  O  O2611  1  0.199200  0.245300  0.925600  1
  O  O2612  1  0.300800  0.745300  0.574400  1
  O  O2613  1  0.846300  0.790500  0.185900  1
  O  O2614  1  0.653700  0.290500  0.314100  1
  O  O2615  1  0.153700  0.209500  0.814100  1
  O  O2616  1  0.346300  0.709500  0.685900  1
  O  O2617  1  0.888300  0.867700  0.207600  1
  O  O2618  1  0.611700  0.367700  0.292400  1
  O  O2619  1  0.111700  0.132300  0.792400  1
  O  O2620  1  0.388300  0.632300  0.707600  1
  O  O2621  1  0.899300  0.853500  0.281300  1
  O  O2622  1  0.600700  0.353500  0.218700  1
  O  O2623  1  0.100700  0.146500  0.718700  1
  O  O2624  1  0.399300  0.646500  0.781300  1
  O  O2625  1  0.941300  0.792700  0.251200  1
  O  O2626  1  0.558700  0.292700  0.248800  1
  O  O2627  1  0.058700  0.207300  0.748800  1
  O  O2628  1  0.441300  0.707300  0.751200  1
  O  O2629  1  0.097200  0.750000  0.306500  1
  O  O2630  1  0.402800  0.250000  0.193500  1
  O  O2631  1  0.902800  0.250000  0.693500  1
  O  O2632  1  0.597200  0.750000  0.806500  1
  O  O2633  1  0.005600  0.701100  0.057400  1
  O  O2634  1  0.494400  0.201100  0.442600  1
  O  O2635  1  0.994400  0.298900  0.942600  1
  O  O2636  1  0.505600  0.798900  0.557400  1
  O  O2637  1  0.095800  0.594900  0.114100  1
  O  O2638  1  0.404200  0.094900  0.385900  1
  O  O2639  1  0.904200  0.405100  0.885900  1
  O  O2640  1  0.595800  0.905100  0.614100  1
  O  O2641  1  0.146700  0.546600  0.081200  1
  O  O2642  1  0.353300  0.046600  0.418800  1
  O  O2643  1  0.853300  0.453400  0.918800  1
  O  O2644  1  0.646700  0.953400  0.581200  1
  O  O2645  1  0.276800  0.267700  0.130200  1
  O  O2646  1  0.223200  0.767700  0.369800  1
  O  O2647  1  0.723200  0.732300  0.869800  1
  O  O2648  1  0.776800  0.232300  0.630200  1
  O  O2649  1  0.070400  0.715400  0.479600  1
  O  O2650  1  0.429600  0.215400  0.020400  1
  O  O2651  1  0.929600  0.284600  0.520400  1
  O  O2652  1  0.570400  0.784600  0.979600  1
  O  O2653  1  0.074400  0.112400  0.383900  1
  O  O2654  1  0.425600  0.612400  0.116100  1
  O  O2655  1  0.925600  0.887600  0.616100  1
  O  O2656  1  0.574400  0.387600  0.883900  1
  O  O2657  1  0.208600  0.234600  0.020100  1
  O  O2658  1  0.291400  0.734600  0.479900  1
  O  O2659  1  0.791400  0.765400  0.979900  1
  O  O2660  1  0.708600  0.265400  0.520100  1
  O  O2661  1  0.708700  0.600100  0.289600  1
  O  O2662  1  0.791300  0.100100  0.210400  1
  O  O2663  1  0.291300  0.399900  0.710400  1
  O  O2664  1  0.208700  0.899900  0.789600  1
  O  O2665  1  0.255300  0.295400  0.997200  1
  O  O2666  1  0.244700  0.795400  0.502800  1
  O  O2667  1  0.744700  0.704600  0.002800  1
  O  O2668  1  0.755300  0.204600  0.497200  1
  O  O2669  1  0.645000  0.151900  0.926700  1
  O  O2670  1  0.855000  0.651900  0.573300  1
  O  O2671  1  0.355000  0.848100  0.073300  1
  O  O2672  1  0.145000  0.348100  0.426700  1
