
#######################################################################
#
#                 Cambridge Crystallographic Data Centre
#                                CCDC 
#
#######################################################################
#
# If this CIF has been generated from an entry in the Cambridge 
# Structural Database, then it will include bibliographic, chemical, 
# crystal, experimental, refinement or atomic coordinate data resulting 
# from the CCDC's data processing and validation procedures.
#
#######################################################################

data_HOMRUX
_chemical_formula_moiety         
'C144 H84 Ga4 N12 O36 12-,12(C10 H16 N1 1+),1.5(C3 H6 O1),3.5(C3 H7 N1 O1)'
_chemical_name_systematic        
"undecakis(Benzyl-trimethylammonium) hexakis(\m~2~-N,N'-bis(2,3-dioxybenzoyl)naphthalene-1,5-diamine)-tetra-gallium(iii) benzyl-trimethylammonium clathrate acetone N,N-dimethylformamide unknown solvate"
_symmetry_cell_setting           monoclinic
_symmetry_space_group_name_H-M   'P 21/n'
_symmetry_Int_Tables_number      14
_space_group_name_Hall           '-P 2yn'
loop_
_symmetry_equiv_pos_site_id
_symmetry_equiv_pos_as_xyz
1 x,y,z
2 1/2-x,1/2+y,1/2-z
3 -x,-y,-z
4 1/2+x,1/2-y,1/2+z
_cell_length_a                   26.7393(6)
_cell_length_b                   30.8317(2)
_cell_length_c                   38.5228(8)
_cell_angle_alpha                90
_cell_angle_beta                 109.8530(10)
_cell_angle_gamma                90
_cell_volume                     29871.4
_exptl_crystal_colour            orange
_exptl_crystal_description       'rectangular prism'
_cell_formula_units_Z            4
_exptl_crystal_recrystallization_method acetone/DMF/DMSO/water
loop_
_atom_site_label
_atom_site_type_symbol
_atom_site_fract_x
_atom_site_fract_y
_atom_site_fract_z
Ga1 Ga -0.01932(7) 0.45966(5) 0.39375(4)
Ga2 Ga -0.33741(6) 0.47962(5) 0.05691(4)
Ga3 Ga -0.13059(7) 0.82058(5) 0.23518(4)
Ga4 Ga 0.15457(7) 0.55307(6) 0.13379(4)
O1 O 0.0491(4) 0.4442(3) 0.4310(3)
O2 O 0.0204(4) 0.5133(3) 0.3898(3)
O3 O 0.1223(4) 0.6222(3) 0.4116(3)
O4 O -0.2341(4) 0.6756(3) 0.2967(3)
O5 O -0.2023(4) 0.8425(3) 0.2283(2)
O6 O -0.1552(4) 0.7702(3) 0.2567(2)
O7 O -0.0483(4) 0.4032(3) 0.4000(3)
O8 O -0.0041(3) 0.4302(3) 0.3522(2)
O9 O 0.0198(4) 0.3435(3) 0.2752(3)
O10 O 0.2172(5) 0.5925(4) 0.2988(4)
O11 O 0.1607(4) 0.5674(3) 0.1853(3)
O12 O 0.2110(4) 0.5967(3) 0.1418(3)
O13 O -0.0473(4) 0.4840(3) 0.4302(2)
O14 O -0.0881(4) 0.4823(3) 0.3582(2)
O15 O -0.2482(4) 0.5177(3) 0.3054(3)
O16 O -0.1627(4) 0.3465(3) 0.1371(3)
O17 O -0.2785(3) 0.4425(3) 0.0891(2)
O18 O -0.3320(4) 0.4400(3) 0.0184(3)
O19 O -0.3882(4) 0.5166(3) 0.0198(2)
O20 O -0.2846(3) 0.5209(3) 0.0495(2)
O21 O -0.1928(4) 0.5933(3) 0.0011(3)
O22 O 0.0317(4) 0.3842(3) 0.1347(3)
O23 O 0.1056(4) 0.5041(3) 0.1341(3)
O24 O 0.2085(4) 0.5080(3) 0.1485(3)
O25 O -0.3933(4) 0.4450(3) 0.0653(2)
O26 O -0.3442(3) 0.5138(3) 0.0991(2)
O27 O -0.4043(4) 0.5845(3) 0.1701(3)
O28 O -0.1992(5) 0.7547(4) 0.0744(3)
O29 O -0.1537(4) 0.7905(3) 0.1859(3)
O30 O -0.1117(4) 0.8677(3) 0.2076(3)
O31 O -0.1007(4) 0.8535(3) 0.2813(3)
O32 O -0.0587(4) 0.7927(3) 0.2512(3)
O33 O 0.0972(5) 0.7500(4) 0.3065(3)
O34 O 0.0056(5) 0.7011(4) 0.0574(4)
O35 O 0.0958(4) 0.5949(3) 0.1141(3)
O36 O 0.1467(4) 0.5466(3) 0.0812(3)
N1 N 0.0402(4) 0.5964(3) 0.3797(3)
H1 H 0.0221(4) 0.5727(3) 0.3741(3)
N2 N -0.1580(5) 0.6966(4) 0.2878(3)
H2 H -0.1433(5) 0.7174(4) 0.2799(3)
N3 N 0.0357(5) 0.4116(4) 0.2991(3)
H3 H 0.0273(5) 0.4290(4) 0.3136(3)
N4 N 0.1581(5) 0.5554(4) 0.2520(4)
H4 H 0.1495(5) 0.5484(4) 0.2291(4)
N5 N -0.1736(4) 0.4897(3) 0.2981(3)
H5 H -0.1419(4) 0.4807(3) 0.3097(3)
N6 N -0.2053(4) 0.4069(3) 0.1467(3)
H6 H -0.2283(4) 0.4262(3) 0.1354(3)
N7 N -0.1942(4) 0.5474(3) 0.0465(3)
H7 H -0.2138(4) 0.5323(3) 0.0556(3)
N8 N 0.0199(5) 0.4558(4) 0.1212(3)
H8 H 0.0366(5) 0.4801(4) 0.1243(3)
N9 N -0.3432(4) 0.5826(3) 0.1411(3)
H9 H -0.3321(4) 0.5668(3) 0.1268(3)
N10 N -0.2009(5) 0.7360(4) 0.1316(3)
H10 H -0.1930(5) 0.7445(4) 0.1541(3)
N11 N 0.0249(5) 0.7454(4) 0.2549(3)
H11 H -0.0077(5) 0.7533(4) 0.2451(3)
N12 N 0.0371(5) 0.6657(4) 0.1118(3)
H12 H 0.0547(5) 0.6432(4) 0.1225(3)
C1 C 0.0832(6) 0.4760(5) 0.4386(4)
C2 C 0.0686(6) 0.5147(4) 0.4159(4)
C3 C 0.1028(6) 0.5510(4) 0.4229(4)
C4 C 0.1517(6) 0.5478(5) 0.4525(4)
H13 H 0.1744(6) 0.5716(5) 0.4580(4)
C5 C 0.1671(7) 0.5105(6) 0.4735(5)
H14 H 0.2000(7) 0.5090(6) 0.4922(5)
C6 C 0.1324(6) 0.4755(5) 0.4661(5)
H15 H 0.1428(6) 0.4505(5) 0.4803(5)
C7 C 0.0897(6) 0.5914(5) 0.4043(4)
C8 C 0.0128(6) 0.6338(4) 0.3615(4)
C9 C -0.0397(6) 0.6271(4) 0.3381(4)
C10 C -0.0633(6) 0.5866(5) 0.3277(4)
H16 H -0.0429(6) 0.5618(5) 0.3359(4)
C11 C -0.1145(6) 0.5821(5) 0.3061(4)
H17 H -0.1289(6) 0.5546(5) 0.3000(4)
C12 C -0.1466(6) 0.6192(5) 0.2927(4)
H18 H -0.1821(6) 0.6160(5) 0.2780(4)
C13 C -0.1258(6) 0.6586(5) 0.3013(4)
C14 C -0.0712(6) 0.6650(4) 0.3238(4)
C15 C -0.0473(6) 0.7065(5) 0.3313(4)
H19 H -0.0672(6) 0.7311(5) 0.3216(4)
C16 C 0.0033(6) 0.7102(5) 0.3522(4)
H20 H 0.0187(6) 0.7376(5) 0.3561(4)
C17 C 0.0347(7) 0.6741(5) 0.3687(4)
H21 H 0.0697(7) 0.6778(5) 0.3841(4)
C18 C -0.2079(6) 0.7030(5) 0.2862(4)
C19 C -0.2312(6) 0.7450(4) 0.2709(4)
C20 C -0.2841(6) 0.7538(5) 0.2700(4)
H22 H -0.3023(6) 0.7337(5) 0.2792(4)
C21 C -0.3074(7) 0.7914(5) 0.2557(4)
H23 H -0.3418(7) 0.7971(5) 0.2550(4)
C22 C -0.2808(6) 0.8221(5) 0.2417(4)
H24 H -0.2976(6) 0.8481(5) 0.2322(4)
C23 C -0.2299(6) 0.8144(4) 0.2419(4)
C24 C -0.2051(5) 0.7750(4) 0.2567(4)
C25 C -0.0418(6) 0.3736(4) 0.3757(4)
C26 C -0.0169(6) 0.3890(4) 0.3503(4)
C27 C -0.0104(6) 0.3593(4) 0.3247(4)
C28 C -0.0269(6) 0.3169(5) 0.3245(5)
H25 H -0.0219(6) 0.2976(5) 0.3074(5)
C29 C -0.0501(7) 0.3029(6) 0.3484(5)
H26 H -0.0619(7) 0.2744(6) 0.3471(5)
C30 C -0.0568(6) 0.3314(5) 0.3759(5)
H27 H -0.0709(6) 0.3214(5) 0.3934(5)
C31 C 0.0171(6) 0.3719(5) 0.2982(4)
C32 C 0.0668(6) 0.4302(5) 0.2801(4)
C33 C 0.0790(6) 0.4743(4) 0.2844(4)
C34 C 0.0612(6) 0.5018(5) 0.3075(4)
H28 H 0.0397(6) 0.4907(5) 0.3200(4)
C35 C 0.0754(6) 0.5439(5) 0.3113(5)
H29 H 0.0629(6) 0.5614(5) 0.3263(5)
C36 C 0.1082(6) 0.5626(5) 0.2936(4)
H30 H 0.1175(6) 0.5918(5) 0.2971(4)
C37 C 0.1262(6) 0.5376(4) 0.2712(4)
C38 C 0.1123(6) 0.4933(4) 0.2661(4)
C39 C 0.1304(6) 0.4655(5) 0.2423(4)
H31 H 0.1519(6) 0.4770(5) 0.2301(4)
C40 C 0.1167(7) 0.4245(5) 0.2379(5)
H32 H 0.1276(7) 0.4078(5) 0.2216(5)
C41 C 0.0855(6) 0.4046(5) 0.2573(4)
H33 H 0.0778(6) 0.3751(5) 0.2546(4)
C42 C 0.1989(7) 0.5813(5) 0.2648(5)
C43 C 0.2245(7) 0.5989(5) 0.2392(5)
C44 C 0.2717(8) 0.6227(6) 0.2539(6)
H34 H 0.2854(8) 0.6279(6) 0.2792(6)
C45 C 0.2984(8) 0.6388(6) 0.2311(6)
H35 H 0.3292(8) 0.6553(6) 0.2405(6)
C46 C 0.2763(8) 0.6287(6) 0.1925(5)
H36 H 0.2936(8) 0.6386(6) 0.1768(5)
C47 C 0.2323(6) 0.6059(5) 0.1786(5)
C48 C 0.2042(6) 0.5904(5) 0.2009(4)
C49 C -0.0976(6) 0.4937(4) 0.4170(4)
C50 C -0.1221(5) 0.4940(4) 0.3757(4)
C51 C -0.1737(5) 0.5056(4) 0.3602(4)
C52 C -0.2056(6) 0.5161(4) 0.3809(4)
H37 H -0.2413(6) 0.5230(4) 0.3693(4)
C53 C -0.1829(6) 0.5161(5) 0.4198(4)
H38 H -0.2033(6) 0.5239(5) 0.4342(4)
C54 C -0.1305(6) 0.5045(4) 0.4364(4)
H39 H -0.1166(6) 0.5039(4) 0.4621(4)
C55 C -0.2017(6) 0.5046(4) 0.3190(4)
C56 C -0.1910(5) 0.4873(4) 0.2592(4)
C57 C -0.1747(5) 0.4535(4) 0.2422(4)
C58 C -0.1375(5) 0.4227(4) 0.2628(4)
H40 H -0.1223(5) 0.4258(4) 0.2883(4)
C59 C -0.1240(6) 0.3888(5) 0.2458(4)
H41 H -0.0986(6) 0.3692(5) 0.2598(4)
C60 C -0.1475(5) 0.3821(4) 0.2072(4)
H42 H -0.1392(5) 0.3573(4) 0.1964(4)
C61 C -0.1815(5) 0.4113(4) 0.1862(4)
C62 C -0.1960(5) 0.4488(4) 0.2023(4)
C63 C -0.2313(5) 0.4810(4) 0.1822(4)
H43 H -0.2455(5) 0.4787(4) 0.1567(4)
C64 C -0.2453(6) 0.5156(5) 0.1990(4)
H44 H -0.2685(6) 0.5366(5) 0.1851(4)
C65 C -0.2240(5) 0.5193(4) 0.2387(4)
H45 H -0.2324(5) 0.5432(4) 0.2504(4)
C66 C -0.1951(6) 0.3754(5) 0.1254(4)
C67 C -0.2301(6) 0.3787(4) 0.0856(4)
C68 C -0.2668(5) 0.4106(4) 0.0701(4)
C69 C -0.2959(6) 0.4092(4) 0.0313(4)
C70 C -0.2871(6) 0.3774(5) 0.0097(4)
H46 H -0.3067(6) 0.3766(5) -0.0154(4)
C71 C -0.2484(6) 0.3457(5) 0.0252(4)
H47 H -0.2424(6) 0.3242(5) 0.0102(4)
C72 C -0.2194(6) 0.3459(5) 0.0622(4)
H48 H -0.1932(6) 0.3251(5) 0.0720(4)
C73 C -0.3624(5) 0.5411(4) 0.0030(4)
C74 C -0.3069(5) 0.5443(4) 0.0185(3)
C75 C -0.2762(5) 0.5682(4) 0.0025(4)
C76 C -0.3055(6) 0.5923(4) -0.0309(4)
H49 H -0.2871(6) 0.6095(4) -0.0424(4)
C77 C -0.3582(6) 0.5899(4) -0.0450(4)
H50 H -0.3756(6) 0.6053(4) -0.0664(4)
C78 C -0.3885(6) 0.5652(4) -0.0290(4)
H51 H -0.4254(6) 0.5647(4) -0.0395(4)
C79 C -0.2195(5) 0.5709(4) 0.0159(4)
C80 C -0.1386(6) 0.5454(4) 0.0651(4)
C81 C -0.1147(6) 0.5038(4) 0.0749(4)
C82 C -0.1447(6) 0.4655(5) 0.0650(4)
H52 H -0.1811(6) 0.4671(5) 0.0524(4)
C83 C -0.1207(6) 0.4261(5) 0.0739(4)
H53 H -0.1412(6) 0.4011(5) 0.0672(4)
C84 C -0.0670(6) 0.4225(5) 0.0924(4)
H54 H -0.0519(6) 0.3950(5) 0.0976(4)
C85 C -0.0350(6) 0.4583(5) 0.1035(4)
C86 C -0.0584(6) 0.5001(4) 0.0934(4)
C87 C -0.0284(6) 0.5396(4) 0.1011(4)
H55 H 0.0083(6) 0.5385(4) 0.1125(4)
C88 C -0.0524(6) 0.5782(5) 0.0922(4)
H56 H -0.0321(6) 0.6034(5) 0.0980(4)
C89 C -0.1086(6) 0.5813(5) 0.0740(4)
H57 H -0.1245(6) 0.6084(5) 0.0682(4)
C90 C 0.0513(6) 0.4200(5) 0.1343(4)
C91 C 0.1087(6) 0.4277(5) 0.1441(4)
C92 C 0.1321(6) 0.4673(4) 0.1435(4)
C93 C 0.1888(6) 0.4700(5) 0.1512(4)
C94 C 0.2174(7) 0.4316(5) 0.1592(4)
H58 H 0.2539(7) 0.4327(5) 0.1641(4)
C95 C 0.1945(7) 0.3923(5) 0.1604(5)
H59 H 0.2152(7) 0.3673(5) 0.1662(5)
C96 C 0.1413(7) 0.3903(5) 0.1529(4)
H60 H 0.1257(7) 0.3635(5) 0.1535(4)
C97 C -0.4130(5) 0.4634(4) 0.0891(4)
C98 C -0.3854(6) 0.5019(4) 0.1081(4)
C99 C -0.4045(5) 0.5242(4) 0.1325(4)
C100 C -0.4505(6) 0.5066(4) 0.1386(4)
H61 H -0.4644(6) 0.5209(4) 0.1545(4)
C101 C -0.4744(6) 0.4697(4) 0.1218(4)
H62 H -0.5037(6) 0.4588(4) 0.1267(4)
C102 C -0.4555(6) 0.4485(4) 0.0976(4)
H63 H -0.4721(6) 0.4230(4) 0.0866(4)
C103 C -0.3830(6) 0.5660(4) 0.1499(4)
C104 C -0.3163(6) 0.6225(4) 0.1519(4)
C105 C -0.2844(6) 0.6385(4) 0.1332(4)
C106 C -0.2738(7) 0.6134(6) 0.1059(5)
H64 H -0.2894(7) 0.5862(6) 0.0995(5)
C107 C -0.2406(8) 0.6290(6) 0.0889(6)
H65 H -0.2340(8) 0.6121(6) 0.0710(6)
C108 C -0.2154(8) 0.6703(6) 0.0975(5)
H66 H -0.1921(8) 0.6798(6) 0.0858(5)
C109 C -0.2260(6) 0.6956(5) 0.1230(4)
C110 C -0.2579(6) 0.6793(5) 0.1416(4)
C111 C -0.2662(7) 0.7034(6) 0.1706(5)
H67 H -0.2511(7) 0.7308(6) 0.1766(5)
C112 C -0.2962(8) 0.6864(7) 0.1896(6)
H68 H -0.3001(8) 0.7024(7) 0.2090(6)
C113 C -0.3221(8) 0.6450(6) 0.1811(6)
H69 H -0.3420(8) 0.6339(6) 0.1948(6)
C114 C -0.1877(7) 0.7631(5) 0.1088(5)
C115 C -0.1608(6) 0.8044(4) 0.1232(4)
C116 C -0.1456(5) 0.8156(4) 0.1611(4)
C117 C -0.1218(6) 0.8566(4) 0.1723(4)
C118 C -0.1106(6) 0.8843(5) 0.1473(4)
H70 H -0.0933(6) 0.9105(5) 0.1554(4)
C119 C -0.1260(6) 0.8723(5) 0.1086(5)
H71 H -0.1188(6) 0.8902(5) 0.0914(5)
C120 C -0.1513(6) 0.8335(5) 0.0985(4)
H72 H -0.1629(6) 0.8261(5) 0.0736(4)
C121 C -0.0509(6) 0.8429(4) 0.2984(4)
C122 C -0.0261(6) 0.8101(4) 0.2836(4)
C123 C 0.0244(6) 0.7964(4) 0.3015(4)
C124 C 0.0542(7) 0.8175(5) 0.3352(4)
H73 H 0.0893(7) 0.8093(5) 0.3474(4)
C125 C 0.0325(6) 0.8495(5) 0.3499(5)
H74 H 0.0524(6) 0.8626(5) 0.3720(5)
C126 C -0.0198(6) 0.8625(5) 0.3317(4)
H75 H -0.0344(6) 0.8845(5) 0.3418(4)
C127 C 0.0515(7) 0.7624(5) 0.2883(4)
C128 C 0.0439(6) 0.7161(5) 0.2340(4)
C129 C 0.0197(6) 0.7173(5) 0.1947(4)
C130 C -0.0222(7) 0.7451(5) 0.1777(5)
H76 H -0.0344(7) 0.7638(5) 0.1920(5)
C131 C -0.0460(8) 0.7453(6) 0.1399(6)
H77 H -0.0750(8) 0.7632(6) 0.1289(6)
C132 C -0.0263(7) 0.7180(6) 0.1175(5)
H78 H -0.0427(7) 0.7180(6) 0.0920(5)
C133 C 0.0168(6) 0.6918(5) 0.1337(4)
C134 C 0.0399(6) 0.6900(4) 0.1721(4)
C135 C 0.0811(7) 0.6624(5) 0.1898(5)
H79 H 0.0952(7) 0.6448(5) 0.1758(5)
C136 C 0.1019(8) 0.6600(6) 0.2275(5)
H80 H 0.1288(8) 0.6401(6) 0.2385(5)
C137 C 0.0827(7) 0.6877(6) 0.2504(6)
H81 H 0.0970(7) 0.6859(6) 0.2760(6)
C138 C 0.0326(7) 0.6714(5) 0.0759(5)
C139 C 0.0591(6) 0.6392(5) 0.0597(4)
C140 C 0.0886(6) 0.6052(5) 0.0785(4)
C141 C 0.1179(6) 0.5785(5) 0.0615(4)
C142 C 0.1126(6) 0.5866(5) 0.0243(4)
H82 H 0.1296(6) 0.5687(5) 0.0124(4)
C143 C 0.0821(6) 0.6211(5) 0.0054(5)
H83 H 0.0788(6) 0.6265(5) -0.0190(5)
C144 C 0.0569(6) 0.6475(5) 0.0233(5)
H84 H 0.0378(6) 0.6713(5) 0.0109(5)
O37 O 0.2768(7) 0.2677(6) 0.1302(5)
N25 N 0.3103(7) 0.3309(6) 0.1554(5)
C261 C 0.3409(9) 0.3566(7) 0.1897(7)
H245 H 0.3470(9) 0.3855(7) 0.1827(7)
H246 H 0.3743(9) 0.3427(7) 0.2020(7)
H247 H 0.3206(9) 0.3579(7) 0.2060(7)
C262 C 0.3011(8) 0.3541(6) 0.1208(6)
H248 H 0.3142(8) 0.3833(6) 0.1260(6)
H249 H 0.2636(8) 0.3548(6) 0.1071(6)
H250 H 0.3193(8) 0.3396(6) 0.1065(6)
C263 C 0.2962(10) 0.2898(8) 0.1565(8)
H251 H 0.3018(10) 0.2774(8) 0.1796(8)
O38 O 0.0704(5) 0.7154(4) 0.4796(4)
N26 N 0.1107(7) 0.7503(6) 0.4446(5)
C264 C 0.0897(11) 0.7917(9) 0.4472(8)
H252 H 0.1028(11) 0.8123(9) 0.4337(8)
H253 H 0.1003(11) 0.8002(9) 0.4726(8)
H254 H 0.0516(11) 0.7906(9) 0.4369(8)
C265 C 0.1409(10) 0.7456(8) 0.4203(7)
H255 H 0.1460(10) 0.7736(8) 0.4110(7)
H256 H 0.1222(10) 0.7270(8) 0.4001(7)
H257 H 0.1749(10) 0.7331(8) 0.4336(7)
C266 C 0.0984(8) 0.7150(7) 0.4612(6)
H258 H 0.1129(8) 0.6885(7) 0.4580(6)
O39 O 0.0744(8) 0.1124(6) 0.3839(6)
N27 N 0.0466(8) 0.1069(6) 0.3226(6)
C267 C 0.0050(10) 0.0914(8) 0.2880(8)
H259 H 0.0147(10) 0.0994(8) 0.2671(8)
H260 H -0.0286(10) 0.1043(8) 0.2860(8)
H261 H 0.0022(10) 0.0604(8) 0.2889(8)
C268 C 0.0921(11) 0.1288(9) 0.3192(8)
H262 H 0.0883(11) 0.1311(9) 0.2936(8)
H263 H 0.1236(11) 0.1126(9) 0.3320(8)
H264 H 0.0946(11) 0.1573(9) 0.3297(8)
C269 C 0.0415(12) 0.0995(9) 0.3541(9)
H265 H 0.0121(12) 0.0839(9) 0.3547(9)
O40 O 0.2086(13) 0.2346(10) 0.0201(8)
C270 C 0.2315(29) 0.2947(22) 0.0048(17)
C271 C 0.1845(22) 0.2633(14) 0.0003(12)
C272 C 0.1432(21) 0.2943(17) -0.0240(14)
N13 N 0.0856(5) 0.4351(4) 0.0309(4)
C145 C 0.0769(8) 0.4672(6) 0.0009(6)
H85 H 0.1032(8) 0.4632(6) -0.0107(6)
H86 H 0.0799(8) 0.4960(6) 0.0109(6)
H87 H 0.0421(8) 0.4632(6) -0.0170(6)
C146 C 0.0444(7) 0.4429(6) 0.0476(6)
H88 H 0.0487(7) 0.4225(6) 0.0673(6)
H89 H 0.0099(7) 0.4392(6) 0.0292(6)
H90 H 0.0477(7) 0.4719(6) 0.0572(6)
C147 C 0.1388(7) 0.4436(6) 0.0586(5)
H91 H 0.1656(7) 0.4386(6) 0.0477(5)
H92 H 0.1444(7) 0.4245(6) 0.0793(5)
H93 H 0.1406(7) 0.4731(6) 0.0668(5)
C148 C 0.0816(7) 0.3904(5) 0.0146(4)
H94 H 0.0452(7) 0.3856(5) -0.0014(4)
H95 H 0.1041(7) 0.3890(5) -0.0006(4)
C149 C 0.0973(7) 0.3549(5) 0.0424(5)
C150 C 0.1468(8) 0.3403(6) 0.0553(5)
H96 H 0.1728(8) 0.3531(6) 0.0476(5)
C151 C 0.1602(9) 0.3059(7) 0.0800(6)
H97 H 0.1950(9) 0.2957(7) 0.0886(6)
C152 C 0.1224(9) 0.2869(7) 0.0918(6)
H98 H 0.1316(9) 0.2635(7) 0.1079(6)
C153 C 0.0716(9) 0.3023(7) 0.0802(6)
H99 H 0.0463(9) 0.2897(7) 0.0887(6)
C154 C 0.0577(8) 0.3373(6) 0.0552(6)
H100 H 0.0234(8) 0.3486(6) 0.0474(6)
N14 N 0.2710(6) 0.1493(5) 0.1213(4)
C155 C 0.3237(7) 0.1660(6) 0.1465(5)
C156 C 0.2279(9) 0.1633(7) 0.1381(6)
C157 C 0.2589(9) 0.1701(7) 0.0830(6)
C158 C 0.2739(8) 0.1011(6) 0.1182(5)
C159 C 0.1434(14) 0.1719(10) 0.0863(10)
C160 C 0.1762(11) 0.1488(9) 0.1178(7)
C161 C 0.1575(13) 0.1113(11) 0.1298(10)
C162 C 0.0913(14) 0.1566(13) 0.0674(11)
C163 C 0.1047(16) 0.0969(13) 0.1116(12)
C164 C 0.0708(14) 0.1220(14) 0.0821(12)
N15 N -0.0992(5) 0.6297(4) 0.2015(4)
C165 C -0.1072(7) 0.6736(6) 0.2135(5)
H101 H -0.0752(7) 0.6902(6) 0.2183(5)
H102 H -0.1160(7) 0.6718(6) 0.2357(5)
H103 H -0.1357(7) 0.6875(6) 0.1945(5)
C166 C -0.0875(7) 0.6324(5) 0.1652(5)
H104 H -0.0555(7) 0.6487(5) 0.1691(5)
H105 H -0.1166(7) 0.6466(5) 0.1468(5)
H106 H -0.0833(7) 0.6037(5) 0.1570(5)
C167 C -0.1481(8) 0.6048(6) 0.1944(6)
H107 H -0.1431(8) 0.5761(6) 0.1865(6)
H108 H -0.1765(8) 0.6188(6) 0.1754(6)
H109 H -0.1568(8) 0.6031(6) 0.2165(6)
C168 C -0.0539(7) 0.6072(6) 0.2304(5)
H110 H -0.0224(7) 0.6252(6) 0.2358(5)
H111 H -0.0625(7) 0.6049(6) 0.2528(5)
C169 C -0.0409(7) 0.5630(6) 0.2201(5)
C170 C -0.0015(7) 0.5579(6) 0.2045(5)
H112 H 0.0168(7) 0.5823(6) 0.2010(5)
C171 C 0.0110(7) 0.5181(5) 0.1941(5)
H113 H 0.0379(7) 0.5150(5) 0.1840(5)
C172 C -0.0170(8) 0.4830(6) 0.1990(5)
H114 H -0.0095(8) 0.4559(6) 0.1914(5)
C173 C -0.0551(8) 0.4862(6) 0.2145(5)
H115 H -0.0727(8) 0.4613(6) 0.2179(5)
C174 C -0.0684(7) 0.5258(5) 0.2254(5)
H116 H -0.0948(7) 0.5280(5) 0.2360(5)
N16 N -0.2059(5) 0.3755(4) 0.3657(3)
C175 C -0.1794(6) 0.3909(5) 0.3395(4)
H117 H -0.1457(6) 0.3766(5) 0.3449(4)
H118 H -0.1739(6) 0.4217(5) 0.3422(4)
H119 H -0.2015(6) 0.3844(5) 0.3147(4)
C176 C -0.2568(6) 0.3977(5) 0.3569(4)
H120 H -0.2508(6) 0.4283(5) 0.3607(4)
H121 H -0.2753(6) 0.3871(5) 0.3727(4)
H122 H -0.2778(6) 0.3923(5) 0.3316(4)
C177 C -0.2158(6) 0.3287(5) 0.3598(5)
H123 H -0.1825(6) 0.3137(5) 0.3655(5)
H124 H -0.2370(6) 0.3236(5) 0.3345(5)
H125 H -0.2344(6) 0.3184(5) 0.3755(5)
C178 C -0.1693(6) 0.3866(5) 0.4043(4)
H126 H -0.1353(6) 0.3725(5) 0.4089(4)
H127 H -0.1633(6) 0.4177(5) 0.4060(4)
C179 C -0.1919(7) 0.3729(6) 0.4336(5)
C180 C -0.2187(7) 0.4024(6) 0.4465(5)
H128 H -0.2221(7) 0.4308(6) 0.4378(5)
C181 C -0.2421(9) 0.3896(8) 0.4740(7)
H129 H -0.2609(9) 0.4092(8) 0.4833(7)
C182 C -0.2353(9) 0.3487(8) 0.4851(6)
H130 H -0.2507(9) 0.3405(8) 0.5024(6)
C183 C -0.2113(8) 0.3209(7) 0.4752(6)
H131 H -0.2094(8) 0.2930(7) 0.4847(6)
C184 C -0.1847(9) 0.3310(7) 0.4478(6)
H132 H -0.1645(9) 0.3105(7) 0.4406(6)
N17 N -0.0275(5) 0.3102(4) 0.1796(4)
C185 C -0.0609(7) 0.2849(6) 0.1960(5)
H133 H -0.0557(7) 0.2545(6) 0.1930(5)
H134 H -0.0976(7) 0.2922(6) 0.1838(5)
H135 H -0.0509(7) 0.2916(6) 0.2218(5)
C186 C -0.0352(7) 0.3574(5) 0.1841(5)
H136 H -0.0135(7) 0.3737(5) 0.1734(5)
H137 H -0.0252(7) 0.3642(5) 0.2098(5)
H138 H -0.0719(7) 0.3648(5) 0.1719(5)
C187 C -0.0437(8) 0.3017(6) 0.1382(5)
H139 H -0.0215(8) 0.3184(6) 0.1282(5)
H140 H -0.0802(8) 0.3099(6) 0.1264(5)
H141 H -0.0396(8) 0.2714(6) 0.1341(5)
C188 C 0.0309(7) 0.3007(6) 0.1974(5)
H142 H 0.0507(7) 0.3199(6) 0.1869(5)
H143 H 0.0412(7) 0.3072(6) 0.2235(5)
C189 C 0.0465(7) 0.2548(6) 0.1932(5)
C190 C 0.0428(9) 0.2218(7) 0.2165(6)
H144 H 0.0290(9) 0.2275(7) 0.2351(6)
C191 C 0.0599(10) 0.1799(9) 0.2121(8)
H145 H 0.0579(10) 0.1582(9) 0.2284(8)
C192 C 0.0798(10) 0.1700(9) 0.1840(8)
H146 H 0.0893(10) 0.1418(9) 0.1804(8)
C193 C 0.0850(9) 0.2035(8) 0.1616(7)
H147 H 0.0999(9) 0.1978(8) 0.1435(7)
C194 C 0.0689(8) 0.2445(7) 0.1653(6)
H148 H 0.0725(8) 0.2662(7) 0.1496(6)
N18 N -0.3407(5) 0.3321(4) 0.1404(3)
C195 C -0.3228(7) 0.3669(5) 0.1691(5)
H149 H -0.3530(7) 0.3836(5) 0.1693(5)
H150 H -0.2979(7) 0.3855(5) 0.1633(5)
H151 H -0.3061(7) 0.3540(5) 0.1929(5)
C196 C -0.3777(7) 0.3021(5) 0.1502(5)
H152 H -0.4087(7) 0.3178(5) 0.1501(5)
H153 H -0.3601(7) 0.2902(5) 0.1743(5)
H154 H -0.3879(7) 0.2790(5) 0.1324(5)
C197 C -0.3666(6) 0.3544(5) 0.1039(4)
H155 H -0.3957(6) 0.3721(5) 0.1057(4)
H156 H -0.3408(6) 0.3738(5) 0.0995(4)
C198 C -0.2934(7) 0.3071(6) 0.1408(5)
H157 H -0.2691(7) 0.3259(6) 0.1346(5)
H158 H -0.3041(7) 0.2840(6) 0.1231(5)
H159 H -0.2763(7) 0.2951(6) 0.1649(5)
C199 C -0.3880(6) 0.3247(5) 0.0711(4)
C200 C -0.4395(7) 0.3120(5) 0.0601(5)
H160 H -0.4615(7) 0.3208(5) 0.0730(5)
C201 C -0.4604(8) 0.2840(6) 0.0274(5)
H161 H -0.4955(8) 0.2745(6) 0.0190(5)
C202 C -0.4268(8) 0.2729(6) 0.0106(5)
H162 H -0.4394(8) 0.2547(6) -0.0097(5)
C203 C -0.3764(8) 0.2856(6) 0.0203(5)
H163 H -0.3550(8) 0.2770(6) 0.0069(5)
C204 C -0.3565(7) 0.3129(5) 0.0517(4)
H164 H -0.3216(7) 0.3226(5) 0.0590(4)
N19 N 0.2906(5) 0.5310(4) 0.0774(3)
C205 C 0.2890(6) 0.4948(5) 0.1032(4)
H165 H 0.2570(6) 0.4980(5) 0.1095(4)
H166 H 0.2862(6) 0.4675(5) 0.0902(4)
C206 C 0.3380(6) 0.5274(5) 0.0653(5)
H167 H 0.3383(6) 0.4994(5) 0.0545(5)
H168 H 0.3698(6) 0.5309(5) 0.0863(5)
H169 H 0.3364(6) 0.5495(5) 0.0475(5)
C207 C 0.2898(7) 0.5738(6) 0.0940(5)
H170 H 0.3209(7) 0.5769(6) 0.1156(5)
H171 H 0.2585(7) 0.5764(6) 0.1007(5)
H172 H 0.2897(7) 0.5960(6) 0.0765(5)
C208 C 0.2421(6) 0.5281(5) 0.0444(4)
H173 H 0.2411(6) 0.5005(5) 0.0327(4)
H174 H 0.2424(6) 0.5509(5) 0.0274(4)
H175 H 0.2112(6) 0.5312(5) 0.0516(4)
C209 C 0.3356(7) 0.4923(5) 0.1382(5)
C210 C 0.3782(7) 0.4665(6) 0.1405(5)
H176 H 0.3787(7) 0.4519(6) 0.1195(5)
C211 C 0.4203(9) 0.4614(7) 0.1730(6)
H177 H 0.4482(9) 0.4428(7) 0.1744(6)
C212 C 0.4195(10) 0.4850(7) 0.2033(7)
H178 H 0.4484(10) 0.4832(7) 0.2251(7)
C213 C 0.3787(10) 0.5103(8) 0.2023(7)
H179 H 0.3786(10) 0.5242(8) 0.2237(7)
C214 C 0.3364(8) 0.5162(6) 0.1700(6)
H180 H 0.3091(8) 0.5354(6) 0.1690(6)
N20 N 0.2211(12) 0.3503(10) 0.5180(8)
C215 C 0.1909(13) 0.3740(10) 0.5351(10)
H181 H 0.2050(13) 0.4029(10) 0.5404(10)
H182 H 0.1925(13) 0.3600(10) 0.5577(10)
H183 H 0.1546(13) 0.3754(10) 0.5190(10)
C216 C 0.2199(14) 0.3699(12) 0.4804(11)
H184 H 0.2411(14) 0.3523(12) 0.4702(11)
H185 H 0.2339(14) 0.3988(12) 0.4842(11)
H186 H 0.1839(14) 0.3706(12) 0.4637(11)
C217 C 0.1944(15) 0.3069(12) 0.5119(11)
H187 H 0.2122(15) 0.2879(12) 0.5001(11)
H188 H 0.1579(15) 0.3102(12) 0.4964(11)
H189 H 0.1959(15) 0.2948(12) 0.5352(11)
C218 C 0.2800(12) 0.3421(11) 0.5348(10)
H190 H 0.2996(12) 0.3688(11) 0.5357(10)
H191 H 0.2912(12) 0.3211(11) 0.5202(10)
C219 C 0.2911(9) 0.3235(13) 0.5764(9)
C220 C 0.2915(12) 0.2795(12) 0.5795(9)
H192 H 0.2859(12) 0.2620(12) 0.5589(9)
C221 C 0.3003(16) 0.2611(9) 0.6140(11)
H193 H 0.3001(16) 0.2311(9) 0.6165(11)
C222 C 0.3092(13) 0.2868(11) 0.6439(8)
H194 H 0.3150(13) 0.2743(11) 0.6669(8)
C223 C 0.3099(15) 0.3314(12) 0.6409(9)
H195 H 0.3188(15) 0.3486(12) 0.6620(9)
C224 C 0.2973(15) 0.3499(9) 0.6067(11)
H196 H 0.2930(15) 0.3798(9) 0.6039(11)
N21 N 0.0154(4) 0.0840(3) 0.4644(3)
C225 C 0.0339(8) 0.0432(6) 0.4532(5)
H197 H 0.0438(8) 0.0482(6) 0.4318(5)
H198 H 0.0060(8) 0.0221(6) 0.4475(5)
H199 H 0.0642(8) 0.0327(6) 0.4730(5)
C226 C -0.0322(7) 0.1008(5) 0.4313(5)
H200 H -0.0203(7) 0.1043(5) 0.4104(5)
H201 H -0.0595(7) 0.0786(5) 0.4249(5)
C227 C 0.0604(7) 0.1148(5) 0.4741(5)
H202 H 0.0713(7) 0.1192(5) 0.4530(5)
H203 H 0.0895(7) 0.1032(5) 0.4941(5)
H204 H 0.0495(7) 0.1420(5) 0.4814(5)
C228 C -0.0001(7) 0.0782(6) 0.4965(5)
H205 H -0.0120(7) 0.1054(6) 0.5030(5)
H206 H 0.0299(7) 0.0680(6) 0.5167(5)
H207 H -0.0283(7) 0.0574(6) 0.4911(5)
C229 C -0.1255(14) 0.1777(11) 0.4540(9)
H208 H -0.1542(14) 0.1775(11) 0.4624(9)
C230 C -0.0568(7) 0.1420(5) 0.4368(5)
C231 C -0.0374(10) 0.1790(8) 0.4259(7)
H209 H -0.0093(10) 0.1795(8) 0.4168(7)
C232 C -0.0981(9) 0.1410(8) 0.4492(6)
H210 H -0.1091(9) 0.1141(8) 0.4548(6)
C233 C -0.1053(12) 0.2113(10) 0.4453(8)
H211 H -0.1204(12) 0.2363(10) 0.4511(8)
C234 C -0.0698(12) 0.2210(10) 0.4307(8)
H212 H -0.0638(12) 0.2489(10) 0.4239(8)
N22 N -0.3707(5) 0.4720(4) 0.2502(3)
C235 C -0.3267(7) 0.4435(5) 0.2484(5)
H213 H -0.2932(7) 0.4559(5) 0.2628(5)
H214 H -0.3283(7) 0.4407(5) 0.2232(5)
H215 H -0.3302(7) 0.4154(5) 0.2580(5)
C236 C -0.4223(6) 0.4534(5) 0.2282(4)
H216 H -0.4503(6) 0.4721(5) 0.2296(4)
H217 H -0.4262(6) 0.4254(5) 0.2378(4)
H218 H -0.4243(6) 0.4507(5) 0.2030(4)
C237 C -0.3674(6) 0.4747(5) 0.2903(4)
H219 H -0.3711(6) 0.4457(5) 0.2989(4)
H220 H -0.3324(6) 0.4853(5) 0.3049(4)
C238 C -0.3629(6) 0.5152(5) 0.2351(4)
H221 H -0.3290(6) 0.5268(5) 0.2497(4)
H222 H -0.3906(6) 0.5346(5) 0.2358(4)
H223 H -0.3641(6) 0.5118(5) 0.2100(4)
C239 C -0.4078(7) 0.5030(5) 0.2968(5)
C240 C -0.4555(7) 0.4854(6) 0.2974(5)
H224 H -0.4621(7) 0.4559(6) 0.2933(5)
C241 C -0.4939(8) 0.5121(7) 0.3043(6)
H225 H -0.5257(8) 0.5000(7) 0.3045(6)
C242 C -0.4853(10) 0.5536(7) 0.3103(6)
H226 H -0.5115(10) 0.5707(7) 0.3143(6)
C243 C -0.4381(9) 0.5725(8) 0.3108(6)
H227 H -0.4326(9) 0.6021(8) 0.3153(6)
C244 C -0.3993(8) 0.5474(6) 0.3046(5)
H228 H -0.3672(8) 0.5600(6) 0.3055(5)
N23 N 0.0117(5) 0.6014(4) 0.4903(3)
C245 C 0.0055(7) 0.6379(5) 0.5132(4)
H229 H -0.0298(7) 0.6496(5) 0.5028(4)
H230 H 0.0310(7) 0.6600(5) 0.5138(4)
H231 H 0.0111(7) 0.6278(5) 0.5378(4)
C246 C 0.0653(6) 0.5828(5) 0.5054(5)
H232 H 0.0687(6) 0.5592(5) 0.4901(5)
H233 H 0.0713(6) 0.5725(5) 0.5300(5)
H234 H 0.0912(6) 0.6047(5) 0.5060(5)
C247 C -0.0269(6) 0.5663(5) 0.4907(4)
H235 H -0.0625(6) 0.5774(5) 0.4809(4)
H236 H -0.0199(6) 0.5567(5) 0.5156(4)
H237 H -0.0230(6) 0.5424(5) 0.4759(4)
C248 C 0.0018(6) 0.6151(5) 0.4504(4)
H238 H 0.0293(6) 0.6356(5) 0.4504(4)
H239 H 0.0062(6) 0.5897(5) 0.4368(4)
C249 C -0.0500(6) 0.6347(5) 0.4300(4)
C250 C -0.0919(6) 0.6090(5) 0.4067(4)
H240 H -0.0866(6) 0.5794(5) 0.4047(4)
C251 C -0.1408(7) 0.6274(5) 0.3868(5)
H241 H -0.1682(7) 0.6099(5) 0.3722(5)
C252 C -0.1487(8) 0.6707(6) 0.3886(5)
H242 H -0.1809(8) 0.6830(6) 0.3743(5)
C253 C -0.1088(7) 0.6964(6) 0.4116(5)
H243 H -0.1148(7) 0.7259(6) 0.4134(5)
C254 C -0.0607(7) 0.6791(5) 0.4317(5)
H244 H -0.0344(7) 0.6971(5) 0.4468(5)
O41? O -0.2913(10) 0.6001(8) 0.2896(8)
O42? O 0.2553(25) 0.2954(19) -0.0028(17)
O43? O -0.3550(16) 0.1519(13) -0.0733(12)
N24? N -0.2936(9) 0.0632(7) -0.0977(7)
N28? N 0.1342(27) 0.2725(20) -0.0196(18)
C255? C -0.3073(16) 0.0114(13) -0.1215(12)
C256? C -0.3568(17) 0.0789(14) -0.1165(11)
C257? C 0.2871(27) 0.3120(21) 0.2643(20)
C258? C 0.2208(30) 0.3081(25) 0.2316(22)
C259? C 0.2211(28) 0.2593(23) 0.2211(20)
C260? C 0.2807(38) 0.2497(30) 0.2534(28)
C273? C 0.3425(19) 0.4972(15) 0.6004(15)
C274? C -0.5458(17) 0.3844(14) 0.2985(12)
C275? C -0.5318(17) 0.3699(14) 0.3310(13)
C276? C -0.5261(16) 0.3687(13) 0.2716(11)
C277? C -0.0213(22) 0.2054(16) 0.2731(15)
C278? C -0.0564(20) 0.1874(16) 0.3187(17)
C279? C -0.0588(28) 0.1950(22) 0.2904(26)
C280? C -0.7239(15) 0.4919(12) 0.2438(11)
C281? C -0.6733(33) 0.5058(24) 0.2845(21)
C282? C -0.6280(27) 0.5287(21) 0.3089(19)
C283? C 0.2039(16) 0.6653(13) 0.0823(12)
C284? C 0.1978(38) 0.7092(33) 0.1039(29)
C285? C 0.2124(34) 0.7655(29) 0.1122(25)
C286? C 0.1749(24) 0.7056(21) 0.1381(18)
C287? C 0.1696(28) 0.7443(25) 0.1521(21)
C288? C -0.3215(44) 0.2917(31) -0.0757(29)
C289? C -0.5430(28) 0.3493(25) 0.2878(21)
C290? C -0.3705(33) 0.2911(23) -0.0775(20)
C291? C -0.5883(39) 0.4049(30) 0.2864(27)
C292? C 0.4347(34) 0.2378(24) 0.5458(22)
C293? C 0.3549(32) 0.2461(25) 0.4992(25)
C294? C -0.0979(24) 0.1723(20) 0.2518(15)
C295? C -0.0705(24) 0.1949(17) 0.2692(19)
C296? C -0.1211(22) 0.1484(18) 0.2471(14)
C297? C 0.2249(23) 0.0799(18) 0.0974(16)
C298? C 0.1382(39) 0.0348(32) 0.0476(30)
C299? C 0.1851(30) 0.0742(24) 0.0380(22)
C300? C 0.4604(27) 0.2648(22) 0.5133(20)
C301? C -0.3584(40) 0.2213(33) -0.1959(30)
C302? C -0.2767(18) 0.5983(14) 0.3200(14)
C303? C -0.3688(26) 0.1119(23) -0.1105(19)
C304? C 0.2134(30) 0.2741(25) 0.0084(16)
C305? C 0.1733(25) 0.2285(18) 0.0143(16)
C306? C 0.4145(34) 0.3473(27) 0.5582(26)
C307? C -0.2516(21) 0.0841(17) -0.1119(15)
C308? C -0.2937(28) 0.0548(23) -0.1466(22)
C309? C 0.0501(24) 0.1893(20) -0.0478(18)
C310? C 0.0802(51) 0.1528(42) -0.0192(37)
C311? C 0.1223(29) 0.1244(23) -0.0076(20)
C312? C -0.6990(51) 0.4770(37) 0.2813(35)
C313? C -0.4142(10) 0.1396(8) -0.0574(7)
C314? C -0.6619(38) 0.4581(31) 0.2676(26)
C315? C 0.1371(30) -0.0866(26) 0.0247(23)
C316? C -0.5155(40) 0.4778(33) 0.4002(30)
C317? C 0.4586(33) 0.2860(27) 0.5750(25)
C318? C -0.0700(32) 0.1866(25) 0.2306(25)
C319? C -0.3722(64) 0.2096(54) -0.0970(48)
C320? C 0.3445(41) 0.4894(33) 0.5637(33)
C321? C 0.3851(43) 0.2313(30) 0.5326(30)
C322? C 0.3218(21) 0.4873(16) 0.5457(15)
C323? C 0.2962(16) 0.4514(13) 0.5489(11)
C324? C -0.4097(28) 0.2588(24) -0.0969(21)
C325? C -0.3253(35) 0.1772(29) -0.1734(26)
C326? C -0.4175(32) 0.2219(27) -0.0716(24)
C327? C 0.4433(31) 0.3346(25) 0.6046(24)
C328? C 0.1685(43) -0.1324(36) 0.0501(33)
loop_
_geom_bond_atom_site_label_1
_geom_bond_atom_site_label_2
_geom_bond_site_symmetry_1
_geom_bond_site_symmetry_2
Ga1 O1 1_555 1_555
Ga2 O17 1_555 1_555
Ga3 O5 1_555 1_555
Ga4 O11 1_555 1_555
O1 C1 1_555 1_555
O2 Ga1 1_555 1_555
O3 C7 1_555 1_555
O4 C18 1_555 1_555
O5 C23 1_555 1_555
O6 Ga3 1_555 1_555
O7 Ga1 1_555 1_555
O8 Ga1 1_555 1_555
O9 C31 1_555 1_555
O10 C42 1_555 1_555
O11 C48 1_555 1_555
O12 Ga4 1_555 1_555
O13 Ga1 1_555 1_555
O14 Ga1 1_555 1_555
O15 C55 1_555 1_555
O16 C66 1_555 1_555
O17 C68 1_555 1_555
O18 Ga2 1_555 1_555
O19 Ga2 1_555 1_555
O20 Ga2 1_555 1_555
O21 C79 1_555 1_555
O22 C90 1_555 1_555
O23 Ga4 1_555 1_555
O24 Ga4 1_555 1_555
O25 Ga2 1_555 1_555
O26 Ga2 1_555 1_555
O27 C103 1_555 1_555
O28 C114 1_555 1_555
O29 Ga3 1_555 1_555
O30 Ga3 1_555 1_555
O31 Ga3 1_555 1_555
O32 Ga3 1_555 1_555
O33 C127 1_555 1_555
O34 C138 1_555 1_555
O35 Ga4 1_555 1_555
O36 Ga4 1_555 1_555
O37 C263 1_555 1_555
O38 C266 1_555 1_555
O39 C269 1_555 1_555
O40 C271 1_555 1_555
N1 H1 1_555 1_555
N2 H2 1_555 1_555
N3 H3 1_555 1_555
N4 H4 1_555 1_555
N5 H5 1_555 1_555
N6 H6 1_555 1_555
N7 H7 1_555 1_555
N8 H8 1_555 1_555
N9 H9 1_555 1_555
N10 H10 1_555 1_555
N11 H11 1_555 1_555
N12 H12 1_555 1_555
N13 C145 1_555 1_555
N14 C155 1_555 1_555
N15 C165 1_555 1_555
N16 C175 1_555 1_555
N17 C185 1_555 1_555
N18 C195 1_555 1_555
N19 C205 1_555 1_555
N20 C215 1_555 1_555
N21 C225 1_555 1_555
N22 C235 1_555 1_555
N23 C245 1_555 1_555
N25 C261 1_555 1_555
N26 C264 1_555 1_555
N27 C267 1_555 1_555
C1 C2 1_555 1_555
C2 O2 1_555 1_555
C3 C2 1_555 1_555
C4 C3 1_555 1_555
H13 C4 1_555 1_555
C5 C4 1_555 1_555
H14 C5 1_555 1_555
C6 C1 1_555 1_555
H15 C6 1_555 1_555
C7 N1 1_555 1_555
C8 N1 1_555 1_555
C9 C8 1_555 1_555
C10 C9 1_555 1_555
H16 C10 1_555 1_555
C11 C10 1_555 1_555
H17 C11 1_555 1_555
C12 C11 1_555 1_555
H18 C12 1_555 1_555
C13 N2 1_555 1_555
C14 C9 1_555 1_555
C15 C14 1_555 1_555
H19 C15 1_555 1_555
C16 C15 1_555 1_555
H20 C16 1_555 1_555
C17 C8 1_555 1_555
H21 C17 1_555 1_555
C18 N2 1_555 1_555
C19 C18 1_555 1_555
C20 C19 1_555 1_555
H22 C20 1_555 1_555
C21 C20 1_555 1_555
H23 C21 1_555 1_555
C22 C21 1_555 1_555
H24 C22 1_555 1_555
C23 C22 1_555 1_555
C24 O6 1_555 1_555
C25 O7 1_555 1_555
C26 O8 1_555 1_555
C27 C26 1_555 1_555
C28 C27 1_555 1_555
H25 C28 1_555 1_555
C29 C28 1_555 1_555
H26 C29 1_555 1_555
C30 C25 1_555 1_555
H27 C30 1_555 1_555
C31 N3 1_555 1_555
C32 N3 1_555 1_555
C33 C32 1_555 1_555
C34 C33 1_555 1_555
H28 C34 1_555 1_555
C35 C34 1_555 1_555
H29 C35 1_555 1_555
C36 C35 1_555 1_555
H30 C36 1_555 1_555
C37 N4 1_555 1_555
C38 C33 1_555 1_555
C39 C38 1_555 1_555
H31 C39 1_555 1_555
C40 C39 1_555 1_555
H32 C40 1_555 1_555
C41 C32 1_555 1_555
H33 C41 1_555 1_555
C42 N4 1_555 1_555
C43 C42 1_555 1_555
C44 C43 1_555 1_555
H34 C44 1_555 1_555
C45 C44 1_555 1_555
H35 C45 1_555 1_555
C46 C45 1_555 1_555
H36 C46 1_555 1_555
C47 O12 1_555 1_555
C48 C43 1_555 1_555
C49 O13 1_555 1_555
C50 O14 1_555 1_555
C51 C50 1_555 1_555
C52 C51 1_555 1_555
H37 C52 1_555 1_555
C53 C52 1_555 1_555
H38 C53 1_555 1_555
C54 C49 1_555 1_555
H39 C54 1_555 1_555
C55 N5 1_555 1_555
C56 N5 1_555 1_555
C57 C56 1_555 1_555
C58 C57 1_555 1_555
H40 C58 1_555 1_555
C59 C58 1_555 1_555
H41 C59 1_555 1_555
C60 C59 1_555 1_555
H42 C60 1_555 1_555
C61 N6 1_555 1_555
C62 C57 1_555 1_555
C63 C62 1_555 1_555
H43 C63 1_555 1_555
C64 C63 1_555 1_555
H44 C64 1_555 1_555
C65 C56 1_555 1_555
H45 C65 1_555 1_555
C66 N6 1_555 1_555
C67 C66 1_555 1_555
C68 C67 1_555 1_555
C69 O18 1_555 1_555
C70 C69 1_555 1_555
H46 C70 1_555 1_555
C71 C70 1_555 1_555
H47 C71 1_555 1_555
C72 C67 1_555 1_555
H48 C72 1_555 1_555
C73 O19 1_555 1_555
C74 O20 1_555 1_555
C75 C74 1_555 1_555
C76 C75 1_555 1_555
H49 C76 1_555 1_555
C77 C76 1_555 1_555
H50 C77 1_555 1_555
C78 C73 1_555 1_555
H51 C78 1_555 1_555
C79 N7 1_555 1_555
C80 N7 1_555 1_555
C81 C80 1_555 1_555
C82 C81 1_555 1_555
H52 C82 1_555 1_555
C83 C82 1_555 1_555
H53 C83 1_555 1_555
C84 C83 1_555 1_555
H54 C84 1_555 1_555
C85 N8 1_555 1_555
C86 C81 1_555 1_555
C87 C86 1_555 1_555
H55 C87 1_555 1_555
C88 C87 1_555 1_555
H56 C88 1_555 1_555
C89 C80 1_555 1_555
H57 C89 1_555 1_555
C90 N8 1_555 1_555
C91 C90 1_555 1_555
C92 O23 1_555 1_555
C93 O24 1_555 1_555
C94 C93 1_555 1_555
H58 C94 1_555 1_555
C95 C94 1_555 1_555
H59 C95 1_555 1_555
C96 C91 1_555 1_555
H60 C96 1_555 1_555
C97 O25 1_555 1_555
C98 O26 1_555 1_555
C99 C98 1_555 1_555
C100 C99 1_555 1_555
H61 C100 1_555 1_555
C101 C100 1_555 1_555
H62 C101 1_555 1_555
C102 C97 1_555 1_555
H63 C102 1_555 1_555
C103 N9 1_555 1_555
C104 N9 1_555 1_555
C105 C104 1_555 1_555
C106 C105 1_555 1_555
H64 C106 1_555 1_555
C107 C106 1_555 1_555
H65 C107 1_555 1_555
C108 C107 1_555 1_555
H66 C108 1_555 1_555
C109 N10 1_555 1_555
C110 C105 1_555 1_555
C111 C110 1_555 1_555
H67 C111 1_555 1_555
C112 C111 1_555 1_555
H68 C112 1_555 1_555
C113 C104 1_555 1_555
H69 C113 1_555 1_555
C114 N10 1_555 1_555
C115 C114 1_555 1_555
C116 O29 1_555 1_555
C117 O30 1_555 1_555
C118 C117 1_555 1_555
H70 C118 1_555 1_555
C119 C118 1_555 1_555
H71 C119 1_555 1_555
C120 C115 1_555 1_555
H72 C120 1_555 1_555
C121 O31 1_555 1_555
C122 O32 1_555 1_555
C123 C122 1_555 1_555
C124 C123 1_555 1_555
H73 C124 1_555 1_555
C125 C124 1_555 1_555
H74 C125 1_555 1_555
C126 C121 1_555 1_555
H75 C126 1_555 1_555
C127 N11 1_555 1_555
C128 N11 1_555 1_555
C129 C128 1_555 1_555
C130 C129 1_555 1_555
H76 C130 1_555 1_555
C131 C130 1_555 1_555
H77 C131 1_555 1_555
C132 C131 1_555 1_555
H78 C132 1_555 1_555
C133 N12 1_555 1_555
C134 C129 1_555 1_555
C135 C134 1_555 1_555
H79 C135 1_555 1_555
C136 C135 1_555 1_555
H80 C136 1_555 1_555
C137 C128 1_555 1_555
H81 C137 1_555 1_555
C138 N12 1_555 1_555
C139 C138 1_555 1_555
C140 O35 1_555 1_555
C141 O36 1_555 1_555
C142 C141 1_555 1_555
H82 C142 1_555 1_555
C143 C142 1_555 1_555
H83 C143 1_555 1_555
C144 C139 1_555 1_555
H84 C144 1_555 1_555
C145 H85 1_555 1_555
H86 C145 1_555 1_555
H87 C145 1_555 1_555
C146 N13 1_555 1_555
H88 C146 1_555 1_555
H89 C146 1_555 1_555
H90 C146 1_555 1_555
C147 N13 1_555 1_555
H91 C147 1_555 1_555
H92 C147 1_555 1_555
H93 C147 1_555 1_555
C148 N13 1_555 1_555
H94 C148 1_555 1_555
H95 C148 1_555 1_555
C149 C148 1_555 1_555
C150 C149 1_555 1_555
H96 C150 1_555 1_555
C151 C150 1_555 1_555
H97 C151 1_555 1_555
C152 C151 1_555 1_555
H98 C152 1_555 1_555
C153 C152 1_555 1_555
H99 C153 1_555 1_555
C154 C149 1_555 1_555
H100 C154 1_555 1_555
C156 N14 1_555 1_555
C157 N14 1_555 1_555
C158 N14 1_555 1_555
C159 C160 1_555 1_555
C160 C156 1_555 1_555
C161 C160 1_555 1_555
C162 C159 1_555 1_555
C163 C161 1_555 1_555
C164 C162 1_555 1_555
C165 H101 1_555 1_555
H102 C165 1_555 1_555
H103 C165 1_555 1_555
C166 N15 1_555 1_555
H104 C166 1_555 1_555
H105 C166 1_555 1_555
H106 C166 1_555 1_555
C167 N15 1_555 1_555
H107 C167 1_555 1_555
H108 C167 1_555 1_555
H109 C167 1_555 1_555
C168 N15 1_555 1_555
H110 C168 1_555 1_555
H111 C168 1_555 1_555
C169 C168 1_555 1_555
C170 C169 1_555 1_555
H112 C170 1_555 1_555
C171 C170 1_555 1_555
H113 C171 1_555 1_555
C172 C171 1_555 1_555
H114 C172 1_555 1_555
C173 C172 1_555 1_555
H115 C173 1_555 1_555
C174 C169 1_555 1_555
H116 C174 1_555 1_555
C175 H117 1_555 1_555
H118 C175 1_555 1_555
H119 C175 1_555 1_555
C176 N16 1_555 1_555
H120 C176 1_555 1_555
H121 C176 1_555 1_555
H122 C176 1_555 1_555
C177 N16 1_555 1_555
H123 C177 1_555 1_555
H124 C177 1_555 1_555
H125 C177 1_555 1_555
C178 N16 1_555 1_555
H126 C178 1_555 1_555
H127 C178 1_555 1_555
C179 C178 1_555 1_555
C180 C179 1_555 1_555
H128 C180 1_555 1_555
C181 C180 1_555 1_555
H129 C181 1_555 1_555
C182 C181 1_555 1_555
H130 C182 1_555 1_555
C183 C182 1_555 1_555
H131 C183 1_555 1_555
C184 C179 1_555 1_555
H132 C184 1_555 1_555
C185 H133 1_555 1_555
H134 C185 1_555 1_555
H135 C185 1_555 1_555
C186 N17 1_555 1_555
H136 C186 1_555 1_555
H137 C186 1_555 1_555
H138 C186 1_555 1_555
C187 N17 1_555 1_555
H139 C187 1_555 1_555
H140 C187 1_555 1_555
H141 C187 1_555 1_555
C188 N17 1_555 1_555
H142 C188 1_555 1_555
H143 C188 1_555 1_555
C189 C188 1_555 1_555
C190 C189 1_555 1_555
H144 C190 1_555 1_555
C191 C190 1_555 1_555
H145 C191 1_555 1_555
C192 C191 1_555 1_555
H146 C192 1_555 1_555
C193 C192 1_555 1_555
H147 C193 1_555 1_555
C194 C189 1_555 1_555
H148 C194 1_555 1_555
C195 H149 1_555 1_555
H150 C195 1_555 1_555
H151 C195 1_555 1_555
C196 N18 1_555 1_555
H152 C196 1_555 1_555
H153 C196 1_555 1_555
H154 C196 1_555 1_555
C197 N18 1_555 1_555
H155 C197 1_555 1_555
H156 C197 1_555 1_555
C198 N18 1_555 1_555
H157 C198 1_555 1_555
H158 C198 1_555 1_555
H159 C198 1_555 1_555
C199 C197 1_555 1_555
C200 C199 1_555 1_555
H160 C200 1_555 1_555
C201 C200 1_555 1_555
H161 C201 1_555 1_555
C202 C201 1_555 1_555
H162 C202 1_555 1_555
C203 C202 1_555 1_555
H163 C203 1_555 1_555
C204 C199 1_555 1_555
H164 C204 1_555 1_555
C205 H165 1_555 1_555
H166 C205 1_555 1_555
C206 N19 1_555 1_555
H167 C206 1_555 1_555
H168 C206 1_555 1_555
H169 C206 1_555 1_555
C207 N19 1_555 1_555
H170 C207 1_555 1_555
H171 C207 1_555 1_555
H172 C207 1_555 1_555
C208 N19 1_555 1_555
H173 C208 1_555 1_555
H174 C208 1_555 1_555
H175 C208 1_555 1_555
C209 C205 1_555 1_555
C210 C209 1_555 1_555
H176 C210 1_555 1_555
C211 C210 1_555 1_555
H177 C211 1_555 1_555
C212 C211 1_555 1_555
H178 C212 1_555 1_555
C213 C212 1_555 1_555
H179 C213 1_555 1_555
C214 C209 1_555 1_555
H180 C214 1_555 1_555
C215 H181 1_555 1_555
H182 C215 1_555 1_555
H183 C215 1_555 1_555
C216 N20 1_555 1_555
H184 C216 1_555 1_555
H185 C216 1_555 1_555
H186 C216 1_555 1_555
C217 N20 1_555 1_555
H187 C217 1_555 1_555
H188 C217 1_555 1_555
H189 C217 1_555 1_555
C218 N20 1_555 1_555
H190 C218 1_555 1_555
H191 C218 1_555 1_555
C219 C218 1_555 1_555
C220 C219 1_555 1_555
H192 C220 1_555 1_555
C221 C220 1_555 1_555
H193 C221 1_555 1_555
C222 C221 1_555 1_555
H194 C222 1_555 1_555
C223 C222 1_555 1_555
H195 C223 1_555 1_555
C224 C219 1_555 1_555
H196 C224 1_555 1_555
C225 H197 1_555 1_555
H198 C225 1_555 1_555
H199 C225 1_555 1_555
C226 N21 1_555 1_555
H200 C226 1_555 1_555
H201 C226 1_555 1_555
C227 N21 1_555 1_555
H202 C227 1_555 1_555
H203 C227 1_555 1_555
H204 C227 1_555 1_555
C228 N21 1_555 1_555
H205 C228 1_555 1_555
H206 C228 1_555 1_555
H207 C228 1_555 1_555
C229 H208 1_555 1_555
C230 C226 1_555 1_555
C231 C230 1_555 1_555
H209 C231 1_555 1_555
C232 C229 1_555 1_555
H210 C232 1_555 1_555
C233 C229 1_555 1_555
H211 C233 1_555 1_555
C234 C231 1_555 1_555
H212 C234 1_555 1_555
C235 H213 1_555 1_555
H214 C235 1_555 1_555
H215 C235 1_555 1_555
C236 N22 1_555 1_555
H216 C236 1_555 1_555
H217 C236 1_555 1_555
H218 C236 1_555 1_555
C237 N22 1_555 1_555
H219 C237 1_555 1_555
H220 C237 1_555 1_555
C238 N22 1_555 1_555
H221 C238 1_555 1_555
H222 C238 1_555 1_555
H223 C238 1_555 1_555
C239 C237 1_555 1_555
C240 C239 1_555 1_555
H224 C240 1_555 1_555
C241 C240 1_555 1_555
H225 C241 1_555 1_555
C242 C241 1_555 1_555
H226 C242 1_555 1_555
C243 C242 1_555 1_555
H227 C243 1_555 1_555
C244 C239 1_555 1_555
H228 C244 1_555 1_555
C245 H229 1_555 1_555
H230 C245 1_555 1_555
H231 C245 1_555 1_555
C246 N23 1_555 1_555
H232 C246 1_555 1_555
H233 C246 1_555 1_555
H234 C246 1_555 1_555
C247 N23 1_555 1_555
H235 C247 1_555 1_555
H236 C247 1_555 1_555
H237 C247 1_555 1_555
C248 N23 1_555 1_555
H238 C248 1_555 1_555
H239 C248 1_555 1_555
C249 C248 1_555 1_555
C250 C249 1_555 1_555
H240 C250 1_555 1_555
C251 C250 1_555 1_555
H241 C251 1_555 1_555
C252 C251 1_555 1_555
H242 C252 1_555 1_555
C253 C252 1_555 1_555
H243 C253 1_555 1_555
C254 C249 1_555 1_555
H244 C254 1_555 1_555
C261 H245 1_555 1_555
H246 C261 1_555 1_555
H247 C261 1_555 1_555
C262 N25 1_555 1_555
H248 C262 1_555 1_555
H249 C262 1_555 1_555
H250 C262 1_555 1_555
C263 N25 1_555 1_555
H251 C263 1_555 1_555
C264 H252 1_555 1_555
H253 C264 1_555 1_555
H254 C264 1_555 1_555
C265 N26 1_555 1_555
H255 C265 1_555 1_555
H256 C265 1_555 1_555
H257 C265 1_555 1_555
C266 N26 1_555 1_555
H258 C266 1_555 1_555
C267 H259 1_555 1_555
H260 C267 1_555 1_555
H261 C267 1_555 1_555
C268 N27 1_555 1_555
H262 C268 1_555 1_555
H263 C268 1_555 1_555
H264 C268 1_555 1_555
C269 N27 1_555 1_555
H265 C269 1_555 1_555
C270 C271 1_555 1_555
C271 C272 1_555 1_555
C3 C7 1_555 1_555
C5 C6 1_555 1_555
C12 C13 1_555 1_555
C13 C14 1_555 1_555
C16 C17 1_555 1_555
C19 C24 1_555 1_555
C23 C24 1_555 1_555
C25 C26 1_555 1_555
C27 C31 1_555 1_555
C29 C30 1_555 1_555
C36 C37 1_555 1_555
C37 C38 1_555 1_555
C40 C41 1_555 1_555
C46 C47 1_555 1_555
C47 C48 1_555 1_555
C49 C50 1_555 1_555
C51 C55 1_555 1_555
C53 C54 1_555 1_555
C60 C61 1_555 1_555
C61 C62 1_555 1_555
C64 C65 1_555 1_555
C68 C69 1_555 1_555
C71 C72 1_555 1_555
C73 C74 1_555 1_555
C75 C79 1_555 1_555
C77 C78 1_555 1_555
C84 C85 1_555 1_555
C85 C86 1_555 1_555
C88 C89 1_555 1_555
C91 C92 1_555 1_555
C92 C93 1_555 1_555
C95 C96 1_555 1_555
C97 C98 1_555 1_555
C99 C103 1_555 1_555
C101 C102 1_555 1_555
C108 C109 1_555 1_555
C109 C110 1_555 1_555
C112 C113 1_555 1_555
C115 C116 1_555 1_555
C116 C117 1_555 1_555
C119 C120 1_555 1_555
C121 C122 1_555 1_555
C123 C127 1_555 1_555
C125 C126 1_555 1_555
C132 C133 1_555 1_555
C133 C134 1_555 1_555
C136 C137 1_555 1_555
C139 C140 1_555 1_555
C140 C141 1_555 1_555
C143 C144 1_555 1_555
C153 C154 1_555 1_555
C163 C164 1_555 1_555
C173 C174 1_555 1_555
C183 C184 1_555 1_555
C193 C194 1_555 1_555
C203 C204 1_555 1_555
C213 C214 1_555 1_555
C223 C224 1_555 1_555
C230 C232 1_555 1_555
C233 C234 1_555 1_555
C243 C244 1_555 1_555
C253 C254 1_555 1_555

#END
