# generated using pymatgen
data_Ti4H138C197N19O36
_symmetry_space_group_name_H-M   'P 1'
_cell_length_a   20.84400000
_cell_length_b   20.84400000
_cell_length_c   55.82912373
_cell_angle_alpha   79.24109305
_cell_angle_beta   79.24109305
_cell_angle_gamma   60.00000000
_symmetry_Int_Tables_number   1
_chemical_formula_structural   Ti4H138C197N19O36
_chemical_formula_sum   'Ti16 H552 C788 N76 O144'
_cell_volume   20512.66343986
_cell_formula_units_Z   4
loop_
 _symmetry_equiv_pos_site_id
 _symmetry_equiv_pos_as_xyz
  1  'x, y, z'
loop_
 _atom_site_type_symbol
 _atom_site_label
 _atom_site_symmetry_multiplicity
 _atom_site_fract_x
 _atom_site_fract_y
 _atom_site_fract_z
 _atom_site_occupancy
  C  C1  1  0.564500  0.617500  0.658500  1
  C  C2  1  0.159500  0.564500  0.658500  1
  C  C3  1  0.617500  0.159500  0.658500  1
  C  C4  1  0.340500  0.882500  0.841500  1
  C  C5  1  0.882500  0.935500  0.841500  1
  C  C6  1  0.935500  0.340500  0.841500  1
  C  C7  1  0.435500  0.382500  0.341500  1
  C  C8  1  0.840500  0.435500  0.341500  1
  C  C9  1  0.382500  0.840500  0.341500  1
  C  C10  1  0.659500  0.117500  0.158500  1
  C  C11  1  0.117500  0.064500  0.158500  1
  C  C12  1  0.064500  0.659500  0.158500  1
  C  C13  1  0.571400  0.626000  0.631500  1
  C  C14  1  0.171100  0.571400  0.631500  1
  C  C15  1  0.626000  0.171100  0.631500  1
  C  C16  1  0.328900  0.874000  0.868500  1
  C  C17  1  0.874000  0.928600  0.868500  1
  C  C18  1  0.928600  0.328900  0.868500  1
  C  C19  1  0.428600  0.374000  0.368500  1
  C  C20  1  0.828900  0.428600  0.368500  1
  C  C21  1  0.374000  0.828900  0.368500  1
  C  C22  1  0.671100  0.126000  0.131500  1
  C  C23  1  0.126000  0.071400  0.131500  1
  C  C24  1  0.071400  0.671100  0.131500  1
  C  C25  1  0.700800  0.506500  0.662100  1
  C  C26  1  0.130600  0.700800  0.662100  1
  C  C27  1  0.506500  0.130600  0.662100  1
  C  C28  1  0.369400  0.993500  0.837900  1
  C  C29  1  0.993500  0.799200  0.837900  1
  C  C30  1  0.799200  0.369400  0.837900  1
  C  C31  1  0.299200  0.493500  0.337900  1
  C  C32  1  0.869400  0.299200  0.337900  1
  C  C33  1  0.493500  0.869400  0.337900  1
  C  C34  1  0.630600  0.006500  0.162100  1
  C  C35  1  0.006500  0.200800  0.162100  1
  C  C36  1  0.200800  0.630600  0.162100  1
  C  C37  1  0.742400  0.543600  0.669900  1
  C  C38  1  0.044100  0.742400  0.669900  1
  C  C39  1  0.543600  0.044100  0.669900  1
  C  C40  1  0.455900  0.956400  0.830100  1
  C  C41  1  0.956400  0.757600  0.830100  1
  C  C42  1  0.757600  0.455900  0.830100  1
  C  C43  1  0.257600  0.456400  0.330100  1
  C  C44  1  0.955900  0.257600  0.330100  1
  C  C45  1  0.456400  0.955900  0.330100  1
  C  C46  1  0.544100  0.043600  0.169900  1
  C  C47  1  0.043600  0.242400  0.169900  1
  C  C48  1  0.242400  0.544100  0.169900  1
  C  C49  1  0.604500  0.522500  0.697500  1
  C  C50  1  0.175500  0.604500  0.697500  1
  C  C51  1  0.522500  0.175500  0.697500  1
  C  C52  1  0.324500  0.977500  0.802500  1
  C  C53  1  0.977500  0.895500  0.802500  1
  C  C54  1  0.895500  0.324500  0.802500  1
  C  C55  1  0.395500  0.477500  0.302500  1
  C  C56  1  0.824500  0.395500  0.302500  1
  C  C57  1  0.477500  0.824500  0.302500  1
  C  C58  1  0.675500  0.022500  0.197500  1
  C  C59  1  0.022500  0.104500  0.197500  1
  C  C60  1  0.104500  0.675500  0.197500  1
  C  C61  1  0.643900  0.441400  0.709800  1
  C  C62  1  0.204900  0.643900  0.709800  1
  C  C63  1  0.441400  0.204900  0.709800  1
  C  C64  1  0.295100  0.058600  0.790200  1
  C  C65  1  0.058600  0.856100  0.790200  1
  C  C66  1  0.856100  0.295100  0.790200  1
  C  C67  1  0.356100  0.558600  0.290200  1
  C  C68  1  0.795100  0.356100  0.290200  1
  C  C69  1  0.558600  0.795100  0.290200  1
  C  C70  1  0.704900  0.941400  0.209800  1
  C  C71  1  0.941400  0.143900  0.209800  1
  C  C72  1  0.143900  0.704900  0.209800  1
  C  C73  1  0.597700  0.482500  0.660900  1
  C  C74  1  0.258900  0.597700  0.660900  1
  C  C75  1  0.482500  0.258900  0.660900  1
  C  C76  1  0.241100  0.017500  0.839100  1
  C  C77  1  0.017500  0.902300  0.839100  1
  C  C78  1  0.902300  0.241100  0.839100  1
  C  C79  1  0.402300  0.517500  0.339100  1
  C  C80  1  0.741100  0.402300  0.339100  1
  C  C81  1  0.517500  0.741100  0.339100  1
  C  C82  1  0.758900  0.982500  0.160900  1
  C  C83  1  0.982500  0.097700  0.160900  1
  C  C84  1  0.097700  0.758900  0.160900  1
  C  C85  1  0.524700  0.491200  0.660900  1
  C  C86  1  0.323200  0.524700  0.660900  1
  C  C87  1  0.491200  0.323200  0.660900  1
  C  C88  1  0.176800  0.008800  0.839100  1
  C  C89  1  0.008800  0.975300  0.839100  1
  C  C90  1  0.975300  0.176800  0.839100  1
  C  C91  1  0.475300  0.508800  0.339100  1
  C  C92  1  0.676800  0.475300  0.339100  1
  C  C93  1  0.508800  0.676800  0.339100  1
  C  C94  1  0.823200  0.991200  0.160900  1
  C  C95  1  0.991200  0.024700  0.160900  1
  C  C96  1  0.024700  0.823200  0.160900  1
  C  C97  1  0.868500  0.868500  0.394500  1
  C  C98  1  0.631500  0.631500  0.105500  1
  C  C99  1  0.131500  0.131500  0.605500  1
  C  C100  1  0.368500  0.368500  0.894500  1
  C  C101  1  0.894000  0.894000  0.318000  1
  C  C102  1  0.606000  0.606000  0.182000  1
  C  C103  1  0.106000  0.106000  0.682000  1
  C  C104  1  0.394000  0.394000  0.818000  1
  C  C105  1  0.798500  0.829500  0.385500  1
  C  C106  1  0.986500  0.798500  0.385500  1
  C  C107  1  0.829500  0.986500  0.385500  1
  C  C108  1  0.513500  0.670500  0.114500  1
  C  C109  1  0.670500  0.701500  0.114500  1
  C  C110  1  0.701500  0.513500  0.114500  1
  C  C111  1  0.201500  0.170500  0.614500  1
  C  C112  1  0.013500  0.201500  0.614500  1
  C  C113  1  0.170500  0.013500  0.614500  1
  C  C114  1  0.486500  0.329500  0.885500  1
  C  C115  1  0.329500  0.298500  0.885500  1
  C  C116  1  0.298500  0.486500  0.885500  1
  C  C117  1  0.894000  0.902000  0.552000  1
  C  C118  1  0.652000  0.894000  0.552000  1
  C  C119  1  0.902000  0.652000  0.552000  1
  C  C120  1  0.848000  0.598000  0.948000  1
  C  C121  1  0.598000  0.606000  0.948000  1
  C  C122  1  0.606000  0.848000  0.948000  1
  C  C123  1  0.106000  0.098000  0.448000  1
  C  C124  1  0.348000  0.106000  0.448000  1
  C  C125  1  0.098000  0.348000  0.448000  1
  C  C126  1  0.152000  0.402000  0.052000  1
  C  C127  1  0.402000  0.394000  0.052000  1
  C  C128  1  0.394000  0.152000  0.052000  1
  C  C129  1  0.911100  0.774100  0.569700  1
  C  C130  1  0.745100  0.911100  0.569700  1
  C  C131  1  0.774100  0.745100  0.569700  1
  C  C132  1  0.754900  0.725900  0.930300  1
  C  C133  1  0.725900  0.588900  0.930300  1
  C  C134  1  0.588900  0.754900  0.930300  1
  C  C135  1  0.088900  0.225900  0.430300  1
  C  C136  1  0.254900  0.088900  0.430300  1
  C  C137  1  0.225900  0.254900  0.430300  1
  C  C138  1  0.245100  0.274100  0.069700  1
  C  C139  1  0.274100  0.411100  0.069700  1
  C  C140  1  0.411100  0.245100  0.069700  1
  C  C141  1  0.973700  0.696700  0.564900  1
  C  C142  1  0.764700  0.973700  0.564900  1
  C  C143  1  0.696700  0.764700  0.564900  1
  C  C144  1  0.735300  0.803300  0.935100  1
  C  C145  1  0.803300  0.526300  0.935100  1
  C  C146  1  0.526300  0.735300  0.935100  1
  C  C147  1  0.026300  0.303300  0.435100  1
  C  C148  1  0.235300  0.026300  0.435100  1
  C  C149  1  0.303300  0.235300  0.435100  1
  C  C150  1  0.264700  0.196700  0.064900  1
  C  C151  1  0.196700  0.473700  0.064900  1
  C  C152  1  0.473700  0.264700  0.064900  1
  C  C153  1  0.840900  0.869900  0.528300  1
  C  C154  1  0.760900  0.840900  0.528300  1
  C  C155  1  0.869900  0.760900  0.528300  1
  C  C156  1  0.739100  0.630100  0.971700  1
  C  C157  1  0.630100  0.659100  0.971700  1
  C  C158  1  0.659100  0.739100  0.971700  1
  C  C159  1  0.159100  0.130100  0.471700  1
  C  C160  1  0.239100  0.159100  0.471700  1
  C  C161  1  0.130100  0.239100  0.471700  1
  C  C162  1  0.260900  0.369900  0.028300  1
  C  C163  1  0.369900  0.340900  0.028300  1
  C  C164  1  0.340900  0.260900  0.028300  1
  C  C165  1  0.886210  0.847210  0.341370  1
  C  C166  1  0.925210  0.886210  0.341370  1
  C  C167  1  0.847210  0.925210  0.341370  1
  C  C168  1  0.574790  0.652790  0.158630  1
  C  C169  1  0.652790  0.613790  0.158630  1
  C  C170  1  0.613790  0.574790  0.158630  1
  C  C171  1  0.113790  0.152790  0.658630  1
  C  C172  1  0.074790  0.113790  0.658630  1
  C  C173  1  0.152790  0.074790  0.658630  1
  C  C174  1  0.425210  0.347210  0.841370  1
  C  C175  1  0.347210  0.386210  0.841370  1
  C  C176  1  0.386210  0.425210  0.841370  1
  C  C177  1  0.911600  0.826400  0.546000  1.0
  C  C178  1  0.716000  0.911600  0.546000  1.0
  C  C179  1  0.826400  0.716000  0.546000  1.0
  C  C180  1  0.784000  0.673600  0.954000  1.0
  C  C181  1  0.673600  0.588400  0.954000  1.0
  C  C182  1  0.588400  0.784000  0.954000  1.0
  C  C183  1  0.088400  0.173600  0.454000  1.0
  C  C184  1  0.284000  0.088400  0.454000  1.0
  C  C185  1  0.173600  0.284000  0.454000  1.0
  C  C186  1  0.216000  0.326400  0.046000  1.0
  C  C187  1  0.326400  0.411600  0.046000  1.0
  C  C188  1  0.411600  0.216000  0.046000  1.0
  C  C189  1  0.896670  0.797770  0.365190  1.0
  C  C190  1  0.940370  0.896670  0.365190  1.0
  C  C191  1  0.797770  0.940370  0.365190  1.0
  C  C192  1  0.559630  0.702230  0.134810  1.0
  C  C193  1  0.702230  0.603330  0.134810  1.0
  C  C194  1  0.603330  0.559630  0.134810  1.0
  C  C195  1  0.103330  0.202230  0.634810  1.0
  C  C196  1  0.059630  0.103330  0.634810  1.0
  C  C197  1  0.202230  0.059630  0.634810  1.0
  C  C198  1  0.440370  0.297770  0.865190  1.0
  C  C199  1  0.297770  0.396670  0.865190  1.0
  C  C200  1  0.396670  0.440370  0.865190  1.0
  C  C201  1  0.846000  0.764100  0.372000  1.0
  C  C202  1  0.017900  0.846000  0.372000  1.0
  C  C203  1  0.764100  0.017900  0.372000  1.0
  C  C204  1  0.482100  0.735900  0.128000  1.0
  C  C205  1  0.735900  0.654000  0.128000  1.0
  C  C206  1  0.654000  0.482100  0.128000  1.0
  C  C207  1  0.154000  0.235900  0.628000  1.0
  C  C208  1  0.982100  0.154000  0.628000  1.0
  C  C209  1  0.235900  0.982100  0.628000  1.0
  C  C210  1  0.517900  0.264100  0.872000  1.0
  C  C211  1  0.264100  0.346000  0.872000  1.0
  C  C212  1  0.346000  0.517900  0.872000  1.0
  C  C213  1  0.778480  0.043780  0.243360  1.0
  C  C214  1  0.934380  0.778480  0.243360  1.0
  C  C215  1  0.043780  0.934380  0.243360  1.0
  C  C216  1  0.565620  0.456220  0.256640  1.0
  C  C217  1  0.456220  0.721520  0.256640  1.0
  C  C218  1  0.721520  0.565620  0.256640  1.0
  C  C219  1  0.221520  0.956220  0.756640  1.0
  C  C220  1  0.065620  0.221520  0.756640  1.0
  C  C221  1  0.956220  0.065620  0.756640  1.0
  C  C222  1  0.434380  0.543780  0.743360  1.0
  C  C223  1  0.543780  0.278480  0.743360  1.0
  C  C224  1  0.278480  0.434380  0.743360  1.0
  C  C225  1  0.809530  0.065930  0.221010  1.0
  C  C226  1  0.903530  0.809530  0.221010  1.0
  C  C227  1  0.065930  0.903530  0.221010  1.0
  C  C228  1  0.596470  0.434070  0.278990  1.0
  C  C229  1  0.434070  0.690470  0.278990  1.0
  C  C230  1  0.690470  0.596470  0.278990  1.0
  C  C231  1  0.190470  0.934070  0.778990  1.0
  C  C232  1  0.096470  0.190470  0.778990  1.0
  C  C233  1  0.934070  0.096470  0.778990  1.0
  C  C234  1  0.403530  0.565930  0.721010  1.0
  C  C235  1  0.565930  0.309530  0.721010  1.0
  C  C236  1  0.309530  0.403530  0.721010  1.0
  C  C237  1  0.765770  0.134370  0.207390  1.0
  C  C238  1  0.892470  0.765770  0.207390  1.0
  C  C239  1  0.134370  0.892470  0.207390  1.0
  C  C240  1  0.607530  0.365630  0.292610  1.0
  C  C241  1  0.365630  0.734230  0.292610  1.0
  C  C242  1  0.734230  0.607530  0.292610  1.0
  C  C243  1  0.234230  0.865630  0.792610  1.0
  C  C244  1  0.107530  0.234230  0.792610  1.0
  C  C245  1  0.865630  0.107530  0.792610  1.0
  C  C246  1  0.392470  0.634370  0.707390  1.0
  C  C247  1  0.634370  0.265770  0.707390  1.0
  C  C248  1  0.265770  0.392470  0.707390  1.0
  C  C249  1  0.691670  0.179370  0.216690  1.0
  C  C250  1  0.912270  0.691670  0.216690  1.0
  C  C251  1  0.179370  0.912270  0.216690  1.0
  C  C252  1  0.587730  0.320630  0.283310  1.0
  C  C253  1  0.320630  0.808330  0.283310  1.0
  C  C254  1  0.808330  0.587730  0.283310  1.0
  C  C255  1  0.308330  0.820630  0.783310  1.0
  C  C256  1  0.087730  0.308330  0.783310  1.0
  C  C257  1  0.820630  0.087730  0.783310  1.0
  C  C258  1  0.412270  0.679370  0.716690  1.0
  C  C259  1  0.679370  0.191670  0.716690  1.0
  C  C260  1  0.191670  0.412270  0.716690  1.0
  C  C261  1  0.660560  0.156360  0.238620  1.0
  C  C262  1  0.944460  0.660560  0.238620  1.0
  C  C263  1  0.156360  0.944460  0.238620  1.0
  C  C264  1  0.555540  0.343640  0.261380  1.0
  C  C265  1  0.343640  0.839440  0.261380  1.0
  C  C266  1  0.839440  0.555540  0.261380  1.0
  C  C267  1  0.339440  0.843640  0.761380  1.0
  C  C268  1  0.055540  0.339440  0.761380  1.0
  C  C269  1  0.843640  0.055540  0.761380  1.0
  C  C270  1  0.444460  0.656360  0.738620  1.0
  C  C271  1  0.656360  0.160560  0.738620  1.0
  C  C272  1  0.160560  0.444460  0.738620  1.0
  C  C273  1  0.704440  0.089440  0.252480  1.0
  C  C274  1  0.953640  0.704440  0.252480  1.0
  C  C275  1  0.089440  0.953640  0.252480  1.0
  C  C276  1  0.546360  0.410560  0.247520  1.0
  C  C277  1  0.410560  0.795560  0.247520  1.0
  C  C278  1  0.795560  0.546360  0.247520  1.0
  C  C279  1  0.295560  0.910560  0.747520  1.0
  C  C280  1  0.046360  0.295560  0.747520  1.0
  C  C281  1  0.910560  0.046360  0.747520  1.0
  C  C282  1  0.453640  0.589440  0.752480  1.0
  C  C283  1  0.589440  0.204440  0.752480  1.0
  C  C284  1  0.204440  0.453640  0.752480  1.0
  C  C285  1  0.443760  0.007560  0.395520  1.0
  C  C286  1  0.153160  0.443760  0.395520  1.0
  C  C287  1  0.007560  0.153160  0.395520  1.0
  C  C288  1  0.346840  0.492440  0.104480  1.0
  C  C289  1  0.492440  0.056240  0.104480  1.0
  C  C290  1  0.056240  0.346840  0.104480  1.0
  C  C291  1  0.556240  0.992440  0.604480  1.0
  C  C292  1  0.846840  0.556240  0.604480  1.0
  C  C293  1  0.992440  0.846840  0.604480  1.0
  C  C294  1  0.653160  0.507560  0.895520  1.0
  C  C295  1  0.507560  0.943760  0.895520  1.0
  C  C296  1  0.943760  0.653160  0.895520  1.0
  C  C297  1  0.397340  0.977840  0.394080  1.0
  C  C298  1  0.230740  0.397340  0.394080  1.0
  C  C299  1  0.977840  0.230740  0.394080  1.0
  C  C300  1  0.269260  0.522160  0.105920  1.0
  C  C301  1  0.522160  0.102660  0.105920  1.0
  C  C302  1  0.102660  0.269260  0.105920  1.0
  C  C303  1  0.602660  0.022160  0.605920  1.0
  C  C304  1  0.769260  0.602660  0.605920  1.0
  C  C305  1  0.022160  0.769260  0.605920  1.0
  C  C306  1  0.730740  0.477840  0.894080  1.0
  C  C307  1  0.477840  0.897340  0.894080  1.0
  C  C308  1  0.897340  0.730740  0.894080  1.0
  C  C309  1  0.333690  0.021790  0.381330  1.0
  C  C310  1  0.263190  0.333690  0.381330  1.0
  C  C311  1  0.021790  0.263190  0.381330  1.0
  C  C312  1  0.236810  0.478210  0.118670  1.0
  C  C313  1  0.478210  0.166310  0.118670  1.0
  C  C314  1  0.166310  0.236810  0.118670  1.0
  C  C315  1  0.666310  0.978210  0.618670  1.0
  C  C316  1  0.736810  0.666310  0.618670  1.0
  C  C317  1  0.978210  0.736810  0.618670  1.0
  C  C318  1  0.763190  0.521790  0.881330  1.0
  C  C319  1  0.521790  0.833690  0.881330  1.0
  C  C320  1  0.833690  0.763190  0.881330  1.0
  C  C321  1  0.320740  0.091640  0.368880  1.0
  C  C322  1  0.218740  0.320740  0.368880  1.0
  C  C323  1  0.091640  0.218740  0.368880  1.0
  C  C324  1  0.281260  0.408360  0.131120  1.0
  C  C325  1  0.408360  0.179260  0.131120  1.0
  C  C326  1  0.179260  0.281260  0.131120  1.0
  C  C327  1  0.679260  0.908360  0.631120  1.0
  C  C328  1  0.781260  0.679260  0.631120  1.0
  C  C329  1  0.908360  0.781260  0.631120  1.0
  C  C330  1  0.718740  0.591640  0.868880  1.0
  C  C331  1  0.591640  0.820740  0.868880  1.0
  C  C332  1  0.820740  0.718740  0.868880  1.0
  C  C333  1  0.365630  0.122830  0.370710  1.0
  C  C334  1  0.140830  0.365630  0.370710  1.0
  C  C335  1  0.122830  0.140830  0.370710  1.0
  C  C336  1  0.359170  0.377170  0.129290  1.0
  C  C337  1  0.377170  0.134370  0.129290  1.0
  C  C338  1  0.134370  0.359170  0.129290  1.0
  C  C339  1  0.634370  0.877170  0.629290  1.0
  C  C340  1  0.859170  0.634370  0.629290  1.0
  C  C341  1  0.877170  0.859170  0.629290  1.0
  C  C342  1  0.640830  0.622830  0.870710  1.0
  C  C343  1  0.622830  0.865630  0.870710  1.0
  C  C344  1  0.865630  0.640830  0.870710  1.0
  C  C345  1  0.427280  0.080080  0.384660  1.0
  C  C346  1  0.107980  0.427280  0.384660  1.0
  C  C347  1  0.080080  0.107980  0.384660  1.0
  C  C348  1  0.392020  0.419920  0.115340  1.0
  C  C349  1  0.419920  0.072720  0.115340  1.0
  C  C350  1  0.072720  0.392020  0.115340  1.0
  C  C351  1  0.572720  0.919920  0.615340  1.0
  C  C352  1  0.892020  0.572720  0.615340  1.0
  C  C353  1  0.919920  0.892020  0.615340  1.0
  C  C354  1  0.607980  0.580080  0.884660  1.0
  C  C355  1  0.580080  0.927280  0.884660  1.0
  C  C356  1  0.927280  0.607980  0.884660  1.0
  C  C357  1  0.607440  0.836040  0.484680  1.0
  C  C358  1  0.071840  0.607440  0.484680  1.0
  C  C359  1  0.836040  0.071840  0.484680  1.0
  C  C360  1  0.428160  0.663960  0.015320  1.0
  C  C361  1  0.663960  0.892560  0.015320  1.0
  C  C362  1  0.892560  0.428160  0.015320  1.0
  C  C363  1  0.392560  0.163960  0.515320  1.0
  C  C364  1  0.928160  0.392560  0.515320  1.0
  C  C365  1  0.163960  0.928160  0.515320  1.0
  C  C366  1  0.571840  0.336040  0.984680  1.0
  C  C367  1  0.336040  0.107440  0.984680  1.0
  C  C368  1  0.107440  0.571840  0.984680  1.0
  C  C369  1  0.575820  0.860220  0.508440  1.0
  C  C370  1  0.055520  0.575820  0.508440  1.0
  C  C371  1  0.860220  0.055520  0.508440  1.0
  C  C372  1  0.444480  0.639780  0.991560  1.0
  C  C373  1  0.639780  0.924180  0.991560  1.0
  C  C374  1  0.924180  0.444480  0.991560  1.0
  C  C375  1  0.424180  0.139780  0.491560  1.0
  C  C376  1  0.944480  0.424180  0.491560  1.0
  C  C377  1  0.139780  0.944480  0.491560  1.0
  C  C378  1  0.555520  0.360220  0.008440  1.0
  C  C379  1  0.360220  0.075820  0.008440  1.0
  C  C380  1  0.075820  0.555520  0.008440  1.0
  C  C381  1  0.497610  0.904510  0.512970  1.0
  C  C382  1  0.084910  0.497610  0.512970  1.0
  C  C383  1  0.904510  0.084910  0.512970  1.0
  C  C384  1  0.415090  0.595490  0.987030  1.0
  C  C385  1  0.595490  0.002390  0.987030  1.0
  C  C386  1  0.002390  0.415090  0.987030  1.0
  C  C387  1  0.502390  0.095490  0.487030  1.0
  C  C388  1  0.915090  0.502390  0.487030  1.0
  C  C389  1  0.095490  0.915090  0.487030  1.0
  C  C390  1  0.584910  0.404510  0.012970  1.0
  C  C391  1  0.404510  0.997610  0.012970  1.0
  C  C392  1  0.997610  0.584910  0.012970  1.0
  C  C393  1  0.450930  0.922030  0.495510  1.0
  C  C394  1  0.131530  0.450930  0.495510  1.0
  C  C395  1  0.922030  0.131530  0.495510  1.0
  C  C396  1  0.368470  0.577970  0.004490  1.0
  C  C397  1  0.577970  0.049070  0.004490  1.0
  C  C398  1  0.049070  0.368470  0.004490  1.0
  C  C399  1  0.549070  0.077970  0.504490  1.0
  C  C400  1  0.868470  0.549070  0.504490  1.0
  C  C401  1  0.077970  0.868470  0.504490  1.0
  C  C402  1  0.631530  0.422030  0.995510  1.0
  C  C403  1  0.422030  0.950930  0.995510  1.0
  C  C404  1  0.950930  0.631530  0.995510  1.0
  C  C405  1  0.480550  0.898750  0.471750  1.0
  C  C406  1  0.148950  0.480550  0.471750  1.0
  C  C407  1  0.898750  0.148950  0.471750  1.0
  C  C408  1  0.351050  0.601250  0.028250  1.0
  C  C409  1  0.601250  0.019450  0.028250  1.0
  C  C410  1  0.019450  0.351050  0.028250  1.0
  C  C411  1  0.519450  0.101250  0.528250  1.0
  C  C412  1  0.851050  0.519450  0.528250  1.0
  C  C413  1  0.101250  0.851050  0.528250  1.0
  C  C414  1  0.648950  0.398750  0.971750  1.0
  C  C415  1  0.398750  0.980550  0.971750  1.0
  C  C416  1  0.980550  0.648950  0.971750  1.0
  C  C417  1  0.558730  0.854930  0.467310  1.0
  C  C418  1  0.119030  0.558730  0.467310  1.0
  C  C419  1  0.854930  0.119030  0.467310  1.0
  C  C420  1  0.380970  0.645070  0.032690  1.0
  C  C421  1  0.645070  0.941270  0.032690  1.0
  C  C422  1  0.941270  0.380970  0.032690  1.0
  C  C423  1  0.441270  0.145070  0.532690  1.0
  C  C424  1  0.880970  0.441270  0.532690  1.0
  C  C425  1  0.145070  0.880970  0.532690  1.0
  C  C426  1  0.619030  0.354930  0.967310  1.0
  C  C427  1  0.354930  0.058730  0.967310  1.0
  C  C428  1  0.058730  0.619030  0.967310  1.0
  C  C429  1  0.633570  0.678270  0.386490  1.0
  C  C430  1  0.301670  0.633570  0.386490  1.0
  C  C431  1  0.678270  0.301670  0.386490  1.0
  C  C432  1  0.198330  0.821730  0.113510  1.0
  C  C433  1  0.821730  0.866430  0.113510  1.0
  C  C434  1  0.866430  0.198330  0.113510  1.0
  C  C435  1  0.366430  0.321730  0.613510  1.0
  C  C436  1  0.698330  0.366430  0.613510  1.0
  C  C437  1  0.321730  0.698330  0.613510  1.0
  C  C438  1  0.801670  0.178270  0.886490  1.0
  C  C439  1  0.178270  0.133570  0.886490  1.0
  C  C440  1  0.133570  0.801670  0.886490  1.0
  C  C441  1  0.637060  0.606960  0.391620  1.0
  C  C442  1  0.364360  0.637060  0.391620  1.0
  C  C443  1  0.606960  0.364360  0.391620  1.0
  C  C444  1  0.135640  0.893040  0.108380  1.0
  C  C445  1  0.893040  0.862940  0.108380  1.0
  C  C446  1  0.862940  0.135640  0.108380  1.0
  C  C447  1  0.362940  0.393040  0.608380  1.0
  C  C448  1  0.635640  0.362940  0.608380  1.0
  C  C449  1  0.393040  0.635640  0.608380  1.0
  C  C450  1  0.864360  0.106960  0.891620  1.0
  C  C451  1  0.106960  0.137060  0.891620  1.0
  C  C452  1  0.137060  0.864360  0.891620  1.0
  C  C453  1  0.588710  0.597410  0.410970  1.0
  C  C454  1  0.402910  0.588710  0.410970  1.0
  C  C455  1  0.597410  0.402910  0.410970  1.0
  C  C456  1  0.097090  0.902590  0.089030  1.0
  C  C457  1  0.902590  0.911290  0.089030  1.0
  C  C458  1  0.911290  0.097090  0.089030  1.0
  C  C459  1  0.411290  0.402590  0.589030  1.0
  C  C460  1  0.597090  0.411290  0.589030  1.0
  C  C461  1  0.402590  0.597090  0.589030  1.0
  C  C462  1  0.902910  0.097410  0.910970  1.0
  C  C463  1  0.097410  0.088710  0.910970  1.0
  C  C464  1  0.088710  0.902910  0.910970  1.0
  C  C465  1  0.539080  0.651680  0.426060  1.0
  C  C466  1  0.383180  0.539080  0.426060  1.0
  C  C467  1  0.651680  0.383180  0.426060  1.0
  C  C468  1  0.116820  0.848320  0.073940  1.0
  C  C469  1  0.848320  0.960920  0.073940  1.0
  C  C470  1  0.960920  0.116820  0.073940  1.0
  C  C471  1  0.460920  0.348320  0.573940  1.0
  C  C472  1  0.616820  0.460920  0.573940  1.0
  C  C473  1  0.348320  0.616820  0.573940  1.0
  C  C474  1  0.883180  0.151680  0.926060  1.0
  C  C475  1  0.151680  0.039080  0.926060  1.0
  C  C476  1  0.039080  0.883180  0.926060  1.0
  C  C477  1  0.538100  0.721300  0.421200  1.0
  C  C478  1  0.319400  0.538100  0.421200  1.0
  C  C479  1  0.721300  0.319400  0.421200  1.0
  C  C480  1  0.180600  0.778700  0.078800  1.0
  C  C481  1  0.778700  0.961900  0.078800  1.0
  C  C482  1  0.961900  0.180600  0.078800  1.0
  C  C483  1  0.461900  0.278700  0.578800  1.0
  C  C484  1  0.680600  0.461900  0.578800  1.0
  C  C485  1  0.278700  0.680600  0.578800  1.0
  C  C486  1  0.819400  0.221300  0.921200  1.0
  C  C487  1  0.221300  0.038100  0.921200  1.0
  C  C488  1  0.038100  0.819400  0.921200  1.0
  C  C489  1  0.583510  0.734110  0.401370  1.0
  C  C490  1  0.281010  0.583510  0.401370  1.0
  C  C491  1  0.734110  0.281010  0.401370  1.0
  C  C492  1  0.218990  0.765890  0.098630  1.0
  C  C493  1  0.765890  0.916490  0.098630  1.0
  C  C494  1  0.916490  0.218990  0.098630  1.0
  C  C495  1  0.416490  0.265890  0.598630  1.0
  C  C496  1  0.718990  0.416490  0.598630  1.0
  C  C497  1  0.265890  0.718990  0.598630  1.0
  C  C498  1  0.781010  0.234110  0.901370  1.0
  C  C499  1  0.234110  0.083510  0.901370  1.0
  C  C500  1  0.083510  0.781010  0.901370  1.0
  C  C501  1  0.668610  0.070610  0.275670  1.0
  C  C502  1  0.985110  0.668610  0.275670  1.0
  C  C503  1  0.070610  0.985110  0.275670  1.0
  C  C504  1  0.514890  0.429390  0.224330  1.0
  C  C505  1  0.429390  0.831390  0.224330  1.0
  C  C506  1  0.831390  0.514890  0.224330  1.0
  C  C507  1  0.331390  0.929390  0.724330  1.0
  C  C508  1  0.014890  0.331390  0.724330  1.0
  C  C509  1  0.929390  0.014890  0.724330  1.0
  C  C510  1  0.485110  0.570610  0.775670  1.0
  C  C511  1  0.570610  0.168610  0.775670  1.0
  C  C512  1  0.168610  0.485110  0.775670  1.0
  C  C513  1  0.686220  0.971220  0.310740  1.0
  C  C514  1  0.031820  0.686220  0.310740  1.0
  C  C515  1  0.971220  0.031820  0.310740  1.0
  C  C516  1  0.468180  0.528780  0.189260  1.0
  C  C517  1  0.528780  0.813780  0.189260  1.0
  C  C518  1  0.813780  0.468180  0.189260  1.0
  C  C519  1  0.313780  0.028780  0.689260  1.0
  C  C520  1  0.968180  0.313780  0.689260  1.0
  C  C521  1  0.028780  0.968180  0.689260  1.0
  C  C522  1  0.531820  0.471220  0.810740  1.0
  C  C523  1  0.471220  0.186220  0.810740  1.0
  C  C524  1  0.186220  0.531820  0.810740  1.0
  C  C525  1  0.639210  0.017010  0.329070  1.0
  C  C526  1  0.014710  0.639210  0.329070  1.0
  C  C527  1  0.017010  0.014710  0.329070  1.0
  C  C528  1  0.485290  0.482990  0.170930  1.0
  C  C529  1  0.482990  0.860790  0.170930  1.0
  C  C530  1  0.860790  0.485290  0.170930  1.0
  C  C531  1  0.360790  0.982990  0.670930  1.0
  C  C532  1  0.985290  0.360790  0.670930  1.0
  C  C533  1  0.982990  0.985290  0.670930  1.0
  C  C534  1  0.514710  0.517010  0.829070  1.0
  C  C535  1  0.517010  0.139210  0.829070  1.0
  C  C536  1  0.139210  0.514710  0.829070  1.0
  C  C537  1  0.614190  0.985090  0.350430  1.0
  C  C538  1  0.050290  0.614190  0.350430  1.0
  C  C539  1  0.985090  0.050290  0.350430  1.0
  C  C540  1  0.449710  0.514910  0.149570  1.0
  C  C541  1  0.514910  0.885810  0.149570  1.0
  C  C542  1  0.885810  0.449710  0.149570  1.0
  C  C543  1  0.385810  0.014910  0.649570  1.0
  C  C544  1  0.949710  0.385810  0.649570  1.0
  C  C545  1  0.014910  0.949710  0.649570  1.0
  C  C546  1  0.550290  0.485090  0.850430  1.0
  C  C547  1  0.485090  0.114190  0.850430  1.0
  C  C548  1  0.114190  0.550290  0.850430  1.0
  C  C549  1  0.638460  0.907860  0.354420  1.0
  C  C550  1  0.099260  0.638460  0.354420  1.0
  C  C551  1  0.907860  0.099260  0.354420  1.0
  C  C552  1  0.400740  0.592140  0.145580  1.0
  C  C553  1  0.592140  0.861540  0.145580  1.0
  C  C554  1  0.861540  0.400740  0.145580  1.0
  C  C555  1  0.361540  0.092140  0.645580  1.0
  C  C556  1  0.900740  0.361540  0.645580  1.0
  C  C557  1  0.092140  0.900740  0.645580  1.0
  C  C558  1  0.599260  0.407860  0.854420  1.0
  C  C559  1  0.407860  0.138460  0.854420  1.0
  C  C560  1  0.138460  0.599260  0.854420  1.0
  C  C561  1  0.687580  0.862080  0.336360  1.0
  C  C562  1  0.113980  0.687580  0.336360  1.0
  C  C563  1  0.862080  0.113980  0.336360  1.0
  C  C564  1  0.386020  0.637920  0.163640  1.0
  C  C565  1  0.637920  0.812420  0.163640  1.0
  C  C566  1  0.812420  0.386020  0.163640  1.0
  C  C567  1  0.312420  0.137920  0.663640  1.0
  C  C568  1  0.886020  0.312420  0.663640  1.0
  C  C569  1  0.137920  0.886020  0.663640  1.0
  C  C570  1  0.613980  0.362080  0.836360  1.0
  C  C571  1  0.362080  0.187580  0.836360  1.0
  C  C572  1  0.187580  0.613980  0.836360  1.0
  C  C573  1  0.713790  0.893890  0.315030  1.0
  C  C574  1  0.077290  0.713790  0.315030  1.0
  C  C575  1  0.893890  0.077290  0.315030  1.0
  C  C576  1  0.422710  0.606110  0.184970  1.0
  C  C577  1  0.606110  0.786210  0.184970  1.0
  C  C578  1  0.786210  0.422710  0.184970  1.0
  C  C579  1  0.286210  0.106110  0.684970  1.0
  C  C580  1  0.922710  0.286210  0.684970  1.0
  C  C581  1  0.106110  0.922710  0.684970  1.0
  C  C582  1  0.577290  0.393890  0.815030  1.0
  C  C583  1  0.393890  0.213790  0.815030  1.0
  C  C584  1  0.213790  0.577290  0.815030  1.0
  C  C585  1  0.762560  0.848060  0.296520  1.0
  C  C586  1  0.092860  0.762560  0.296520  1.0
  C  C587  1  0.848060  0.092860  0.296520  1.0
  C  C588  1  0.407140  0.651940  0.203480  1.0
  C  C589  1  0.651940  0.737440  0.203480  1.0
  C  C590  1  0.737440  0.407140  0.203480  1.0
  C  C591  1  0.237440  0.151940  0.703480  1.0
  C  C592  1  0.907140  0.237440  0.703480  1.0
  C  C593  1  0.151940  0.907140  0.703480  1.0
  C  C594  1  0.592860  0.348060  0.796520  1.0
  C  C595  1  0.348060  0.262560  0.796520  1.0
  C  C596  1  0.262560  0.592860  0.796520  1.0
  C  C597  1  0.786410  0.771610  0.300870  1.0
  C  C598  1  0.141110  0.786410  0.300870  1.0
  C  C599  1  0.771610  0.141110  0.300870  1.0
  C  C600  1  0.358890  0.728390  0.199130  1.0
  C  C601  1  0.728390  0.713590  0.199130  1.0
  C  C602  1  0.713590  0.358890  0.199130  1.0
  C  C603  1  0.213590  0.228390  0.699130  1.0
  C  C604  1  0.858890  0.213590  0.699130  1.0
  C  C605  1  0.228390  0.858890  0.699130  1.0
  C  C606  1  0.641110  0.271610  0.800870  1.0
  C  C607  1  0.271610  0.286410  0.800870  1.0
  C  C608  1  0.286410  0.641110  0.800870  1.0
  C  C609  1  0.763340  0.738440  0.322380  1.0
  C  C610  1  0.175840  0.763340  0.322380  1.0
  C  C611  1  0.738440  0.175840  0.322380  1.0
  C  C612  1  0.324160  0.761560  0.177620  1.0
  C  C613  1  0.761560  0.736660  0.177620  1.0
  C  C614  1  0.736660  0.324160  0.177620  1.0
  C  C615  1  0.236660  0.261560  0.677620  1.0
  C  C616  1  0.824160  0.236660  0.677620  1.0
  C  C617  1  0.261560  0.824160  0.677620  1.0
  C  C618  1  0.675840  0.238440  0.822380  1.0
  C  C619  1  0.238440  0.263340  0.822380  1.0
  C  C620  1  0.263340  0.675840  0.822380  1.0
  C  C621  1  0.713440  0.784840  0.340080  1.0
  C  C622  1  0.161640  0.713440  0.340080  1.0
  C  C623  1  0.784840  0.161640  0.340080  1.0
  C  C624  1  0.338360  0.715160  0.159920  1.0
  C  C625  1  0.715160  0.786560  0.159920  1.0
  C  C626  1  0.786560  0.338360  0.159920  1.0
  C  C627  1  0.286560  0.215160  0.659920  1.0
  C  C628  1  0.838360  0.286560  0.659920  1.0
  C  C629  1  0.215160  0.838360  0.659920  1.0
  C  C630  1  0.661640  0.284840  0.840080  1.0
  C  C631  1  0.284840  0.213440  0.840080  1.0
  C  C632  1  0.213440  0.661640  0.840080  1.0
  C  C633  1  0.682190  0.687790  0.366030  1.0
  C  C634  1  0.263990  0.682190  0.366030  1.0
  C  C635  1  0.687790  0.263990  0.366030  1.0
  C  C636  1  0.236010  0.812210  0.133970  1.0
  C  C637  1  0.812210  0.817810  0.133970  1.0
  C  C638  1  0.817810  0.236010  0.133970  1.0
  C  C639  1  0.317810  0.312210  0.633970  1.0
  C  C640  1  0.736010  0.317810  0.633970  1.0
  C  C641  1  0.312210  0.736010  0.633970  1.0
  C  C642  1  0.763990  0.187790  0.866030  1.0
  C  C643  1  0.187790  0.182190  0.866030  1.0
  C  C644  1  0.182190  0.763990  0.866030  1.0
  C  C645  1  0.465240  0.118540  0.388380  1.0
  C  C646  1  0.027840  0.465240  0.388380  1.0
  C  C647  1  0.118540  0.027840  0.388380  1.0
  C  C648  1  0.472160  0.381460  0.111620  1.0
  C  C649  1  0.381460  0.034760  0.111620  1.0
  C  C650  1  0.034760  0.472160  0.111620  1.0
  C  C651  1  0.534760  0.881460  0.611620  1.0
  C  C652  1  0.972160  0.534760  0.611620  1.0
  C  C653  1  0.881460  0.972160  0.611620  1.0
  C  C654  1  0.527840  0.618540  0.888380  1.0
  C  C655  1  0.618540  0.965240  0.888380  1.0
  C  C656  1  0.965240  0.527840  0.888380  1.0
  C  C657  1  0.559500  0.111300  0.413100  1.0
  C  C658  1  0.916100  0.559500  0.413100  1.0
  C  C659  1  0.111300  0.916100  0.413100  1.0
  C  C660  1  0.583900  0.388700  0.086900  1.0
  C  C661  1  0.388700  0.940500  0.086900  1.0
  C  C662  1  0.940500  0.583900  0.086900  1.0
  C  C663  1  0.440500  0.888700  0.586900  1.0
  C  C664  1  0.083900  0.440500  0.586900  1.0
  C  C665  1  0.888700  0.083900  0.586900  1.0
  C  C666  1  0.416100  0.611300  0.913100  1.0
  C  C667  1  0.611300  0.059500  0.913100  1.0
  C  C668  1  0.059500  0.416100  0.913100  1.0
  C  C669  1  0.535240  0.188740  0.409680  1.0
  C  C670  1  0.866340  0.535240  0.409680  1.0
  C  C671  1  0.188740  0.866340  0.409680  1.0
  C  C672  1  0.633660  0.311260  0.090320  1.0
  C  C673  1  0.311260  0.964760  0.090320  1.0
  C  C674  1  0.964760  0.633660  0.090320  1.0
  C  C675  1  0.464760  0.811260  0.590320  1.0
  C  C676  1  0.133660  0.464760  0.590320  1.0
  C  C677  1  0.811260  0.133660  0.590320  1.0
  C  C678  1  0.366340  0.688740  0.909680  1.0
  C  C679  1  0.688740  0.035240  0.909680  1.0
  C  C680  1  0.035240  0.366340  0.909680  1.0
  C  C681  1  0.577120  0.213020  0.418740  1.0
  C  C682  1  0.791120  0.577120  0.418740  1.0
  C  C683  1  0.213020  0.791120  0.418740  1.0
  C  C684  1  0.708880  0.286980  0.081260  1.0
  C  C685  1  0.286980  0.922880  0.081260  1.0
  C  C686  1  0.922880  0.708880  0.081260  1.0
  C  C687  1  0.422880  0.786980  0.581260  1.0
  C  C688  1  0.208880  0.422880  0.581260  1.0
  C  C689  1  0.786980  0.208880  0.581260  1.0
  C  C690  1  0.291120  0.713020  0.918740  1.0
  C  C691  1  0.713020  0.077120  0.918740  1.0
  C  C692  1  0.077120  0.291120  0.918740  1.0
  C  C693  1  0.636300  0.164400  0.432000  1.0
  C  C694  1  0.767300  0.636300  0.432000  1.0
  C  C695  1  0.164400  0.767300  0.432000  1.0
  C  C696  1  0.732700  0.335600  0.068000  1.0
  C  C697  1  0.335600  0.863700  0.068000  1.0
  C  C698  1  0.863700  0.732700  0.068000  1.0
  C  C699  1  0.363700  0.835600  0.568000  1.0
  C  C700  1  0.232700  0.363700  0.568000  1.0
  C  C701  1  0.835600  0.232700  0.568000  1.0
  C  C702  1  0.267300  0.664400  0.932000  1.0
  C  C703  1  0.664400  0.136300  0.932000  1.0
  C  C704  1  0.136300  0.267300  0.932000  1.0
  C  C705  1  0.659400  0.087500  0.435600  1.0
  C  C706  1  0.817500  0.659400  0.435600  1.0
  C  C707  1  0.087500  0.817500  0.435600  1.0
  C  C708  1  0.682500  0.412500  0.064400  1.0
  C  C709  1  0.412500  0.840600  0.064400  1.0
  C  C710  1  0.840600  0.682500  0.064400  1.0
  C  C711  1  0.340600  0.912500  0.564400  1.0
  C  C712  1  0.182500  0.340600  0.564400  1.0
  C  C713  1  0.912500  0.182500  0.564400  1.0
  C  C714  1  0.317500  0.587500  0.935600  1.0
  C  C715  1  0.587500  0.159400  0.935600  1.0
  C  C716  1  0.159400  0.317500  0.935600  1.0
  C  C717  1  0.619490  0.061090  0.426330  1.0
  C  C718  1  0.893090  0.619490  0.426330  1.0
  C  C719  1  0.061090  0.893090  0.426330  1.0
  C  C720  1  0.606910  0.438910  0.073670  1.0
  C  C721  1  0.438910  0.880510  0.073670  1.0
  C  C722  1  0.880510  0.606910  0.073670  1.0
  C  C723  1  0.380510  0.938910  0.573670  1.0
  C  C724  1  0.106910  0.380510  0.573670  1.0
  C  C725  1  0.938910  0.106910  0.573670  1.0
  C  C726  1  0.393090  0.561090  0.926330  1.0
  C  C727  1  0.561090  0.119490  0.926330  1.0
  C  C728  1  0.119490  0.393090  0.926330  1.0
  C  C729  1  0.638440  0.985040  0.431280  1.0
  C  C730  1  0.945240  0.638440  0.431280  1.0
  C  C731  1  0.985040  0.945240  0.431280  1.0
  C  C732  1  0.554760  0.514960  0.068720  1.0
  C  C733  1  0.514960  0.861560  0.068720  1.0
  C  C734  1  0.861560  0.554760  0.068720  1.0
  C  C735  1  0.361560  0.014960  0.568720  1.0
  C  C736  1  0.054760  0.361560  0.568720  1.0
  C  C737  1  0.014960  0.054760  0.568720  1.0
  C  C738  1  0.445240  0.485040  0.931280  1.0
  C  C739  1  0.485040  0.138440  0.931280  1.0
  C  C740  1  0.138440  0.445240  0.931280  1.0
  C  C741  1  0.697700  0.937800  0.444900  1.0
  C  C742  1  0.919600  0.697700  0.444900  1.0
  C  C743  1  0.937800  0.919600  0.444900  1.0
  C  C744  1  0.580400  0.562200  0.055100  1.0
  C  C745  1  0.562200  0.802300  0.055100  1.0
  C  C746  1  0.802300  0.580400  0.055100  1.0
  C  C747  1  0.302300  0.062200  0.555100  1.0
  C  C748  1  0.080400  0.302300  0.555100  1.0
  C  C749  1  0.062200  0.080400  0.555100  1.0
  C  C750  1  0.419600  0.437800  0.944900  1.0
  C  C751  1  0.437800  0.197700  0.944900  1.0
  C  C752  1  0.197700  0.419600  0.944900  1.0
  C  C753  1  0.736550  0.964250  0.454650  1.0
  C  C754  1  0.844550  0.736550  0.454650  1.0
  C  C755  1  0.964250  0.844550  0.454650  1.0
  C  C756  1  0.655450  0.535750  0.045350  1.0
  C  C757  1  0.535750  0.763450  0.045350  1.0
  C  C758  1  0.763450  0.655450  0.045350  1.0
  C  C759  1  0.263450  0.035750  0.545350  1.0
  C  C760  1  0.155450  0.263450  0.545350  1.0
  C  C761  1  0.035750  0.155450  0.545350  1.0
  C  C762  1  0.344550  0.464250  0.954650  1.0
  C  C763  1  0.464250  0.236550  0.954650  1.0
  C  C764  1  0.236550  0.344550  0.954650  1.0
  C  C765  1  0.716500  0.040300  0.450300  1.0
  C  C766  1  0.792900  0.716500  0.450300  1.0
  C  C767  1  0.040300  0.792900  0.450300  1.0
  C  C768  1  0.707100  0.459700  0.049700  1.0
  C  C769  1  0.459700  0.783500  0.049700  1.0
  C  C770  1  0.783500  0.707100  0.049700  1.0
  C  C771  1  0.283500  0.959700  0.549700  1.0
  C  C772  1  0.207100  0.283500  0.549700  1.0
  C  C773  1  0.959700  0.207100  0.549700  1.0
  C  C774  1  0.292900  0.540300  0.950300  1.0
  C  C775  1  0.540300  0.216500  0.950300  1.0
  C  C776  1  0.216500  0.292900  0.950300  1.0
  C  C777  1  0.686400  0.787800  0.480600  1.0
  C  C778  1  0.045200  0.686400  0.480600  1.0
  C  C779  1  0.787800  0.045200  0.480600  1.0
  C  C780  1  0.454800  0.712200  0.019400  1.0
  C  C781  1  0.712200  0.813600  0.019400  1.0
  C  C782  1  0.813600  0.454800  0.019400  1.0
  C  C783  1  0.313600  0.212200  0.519400  1.0
  C  C784  1  0.954800  0.313600  0.519400  1.0
  C  C785  1  0.212200  0.954800  0.519400  1.0
  C  C786  1  0.545200  0.287800  0.980600  1.0
  C  C787  1  0.287800  0.186400  0.980600  1.0
  C  C788  1  0.186400  0.545200  0.980600  1.0
  H  H789  1  0.576900  0.651700  0.663900  1
  H  H790  1  0.107500  0.576900  0.663900  1
  H  H791  1  0.651700  0.107500  0.663900  1
  H  H792  1  0.392500  0.848300  0.836100  1
  H  H793  1  0.848300  0.923100  0.836100  1
  H  H794  1  0.923100  0.392500  0.836100  1
  H  H795  1  0.423100  0.348300  0.336100  1
  H  H796  1  0.892500  0.423100  0.336100  1
  H  H797  1  0.348300  0.892500  0.336100  1
  H  H798  1  0.607500  0.151700  0.163900  1
  H  H799  1  0.151700  0.076900  0.163900  1
  H  H800  1  0.076900  0.607500  0.163900  1
  H  H801  1  0.511800  0.631600  0.664800  1
  H  H802  1  0.191800  0.511800  0.664800  1
  H  H803  1  0.631600  0.191800  0.664800  1
  H  H804  1  0.308200  0.868400  0.835200  1
  H  H805  1  0.868400  0.988200  0.835200  1
  H  H806  1  0.988200  0.308200  0.835200  1
  H  H807  1  0.488200  0.368400  0.335200  1
  H  H808  1  0.808200  0.488200  0.335200  1
  H  H809  1  0.368400  0.808200  0.335200  1
  H  H810  1  0.691800  0.131600  0.164800  1
  H  H811  1  0.131600  0.011800  0.164800  1
  H  H812  1  0.011800  0.691800  0.164800  1
  H  H813  1  0.537900  0.677800  0.625500  1
  H  H814  1  0.158800  0.537900  0.625500  1
  H  H815  1  0.677800  0.158800  0.625500  1
  H  H816  1  0.341200  0.822200  0.874500  1
  H  H817  1  0.822200  0.962100  0.874500  1
  H  H818  1  0.962100  0.341200  0.874500  1
  H  H819  1  0.462100  0.322200  0.374500  1
  H  H820  1  0.841200  0.462100  0.374500  1
  H  H821  1  0.322200  0.841200  0.374500  1
  H  H822  1  0.658800  0.177800  0.125500  1
  H  H823  1  0.177800  0.037900  0.125500  1
  H  H824  1  0.037900  0.658800  0.125500  1
  H  H825  1  0.558100  0.592800  0.625800  1
  H  H826  1  0.223300  0.558100  0.625800  1
  H  H827  1  0.592800  0.223300  0.625800  1
  H  H828  1  0.276700  0.907200  0.874200  1
  H  H829  1  0.907200  0.941900  0.874200  1
  H  H830  1  0.941900  0.276700  0.874200  1
  H  H831  1  0.441900  0.407200  0.374200  1
  H  H832  1  0.776700  0.441900  0.374200  1
  H  H833  1  0.407200  0.776700  0.374200  1
  H  H834  1  0.723300  0.092800  0.125800  1
  H  H835  1  0.092800  0.058100  0.125800  1
  H  H836  1  0.058100  0.723300  0.125800  1
  H  H837  1  0.623000  0.613300  0.624900  1
  H  H838  1  0.138800  0.623000  0.624900  1
  H  H839  1  0.613300  0.138800  0.624900  1
  H  H840  1  0.361200  0.886700  0.875100  1
  H  H841  1  0.886700  0.877000  0.875100  1
  H  H842  1  0.877000  0.361200  0.875100  1
  H  H843  1  0.377000  0.386700  0.375100  1
  H  H844  1  0.861200  0.377000  0.375100  1
  H  H845  1  0.386700  0.861200  0.375100  1
  H  H846  1  0.638800  0.113300  0.124900  1
  H  H847  1  0.113300  0.123000  0.124900  1
  H  H848  1  0.123000  0.638800  0.124900  1
  H  H849  1  0.707600  0.510800  0.643800  1
  H  H850  1  0.137800  0.707600  0.643800  1
  H  H851  1  0.510800  0.137800  0.643800  1
  H  H852  1  0.362200  0.989200  0.856200  1
  H  H853  1  0.989200  0.792400  0.856200  1
  H  H854  1  0.792400  0.362200  0.856200  1
  H  H855  1  0.292400  0.489200  0.356200  1
  H  H856  1  0.862200  0.292400  0.356200  1
  H  H857  1  0.489200  0.862200  0.356200  1
  H  H858  1  0.637800  0.010800  0.143800  1
  H  H859  1  0.010800  0.207600  0.143800  1
  H  H860  1  0.207600  0.637800  0.143800  1
  H  H861  1  0.727600  0.452800  0.667800  1
  H  H862  1  0.151800  0.727600  0.667800  1
  H  H863  1  0.452800  0.151800  0.667800  1
  H  H864  1  0.348200  0.047200  0.832200  1
  H  H865  1  0.047200  0.772400  0.832200  1
  H  H866  1  0.772400  0.348200  0.832200  1
  H  H867  1  0.272400  0.547200  0.332200  1
  H  H868  1  0.848200  0.272400  0.332200  1
  H  H869  1  0.547200  0.848200  0.332200  1
  H  H870  1  0.651800  0.952800  0.167800  1
  H  H871  1  0.952800  0.227600  0.167800  1
  H  H872  1  0.227600  0.651800  0.167800  1
  H  H873  1  0.793700  0.521800  0.662100  1
  H  H874  1  0.022400  0.793700  0.662100  1
  H  H875  1  0.521800  0.022400  0.662100  1
  H  H876  1  0.477600  0.978200  0.837900  1
  H  H877  1  0.978200  0.706300  0.837900  1
  H  H878  1  0.706300  0.477600  0.837900  1
  H  H879  1  0.206300  0.478200  0.337900  1
  H  H880  1  0.977600  0.206300  0.337900  1
  H  H881  1  0.478200  0.977600  0.337900  1
  H  H882  1  0.522400  0.021800  0.162100  1
  H  H883  1  0.021800  0.293700  0.162100  1
  H  H884  1  0.293700  0.522400  0.162100  1
  H  H885  1  0.742700  0.534600  0.687900  1
  H  H886  1  0.034800  0.742700  0.687900  1
  H  H887  1  0.534600  0.034800  0.687900  1
  H  H888  1  0.465200  0.965400  0.812100  1
  H  H889  1  0.965400  0.757300  0.812100  1
  H  H890  1  0.757300  0.465200  0.812100  1
  H  H891  1  0.257300  0.465400  0.312100  1
  H  H892  1  0.965200  0.257300  0.312100  1
  H  H893  1  0.465400  0.965200  0.312100  1
  H  H894  1  0.534800  0.034600  0.187900  1
  H  H895  1  0.034600  0.242700  0.187900  1
  H  H896  1  0.242700  0.534800  0.187900  1
  H  H897  1  0.716400  0.597300  0.665100  1
  H  H898  1  0.021200  0.716400  0.665100  1
  H  H899  1  0.597300  0.021200  0.665100  1
  H  H900  1  0.478800  0.902700  0.834900  1
  H  H901  1  0.902700  0.783600  0.834900  1
  H  H902  1  0.783600  0.478800  0.834900  1
  H  H903  1  0.283600  0.402700  0.334900  1
  H  H904  1  0.978800  0.283600  0.334900  1
  H  H905  1  0.402700  0.978800  0.334900  1
  H  H906  1  0.521200  0.097300  0.165100  1
  H  H907  1  0.097300  0.216400  0.165100  1
  H  H908  1  0.216400  0.521200  0.165100  1
  H  H909  1  0.573900  0.563300  0.706800  1
  H  H910  1  0.156000  0.573900  0.706800  1
  H  H911  1  0.563300  0.156000  0.706800  1
  H  H912  1  0.344000  0.936700  0.793200  1
  H  H913  1  0.936700  0.926100  0.793200  1
  H  H914  1  0.926100  0.344000  0.793200  1
  H  H915  1  0.426100  0.436700  0.293200  1
  H  H916  1  0.844000  0.426100  0.293200  1
  H  H917  1  0.436700  0.844000  0.293200  1
  H  H918  1  0.656000  0.063300  0.206800  1
  H  H919  1  0.063300  0.073900  0.206800  1
  H  H920  1  0.073900  0.656000  0.206800  1
  H  H921  1  0.629700  0.440800  0.727800  1
  H  H922  1  0.201700  0.629700  0.727800  1
  H  H923  1  0.440800  0.201700  0.727800  1
  H  H924  1  0.298300  0.059200  0.772200  1
  H  H925  1  0.059200  0.870300  0.772200  1
  H  H926  1  0.870300  0.298300  0.772200  1
  H  H927  1  0.370300  0.559200  0.272200  1
  H  H928  1  0.798300  0.370300  0.272200  1
  H  H929  1  0.559200  0.798300  0.272200  1
  H  H930  1  0.701700  0.940800  0.227800  1
  H  H931  1  0.940800  0.129700  0.227800  1
  H  H932  1  0.129700  0.701700  0.227800  1
  H  H933  1  0.698000  0.420900  0.706500  1
  H  H934  1  0.174600  0.698000  0.706500  1
  H  H935  1  0.420900  0.174600  0.706500  1
  H  H936  1  0.325400  0.079100  0.793500  1
  H  H937  1  0.079100  0.802000  0.793500  1
  H  H938  1  0.802000  0.325400  0.793500  1
  H  H939  1  0.302000  0.579100  0.293500  1
  H  H940  1  0.825400  0.302000  0.293500  1
  H  H941  1  0.579100  0.825400  0.293500  1
  H  H942  1  0.674600  0.920900  0.206500  1
  H  H943  1  0.920900  0.198000  0.206500  1
  H  H944  1  0.198000  0.674600  0.206500  1
  H  H945  1  0.628700  0.410900  0.703500  1
  H  H946  1  0.256900  0.628700  0.703500  1
  H  H947  1  0.410900  0.256900  0.703500  1
  H  H948  1  0.243100  0.089100  0.796500  1
  H  H949  1  0.089100  0.871300  0.796500  1
  H  H950  1  0.871300  0.243100  0.796500  1
  H  H951  1  0.371300  0.589100  0.296500  1
  H  H952  1  0.743100  0.371300  0.296500  1
  H  H953  1  0.589100  0.743100  0.296500  1
  H  H954  1  0.756900  0.910900  0.203500  1
  H  H955  1  0.910900  0.128700  0.203500  1
  H  H956  1  0.128700  0.756900  0.203500  1
  H  H957  1  0.638600  0.439200  0.654600  1
  H  H958  1  0.267600  0.638600  0.654600  1
  H  H959  1  0.439200  0.267600  0.654600  1
  H  H960  1  0.232400  0.060800  0.845400  1
  H  H961  1  0.060800  0.861400  0.845400  1
  H  H962  1  0.861400  0.232400  0.845400  1
  H  H963  1  0.361400  0.560800  0.345400  1
  H  H964  1  0.732400  0.361400  0.345400  1
  H  H965  1  0.560800  0.732400  0.345400  1
  H  H966  1  0.767600  0.939200  0.154600  1
  H  H967  1  0.939200  0.138600  0.154600  1
  H  H968  1  0.138600  0.767600  0.154600  1
  H  H969  1  0.528900  0.451300  0.652800  1
  H  H970  1  0.367000  0.528900  0.652800  1
  H  H971  1  0.451300  0.367000  0.652800  1
  H  H972  1  0.133000  0.048700  0.847200  1
  H  H973  1  0.048700  0.971100  0.847200  1
  H  H974  1  0.971100  0.133000  0.847200  1
  H  H975  1  0.471100  0.548700  0.347200  1
  H  H976  1  0.633000  0.471100  0.347200  1
  H  H977  1  0.548700  0.633000  0.347200  1
  H  H978  1  0.867000  0.951300  0.152800  1
  H  H979  1  0.951300  0.028900  0.152800  1
  H  H980  1  0.028900  0.867000  0.152800  1
  H  H981  1  0.493600  0.539500  0.652200  1
  H  H982  1  0.314700  0.493600  0.652200  1
  H  H983  1  0.539500  0.314700  0.652200  1
  H  H984  1  0.185300  0.960500  0.847800  1
  H  H985  1  0.960500  0.006400  0.847800  1
  H  H986  1  0.006400  0.185300  0.847800  1
  H  H987  1  0.506400  0.460500  0.347800  1
  H  H988  1  0.685300  0.506400  0.347800  1
  H  H989  1  0.460500  0.685300  0.347800  1
  H  H990  1  0.814700  0.039500  0.152200  1
  H  H991  1  0.039500  0.993600  0.152200  1
  H  H992  1  0.993600  0.814700  0.152200  1
  H  H993  1  0.501900  0.488800  0.677700  1
  H  H994  1  0.331600  0.501900  0.677700  1
  H  H995  1  0.488800  0.331600  0.677700  1
  H  H996  1  0.168400  0.011200  0.822300  1
  H  H997  1  0.011200  0.998100  0.822300  1
  H  H998  1  0.998100  0.168400  0.822300  1
  H  H999  1  0.498100  0.511200  0.322300  1
  H  H1000  1  0.668400  0.498100  0.322300  1
  H  H1001  1  0.511200  0.668400  0.322300  1
  H  H1002  1  0.831600  0.988800  0.177700  1
  H  H1003  1  0.988800  0.001900  0.177700  1
  H  H1004  1  0.001900  0.831600  0.177700  1
  H  H1005  1  0.756900  0.980200  0.282300  1.0
  H  H1006  1  0.980600  0.756900  0.282300  1.0
  H  H1007  1  0.980200  0.980600  0.282300  1.0
  H  H1008  1  0.519400  0.519800  0.217700  1.0
  H  H1009  1  0.519800  0.743100  0.217700  1.0
  H  H1010  1  0.743100  0.519400  0.217700  1.0
  H  H1011  1  0.243100  0.019800  0.717700  1.0
  H  H1012  1  0.019400  0.243100  0.717700  1.0
  H  H1013  1  0.019800  0.019400  0.717700  1.0
  H  H1014  1  0.480600  0.480200  0.782300  1.0
  H  H1015  1  0.480200  0.256900  0.782300  1.0
  H  H1016  1  0.256900  0.480600  0.782300  1.0
  H  H1017  1  0.653000  0.786900  0.371400  1.0
  H  H1018  1  0.188700  0.653000  0.371400  1.0
  H  H1019  1  0.786900  0.188700  0.371400  1.0
  H  H1020  1  0.311300  0.713100  0.128600  1.0
  H  H1021  1  0.713100  0.847000  0.128600  1.0
  H  H1022  1  0.847000  0.311300  0.128600  1.0
  H  H1023  1  0.347000  0.213100  0.628600  1.0
  H  H1024  1  0.811300  0.347000  0.628600  1.0
  H  H1025  1  0.213100  0.811300  0.628600  1.0
  H  H1026  1  0.688700  0.286900  0.871400  1.0
  H  H1027  1  0.286900  0.153000  0.871400  1.0
  H  H1028  1  0.153000  0.688700  0.871400  1.0
  H  H1029  1  0.523100  0.040900  0.411000  1.0
  H  H1030  1  0.025000  0.523100  0.411000  1.0
  H  H1031  1  0.040900  0.025000  0.411000  1.0
  H  H1032  1  0.475000  0.459100  0.089000  1.0
  H  H1033  1  0.459100  0.976900  0.089000  1.0
  H  H1034  1  0.976900  0.475000  0.089000  1.0
  H  H1035  1  0.476900  0.959100  0.589000  1.0
  H  H1036  1  0.975000  0.476900  0.589000  1.0
  H  H1037  1  0.959100  0.975000  0.589000  1.0
  H  H1038  1  0.525000  0.540900  0.911000  1.0
  H  H1039  1  0.540900  0.023100  0.911000  1.0
  H  H1040  1  0.023100  0.525000  0.911000  1.0
  H  H1041  1  0.786100  0.149600  0.192300  1.0
  H  H1042  1  0.872000  0.786100  0.192300  1.0
  H  H1043  1  0.149600  0.872000  0.192300  1.0
  H  H1044  1  0.628000  0.350400  0.307700  1.0
  H  H1045  1  0.350400  0.713900  0.307700  1.0
  H  H1046  1  0.713900  0.628000  0.307700  1.0
  H  H1047  1  0.213900  0.850400  0.807700  1.0
  H  H1048  1  0.128000  0.213900  0.807700  1.0
  H  H1049  1  0.850400  0.128000  0.807700  1.0
  H  H1050  1  0.372000  0.649600  0.692300  1.0
  H  H1051  1  0.649600  0.286100  0.692300  1.0
  H  H1052  1  0.286100  0.372000  0.692300  1.0
  H  H1053  1  0.662300  0.226300  0.207900  1.0
  H  H1054  1  0.903500  0.662300  0.207900  1.0
  H  H1055  1  0.226300  0.903500  0.207900  1.0
  H  H1056  1  0.596500  0.273700  0.292100  1.0
  H  H1057  1  0.273700  0.837700  0.292100  1.0
  H  H1058  1  0.837700  0.596500  0.292100  1.0
  H  H1059  1  0.337700  0.773700  0.792100  1.0
  H  H1060  1  0.096500  0.337700  0.792100  1.0
  H  H1061  1  0.773700  0.096500  0.792100  1.0
  H  H1062  1  0.403500  0.726300  0.707900  1.0
  H  H1063  1  0.726300  0.162300  0.707900  1.0
  H  H1064  1  0.162300  0.403500  0.707900  1.0
  H  H1065  1  0.609500  0.186000  0.244200  1.0
  H  H1066  1  0.960300  0.609500  0.244200  1.0
  H  H1067  1  0.186000  0.960300  0.244200  1.0
  H  H1068  1  0.539700  0.314000  0.255800  1.0
  H  H1069  1  0.314000  0.890500  0.255800  1.0
  H  H1070  1  0.890500  0.539700  0.255800  1.0
  H  H1071  1  0.390500  0.814000  0.755800  1.0
  H  H1072  1  0.039700  0.390500  0.755800  1.0
  H  H1073  1  0.814000  0.039700  0.755800  1.0
  H  H1074  1  0.460300  0.686000  0.744200  1.0
  H  H1075  1  0.686000  0.109500  0.744200  1.0
  H  H1076  1  0.109500  0.460300  0.744200  1.0
  H  H1077  1  0.299600  0.004100  0.381300  1.0
  H  H1078  1  0.315000  0.299600  0.381300  1.0
  H  H1079  1  0.004100  0.315000  0.381300  1.0
  H  H1080  1  0.185000  0.495900  0.118700  1.0
  H  H1081  1  0.495900  0.200400  0.118700  1.0
  H  H1082  1  0.200400  0.185000  0.118700  1.0
  H  H1083  1  0.700400  0.995900  0.618700  1.0
  H  H1084  1  0.685000  0.700400  0.618700  1.0
  H  H1085  1  0.995900  0.685000  0.618700  1.0
  H  H1086  1  0.815000  0.504100  0.881300  1.0
  H  H1087  1  0.504100  0.799600  0.881300  1.0
  H  H1088  1  0.799600  0.815000  0.881300  1.0
  H  H1089  1  0.280700  0.118400  0.359100  1.0
  H  H1090  1  0.241800  0.280700  0.359100  1.0
  H  H1091  1  0.118400  0.241800  0.359100  1.0
  H  H1092  1  0.258200  0.381600  0.140900  1.0
  H  H1093  1  0.381600  0.219300  0.140900  1.0
  H  H1094  1  0.219300  0.258200  0.140900  1.0
  H  H1095  1  0.719300  0.881600  0.640900  1.0
  H  H1096  1  0.758200  0.719300  0.640900  1.0
  H  H1097  1  0.881600  0.758200  0.640900  1.0
  H  H1098  1  0.741800  0.618400  0.859100  1.0
  H  H1099  1  0.618400  0.780700  0.859100  1.0
  H  H1100  1  0.780700  0.741800  0.859100  1.0
  H  H1101  1  0.355100  0.171100  0.362700  1.0
  H  H1102  1  0.111100  0.355100  0.362700  1.0
  H  H1103  1  0.171100  0.111100  0.362700  1.0
  H  H1104  1  0.388900  0.328900  0.137300  1.0
  H  H1105  1  0.328900  0.144900  0.137300  1.0
  H  H1106  1  0.144900  0.388900  0.137300  1.0
  H  H1107  1  0.644900  0.828900  0.637300  1.0
  H  H1108  1  0.888900  0.644900  0.637300  1.0
  H  H1109  1  0.828900  0.888900  0.637300  1.0
  H  H1110  1  0.611100  0.671100  0.862700  1.0
  H  H1111  1  0.671100  0.855100  0.862700  1.0
  H  H1112  1  0.855100  0.611100  0.862700  1.0
  H  H1113  1  0.606800  0.846800  0.521100  1.0
  H  H1114  1  0.025300  0.606800  0.521100  1.0
  H  H1115  1  0.846800  0.025300  0.521100  1.0
  H  H1116  1  0.474700  0.653200  0.978900  1.0
  H  H1117  1  0.653200  0.893200  0.978900  1.0
  H  H1118  1  0.893200  0.474700  0.978900  1.0
  H  H1119  1  0.393200  0.153200  0.478900  1.0
  H  H1120  1  0.974700  0.393200  0.478900  1.0
  H  H1121  1  0.153200  0.974700  0.478900  1.0
  H  H1122  1  0.525300  0.346800  0.021100  1.0
  H  H1123  1  0.346800  0.106800  0.021100  1.0
  H  H1124  1  0.106800  0.525300  0.021100  1.0
  H  H1125  1  0.476600  0.922700  0.528600  1.0
  H  H1126  1  0.072100  0.476600  0.528600  1.0
  H  H1127  1  0.922700  0.072100  0.528600  1.0
  H  H1128  1  0.427900  0.577300  0.971400  1.0
  H  H1129  1  0.577300  0.023400  0.971400  1.0
  H  H1130  1  0.023400  0.427900  0.971400  1.0
  H  H1131  1  0.523400  0.077300  0.471400  1.0
  H  H1132  1  0.927900  0.523400  0.471400  1.0
  H  H1133  1  0.077300  0.927900  0.471400  1.0
  H  H1134  1  0.572100  0.422700  0.028600  1.0
  H  H1135  1  0.422700  0.976600  0.028600  1.0
  H  H1136  1  0.976600  0.572100  0.028600  1.0
  H  H1137  1  0.398500  0.949900  0.499500  1.0
  H  H1138  1  0.152100  0.398500  0.499500  1.0
  H  H1139  1  0.949900  0.152100  0.499500  1.0
  H  H1140  1  0.347900  0.550100  0.000500  1.0
  H  H1141  1  0.550100  0.101500  0.000500  1.0
  H  H1142  1  0.101500  0.347900  0.000500  1.0
  H  H1143  1  0.601500  0.050100  0.500500  1.0
  H  H1144  1  0.847900  0.601500  0.500500  1.0
  H  H1145  1  0.050100  0.847900  0.500500  1.0
  H  H1146  1  0.652100  0.449900  0.999500  1.0
  H  H1147  1  0.449900  0.898500  0.999500  1.0
  H  H1148  1  0.898500  0.652100  0.999500  1.0
  H  H1149  1  0.671300  0.567300  0.382200  1.0
  H  H1150  1  0.379200  0.671300  0.382200  1.0
  H  H1151  1  0.567300  0.379200  0.382200  1.0
  H  H1152  1  0.120800  0.932700  0.117800  1.0
  H  H1153  1  0.932700  0.828700  0.117800  1.0
  H  H1154  1  0.828700  0.120800  0.117800  1.0
  H  H1155  1  0.328700  0.432700  0.617800  1.0
  H  H1156  1  0.620800  0.328700  0.617800  1.0
  H  H1157  1  0.432700  0.620800  0.617800  1.0
  H  H1158  1  0.879200  0.067300  0.882200  1.0
  H  H1159  1  0.067300  0.171300  0.882200  1.0
  H  H1160  1  0.171300  0.879200  0.882200  1.0
  H  H1161  1  0.589800  0.550500  0.414000  1.0
  H  H1162  1  0.445700  0.589800  0.414000  1.0
  H  H1163  1  0.550500  0.445700  0.414000  1.0
  H  H1164  1  0.054300  0.949500  0.086000  1.0
  H  H1165  1  0.949500  0.910200  0.086000  1.0
  H  H1166  1  0.910200  0.054300  0.086000  1.0
  H  H1167  1  0.410200  0.449500  0.586000  1.0
  H  H1168  1  0.554300  0.410200  0.586000  1.0
  H  H1169  1  0.449500  0.554300  0.586000  1.0
  H  H1170  1  0.945700  0.050500  0.914000  1.0
  H  H1171  1  0.050500  0.089800  0.914000  1.0
  H  H1172  1  0.089800  0.945700  0.914000  1.0
  H  H1173  1  0.507200  0.642500  0.439200  1.0
  H  H1174  1  0.411100  0.507200  0.439200  1.0
  H  H1175  1  0.642500  0.411100  0.439200  1.0
  H  H1176  1  0.088900  0.857500  0.060800  1.0
  H  H1177  1  0.857500  0.992800  0.060800  1.0
  H  H1178  1  0.992800  0.088900  0.060800  1.0
  H  H1179  1  0.492800  0.357500  0.560800  1.0
  H  H1180  1  0.588900  0.492800  0.560800  1.0
  H  H1181  1  0.357500  0.588900  0.560800  1.0
  H  H1182  1  0.911100  0.142500  0.939200  1.0
  H  H1183  1  0.142500  0.007200  0.939200  1.0
  H  H1184  1  0.007200  0.911100  0.939200  1.0
  H  H1185  1  0.624800  0.068600  0.327000  1.0
  H  H1186  1  0.979600  0.624800  0.327000  1.0
  H  H1187  1  0.068600  0.979600  0.327000  1.0
  H  H1188  1  0.520400  0.431400  0.173000  1.0
  H  H1189  1  0.431400  0.875200  0.173000  1.0
  H  H1190  1  0.875200  0.520400  0.173000  1.0
  H  H1191  1  0.375200  0.931400  0.673000  1.0
  H  H1192  1  0.020400  0.375200  0.673000  1.0
  H  H1193  1  0.931400  0.020400  0.673000  1.0
  H  H1194  1  0.479600  0.568600  0.827000  1.0
  H  H1195  1  0.568600  0.124800  0.827000  1.0
  H  H1196  1  0.124800  0.479600  0.827000  1.0
  H  H1197  1  0.580100  0.016200  0.362400  1.0
  H  H1198  1  0.041300  0.580100  0.362400  1.0
  H  H1199  1  0.016200  0.041300  0.362400  1.0
  H  H1200  1  0.458700  0.483800  0.137600  1.0
  H  H1201  1  0.483800  0.919900  0.137600  1.0
  H  H1202  1  0.919900  0.458700  0.137600  1.0
  H  H1203  1  0.419900  0.983800  0.637600  1.0
  H  H1204  1  0.958700  0.419900  0.637600  1.0
  H  H1205  1  0.983800  0.958700  0.637600  1.0
  H  H1206  1  0.541300  0.516200  0.862400  1.0
  H  H1207  1  0.516200  0.080100  0.862400  1.0
  H  H1208  1  0.080100  0.541300  0.862400  1.0
  H  H1209  1  0.621600  0.887100  0.369300  1.0
  H  H1210  1  0.122000  0.621600  0.369300  1.0
  H  H1211  1  0.887100  0.122000  0.369300  1.0
  H  H1212  1  0.378000  0.612900  0.130700  1.0
  H  H1213  1  0.612900  0.878400  0.130700  1.0
  H  H1214  1  0.878400  0.378000  0.130700  1.0
  H  H1215  1  0.378400  0.112900  0.630700  1.0
  H  H1216  1  0.878000  0.378400  0.630700  1.0
  H  H1217  1  0.112900  0.878000  0.630700  1.0
  H  H1218  1  0.622000  0.387100  0.869300  1.0
  H  H1219  1  0.387100  0.121600  0.869300  1.0
  H  H1220  1  0.121600  0.622000  0.869300  1.0
  H  H1221  1  0.778400  0.868900  0.281700  1.0
  H  H1222  1  0.071000  0.778400  0.281700  1.0
  H  H1223  1  0.868900  0.071000  0.281700  1.0
  H  H1224  1  0.429000  0.631100  0.218300  1.0
  H  H1225  1  0.631100  0.721600  0.218300  1.0
  H  H1226  1  0.721600  0.429000  0.218300  1.0
  H  H1227  1  0.221600  0.131100  0.718300  1.0
  H  H1228  1  0.929000  0.221600  0.718300  1.0
  H  H1229  1  0.131100  0.929000  0.718300  1.0
  H  H1230  1  0.571000  0.368900  0.781700  1.0
  H  H1231  1  0.368900  0.278400  0.781700  1.0
  H  H1232  1  0.278400  0.571000  0.781700  1.0
  H  H1233  1  0.819900  0.740700  0.288600  1.0
  H  H1234  1  0.150800  0.819900  0.288600  1.0
  H  H1235  1  0.740700  0.150800  0.288600  1.0
  H  H1236  1  0.349200  0.759300  0.211400  1.0
  H  H1237  1  0.759300  0.680100  0.211400  1.0
  H  H1238  1  0.680100  0.349200  0.211400  1.0
  H  H1239  1  0.180100  0.259300  0.711400  1.0
  H  H1240  1  0.849200  0.180100  0.711400  1.0
  H  H1241  1  0.259300  0.849200  0.711400  1.0
  H  H1242  1  0.650800  0.240700  0.788600  1.0
  H  H1243  1  0.240700  0.319900  0.788600  1.0
  H  H1244  1  0.319900  0.650800  0.788600  1.0
  H  H1245  1  0.781000  0.686200  0.324900  1.0
  H  H1246  1  0.207900  0.781000  0.324900  1.0
  H  H1247  1  0.686200  0.207900  0.324900  1.0
  H  H1248  1  0.292100  0.813800  0.175100  1.0
  H  H1249  1  0.813800  0.719000  0.175100  1.0
  H  H1250  1  0.719000  0.292100  0.175100  1.0
  H  H1251  1  0.219000  0.313800  0.675100  1.0
  H  H1252  1  0.792100  0.219000  0.675100  1.0
  H  H1253  1  0.313800  0.792100  0.675100  1.0
  H  H1254  1  0.707900  0.186200  0.824900  1.0
  H  H1255  1  0.186200  0.281000  0.824900  1.0
  H  H1256  1  0.281000  0.707900  0.824900  1.0
  H  H1257  1  0.492300  0.222900  0.401700  1.0
  H  H1258  1  0.883100  0.492300  0.401700  1.0
  H  H1259  1  0.222900  0.883100  0.401700  1.0
  H  H1260  1  0.616900  0.277100  0.098300  1.0
  H  H1261  1  0.277100  0.007700  0.098300  1.0
  H  H1262  1  0.007700  0.616900  0.098300  1.0
  H  H1263  1  0.507700  0.777100  0.598300  1.0
  H  H1264  1  0.116900  0.507700  0.598300  1.0
  H  H1265  1  0.777100  0.116900  0.598300  1.0
  H  H1266  1  0.383100  0.722900  0.901700  1.0
  H  H1267  1  0.722900  0.992300  0.901700  1.0
  H  H1268  1  0.992300  0.383100  0.901700  1.0
  H  H1269  1  0.564400  0.264100  0.415800  1.0
  H  H1270  1  0.755700  0.564400  0.415800  1.0
  H  H1271  1  0.264100  0.755700  0.415800  1.0
  H  H1272  1  0.744300  0.235900  0.084200  1.0
  H  H1273  1  0.235900  0.935600  0.084200  1.0
  H  H1274  1  0.935600  0.744300  0.084200  1.0
  H  H1275  1  0.435600  0.735900  0.584200  1.0
  H  H1276  1  0.244300  0.435600  0.584200  1.0
  H  H1277  1  0.735900  0.244300  0.584200  1.0
  H  H1278  1  0.255700  0.764100  0.915800  1.0
  H  H1279  1  0.764100  0.064400  0.915800  1.0
  H  H1280  1  0.064400  0.255700  0.915800  1.0
  H  H1281  1  0.661500  0.182900  0.438900  1.0
  H  H1282  1  0.716700  0.661500  0.438900  1.0
  H  H1283  1  0.182900  0.716700  0.438900  1.0
  H  H1284  1  0.783300  0.317100  0.061100  1.0
  H  H1285  1  0.317100  0.838500  0.061100  1.0
  H  H1286  1  0.838500  0.783300  0.061100  1.0
  H  H1287  1  0.338500  0.817100  0.561100  1.0
  H  H1288  1  0.283300  0.338500  0.561100  1.0
  H  H1289  1  0.817100  0.283300  0.561100  1.0
  H  H1290  1  0.216700  0.682900  0.938900  1.0
  H  H1291  1  0.682900  0.161500  0.938900  1.0
  H  H1292  1  0.161500  0.216700  0.938900  1.0
  H  H1293  1  0.611300  0.966700  0.425400  1.0
  H  H1294  1  0.996600  0.611300  0.425400  1.0
  H  H1295  1  0.966700  0.996600  0.425400  1.0
  H  H1296  1  0.503400  0.533300  0.074600  1.0
  H  H1297  1  0.533300  0.888700  0.074600  1.0
  H  H1298  1  0.888700  0.503400  0.074600  1.0
  H  H1299  1  0.388700  0.033300  0.574600  1.0
  H  H1300  1  0.003400  0.388700  0.574600  1.0
  H  H1301  1  0.033300  0.003400  0.574600  1.0
  H  H1302  1  0.496600  0.466700  0.925400  1.0
  H  H1303  1  0.466700  0.111300  0.925400  1.0
  H  H1304  1  0.111300  0.496600  0.925400  1.0
  H  H1305  1  0.712600  0.886000  0.447600  1.0
  H  H1306  1  0.953800  0.712600  0.447600  1.0
  H  H1307  1  0.886000  0.953800  0.447600  1.0
  H  H1308  1  0.546200  0.614000  0.052400  1.0
  H  H1309  1  0.614000  0.787400  0.052400  1.0
  H  H1310  1  0.787400  0.546200  0.052400  1.0
  H  H1311  1  0.287400  0.114000  0.552400  1.0
  H  H1312  1  0.046200  0.287400  0.552400  1.0
  H  H1313  1  0.114000  0.046200  0.552400  1.0
  H  H1314  1  0.453800  0.386000  0.947600  1.0
  H  H1315  1  0.386000  0.212600  0.947600  1.0
  H  H1316  1  0.212600  0.453800  0.947600  1.0
  H  H1317  1  0.776200  0.931000  0.464100  1.0
  H  H1318  1  0.828700  0.776200  0.464100  1.0
  H  H1319  1  0.931000  0.828700  0.464100  1.0
  H  H1320  1  0.671300  0.569000  0.035900  1.0
  H  H1321  1  0.569000  0.723800  0.035900  1.0
  H  H1322  1  0.723800  0.671300  0.035900  1.0
  H  H1323  1  0.223800  0.069000  0.535900  1.0
  H  H1324  1  0.171300  0.223800  0.535900  1.0
  H  H1325  1  0.069000  0.171300  0.535900  1.0
  H  H1326  1  0.328700  0.431000  0.964100  1.0
  H  H1327  1  0.431000  0.276200  0.964100  1.0
  H  H1328  1  0.276200  0.328700  0.964100  1.0
  H  H1329  1  0.773200  0.094900  0.448800  1.0
  H  H1330  1  0.683100  0.773200  0.448800  1.0
  H  H1331  1  0.094900  0.683100  0.448800  1.0
  H  H1332  1  0.816900  0.405100  0.051200  1.0
  H  H1333  1  0.405100  0.726800  0.051200  1.0
  H  H1334  1  0.726800  0.816900  0.051200  1.0
  H  H1335  1  0.226800  0.905100  0.551200  1.0
  H  H1336  1  0.316900  0.226800  0.551200  1.0
  H  H1337  1  0.905100  0.316900  0.551200  1.0
  H  H1338  1  0.183100  0.594900  0.948800  1.0
  H  H1339  1  0.594900  0.273200  0.948800  1.0
  H  H1340  1  0.273200  0.183100  0.948800  1.0
  N  N1341  1  0.616920  0.533820  0.670140  1
  N  N1342  1  0.179120  0.616920  0.670140  1
  N  N1343  1  0.533820  0.179120  0.670140  1
  N  N1344  1  0.320880  0.966180  0.829860  1
  N  N1345  1  0.966180  0.883080  0.829860  1
  N  N1346  1  0.883080  0.320880  0.829860  1
  N  N1347  1  0.383080  0.466180  0.329860  1
  N  N1348  1  0.820880  0.383080  0.329860  1
  N  N1349  1  0.466180  0.820880  0.329860  1
  N  N1350  1  0.679120  0.033820  0.170140  1
  N  N1351  1  0.033820  0.116920  0.170140  1
  N  N1352  1  0.116920  0.679120  0.170140  1
  N  N1353  1  0.878330  0.878330  0.365010  1
  N  N1354  1  0.621670  0.621670  0.134990  1
  N  N1355  1  0.121670  0.121670  0.634990  1
  N  N1356  1  0.378330  0.378330  0.865010  1
  N  N1357  1  0.847500  0.807900  0.554400  1
  N  N1358  1  0.790200  0.847500  0.554400  1
  N  N1359  1  0.807900  0.790200  0.554400  1
  N  N1360  1  0.709800  0.692100  0.945600  1
  N  N1361  1  0.692100  0.652500  0.945600  1
  N  N1362  1  0.652500  0.709800  0.945600  1
  N  N1363  1  0.152500  0.192100  0.445600  1
  N  N1364  1  0.209800  0.152500  0.445600  1
  N  N1365  1  0.192100  0.209800  0.445600  1
  N  N1366  1  0.290200  0.307900  0.054400  1
  N  N1367  1  0.307900  0.347500  0.054400  1
  N  N1368  1  0.347500  0.290200  0.054400  1
  N  N1369  1  0.710030  0.005330  0.288210  1.0
  N  N1370  1  0.996430  0.710030  0.288210  1.0
  N  N1371  1  0.005330  0.996430  0.288210  1.0
  N  N1372  1  0.503570  0.494670  0.211790  1.0
  N  N1373  1  0.494670  0.789970  0.211790  1.0
  N  N1374  1  0.789970  0.503570  0.211790  1.0
  N  N1375  1  0.289970  0.994670  0.711790  1.0
  N  N1376  1  0.003570  0.289970  0.711790  1.0
  N  N1377  1  0.994670  0.003570  0.711790  1.0
  N  N1378  1  0.496430  0.505330  0.788210  1.0
  N  N1379  1  0.505330  0.210030  0.788210  1.0
  N  N1380  1  0.210030  0.496430  0.788210  1.0
  N  N1381  1  0.680070  0.755670  0.360390  1.0
  N  N1382  1  0.203870  0.680070  0.360390  1.0
  N  N1383  1  0.755670  0.203870  0.360390  1.0
  N  N1384  1  0.296130  0.744330  0.139610  1.0
  N  N1385  1  0.744330  0.819930  0.139610  1.0
  N  N1386  1  0.819930  0.296130  0.139610  1.0
  N  N1387  1  0.319930  0.244330  0.639610  1.0
  N  N1388  1  0.796130  0.319930  0.639610  1.0
  N  N1389  1  0.244330  0.796130  0.639610  1.0
  N  N1390  1  0.703870  0.255670  0.860390  1.0
  N  N1391  1  0.255670  0.180070  0.860390  1.0
  N  N1392  1  0.180070  0.703870  0.860390  1.0
  N  N1393  1  0.515370  0.085670  0.404490  1.0
  N  N1394  1  0.994470  0.515370  0.404490  1.0
  N  N1395  1  0.085670  0.994470  0.404490  1.0
  N  N1396  1  0.505530  0.414330  0.095510  1.0
  N  N1397  1  0.414330  0.984630  0.095510  1.0
  N  N1398  1  0.984630  0.505530  0.095510  1.0
  N  N1399  1  0.484630  0.914330  0.595510  1.0
  N  N1400  1  0.005530  0.484630  0.595510  1.0
  N  N1401  1  0.914330  0.005530  0.595510  1.0
  N  N1402  1  0.494470  0.585670  0.904490  1.0
  N  N1403  1  0.585670  0.015370  0.904490  1.0
  N  N1404  1  0.015370  0.494470  0.904490  1.0
  N  N1405  1  0.761640  0.063840  0.459180  1.0
  N  N1406  1  0.715340  0.761640  0.459180  1.0
  N  N1407  1  0.063840  0.715340  0.459180  1.0
  N  N1408  1  0.784660  0.436160  0.040820  1.0
  N  N1409  1  0.436160  0.738360  0.040820  1.0
  N  N1410  1  0.738360  0.784660  0.040820  1.0
  N  N1411  1  0.238360  0.936160  0.540820  1.0
  N  N1412  1  0.284660  0.238360  0.540820  1.0
  N  N1413  1  0.936160  0.284660  0.540820  1.0
  N  N1414  1  0.215340  0.563840  0.959180  1.0
  N  N1415  1  0.563840  0.261640  0.959180  1.0
  N  N1416  1  0.261640  0.215340  0.959180  1.0
  O  O1417  1  0.826350  0.976850  0.253950  1.0
  O  O1418  1  0.942850  0.826350  0.253950  1.0
  O  O1419  1  0.976850  0.942850  0.253950  1.0
  O  O1420  1  0.557150  0.523150  0.246050  1.0
  O  O1421  1  0.523150  0.673650  0.246050  1.0
  O  O1422  1  0.673650  0.557150  0.246050  1.0
  O  O1423  1  0.173650  0.023150  0.746050  1.0
  O  O1424  1  0.057150  0.173650  0.746050  1.0
  O  O1425  1  0.023150  0.057150  0.746050  1.0
  O  O1426  1  0.442850  0.476850  0.753950  1.0
  O  O1427  1  0.476850  0.326350  0.753950  1.0
  O  O1428  1  0.326350  0.442850  0.753950  1.0
  O  O1429  1  0.879410  0.017610  0.212670  1.0
  O  O1430  1  0.890310  0.879410  0.212670  1.0
  O  O1431  1  0.017610  0.890310  0.212670  1.0
  O  O1432  1  0.609690  0.482390  0.287330  1.0
  O  O1433  1  0.482390  0.620590  0.287330  1.0
  O  O1434  1  0.620590  0.609690  0.287330  1.0
  O  O1435  1  0.120590  0.982390  0.787330  1.0
  O  O1436  1  0.109690  0.120590  0.787330  1.0
  O  O1437  1  0.982390  0.109690  0.787330  1.0
  O  O1438  1  0.390310  0.517610  0.712670  1.0
  O  O1439  1  0.517610  0.379410  0.712670  1.0
  O  O1440  1  0.379410  0.390310  0.712670  1.0
  O  O1441  1  0.599620  0.110820  0.283140  1.0
  O  O1442  1  0.006420  0.599620  0.283140  1.0
  O  O1443  1  0.110820  0.006420  0.283140  1.0
  O  O1444  1  0.493580  0.389180  0.216860  1.0
  O  O1445  1  0.389180  0.900380  0.216860  1.0
  O  O1446  1  0.900380  0.493580  0.216860  1.0
  O  O1447  1  0.400380  0.889180  0.716860  1.0
  O  O1448  1  0.993580  0.400380  0.716860  1.0
  O  O1449  1  0.889180  0.993580  0.716860  1.0
  O  O1450  1  0.506420  0.610820  0.783140  1.0
  O  O1451  1  0.610820  0.099620  0.783140  1.0
  O  O1452  1  0.099620  0.506420  0.783140  1.0
  O  O1453  1  0.725970  0.635270  0.351690  1.0
  O  O1454  1  0.287070  0.725970  0.351690  1.0
  O  O1455  1  0.635270  0.287070  0.351690  1.0
  O  O1456  1  0.212930  0.864730  0.148310  1.0
  O  O1457  1  0.864730  0.774030  0.148310  1.0
  O  O1458  1  0.774030  0.212930  0.148310  1.0
  O  O1459  1  0.274030  0.364730  0.648310  1.0
  O  O1460  1  0.712930  0.274030  0.648310  1.0
  O  O1461  1  0.364730  0.712930  0.648310  1.0
  O  O1462  1  0.787070  0.135270  0.851690  1.0
  O  O1463  1  0.135270  0.225970  0.851690  1.0
  O  O1464  1  0.225970  0.787070  0.851690  1.0
  O  O1465  1  0.490300  0.777700  0.434700  1.0
  O  O1466  1  0.297300  0.490300  0.434700  1.0
  O  O1467  1  0.777700  0.297300  0.434700  1.0
  O  O1468  1  0.202700  0.722300  0.065300  1.0
  O  O1469  1  0.722300  0.009700  0.065300  1.0
  O  O1470  1  0.009700  0.202700  0.065300  1.0
  O  O1471  1  0.509700  0.222300  0.565300  1.0
  O  O1472  1  0.702700  0.509700  0.565300  1.0
  O  O1473  1  0.222300  0.702700  0.565300  1.0
  O  O1474  1  0.797300  0.277700  0.934700  1.0
  O  O1475  1  0.277700  0.990300  0.934700  1.0
  O  O1476  1  0.990300  0.797300  0.934700  1.0
  O  O1477  1  0.576400  0.802600  0.399600  1.0
  O  O1478  1  0.221400  0.576400  0.399600  1.0
  O  O1479  1  0.802600  0.221400  0.399600  1.0
  O  O1480  1  0.278600  0.697400  0.100400  1.0
  O  O1481  1  0.697400  0.923600  0.100400  1.0
  O  O1482  1  0.923600  0.278600  0.100400  1.0
  O  O1483  1  0.423600  0.197400  0.600400  1.0
  O  O1484  1  0.778600  0.423600  0.600400  1.0
  O  O1485  1  0.197400  0.778600  0.600400  1.0
  O  O1486  1  0.721400  0.302600  0.899600  1.0
  O  O1487  1  0.302600  0.076400  0.899600  1.0
  O  O1488  1  0.076400  0.721400  0.899600  1.0
  O  O1489  1  0.501920  0.958520  0.408240  1.0
  O  O1490  1  0.131320  0.501920  0.408240  1.0
  O  O1491  1  0.958520  0.131320  0.408240  1.0
  O  O1492  1  0.368680  0.541480  0.091760  1.0
  O  O1493  1  0.541480  0.998080  0.091760  1.0
  O  O1494  1  0.998080  0.368680  0.091760  1.0
  O  O1495  1  0.498080  0.041480  0.591760  1.0
  O  O1496  1  0.868680  0.498080  0.591760  1.0
  O  O1497  1  0.041480  0.868680  0.591760  1.0
  O  O1498  1  0.631320  0.458520  0.908240  1.0
  O  O1499  1  0.458520  0.001920  0.908240  1.0
  O  O1500  1  0.001920  0.631320  0.908240  1.0
  O  O1501  1  0.414610  0.909710  0.406770  1.0
  O  O1502  1  0.268910  0.414610  0.406770  1.0
  O  O1503  1  0.909710  0.268910  0.406770  1.0
  O  O1504  1  0.231090  0.590290  0.093230  1.0
  O  O1505  1  0.590290  0.085390  0.093230  1.0
  O  O1506  1  0.085390  0.231090  0.093230  1.0
  O  O1507  1  0.585390  0.090290  0.593230  1.0
  O  O1508  1  0.731090  0.585390  0.593230  1.0
  O  O1509  1  0.090290  0.731090  0.593230  1.0
  O  O1510  1  0.768910  0.409710  0.906770  1.0
  O  O1511  1  0.409710  0.914610  0.906770  1.0
  O  O1512  1  0.914610  0.768910  0.906770  1.0
  O  O1513  1  0.456100  0.179800  0.375600  1.0
  O  O1514  1  0.988500  0.456100  0.375600  1.0
  O  O1515  1  0.179800  0.988500  0.375600  1.0
  O  O1516  1  0.511500  0.320200  0.124400  1.0
  O  O1517  1  0.320200  0.043900  0.124400  1.0
  O  O1518  1  0.043900  0.511500  0.124400  1.0
  O  O1519  1  0.543900  0.820200  0.624400  1.0
  O  O1520  1  0.011500  0.543900  0.624400  1.0
  O  O1521  1  0.820200  0.011500  0.624400  1.0
  O  O1522  1  0.488500  0.679800  0.875600  1.0
  O  O1523  1  0.679800  0.956100  0.875600  1.0
  O  O1524  1  0.956100  0.488500  0.875600  1.0
  O  O1525  1  0.726700  0.770600  0.497400  1.0
  O  O1526  1  0.005300  0.726700  0.497400  1.0
  O  O1527  1  0.770600  0.005300  0.497400  1.0
  O  O1528  1  0.494700  0.729400  0.002600  1.0
  O  O1529  1  0.729400  0.773300  0.002600  1.0
  O  O1530  1  0.773300  0.494700  0.002600  1.0
  O  O1531  1  0.273300  0.229400  0.502600  1.0
  O  O1532  1  0.994700  0.273300  0.502600  1.0
  O  O1533  1  0.229400  0.994700  0.502600  1.0
  O  O1534  1  0.505300  0.270600  0.997400  1.0
  O  O1535  1  0.270600  0.226700  0.997400  1.0
  O  O1536  1  0.226700  0.505300  0.997400  1.0
  O  O1537  1  0.441320  0.908420  0.454740  1.0
  O  O1538  1  0.195520  0.441320  0.454740  1.0
  O  O1539  1  0.908420  0.195520  0.454740  1.0
  O  O1540  1  0.304480  0.591580  0.045260  1.0
  O  O1541  1  0.591580  0.058680  0.045260  1.0
  O  O1542  1  0.058680  0.304480  0.045260  1.0
  O  O1543  1  0.558680  0.091580  0.545260  1.0
  O  O1544  1  0.804480  0.558680  0.545260  1.0
  O  O1545  1  0.091580  0.804480  0.545260  1.0
  O  O1546  1  0.695520  0.408420  0.954740  1.0
  O  O1547  1  0.408420  0.941320  0.954740  1.0
  O  O1548  1  0.941320  0.695520  0.954740  1.0
  O  O1549  1  0.579680  0.840180  0.443460  1.0
  O  O1550  1  0.136680  0.579680  0.443460  1.0
  O  O1551  1  0.840180  0.136680  0.443460  1.0
  O  O1552  1  0.363320  0.659820  0.056540  1.0
  O  O1553  1  0.659820  0.920320  0.056540  1.0
  O  O1554  1  0.920320  0.363320  0.056540  1.0
  O  O1555  1  0.420320  0.159820  0.556540  1.0
  O  O1556  1  0.863320  0.420320  0.556540  1.0
  O  O1557  1  0.159820  0.863320  0.556540  1.0
  O  O1558  1  0.636680  0.340180  0.943460  1.0
  O  O1559  1  0.340180  0.079680  0.943460  1.0
  O  O1560  1  0.079680  0.636680  0.943460  1.0
  Ti  Ti1561  1  0.922380  0.922380  0.232860  1
  Ti  Ti1562  1  0.577620  0.577620  0.267140  1
  Ti  Ti1563  1  0.077620  0.077620  0.767140  1
  Ti  Ti1564  1  0.422380  0.422380  0.732860  1
  Ti  Ti1565  1  0.498985  0.867055  0.424275  1.0
  Ti  Ti1566  1  0.209685  0.498985  0.424275  1.0
  Ti  Ti1567  1  0.867055  0.209685  0.424275  1.0
  Ti  Ti1568  1  0.290315  0.632945  0.075725  1.0
  Ti  Ti1569  1  0.632945  0.001015  0.075725  1.0
  Ti  Ti1570  1  0.001015  0.290315  0.075725  1.0
  Ti  Ti1571  1  0.501015  0.132945  0.575725  1.0
  Ti  Ti1572  1  0.790315  0.501015  0.575725  1.0
  Ti  Ti1573  1  0.132945  0.790315  0.575725  1.0
  Ti  Ti1574  1  0.709685  0.367055  0.924275  1.0
  Ti  Ti1575  1  0.367055  0.998985  0.924275  1.0
  Ti  Ti1576  1  0.998985  0.709685  0.924275  1.0
