# generated using pymatgen
data_Ti8Co5H192C400(N9O34)4
_symmetry_space_group_name_H-M   'P 1'
_cell_length_a   20.53780000
_cell_length_b   20.53780000
_cell_length_c   57.88287488
_cell_angle_alpha   79.78116559
_cell_angle_beta   79.78116559
_cell_angle_gamma   60.00000000
_symmetry_Int_Tables_number   1
_chemical_formula_structural   Ti8Co5H192C400(N9O34)4
_chemical_formula_sum   'Ti16 Co10 H384 C800 N72 O272'
_cell_volume   20695.65954640
_cell_formula_units_Z   2
loop_
 _symmetry_equiv_pos_site_id
 _symmetry_equiv_pos_as_xyz
  1  'x, y, z'
loop_
 _atom_site_type_symbol
 _atom_site_label
 _atom_site_symmetry_multiplicity
 _atom_site_fract_x
 _atom_site_fract_y
 _atom_site_fract_z
 _atom_site_occupancy
  C  C1  1  0.820000  0.634000  0.945000  1
  C  C2  1  0.601000  0.820000  0.945000  1
  C  C3  1  0.634000  0.601000  0.945000  1
  C  C4  1  0.899000  0.866000  0.555000  1
  C  C5  1  0.866000  0.680000  0.555000  1
  C  C6  1  0.680000  0.899000  0.555000  1
  C  C7  1  0.180000  0.366000  0.055000  1
  C  C8  1  0.399000  0.180000  0.055000  1
  C  C9  1  0.366000  0.399000  0.055000  1
  C  C10  1  0.101000  0.134000  0.445000  1
  C  C11  1  0.134000  0.320000  0.445000  1
  C  C12  1  0.320000  0.101000  0.445000  1
  C  C13  1  0.917300  0.299300  0.941100  1
  C  C14  1  0.842300  0.917300  0.941100  1
  C  C15  1  0.299300  0.842300  0.941100  1
  C  C16  1  0.657700  0.200700  0.558900  1
  C  C17  1  0.200700  0.582700  0.558900  1
  C  C18  1  0.582700  0.657700  0.558900  1
  C  C19  1  0.082700  0.700700  0.058900  1
  C  C20  1  0.157700  0.082700  0.058900  1
  C  C21  1  0.700700  0.157700  0.058900  1
  C  C22  1  0.342300  0.799300  0.441100  1
  C  C23  1  0.799300  0.417300  0.441100  1
  C  C24  1  0.417300  0.342300  0.441100  1
  C  C25  1  0.962300  0.292300  0.908100  1
  C  C26  1  0.837300  0.962300  0.908100  1
  C  C27  1  0.292300  0.837300  0.908100  1
  C  C28  1  0.662700  0.207700  0.591900  1
  C  C29  1  0.207700  0.537700  0.591900  1
  C  C30  1  0.537700  0.662700  0.591900  1
  C  C31  1  0.037700  0.707700  0.091900  1
  C  C32  1  0.162700  0.037700  0.091900  1
  C  C33  1  0.707700  0.162700  0.091900  1
  C  C34  1  0.337300  0.792300  0.408100  1
  C  C35  1  0.792300  0.462300  0.408100  1
  C  C36  1  0.462300  0.337300  0.408100  1
  C  C37  1  0.739400  0.550400  0.099800  1
  C  C38  1  0.610400  0.739400  0.099800  1
  C  C39  1  0.550400  0.610400  0.099800  1
  C  C40  1  0.889600  0.949600  0.400200  1
  C  C41  1  0.949600  0.760600  0.400200  1
  C  C42  1  0.760600  0.889600  0.400200  1
  C  C43  1  0.260600  0.449600  0.900200  1
  C  C44  1  0.389600  0.260600  0.900200  1
  C  C45  1  0.449600  0.389600  0.900200  1
  C  C46  1  0.110400  0.050400  0.599800  1
  C  C47  1  0.050400  0.239400  0.599800  1
  C  C48  1  0.239400  0.110400  0.599800  1
  C  C49  1  0.696460  0.604460  0.081620  1
  C  C50  1  0.617460  0.696460  0.081620  1
  C  C51  1  0.604460  0.617460  0.081620  1
  C  C52  1  0.882540  0.895540  0.418380  1
  C  C53  1  0.895540  0.803540  0.418380  1
  C  C54  1  0.803540  0.882540  0.418380  1
  C  C55  1  0.303540  0.395540  0.918380  1
  C  C56  1  0.382540  0.303540  0.918380  1
  C  C57  1  0.395540  0.382540  0.918380  1
  C  C58  1  0.117460  0.104460  0.581620  1
  C  C59  1  0.104460  0.196460  0.581620  1
  C  C60  1  0.196460  0.117460  0.581620  1
  C  C61  1  0.676030  0.677430  0.086810  1
  C  C62  1  0.559730  0.676030  0.086810  1
  C  C63  1  0.677430  0.559730  0.086810  1
  C  C64  1  0.940270  0.822570  0.413190  1
  C  C65  1  0.822570  0.823970  0.413190  1
  C  C66  1  0.823970  0.940270  0.413190  1
  C  C67  1  0.323970  0.322570  0.913190  1
  C  C68  1  0.440270  0.323970  0.913190  1
  C  C69  1  0.322570  0.440270  0.913190  1
  C  C70  1  0.059730  0.177430  0.586810  1
  C  C71  1  0.177430  0.176030  0.586810  1
  C  C72  1  0.176030  0.059730  0.586810  1
  C  C73  1  0.705810  0.669410  0.108170  1
  C  C74  1  0.516610  0.705810  0.108170  1
  C  C75  1  0.669410  0.516610  0.108170  1
  C  C76  1  0.983390  0.830590  0.391830  1
  C  C77  1  0.830590  0.794190  0.391830  1
  C  C78  1  0.794190  0.983390  0.391830  1
  C  C79  1  0.294190  0.330590  0.891830  1
  C  C80  1  0.483390  0.294190  0.891830  1
  C  C81  1  0.330590  0.483390  0.891830  1
  C  C82  1  0.016610  0.169410  0.608170  1
  C  C83  1  0.169410  0.205810  0.608170  1
  C  C84  1  0.205810  0.016610  0.608170  1
  C  C85  1  0.745040  0.590840  0.116180  1
  C  C86  1  0.547940  0.745040  0.116180  1
  C  C87  1  0.590840  0.547940  0.116180  1
  C  C88  1  0.952060  0.909160  0.383820  1
  C  C89  1  0.909160  0.754960  0.383820  1
  C  C90  1  0.754960  0.952060  0.383820  1
  C  C91  1  0.254960  0.409160  0.883820  1
  C  C92  1  0.452060  0.254960  0.883820  1
  C  C93  1  0.409160  0.452060  0.883820  1
  C  C94  1  0.047940  0.090840  0.616180  1
  C  C95  1  0.090840  0.245040  0.616180  1
  C  C96  1  0.245040  0.047940  0.616180  1
  C  C97  1  0.676000  0.676000  0.972000  1
  C  C98  1  0.824000  0.824000  0.528000  1
  C  C99  1  0.324000  0.324000  0.028000  1
  C  C100  1  0.176000  0.176000  0.472000  1
  C  C101  1  0.692000  0.692000  0.924000  1
  C  C102  1  0.808000  0.808000  0.576000  1
  C  C103  1  0.308000  0.308000  0.076000  1
  C  C104  1  0.192000  0.192000  0.424000  1
  C  C105  1  0.869830  0.342130  0.238310  1.0
  C  C106  1  0.549730  0.869830  0.238310  1.0
  C  C107  1  0.342130  0.549730  0.238310  1.0
  C  C108  1  0.950270  0.157870  0.261690  1.0
  C  C109  1  0.157870  0.630170  0.261690  1.0
  C  C110  1  0.630170  0.950270  0.261690  1.0
  C  C111  1  0.130170  0.657870  0.761690  1.0
  C  C112  1  0.450270  0.130170  0.761690  1.0
  C  C113  1  0.657870  0.450270  0.761690  1.0
  C  C114  1  0.049730  0.842130  0.738310  1.0
  C  C115  1  0.842130  0.369830  0.738310  1.0
  C  C116  1  0.369830  0.049730  0.738310  1.0
  C  C117  1  0.792890  0.361790  0.245330  1.0
  C  C118  1  0.599990  0.792890  0.245330  1.0
  C  C119  1  0.361790  0.599990  0.245330  1.0
  C  C120  1  0.900010  0.138210  0.254670  1.0
  C  C121  1  0.138210  0.707110  0.254670  1.0
  C  C122  1  0.707110  0.900010  0.254670  1.0
  C  C123  1  0.207110  0.638210  0.754670  1.0
  C  C124  1  0.400010  0.207110  0.754670  1.0
  C  C125  1  0.638210  0.400010  0.754670  1.0
  C  C126  1  0.099990  0.861790  0.745330  1.0
  C  C127  1  0.861790  0.292890  0.745330  1.0
  C  C128  1  0.292890  0.099990  0.745330  1.0
  C  C129  1  0.772980  0.324180  0.231860  1.0
  C  C130  1  0.670980  0.772980  0.231860  1.0
  C  C131  1  0.324180  0.670980  0.231860  1.0
  C  C132  1  0.829020  0.175820  0.268140  1.0
  C  C133  1  0.175820  0.727020  0.268140  1.0
  C  C134  1  0.727020  0.829020  0.268140  1.0
  C  C135  1  0.227020  0.675820  0.768140  1.0
  C  C136  1  0.329020  0.227020  0.768140  1.0
  C  C137  1  0.675820  0.329020  0.768140  1.0
  C  C138  1  0.170980  0.824180  0.731860  1.0
  C  C139  1  0.824180  0.272980  0.731860  1.0
  C  C140  1  0.272980  0.170980  0.731860  1.0
  C  C141  1  0.837620  0.281420  0.216440  1.0
  C  C142  1  0.664520  0.837620  0.216440  1.0
  C  C143  1  0.281420  0.664520  0.216440  1.0
  C  C144  1  0.835480  0.218580  0.283560  1.0
  C  C145  1  0.218580  0.662380  0.283560  1.0
  C  C146  1  0.662380  0.835480  0.283560  1.0
  C  C147  1  0.162380  0.718580  0.783560  1.0
  C  C148  1  0.335480  0.162380  0.783560  1.0
  C  C149  1  0.718580  0.335480  0.783560  1.0
  C  C150  1  0.164520  0.781420  0.716440  1.0
  C  C151  1  0.781420  0.337620  0.716440  1.0
  C  C152  1  0.337620  0.164520  0.716440  1.0
  C  C153  1  0.897390  0.292590  0.220430  1.0
  C  C154  1  0.589590  0.897390  0.220430  1.0
  C  C155  1  0.292590  0.589590  0.220430  1.0
  C  C156  1  0.910410  0.207410  0.279570  1.0
  C  C157  1  0.207410  0.602610  0.279570  1.0
  C  C158  1  0.602610  0.910410  0.279570  1.0
  C  C159  1  0.102610  0.707410  0.779570  1.0
  C  C160  1  0.410410  0.102610  0.779570  1.0
  C  C161  1  0.707410  0.410410  0.779570  1.0
  C  C162  1  0.089590  0.792590  0.720430  1.0
  C  C163  1  0.792590  0.397390  0.720430  1.0
  C  C164  1  0.397390  0.089590  0.720430  1.0
  C  C165  1  0.719120  0.579620  0.129440  1.0
  C  C166  1  0.571820  0.719120  0.129440  1.0
  C  C167  1  0.579620  0.571820  0.129440  1.0
  C  C168  1  0.928180  0.920380  0.370560  1.0
  C  C169  1  0.920380  0.780880  0.370560  1.0
  C  C170  1  0.780880  0.928180  0.370560  1.0
  C  C171  1  0.280880  0.420380  0.870560  1.0
  C  C172  1  0.428180  0.280880  0.870560  1.0
  C  C173  1  0.420380  0.428180  0.870560  1.0
  C  C174  1  0.071820  0.079620  0.629440  1.0
  C  C175  1  0.079620  0.219120  0.629440  1.0
  C  C176  1  0.219120  0.071820  0.629440  1.0
  C  C177  1  0.721600  0.537000  0.112100  1.0
  C  C178  1  0.629300  0.721600  0.112100  1.0
  C  C179  1  0.537000  0.629300  0.112100  1.0
  C  C180  1  0.870700  0.963000  0.387900  1.0
  C  C181  1  0.963000  0.778400  0.387900  1.0
  C  C182  1  0.778400  0.870700  0.387900  1.0
  C  C183  1  0.278400  0.463000  0.887900  1.0
  C  C184  1  0.370700  0.278400  0.887900  1.0
  C  C185  1  0.463000  0.370700  0.887900  1.0
  C  C186  1  0.129300  0.037000  0.612100  1.0
  C  C187  1  0.037000  0.221600  0.612100  1.0
  C  C188  1  0.221600  0.129300  0.612100  1.0
  C  C189  1  0.661200  0.520600  0.118400  1.0
  C  C190  1  0.699800  0.661200  0.118400  1.0
  C  C191  1  0.520600  0.699800  0.118400  1.0
  C  C192  1  0.800200  0.979400  0.381600  1.0
  C  C193  1  0.979400  0.838800  0.381600  1.0
  C  C194  1  0.838800  0.800200  0.381600  1.0
  C  C195  1  0.338800  0.479400  0.881600  1.0
  C  C196  1  0.300200  0.338800  0.881600  1.0
  C  C197  1  0.479400  0.300200  0.881600  1.0
  C  C198  1  0.199800  0.020600  0.618400  1.0
  C  C199  1  0.020600  0.161200  0.618400  1.0
  C  C200  1  0.161200  0.199800  0.618400  1.0
  C  C201  1  0.620970  0.552970  0.139790  1.0
  C  C202  1  0.686270  0.620970  0.139790  1.0
  C  C203  1  0.552970  0.686270  0.139790  1.0
  C  C204  1  0.813730  0.947030  0.360210  1.0
  C  C205  1  0.947030  0.879030  0.360210  1.0
  C  C206  1  0.879030  0.813730  0.360210  1.0
  C  C207  1  0.379030  0.447030  0.860210  1.0
  C  C208  1  0.313730  0.379030  0.860210  1.0
  C  C209  1  0.447030  0.313730  0.860210  1.0
  C  C210  1  0.186270  0.052970  0.639790  1.0
  C  C211  1  0.052970  0.120970  0.639790  1.0
  C  C212  1  0.120970  0.186270  0.639790  1.0
  C  C213  1  0.656920  0.589720  0.146540  1.0
  C  C214  1  0.606820  0.656920  0.146540  1.0
  C  C215  1  0.589720  0.606820  0.146540  1.0
  C  C216  1  0.893180  0.910280  0.353460  1.0
  C  C217  1  0.910280  0.843080  0.353460  1.0
  C  C218  1  0.843080  0.893180  0.353460  1.0
  C  C219  1  0.343080  0.410280  0.853460  1.0
  C  C220  1  0.393180  0.343080  0.853460  1.0
  C  C221  1  0.410280  0.393180  0.853460  1.0
  C  C222  1  0.106820  0.089720  0.646540  1.0
  C  C223  1  0.089720  0.156920  0.646540  1.0
  C  C224  1  0.156920  0.106820  0.646540  1.0
  C  C225  1  0.715060  0.582860  0.255620  1.0
  C  C226  1  0.446460  0.715060  0.255620  1.0
  C  C227  1  0.582860  0.446460  0.255620  1.0
  C  C228  1  0.053540  0.917140  0.244380  1.0
  C  C229  1  0.917140  0.784940  0.244380  1.0
  C  C230  1  0.784940  0.053540  0.244380  1.0
  C  C231  1  0.284940  0.417140  0.744380  1.0
  C  C232  1  0.553540  0.284940  0.744380  1.0
  C  C233  1  0.417140  0.553540  0.744380  1.0
  C  C234  1  0.946460  0.082860  0.755620  1.0
  C  C235  1  0.082860  0.215060  0.755620  1.0
  C  C236  1  0.215060  0.946460  0.755620  1.0
  C  C237  1  0.676780  0.616080  0.276560  1.0
  C  C238  1  0.430580  0.676780  0.276560  1.0
  C  C239  1  0.616080  0.430580  0.276560  1.0
  C  C240  1  0.069420  0.883920  0.223440  1.0
  C  C241  1  0.883920  0.823220  0.223440  1.0
  C  C242  1  0.823220  0.069420  0.223440  1.0
  C  C243  1  0.323220  0.383920  0.723440  1.0
  C  C244  1  0.569420  0.323220  0.723440  1.0
  C  C245  1  0.383920  0.569420  0.723440  1.0
  C  C246  1  0.930580  0.116080  0.776560  1.0
  C  C247  1  0.116080  0.176780  0.776560  1.0
  C  C248  1  0.176780  0.930580  0.776560  1.0
  C  C249  1  0.707630  0.634630  0.292010  1.0
  C  C250  1  0.365730  0.707630  0.292010  1.0
  C  C251  1  0.634630  0.365730  0.292010  1.0
  C  C252  1  0.134270  0.865370  0.207990  1.0
  C  C253  1  0.865370  0.792370  0.207990  1.0
  C  C254  1  0.792370  0.134270  0.207990  1.0
  C  C255  1  0.292370  0.365370  0.707990  1.0
  C  C256  1  0.634270  0.292370  0.707990  1.0
  C  C257  1  0.365370  0.634270  0.707990  1.0
  C  C258  1  0.865730  0.134630  0.792010  1.0
  C  C259  1  0.134630  0.207630  0.792010  1.0
  C  C260  1  0.207630  0.865730  0.792010  1.0
  C  C261  1  0.783340  0.614040  0.286280  1.0
  C  C262  1  0.316340  0.783340  0.286280  1.0
  C  C263  1  0.614040  0.316340  0.286280  1.0
  C  C264  1  0.183660  0.885960  0.213720  1.0
  C  C265  1  0.885960  0.716660  0.213720  1.0
  C  C266  1  0.716660  0.183660  0.213720  1.0
  C  C267  1  0.216660  0.385960  0.713720  1.0
  C  C268  1  0.683660  0.216660  0.713720  1.0
  C  C269  1  0.385960  0.683660  0.713720  1.0
  C  C270  1  0.816340  0.114040  0.786280  1.0
  C  C271  1  0.114040  0.283340  0.786280  1.0
  C  C272  1  0.283340  0.816340  0.786280  1.0
  C  C273  1  0.824480  0.580880  0.266060  1.0
  C  C274  1  0.328580  0.824480  0.266060  1.0
  C  C275  1  0.580880  0.328580  0.266060  1.0
  C  C276  1  0.171420  0.919120  0.233940  1.0
  C  C277  1  0.919120  0.675520  0.233940  1.0
  C  C278  1  0.675520  0.171420  0.233940  1.0
  C  C279  1  0.175520  0.419120  0.733940  1.0
  C  C280  1  0.671420  0.175520  0.733940  1.0
  C  C281  1  0.419120  0.671420  0.733940  1.0
  C  C282  1  0.828580  0.080880  0.766060  1.0
  C  C283  1  0.080880  0.324480  0.766060  1.0
  C  C284  1  0.324480  0.828580  0.766060  1.0
  C  C285  1  0.790810  0.565410  0.250370  1.0
  C  C286  1  0.393410  0.790810  0.250370  1.0
  C  C287  1  0.565410  0.393410  0.250370  1.0
  C  C288  1  0.106590  0.934590  0.249630  1.0
  C  C289  1  0.934590  0.709190  0.249630  1.0
  C  C290  1  0.709190  0.106590  0.249630  1.0
  C  C291  1  0.209190  0.434590  0.749630  1.0
  C  C292  1  0.606590  0.209190  0.749630  1.0
  C  C293  1  0.434590  0.606590  0.749630  1.0
  C  C294  1  0.893410  0.065410  0.750370  1.0
  C  C295  1  0.065410  0.290810  0.750370  1.0
  C  C296  1  0.290810  0.893410  0.750370  1.0
  C  C297  1  0.835580  0.475280  0.194360  1.0
  C  C298  1  0.494780  0.835580  0.194360  1.0
  C  C299  1  0.475280  0.494780  0.194360  1.0
  C  C300  1  0.005220  0.024720  0.305640  1.0
  C  C301  1  0.024720  0.664420  0.305640  1.0
  C  C302  1  0.664420  0.005220  0.305640  1.0
  C  C303  1  0.164420  0.524720  0.805640  1.0
  C  C304  1  0.505220  0.164420  0.805640  1.0
  C  C305  1  0.524720  0.505220  0.805640  1.0
  C  C306  1  0.994780  0.975280  0.694360  1.0
  C  C307  1  0.975280  0.335580  0.694360  1.0
  C  C308  1  0.335580  0.994780  0.694360  1.0
  C  C309  1  0.907000  0.461100  0.183500  1.0
  C  C310  1  0.448400  0.907000  0.183500  1.0
  C  C311  1  0.461100  0.448400  0.183500  1.0
  C  C312  1  0.051600  0.038900  0.316500  1.0
  C  C313  1  0.038900  0.593000  0.316500  1.0
  C  C314  1  0.593000  0.051600  0.316500  1.0
  C  C315  1  0.093000  0.538900  0.816500  1.0
  C  C316  1  0.551600  0.093000  0.816500  1.0
  C  C317  1  0.538900  0.551600  0.816500  1.0
  C  C318  1  0.948400  0.961100  0.683500  1.0
  C  C319  1  0.961100  0.407000  0.683500  1.0
  C  C320  1  0.407000  0.948400  0.683500  1.0
  C  C321  1  0.937330  0.418830  0.164210  1.0
  C  C322  1  0.479630  0.937330  0.164210  1.0
  C  C323  1  0.418830  0.479630  0.164210  1.0
  C  C324  1  0.020370  0.081170  0.335790  1.0
  C  C325  1  0.081170  0.562670  0.335790  1.0
  C  C326  1  0.562670  0.020370  0.335790  1.0
  C  C327  1  0.062670  0.581170  0.835790  1.0
  C  C328  1  0.520370  0.062670  0.835790  1.0
  C  C329  1  0.581170  0.520370  0.835790  1.0
  C  C330  1  0.979630  0.918830  0.664210  1.0
  C  C331  1  0.918830  0.437330  0.664210  1.0
  C  C332  1  0.437330  0.979630  0.664210  1.0
  C  C333  1  0.901200  0.388100  0.155600  1.0
  C  C334  1  0.555100  0.901200  0.155600  1.0
  C  C335  1  0.388100  0.555100  0.155600  1.0
  C  C336  1  0.944900  0.111900  0.344400  1.0
  C  C337  1  0.111900  0.598800  0.344400  1.0
  C  C338  1  0.598800  0.944900  0.344400  1.0
  C  C339  1  0.098800  0.611900  0.844400  1.0
  C  C340  1  0.444900  0.098800  0.844400  1.0
  C  C341  1  0.611900  0.444900  0.844400  1.0
  C  C342  1  0.055100  0.888100  0.655600  1.0
  C  C343  1  0.888100  0.401200  0.655600  1.0
  C  C344  1  0.401200  0.055100  0.655600  1.0
  C  C345  1  0.828780  0.403680  0.166460  1.0
  C  C346  1  0.601080  0.828780  0.166460  1.0
  C  C347  1  0.403680  0.601080  0.166460  1.0
  C  C348  1  0.898920  0.096320  0.333540  1.0
  C  C349  1  0.096320  0.671220  0.333540  1.0
  C  C350  1  0.671220  0.898920  0.333540  1.0
  C  C351  1  0.171220  0.596320  0.833540  1.0
  C  C352  1  0.398920  0.171220  0.833540  1.0
  C  C353  1  0.596320  0.398920  0.833540  1.0
  C  C354  1  0.101080  0.903680  0.666460  1.0
  C  C355  1  0.903680  0.328780  0.666460  1.0
  C  C356  1  0.328780  0.101080  0.666460  1.0
  C  C357  1  0.795620  0.451720  0.184640  1.0
  C  C358  1  0.568020  0.795620  0.184640  1.0
  C  C359  1  0.451720  0.568020  0.184640  1.0
  C  C360  1  0.931980  0.048280  0.315360  1.0
  C  C361  1  0.048280  0.704380  0.315360  1.0
  C  C362  1  0.704380  0.931980  0.315360  1.0
  C  C363  1  0.204380  0.548280  0.815360  1.0
  C  C364  1  0.431980  0.204380  0.815360  1.0
  C  C365  1  0.548280  0.431980  0.815360  1.0
  C  C366  1  0.068020  0.951720  0.684640  1.0
  C  C367  1  0.951720  0.295620  0.684640  1.0
  C  C368  1  0.295620  0.068020  0.684640  1.0
  C  C369  1  0.719960  0.474260  0.193820  1.0
  C  C370  1  0.611960  0.719960  0.193820  1.0
  C  C371  1  0.474260  0.611960  0.193820  1.0
  C  C372  1  0.888040  0.025740  0.306180  1.0
  C  C373  1  0.025740  0.780040  0.306180  1.0
  C  C374  1  0.780040  0.888040  0.306180  1.0
  C  C375  1  0.280040  0.525740  0.806180  1.0
  C  C376  1  0.388040  0.280040  0.806180  1.0
  C  C377  1  0.525740  0.388040  0.806180  1.0
  C  C378  1  0.111960  0.974260  0.693820  1.0
  C  C379  1  0.974260  0.219960  0.693820  1.0
  C  C380  1  0.219960  0.111960  0.693820  1.0
  C  C381  1  0.679910  0.445310  0.185870  1.0
  C  C382  1  0.688910  0.679910  0.185870  1.0
  C  C383  1  0.445310  0.688910  0.185870  1.0
  C  C384  1  0.811090  0.054690  0.314130  1.0
  C  C385  1  0.054690  0.820090  0.314130  1.0
  C  C386  1  0.820090  0.811090  0.314130  1.0
  C  C387  1  0.320090  0.554690  0.814130  1.0
  C  C388  1  0.311090  0.320090  0.814130  1.0
  C  C389  1  0.554690  0.311090  0.814130  1.0
  C  C390  1  0.188910  0.945310  0.685870  1.0
  C  C391  1  0.945310  0.179910  0.685870  1.0
  C  C392  1  0.179910  0.188910  0.685870  1.0
  C  C393  1  0.716290  0.396490  0.168230  1.0
  C  C394  1  0.718990  0.716290  0.168230  1.0
  C  C395  1  0.396490  0.718990  0.168230  1.0
  C  C396  1  0.781010  0.103510  0.331770  1.0
  C  C397  1  0.103510  0.783710  0.331770  1.0
  C  C398  1  0.783710  0.781010  0.331770  1.0
  C  C399  1  0.283710  0.603510  0.831770  1.0
  C  C400  1  0.281010  0.283710  0.831770  1.0
  C  C401  1  0.603510  0.281010  0.831770  1.0
  C  C402  1  0.218990  0.896490  0.668230  1.0
  C  C403  1  0.896490  0.216290  0.668230  1.0
  C  C404  1  0.216290  0.218990  0.668230  1.0
  C  C405  1  0.790790  0.373090  0.158930  1.0
  C  C406  1  0.677190  0.790790  0.158930  1.0
  C  C407  1  0.373090  0.677190  0.158930  1.0
  C  C408  1  0.822810  0.126910  0.341070  1.0
  C  C409  1  0.126910  0.709210  0.341070  1.0
  C  C410  1  0.709210  0.822810  0.341070  1.0
  C  C411  1  0.209210  0.626910  0.841070  1.0
  C  C412  1  0.322810  0.209210  0.841070  1.0
  C  C413  1  0.626910  0.322810  0.841070  1.0
  C  C414  1  0.177190  0.873090  0.658930  1.0
  C  C415  1  0.873090  0.290790  0.658930  1.0
  C  C416  1  0.290790  0.177190  0.658930  1.0
  C  C417  1  0.868710  0.204510  0.125870  1.0
  C  C418  1  0.800910  0.868710  0.125870  1.0
  C  C419  1  0.204510  0.800910  0.125870  1.0
  C  C420  1  0.699090  0.295490  0.374130  1.0
  C  C421  1  0.295490  0.631290  0.374130  1.0
  C  C422  1  0.631290  0.699090  0.374130  1.0
  C  C423  1  0.131290  0.795490  0.874130  1.0
  C  C424  1  0.199090  0.131290  0.874130  1.0
  C  C425  1  0.795490  0.199090  0.874130  1.0
  C  C426  1  0.300910  0.704510  0.625870  1.0
  C  C427  1  0.704510  0.368710  0.625870  1.0
  C  C428  1  0.368710  0.300910  0.625870  1.0
  C  C429  1  0.862230  0.137830  0.128210  1.0
  C  C430  1  0.871730  0.862230  0.128210  1.0
  C  C431  1  0.137830  0.871730  0.128210  1.0
  C  C432  1  0.628270  0.362170  0.371790  1.0
  C  C433  1  0.362170  0.637770  0.371790  1.0
  C  C434  1  0.637770  0.628270  0.371790  1.0
  C  C435  1  0.137770  0.862170  0.871790  1.0
  C  C436  1  0.128270  0.137770  0.871790  1.0
  C  C437  1  0.862170  0.128270  0.871790  1.0
  C  C438  1  0.371730  0.637830  0.628210  1.0
  C  C439  1  0.637830  0.362230  0.628210  1.0
  C  C440  1  0.362230  0.371730  0.628210  1.0
  C  C441  1  0.904510  0.093110  0.110870  1.0
  C  C442  1  0.891510  0.904510  0.110870  1.0
  C  C443  1  0.093110  0.891510  0.110870  1.0
  C  C444  1  0.608490  0.406890  0.389130  1.0
  C  C445  1  0.406890  0.595490  0.389130  1.0
  C  C446  1  0.595490  0.608490  0.389130  1.0
  C  C447  1  0.095490  0.906890  0.889130  1.0
  C  C448  1  0.108490  0.095490  0.889130  1.0
  C  C449  1  0.906890  0.108490  0.889130  1.0
  C  C450  1  0.391510  0.593110  0.610870  1.0
  C  C451  1  0.593110  0.404510  0.610870  1.0
  C  C452  1  0.404510  0.391510  0.610870  1.0
  C  C453  1  0.948510  0.101810  0.092270  1.0
  C  C454  1  0.857410  0.948510  0.092270  1.0
  C  C455  1  0.101810  0.857410  0.092270  1.0
  C  C456  1  0.642590  0.398190  0.407730  1.0
  C  C457  1  0.398190  0.551490  0.407730  1.0
  C  C458  1  0.551490  0.642590  0.407730  1.0
  C  C459  1  0.051490  0.898190  0.907730  1.0
  C  C460  1  0.142590  0.051490  0.907730  1.0
  C  C461  1  0.898190  0.142590  0.907730  1.0
  C  C462  1  0.357410  0.601810  0.592270  1.0
  C  C463  1  0.601810  0.448510  0.592270  1.0
  C  C464  1  0.448510  0.357410  0.592270  1.0
  C  C465  1  0.954700  0.168900  0.091100  1.0
  C  C466  1  0.785300  0.954700  0.091100  1.0
  C  C467  1  0.168900  0.785300  0.091100  1.0
  C  C468  1  0.714700  0.331100  0.408900  1.0
  C  C469  1  0.331100  0.545300  0.408900  1.0
  C  C470  1  0.545300  0.714700  0.408900  1.0
  C  C471  1  0.045300  0.831100  0.908900  1.0
  C  C472  1  0.214700  0.045300  0.908900  1.0
  C  C473  1  0.831100  0.214700  0.908900  1.0
  C  C474  1  0.285300  0.668900  0.591100  1.0
  C  C475  1  0.668900  0.454700  0.591100  1.0
  C  C476  1  0.454700  0.285300  0.591100  1.0
  C  C477  1  0.913860  0.215060  0.107420  1.0
  C  C478  1  0.763660  0.913860  0.107420  1.0
  C  C479  1  0.215060  0.763660  0.107420  1.0
  C  C480  1  0.736340  0.284940  0.392580  1.0
  C  C481  1  0.284940  0.586140  0.392580  1.0
  C  C482  1  0.586140  0.736340  0.392580  1.0
  C  C483  1  0.086140  0.784940  0.892580  1.0
  C  C484  1  0.236340  0.086140  0.892580  1.0
  C  C485  1  0.784940  0.236340  0.892580  1.0
  C  C486  1  0.263660  0.715060  0.607420  1.0
  C  C487  1  0.715060  0.413860  0.607420  1.0
  C  C488  1  0.413860  0.263660  0.607420  1.0
  C  C489  1  0.053390  0.344890  0.101930  1.0
  C  C490  1  0.499790  0.053390  0.101930  1.0
  C  C491  1  0.344890  0.499790  0.101930  1.0
  C  C492  1  0.000210  0.155110  0.398070  1.0
  C  C493  1  0.155110  0.446610  0.398070  1.0
  C  C494  1  0.446610  0.000210  0.398070  1.0
  C  C495  1  0.946610  0.655110  0.898070  1.0
  C  C496  1  0.500210  0.946610  0.898070  1.0
  C  C497  1  0.655110  0.500210  0.898070  1.0
  C  C498  1  0.999790  0.844890  0.601930  1.0
  C  C499  1  0.844890  0.553390  0.601930  1.0
  C  C500  1  0.553390  0.999790  0.601930  1.0
  C  C501  1  0.102620  0.269020  0.103940  1.0
  C  C502  1  0.524420  0.102620  0.103940  1.0
  C  C503  1  0.269020  0.524420  0.103940  1.0
  C  C504  1  0.975580  0.230980  0.396060  1.0
  C  C505  1  0.230980  0.397380  0.396060  1.0
  C  C506  1  0.397380  0.975580  0.396060  1.0
  C  C507  1  0.897380  0.730980  0.896060  1.0
  C  C508  1  0.475580  0.897380  0.896060  1.0
  C  C509  1  0.730980  0.475580  0.896060  1.0
  C  C510  1  0.024420  0.769020  0.603940  1.0
  C  C511  1  0.769020  0.602620  0.603940  1.0
  C  C512  1  0.602620  0.024420  0.603940  1.0
  C  C513  1  0.169340  0.237540  0.116780  1.0
  C  C514  1  0.476340  0.169340  0.116780  1.0
  C  C515  1  0.237540  0.476340  0.116780  1.0
  C  C516  1  0.023660  0.262460  0.383220  1.0
  C  C517  1  0.262460  0.330660  0.383220  1.0
  C  C518  1  0.330660  0.023660  0.383220  1.0
  C  C519  1  0.830660  0.762460  0.883220  1.0
  C  C520  1  0.523660  0.830660  0.883220  1.0
  C  C521  1  0.762460  0.523660  0.883220  1.0
  C  C522  1  0.976340  0.737540  0.616780  1.0
  C  C523  1  0.737540  0.669340  0.616780  1.0
  C  C524  1  0.669340  0.976340  0.616780  1.0
  C  C525  1  0.179470  0.285870  0.127190  1.0
  C  C526  1  0.407470  0.179470  0.127190  1.0
  C  C527  1  0.285870  0.407470  0.127190  1.0
  C  C528  1  0.092530  0.214130  0.372810  1.0
  C  C529  1  0.214130  0.320530  0.372810  1.0
  C  C530  1  0.320530  0.092530  0.372810  1.0
  C  C531  1  0.820530  0.714130  0.872810  1.0
  C  C532  1  0.592530  0.820530  0.872810  1.0
  C  C533  1  0.714130  0.592530  0.872810  1.0
  C  C534  1  0.907470  0.785870  0.627190  1.0
  C  C535  1  0.785870  0.679470  0.627190  1.0
  C  C536  1  0.679470  0.907470  0.627190  1.0
  C  C537  1  0.131760  0.362160  0.123620  1.0
  C  C538  1  0.382460  0.131760  0.123620  1.0
  C  C539  1  0.362160  0.382460  0.123620  1.0
  C  C540  1  0.117540  0.137840  0.376380  1.0
  C  C541  1  0.137840  0.368240  0.376380  1.0
  C  C542  1  0.368240  0.117540  0.376380  1.0
  C  C543  1  0.868240  0.637840  0.876380  1.0
  C  C544  1  0.617540  0.868240  0.876380  1.0
  C  C545  1  0.637840  0.617540  0.876380  1.0
  C  C546  1  0.882460  0.862160  0.623620  1.0
  C  C547  1  0.862160  0.631760  0.623620  1.0
  C  C548  1  0.631760  0.882460  0.623620  1.0
  C  C549  1  0.070990  0.390890  0.110930  1.0
  C  C550  1  0.427190  0.070990  0.110930  1.0
  C  C551  1  0.390890  0.427190  0.110930  1.0
  C  C552  1  0.072810  0.109110  0.389070  1.0
  C  C553  1  0.109110  0.429010  0.389070  1.0
  C  C554  1  0.429010  0.072810  0.389070  1.0
  C  C555  1  0.929010  0.609110  0.889070  1.0
  C  C556  1  0.572810  0.929010  0.889070  1.0
  C  C557  1  0.609110  0.572810  0.889070  1.0
  C  C558  1  0.927190  0.890890  0.610930  1.0
  C  C559  1  0.890890  0.570990  0.610930  1.0
  C  C560  1  0.570990  0.927190  0.610930  1.0
  C  C561  1  0.945370  0.357670  0.033290  1.0
  C  C562  1  0.663670  0.945370  0.033290  1.0
  C  C563  1  0.357670  0.663670  0.033290  1.0
  C  C564  1  0.836330  0.142330  0.466710  1.0
  C  C565  1  0.142330  0.554630  0.466710  1.0
  C  C566  1  0.554630  0.836330  0.466710  1.0
  C  C567  1  0.054630  0.642330  0.966710  1.0
  C  C568  1  0.336330  0.054630  0.966710  1.0
  C  C569  1  0.642330  0.336330  0.966710  1.0
  C  C570  1  0.163670  0.857670  0.533290  1.0
  C  C571  1  0.857670  0.445370  0.533290  1.0
  C  C572  1  0.445370  0.163670  0.533290  1.0
  C  C573  1  0.027400  0.315900  0.029300  1.0
  C  C574  1  0.627400  0.027400  0.029300  1.0
  C  C575  1  0.315900  0.627400  0.029300  1.0
  C  C576  1  0.872600  0.184100  0.470700  1.0
  C  C577  1  0.184100  0.472600  0.470700  1.0
  C  C578  1  0.472600  0.872600  0.470700  1.0
  C  C579  1  0.972600  0.684100  0.970700  1.0
  C  C580  1  0.372600  0.972600  0.970700  1.0
  C  C581  1  0.684100  0.372600  0.970700  1.0
  C  C582  1  0.127400  0.815900  0.529300  1.0
  C  C583  1  0.815900  0.527400  0.529300  1.0
  C  C584  1  0.527400  0.127400  0.529300  1.0
  C  C585  1  0.061220  0.319120  0.006440  1.0
  C  C586  1  0.613220  0.061220  0.006440  1.0
  C  C587  1  0.319120  0.613220  0.006440  1.0
  C  C588  1  0.886780  0.180880  0.493560  1.0
  C  C589  1  0.180880  0.438780  0.493560  1.0
  C  C590  1  0.438780  0.886780  0.493560  1.0
  C  C591  1  0.938780  0.680880  0.993560  1.0
  C  C592  1  0.386780  0.938780  0.993560  1.0
  C  C593  1  0.680880  0.386780  0.993560  1.0
  C  C594  1  0.113220  0.819120  0.506440  1.0
  C  C595  1  0.819120  0.561220  0.506440  1.0
  C  C596  1  0.561220  0.113220  0.506440  1.0
  C  C597  1  0.016940  0.365640  0.988680  1.0
  C  C598  1  0.628740  0.016940  0.988680  1.0
  C  C599  1  0.365640  0.628740  0.988680  1.0
  C  C600  1  0.871260  0.134360  0.511320  1.0
  C  C601  1  0.134360  0.483060  0.511320  1.0
  C  C602  1  0.483060  0.871260  0.511320  1.0
  C  C603  1  0.983060  0.634360  0.011320  1.0
  C  C604  1  0.371260  0.983060  0.011320  1.0
  C  C605  1  0.634360  0.371260  0.011320  1.0
  C  C606  1  0.128740  0.865640  0.488680  1.0
  C  C607  1  0.865640  0.516940  0.488680  1.0
  C  C608  1  0.516940  0.128740  0.488680  1.0
  C  C609  1  0.937730  0.403530  0.991710  1.0
  C  C610  1  0.667030  0.937730  0.991710  1.0
  C  C611  1  0.403530  0.667030  0.991710  1.0
  C  C612  1  0.832970  0.096470  0.508290  1.0
  C  C613  1  0.096470  0.562270  0.508290  1.0
  C  C614  1  0.562270  0.832970  0.508290  1.0
  C  C615  1  0.062270  0.596470  0.008290  1.0
  C  C616  1  0.332970  0.062270  0.008290  1.0
  C  C617  1  0.596470  0.332970  0.008290  1.0
  C  C618  1  0.167030  0.903530  0.491710  1.0
  C  C619  1  0.903530  0.437730  0.491710  1.0
  C  C620  1  0.437730  0.167030  0.491710  1.0
  C  C621  1  0.902270  0.400770  0.014690  1.0
  C  C622  1  0.682270  0.902270  0.014690  1.0
  C  C623  1  0.400770  0.682270  0.014690  1.0
  C  C624  1  0.817730  0.099230  0.485310  1.0
  C  C625  1  0.099230  0.597730  0.485310  1.0
  C  C626  1  0.597730  0.817730  0.485310  1.0
  C  C627  1  0.097730  0.599230  0.985310  1.0
  C  C628  1  0.317730  0.097730  0.985310  1.0
  C  C629  1  0.599230  0.317730  0.985310  1.0
  C  C630  1  0.182270  0.900770  0.514690  1.0
  C  C631  1  0.900770  0.402270  0.514690  1.0
  C  C632  1  0.402270  0.182270  0.514690  1.0
  C  C633  1  0.582940  0.413540  0.091880  1.0
  C  C634  1  0.911640  0.582940  0.091880  1.0
  C  C635  1  0.413540  0.911640  0.091880  1.0
  C  C636  1  0.588360  0.086460  0.408120  1.0
  C  C637  1  0.086460  0.917060  0.408120  1.0
  C  C638  1  0.917060  0.588360  0.408120  1.0
  C  C639  1  0.417060  0.586460  0.908120  1.0
  C  C640  1  0.088360  0.417060  0.908120  1.0
  C  C641  1  0.586460  0.088360  0.908120  1.0
  C  C642  1  0.411640  0.913540  0.591880  1.0
  C  C643  1  0.913540  0.082940  0.591880  1.0
  C  C644  1  0.082940  0.411640  0.591880  1.0
  C  C645  1  0.633580  0.359180  0.106160  1.0
  C  C646  1  0.901080  0.633580  0.106160  1.0
  C  C647  1  0.359180  0.901080  0.106160  1.0
  C  C648  1  0.598920  0.140820  0.393840  1.0
  C  C649  1  0.140820  0.866420  0.393840  1.0
  C  C650  1  0.866420  0.598920  0.393840  1.0
  C  C651  1  0.366420  0.640820  0.893840  1.0
  C  C652  1  0.098920  0.366420  0.893840  1.0
  C  C653  1  0.640820  0.098920  0.893840  1.0
  C  C654  1  0.401080  0.859180  0.606160  1.0
  C  C655  1  0.859180  0.133580  0.606160  1.0
  C  C656  1  0.133580  0.401080  0.606160  1.0
  C  C657  1  0.711260  0.336460  0.099020  1.0
  C  C658  1  0.853260  0.711260  0.099020  1.0
  C  C659  1  0.336460  0.853260  0.099020  1.0
  C  C660  1  0.646740  0.163540  0.400980  1.0
  C  C661  1  0.163540  0.788740  0.400980  1.0
  C  C662  1  0.788740  0.646740  0.400980  1.0
  C  C663  1  0.288740  0.663540  0.900980  1.0
  C  C664  1  0.146740  0.288740  0.900980  1.0
  C  C665  1  0.663540  0.146740  0.900980  1.0
  C  C666  1  0.353260  0.836460  0.599020  1.0
  C  C667  1  0.836460  0.211260  0.599020  1.0
  C  C668  1  0.211260  0.353260  0.599020  1.0
  C  C669  1  0.735560  0.367260  0.079220  1.0
  C  C670  1  0.817960  0.735560  0.079220  1.0
  C  C671  1  0.367260  0.817960  0.079220  1.0
  C  C672  1  0.682040  0.132740  0.420780  1.0
  C  C673  1  0.132740  0.764440  0.420780  1.0
  C  C674  1  0.764440  0.682040  0.420780  1.0
  C  C675  1  0.264440  0.632740  0.920780  1.0
  C  C676  1  0.182040  0.264440  0.920780  1.0
  C  C677  1  0.632740  0.182040  0.920780  1.0
  C  C678  1  0.317960  0.867260  0.579220  1.0
  C  C679  1  0.867260  0.235560  0.579220  1.0
  C  C680  1  0.235560  0.317960  0.579220  1.0
  C  C681  1  0.683480  0.429580  0.065060  1.0
  C  C682  1  0.821880  0.683480  0.065060  1.0
  C  C683  1  0.429580  0.821880  0.065060  1.0
  C  C684  1  0.678120  0.070420  0.434940  1.0
  C  C685  1  0.070420  0.816520  0.434940  1.0
  C  C686  1  0.816520  0.678120  0.434940  1.0
  C  C687  1  0.316520  0.570420  0.934940  1.0
  C  C688  1  0.178120  0.316520  0.934940  1.0
  C  C689  1  0.570420  0.178120  0.934940  1.0
  C  C690  1  0.321880  0.929580  0.565060  1.0
  C  C691  1  0.929580  0.183480  0.565060  1.0
  C  C692  1  0.183480  0.321880  0.565060  1.0
  C  C693  1  0.604610  0.453210  0.071870  1.0
  C  C694  1  0.870310  0.604610  0.071870  1.0
  C  C695  1  0.453210  0.870310  0.071870  1.0
  C  C696  1  0.629690  0.046790  0.428130  1.0
  C  C697  1  0.046790  0.895390  0.428130  1.0
  C  C698  1  0.895390  0.629690  0.428130  1.0
  C  C699  1  0.395390  0.546790  0.928130  1.0
  C  C700  1  0.129690  0.395390  0.928130  1.0
  C  C701  1  0.546790  0.129690  0.928130  1.0
  C  C702  1  0.370310  0.953210  0.571870  1.0
  C  C703  1  0.953210  0.104610  0.571870  1.0
  C  C704  1  0.104610  0.370310  0.571870  1.0
  C  C705  1  0.704980  0.463480  0.045260  1.0
  C  C706  1  0.786280  0.704980  0.045260  1.0
  C  C707  1  0.463480  0.786280  0.045260  1.0
  C  C708  1  0.713720  0.036520  0.454740  1.0
  C  C709  1  0.036520  0.795020  0.454740  1.0
  C  C710  1  0.795020  0.713720  0.454740  1.0
  C  C711  1  0.295020  0.536520  0.954740  1.0
  C  C712  1  0.213720  0.295020  0.954740  1.0
  C  C713  1  0.536520  0.213720  0.954740  1.0
  C  C714  1  0.286280  0.963480  0.545260  1.0
  C  C715  1  0.963480  0.204980  0.545260  1.0
  C  C716  1  0.204980  0.286280  0.545260  1.0
  C  C717  1  0.551130  0.513330  0.056810  1.0
  C  C718  1  0.878730  0.551130  0.056810  1.0
  C  C719  1  0.513330  0.878730  0.056810  1.0
  C  C720  1  0.621270  0.986670  0.443190  1.0
  C  C721  1  0.986670  0.948870  0.443190  1.0
  C  C722  1  0.948870  0.621270  0.443190  1.0
  C  C723  1  0.448870  0.486670  0.943190  1.0
  C  C724  1  0.121270  0.448870  0.943190  1.0
  C  C725  1  0.486670  0.121270  0.943190  1.0
  C  C726  1  0.378730  0.013330  0.556810  1.0
  C  C727  1  0.013330  0.051130  0.556810  1.0
  C  C728  1  0.051130  0.378730  0.556810  1.0
  C  C729  1  0.650540  0.525740  0.031280  1.0
  C  C730  1  0.792440  0.650540  0.031280  1.0
  C  C731  1  0.525740  0.792440  0.031280  1.0
  C  C732  1  0.707560  0.974260  0.468720  1.0
  C  C733  1  0.974260  0.849460  0.468720  1.0
  C  C734  1  0.849460  0.707560  0.468720  1.0
  C  C735  1  0.349460  0.474260  0.968720  1.0
  C  C736  1  0.207560  0.349460  0.968720  1.0
  C  C737  1  0.474260  0.207560  0.968720  1.0
  C  C738  1  0.292440  0.025740  0.531280  1.0
  C  C739  1  0.025740  0.150540  0.531280  1.0
  C  C740  1  0.150540  0.292440  0.531280  1.0
  C  C741  1  0.573910  0.547310  0.037970  1.0
  C  C742  1  0.840810  0.573910  0.037970  1.0
  C  C743  1  0.547310  0.840810  0.037970  1.0
  C  C744  1  0.659190  0.952690  0.462030  1.0
  C  C745  1  0.952690  0.926090  0.462030  1.0
  C  C746  1  0.926090  0.659190  0.462030  1.0
  C  C747  1  0.426090  0.452690  0.962030  1.0
  C  C748  1  0.159190  0.426090  0.962030  1.0
  C  C749  1  0.452690  0.159190  0.962030  1.0
  C  C750  1  0.340810  0.047310  0.537970  1.0
  C  C751  1  0.047310  0.073910  0.537970  1.0
  C  C752  1  0.073910  0.340810  0.537970  1.0
  C  C753  1  0.819590  0.443390  0.016430  1.0
  C  C754  1  0.720590  0.819590  0.016430  1.0
  C  C755  1  0.443390  0.720590  0.016430  1.0
  C  C756  1  0.779410  0.056610  0.483570  1.0
  C  C757  1  0.056610  0.680410  0.483570  1.0
  C  C758  1  0.680410  0.779410  0.483570  1.0
  C  C759  1  0.180410  0.556610  0.983570  1.0
  C  C760  1  0.279410  0.180410  0.983570  1.0
  C  C761  1  0.556610  0.279410  0.983570  1.0
  C  C762  1  0.220590  0.943390  0.516430  1.0
  C  C763  1  0.943390  0.319590  0.516430  1.0
  C  C764  1  0.319590  0.220590  0.516430  1.0
  C  C765  1  0.830450  0.248150  0.143150  1.0
  C  C766  1  0.778250  0.830450  0.143150  1.0
  C  C767  1  0.248150  0.778250  0.143150  1.0
  C  C768  1  0.721750  0.251850  0.356850  1.0
  C  C769  1  0.251850  0.669550  0.356850  1.0
  C  C770  1  0.669550  0.721750  0.356850  1.0
  C  C771  1  0.169550  0.751850  0.856850  1.0
  C  C772  1  0.221750  0.169550  0.856850  1.0
  C  C773  1  0.751850  0.221750  0.856850  1.0
  C  C774  1  0.278250  0.748150  0.643150  1.0
  C  C775  1  0.748150  0.330450  0.643150  1.0
  C  C776  1  0.330450  0.278250  0.643150  1.0
  C  C777  1  0.841910  0.531310  0.228770  1.0
  C  C778  1  0.398010  0.841910  0.228770  1.0
  C  C779  1  0.531310  0.398010  0.228770  1.0
  C  C780  1  0.101990  0.968690  0.271230  1.0
  C  C781  1  0.968690  0.658090  0.271230  1.0
  C  C782  1  0.658090  0.101990  0.271230  1.0
  C  C783  1  0.158090  0.468690  0.771230  1.0
  C  C784  1  0.601990  0.158090  0.771230  1.0
  C  C785  1  0.468690  0.601990  0.771230  1.0
  C  C786  1  0.898010  0.031310  0.728770  1.0
  C  C787  1  0.031310  0.341910  0.728770  1.0
  C  C788  1  0.341910  0.898010  0.728770  1.0
  C  C789  1  0.022050  0.476550  0.108350  1.0
  C  C790  1  0.393050  0.022050  0.108350  1.0
  C  C791  1  0.476550  0.393050  0.108350  1.0
  C  C792  1  0.106950  0.023450  0.391650  1.0
  C  C793  1  0.023450  0.477950  0.391650  1.0
  C  C794  1  0.477950  0.106950  0.391650  1.0
  C  C795  1  0.977950  0.523450  0.891650  1.0
  C  C796  1  0.606950  0.977950  0.891650  1.0
  C  C797  1  0.523450  0.606950  0.891650  1.0
  C  C798  1  0.893050  0.976550  0.608350  1.0
  C  C799  1  0.976550  0.522050  0.608350  1.0
  C  C800  1  0.522050  0.893050  0.608350  1.0
  Co  Co801  1  0.860533  0.250000  0.250033  1
  Co  Co802  1  0.639433  0.860533  0.250033  1
  Co  Co803  1  0.250000  0.639433  0.250033  1
  Co  Co804  1  0.139467  0.750000  0.749967  1
  Co  Co805  1  0.360567  0.139467  0.749967  1
  Co  Co806  1  0.750000  0.360567  0.749967  1
  Co  Co807  1  0.628640  0.628640  0.114080  1
  Co  Co808  1  0.871360  0.871360  0.385920  1
  Co  Co809  1  0.371360  0.371360  0.885920  1
  Co  Co810  1  0.128640  0.128640  0.614080  1
  H  H811  1  0.897900  0.359200  0.244400  1.0
  H  H812  1  0.498500  0.897900  0.244400  1.0
  H  H813  1  0.359200  0.498500  0.244400  1.0
  H  H814  1  0.001500  0.140800  0.255600  1.0
  H  H815  1  0.140800  0.602100  0.255600  1.0
  H  H816  1  0.602100  0.001500  0.255600  1.0
  H  H817  1  0.102100  0.640800  0.755600  1.0
  H  H818  1  0.501500  0.102100  0.755600  1.0
  H  H819  1  0.640800  0.501500  0.755600  1.0
  H  H820  1  0.998500  0.859200  0.744400  1.0
  H  H821  1  0.859200  0.397900  0.744400  1.0
  H  H822  1  0.397900  0.998500  0.744400  1.0
  H  H823  1  0.760500  0.394300  0.257000  1.0
  H  H824  1  0.588200  0.760500  0.257000  1.0
  H  H825  1  0.394300  0.588200  0.257000  1.0
  H  H826  1  0.911800  0.105700  0.243000  1.0
  H  H827  1  0.105700  0.739500  0.243000  1.0
  H  H828  1  0.739500  0.911800  0.243000  1.0
  H  H829  1  0.239500  0.605700  0.743000  1.0
  H  H830  1  0.411800  0.239500  0.743000  1.0
  H  H831  1  0.605700  0.411800  0.743000  1.0
  H  H832  1  0.088200  0.894300  0.757000  1.0
  H  H833  1  0.894300  0.260500  0.757000  1.0
  H  H834  1  0.260500  0.088200  0.757000  1.0
  H  H835  1  0.724900  0.327100  0.233000  1.0
  H  H836  1  0.715000  0.724900  0.233000  1.0
  H  H837  1  0.327100  0.715000  0.233000  1.0
  H  H838  1  0.785000  0.172900  0.267000  1.0
  H  H839  1  0.172900  0.775100  0.267000  1.0
  H  H840  1  0.775100  0.785000  0.267000  1.0
  H  H841  1  0.275100  0.672900  0.767000  1.0
  H  H842  1  0.285000  0.275100  0.767000  1.0
  H  H843  1  0.672900  0.285000  0.767000  1.0
  H  H844  1  0.215000  0.827100  0.733000  1.0
  H  H845  1  0.827100  0.224900  0.733000  1.0
  H  H846  1  0.224900  0.215000  0.733000  1.0
  H  H847  1  0.840200  0.250900  0.205400  1.0
  H  H848  1  0.703500  0.840200  0.205400  1.0
  H  H849  1  0.250900  0.703500  0.205400  1.0
  H  H850  1  0.796500  0.249100  0.294600  1.0
  H  H851  1  0.249100  0.659800  0.294600  1.0
  H  H852  1  0.659800  0.796500  0.294600  1.0
  H  H853  1  0.159800  0.749100  0.794600  1.0
  H  H854  1  0.296500  0.159800  0.794600  1.0
  H  H855  1  0.749100  0.296500  0.794600  1.0
  H  H856  1  0.203500  0.750900  0.705400  1.0
  H  H857  1  0.750900  0.340200  0.705400  1.0
  H  H858  1  0.340200  0.203500  0.705400  1.0
  H  H859  1  0.947100  0.270700  0.212600  1.0
  H  H860  1  0.569600  0.947100  0.212600  1.0
  H  H861  1  0.270700  0.569600  0.212600  1.0
  H  H862  1  0.930400  0.229300  0.287400  1.0
  H  H863  1  0.229300  0.552900  0.287400  1.0
  H  H864  1  0.552900  0.930400  0.287400  1.0
  H  H865  1  0.052900  0.729300  0.787400  1.0
  H  H866  1  0.430400  0.052900  0.787400  1.0
  H  H867  1  0.729300  0.430400  0.787400  1.0
  H  H868  1  0.069600  0.770700  0.712600  1.0
  H  H869  1  0.770700  0.447100  0.712600  1.0
  H  H870  1  0.447100  0.069600  0.712600  1.0
  H  H871  1  0.678900  0.659700  0.305600  1.0
  H  H872  1  0.355800  0.678900  0.305600  1.0
  H  H873  1  0.659700  0.355800  0.305600  1.0
  H  H874  1  0.144200  0.840300  0.194400  1.0
  H  H875  1  0.840300  0.821100  0.194400  1.0
  H  H876  1  0.821100  0.144200  0.194400  1.0
  H  H877  1  0.321100  0.340300  0.694400  1.0
  H  H878  1  0.644200  0.321100  0.694400  1.0
  H  H879  1  0.340300  0.644200  0.694400  1.0
  H  H880  1  0.855800  0.159700  0.805600  1.0
  H  H881  1  0.159700  0.178900  0.805600  1.0
  H  H882  1  0.178900  0.855800  0.805600  1.0
  H  H883  1  0.808000  0.623300  0.296600  1.0
  H  H884  1  0.272100  0.808000  0.296600  1.0
  H  H885  1  0.623300  0.272100  0.296600  1.0
  H  H886  1  0.227900  0.876700  0.203400  1.0
  H  H887  1  0.876700  0.692000  0.203400  1.0
  H  H888  1  0.692000  0.227900  0.203400  1.0
  H  H889  1  0.192000  0.376700  0.703400  1.0
  H  H890  1  0.727900  0.192000  0.703400  1.0
  H  H891  1  0.376700  0.727900  0.703400  1.0
  H  H892  1  0.772100  0.123300  0.796600  1.0
  H  H893  1  0.123300  0.308000  0.796600  1.0
  H  H894  1  0.308000  0.772100  0.796600  1.0
  H  H895  1  0.876300  0.568400  0.262700  1.0
  H  H896  1  0.292600  0.876300  0.262700  1.0
  H  H897  1  0.568400  0.292600  0.262700  1.0
  H  H898  1  0.207400  0.931600  0.237300  1.0
  H  H899  1  0.931600  0.623700  0.237300  1.0
  H  H900  1  0.623700  0.207400  0.237300  1.0
  H  H901  1  0.123700  0.431600  0.737300  1.0
  H  H902  1  0.707400  0.123700  0.737300  1.0
  H  H903  1  0.431600  0.707400  0.737300  1.0
  H  H904  1  0.792600  0.068400  0.762700  1.0
  H  H905  1  0.068400  0.376300  0.762700  1.0
  H  H906  1  0.376300  0.792600  0.762700  1.0
  H  H907  1  0.934500  0.479900  0.189200  1.0
  H  H908  1  0.396400  0.934500  0.189200  1.0
  H  H909  1  0.479900  0.396400  0.189200  1.0
  H  H910  1  0.103600  0.020100  0.310800  1.0
  H  H911  1  0.020100  0.565500  0.310800  1.0
  H  H912  1  0.565500  0.103600  0.310800  1.0
  H  H913  1  0.065500  0.520100  0.810800  1.0
  H  H914  1  0.603600  0.065500  0.810800  1.0
  H  H915  1  0.520100  0.603600  0.810800  1.0
  H  H916  1  0.896400  0.979900  0.689200  1.0
  H  H917  1  0.979900  0.434500  0.689200  1.0
  H  H918  1  0.434500  0.896400  0.689200  1.0
  H  H919  1  0.985400  0.410800  0.156500  1.0
  H  H920  1  0.447300  0.985400  0.156500  1.0
  H  H921  1  0.410800  0.447300  0.156500  1.0
  H  H922  1  0.052700  0.089200  0.343500  1.0
  H  H923  1  0.089200  0.514600  0.343500  1.0
  H  H924  1  0.514600  0.052700  0.343500  1.0
  H  H925  1  0.014600  0.589200  0.843500  1.0
  H  H926  1  0.552700  0.014600  0.843500  1.0
  H  H927  1  0.589200  0.552700  0.843500  1.0
  H  H928  1  0.947300  0.910800  0.656500  1.0
  H  H929  1  0.910800  0.485400  0.656500  1.0
  H  H930  1  0.485400  0.947300  0.656500  1.0
  H  H931  1  0.924300  0.357700  0.143000  1.0
  H  H932  1  0.575000  0.924300  0.143000  1.0
  H  H933  1  0.357700  0.575000  0.143000  1.0
  H  H934  1  0.925000  0.142300  0.357000  1.0
  H  H935  1  0.142300  0.575700  0.357000  1.0
  H  H936  1  0.575700  0.925000  0.357000  1.0
  H  H937  1  0.075700  0.642300  0.857000  1.0
  H  H938  1  0.425000  0.075700  0.857000  1.0
  H  H939  1  0.642300  0.425000  0.857000  1.0
  H  H940  1  0.075000  0.857700  0.643000  1.0
  H  H941  1  0.857700  0.424300  0.643000  1.0
  H  H942  1  0.424300  0.075000  0.643000  1.0
  H  H943  1  0.696100  0.509100  0.205400  1.0
  H  H944  1  0.589400  0.696100  0.205400  1.0
  H  H945  1  0.509100  0.589400  0.205400  1.0
  H  H946  1  0.910600  0.990900  0.294600  1.0
  H  H947  1  0.990900  0.803900  0.294600  1.0
  H  H948  1  0.803900  0.910600  0.294600  1.0
  H  H949  1  0.303900  0.490900  0.794600  1.0
  H  H950  1  0.410600  0.303900  0.794600  1.0
  H  H951  1  0.490900  0.410600  0.794600  1.0
  H  H952  1  0.089400  0.009100  0.705400  1.0
  H  H953  1  0.009100  0.196100  0.705400  1.0
  H  H954  1  0.196100  0.089400  0.705400  1.0
  H  H955  1  0.629500  0.458500  0.192200  1.0
  H  H956  1  0.719800  0.629500  0.192200  1.0
  H  H957  1  0.458500  0.719800  0.192200  1.0
  H  H958  1  0.780200  0.041500  0.307800  1.0
  H  H959  1  0.041500  0.870500  0.307800  1.0
  H  H960  1  0.870500  0.780200  0.307800  1.0
  H  H961  1  0.370500  0.541500  0.807800  1.0
  H  H962  1  0.280200  0.370500  0.807800  1.0
  H  H963  1  0.541500  0.280200  0.807800  1.0
  H  H964  1  0.219800  0.958500  0.692200  1.0
  H  H965  1  0.958500  0.129500  0.692200  1.0
  H  H966  1  0.129500  0.219800  0.692200  1.0
  H  H967  1  0.688700  0.378400  0.162200  1.0
  H  H968  1  0.770700  0.688700  0.162200  1.0
  H  H969  1  0.378400  0.770700  0.162200  1.0
  H  H970  1  0.729300  0.121600  0.337800  1.0
  H  H971  1  0.121600  0.811300  0.337800  1.0
  H  H972  1  0.811300  0.729300  0.337800  1.0
  H  H973  1  0.311300  0.621600  0.837800  1.0
  H  H974  1  0.229300  0.311300  0.837800  1.0
  H  H975  1  0.621600  0.229300  0.837800  1.0
  H  H976  1  0.270700  0.878400  0.662200  1.0
  H  H977  1  0.878400  0.188700  0.662200  1.0
  H  H978  1  0.188700  0.270700  0.662200  1.0
  H  H979  1  0.831400  0.126100  0.140600  1.0
  H  H980  1  0.901900  0.831400  0.140600  1.0
  H  H981  1  0.126100  0.901900  0.140600  1.0
  H  H982  1  0.598100  0.373900  0.359400  1.0
  H  H983  1  0.373900  0.668600  0.359400  1.0
  H  H984  1  0.668600  0.598100  0.359400  1.0
  H  H985  1  0.168600  0.873900  0.859400  1.0
  H  H986  1  0.098100  0.168600  0.859400  1.0
  H  H987  1  0.873900  0.098100  0.859400  1.0
  H  H988  1  0.401900  0.626100  0.640600  1.0
  H  H989  1  0.626100  0.331400  0.640600  1.0
  H  H990  1  0.331400  0.401900  0.640600  1.0
  H  H991  1  0.902300  0.047400  0.112400  1.0
  H  H992  1  0.937900  0.902300  0.112400  1.0
  H  H993  1  0.047400  0.937900  0.112400  1.0
  H  H994  1  0.562100  0.452600  0.387600  1.0
  H  H995  1  0.452600  0.597700  0.387600  1.0
  H  H996  1  0.597700  0.562100  0.387600  1.0
  H  H997  1  0.097700  0.952600  0.887600  1.0
  H  H998  1  0.062100  0.097700  0.887600  1.0
  H  H999  1  0.952600  0.062100  0.887600  1.0
  H  H1000  1  0.437900  0.547400  0.612400  1.0
  H  H1001  1  0.547400  0.402300  0.612400  1.0
  H  H1002  1  0.402300  0.437900  0.612400  1.0
  H  H1003  1  0.973600  0.066800  0.080900  1.0
  H  H1004  1  0.878700  0.973600  0.080900  1.0
  H  H1005  1  0.066800  0.878700  0.080900  1.0
  H  H1006  1  0.621300  0.433200  0.419100  1.0
  H  H1007  1  0.433200  0.526400  0.419100  1.0
  H  H1008  1  0.526400  0.621300  0.419100  1.0
  H  H1009  1  0.026400  0.933200  0.919100  1.0
  H  H1010  1  0.121300  0.026400  0.919100  1.0
  H  H1011  1  0.933200  0.121300  0.919100  1.0
  H  H1012  1  0.378700  0.566800  0.580900  1.0
  H  H1013  1  0.566800  0.473600  0.580900  1.0
  H  H1014  1  0.473600  0.378700  0.580900  1.0
  H  H1015  1  0.204400  0.185100  0.117800  1.0
  H  H1016  1  0.492700  0.204400  0.117800  1.0
  H  H1017  1  0.185100  0.492700  0.117800  1.0
  H  H1018  1  0.007300  0.314900  0.382200  1.0
  H  H1019  1  0.314900  0.295600  0.382200  1.0
  H  H1020  1  0.295600  0.007300  0.382200  1.0
  H  H1021  1  0.795600  0.814900  0.882200  1.0
  H  H1022  1  0.507300  0.795600  0.882200  1.0
  H  H1023  1  0.814900  0.507300  0.882200  1.0
  H  H1024  1  0.992700  0.685100  0.617800  1.0
  H  H1025  1  0.685100  0.704400  0.617800  1.0
  H  H1026  1  0.704400  0.992700  0.617800  1.0
  H  H1027  1  0.219300  0.266800  0.137000  1.0
  H  H1028  1  0.376900  0.219300  0.137000  1.0
  H  H1029  1  0.266800  0.376900  0.137000  1.0
  H  H1030  1  0.123100  0.233200  0.363000  1.0
  H  H1031  1  0.233200  0.280700  0.363000  1.0
  H  H1032  1  0.280700  0.123100  0.363000  1.0
  H  H1033  1  0.780700  0.733200  0.863000  1.0
  H  H1034  1  0.623100  0.780700  0.863000  1.0
  H  H1035  1  0.733200  0.623100  0.863000  1.0
  H  H1036  1  0.876900  0.766800  0.637000  1.0
  H  H1037  1  0.766800  0.719300  0.637000  1.0
  H  H1038  1  0.719300  0.876900  0.637000  1.0
  H  H1039  1  0.141000  0.395900  0.130100  1.0
  H  H1040  1  0.333000  0.141000  0.130100  1.0
  H  H1041  1  0.395900  0.333000  0.130100  1.0
  H  H1042  1  0.167000  0.104100  0.369900  1.0
  H  H1043  1  0.104100  0.359000  0.369900  1.0
  H  H1044  1  0.359000  0.167000  0.369900  1.0
  H  H1045  1  0.859000  0.604100  0.869900  1.0
  H  H1046  1  0.667000  0.859000  0.869900  1.0
  H  H1047  1  0.604100  0.667000  0.869900  1.0
  H  H1048  1  0.833000  0.895900  0.630100  1.0
  H  H1049  1  0.895900  0.641000  0.630100  1.0
  H  H1050  1  0.641000  0.833000  0.630100  1.0
  H  H1051  1  0.114500  0.289600  0.002900  1.0
  H  H1052  1  0.593000  0.114500  0.002900  1.0
  H  H1053  1  0.289600  0.593000  0.002900  1.0
  H  H1054  1  0.907000  0.210400  0.497100  1.0
  H  H1055  1  0.210400  0.385500  0.497100  1.0
  H  H1056  1  0.385500  0.907000  0.497100  1.0
  H  H1057  1  0.885500  0.710400  0.997100  1.0
  H  H1058  1  0.407000  0.885500  0.997100  1.0
  H  H1059  1  0.710400  0.407000  0.997100  1.0
  H  H1060  1  0.093000  0.789600  0.502900  1.0
  H  H1061  1  0.789600  0.614500  0.502900  1.0
  H  H1062  1  0.614500  0.093000  0.502900  1.0
  H  H1063  1  0.041500  0.372300  0.973500  1.0
  H  H1064  1  0.612700  0.041500  0.973500  1.0
  H  H1065  1  0.372300  0.612700  0.973500  1.0
  H  H1066  1  0.887300  0.127700  0.526500  1.0
  H  H1067  1  0.127700  0.458500  0.526500  1.0
  H  H1068  1  0.458500  0.887300  0.526500  1.0
  H  H1069  1  0.958500  0.627700  0.026500  1.0
  H  H1070  1  0.387300  0.958500  0.026500  1.0
  H  H1071  1  0.627700  0.387300  0.026500  1.0
  H  H1072  1  0.112700  0.872300  0.473500  1.0
  H  H1073  1  0.872300  0.541500  0.473500  1.0
  H  H1074  1  0.541500  0.112700  0.473500  1.0
  H  H1075  1  0.909100  0.430100  0.978600  1.0
  H  H1076  1  0.682200  0.909100  0.978600  1.0
  H  H1077  1  0.430100  0.682200  0.978600  1.0
  H  H1078  1  0.817800  0.069900  0.521400  1.0
  H  H1079  1  0.069900  0.590900  0.521400  1.0
  H  H1080  1  0.590900  0.817800  0.521400  1.0
  H  H1081  1  0.090900  0.569900  0.021400  1.0
  H  H1082  1  0.317800  0.090900  0.021400  1.0
  H  H1083  1  0.569900  0.317800  0.021400  1.0
  H  H1084  1  0.182200  0.930100  0.478600  1.0
  H  H1085  1  0.930100  0.409100  0.478600  1.0
  H  H1086  1  0.409100  0.182200  0.478600  1.0
  H  H1087  1  0.617900  0.337000  0.120500  1.0
  H  H1088  1  0.924600  0.617900  0.120500  1.0
  H  H1089  1  0.337000  0.924600  0.120500  1.0
  H  H1090  1  0.575400  0.163000  0.379500  1.0
  H  H1091  1  0.163000  0.882100  0.379500  1.0
  H  H1092  1  0.882100  0.575400  0.379500  1.0
  H  H1093  1  0.382100  0.663000  0.879500  1.0
  H  H1094  1  0.075400  0.382100  0.879500  1.0
  H  H1095  1  0.663000  0.075400  0.879500  1.0
  H  H1096  1  0.424600  0.837000  0.620500  1.0
  H  H1097  1  0.837000  0.117900  0.620500  1.0
  H  H1098  1  0.117900  0.424600  0.620500  1.0
  H  H1099  1  0.747800  0.297700  0.108800  1.0
  H  H1100  1  0.845700  0.747800  0.108800  1.0
  H  H1101  1  0.297700  0.845700  0.108800  1.0
  H  H1102  1  0.654300  0.202300  0.391200  1.0
  H  H1103  1  0.202300  0.752200  0.391200  1.0
  H  H1104  1  0.752200  0.654300  0.391200  1.0
  H  H1105  1  0.252200  0.702300  0.891200  1.0
  H  H1106  1  0.154300  0.252200  0.891200  1.0
  H  H1107  1  0.702300  0.154300  0.891200  1.0
  H  H1108  1  0.345700  0.797700  0.608800  1.0
  H  H1109  1  0.797700  0.247800  0.608800  1.0
  H  H1110  1  0.247800  0.345700  0.608800  1.0
  H  H1111  1  0.788300  0.347000  0.074600  1.0
  H  H1112  1  0.790100  0.788300  0.074600  1.0
  H  H1113  1  0.347000  0.790100  0.074600  1.0
  H  H1114  1  0.709900  0.153000  0.425400  1.0
  H  H1115  1  0.153000  0.711700  0.425400  1.0
  H  H1116  1  0.711700  0.709900  0.425400  1.0
  H  H1117  1  0.211700  0.653000  0.925400  1.0
  H  H1118  1  0.209900  0.211700  0.925400  1.0
  H  H1119  1  0.653000  0.209900  0.925400  1.0
  H  H1120  1  0.290100  0.847000  0.574600  1.0
  H  H1121  1  0.847000  0.288300  0.574600  1.0
  H  H1122  1  0.288300  0.290100  0.574600  1.0
  H  H1123  1  0.498800  0.528700  0.060500  1.0
  H  H1124  1  0.912000  0.498800  0.060500  1.0
  H  H1125  1  0.528700  0.912000  0.060500  1.0
  H  H1126  1  0.588000  0.971300  0.439500  1.0
  H  H1127  1  0.971300  0.001200  0.439500  1.0
  H  H1128  1  0.001200  0.588000  0.439500  1.0
  H  H1129  1  0.501200  0.471300  0.939500  1.0
  H  H1130  1  0.088000  0.501200  0.939500  1.0
  H  H1131  1  0.471300  0.088000  0.939500  1.0
  H  H1132  1  0.412000  0.028700  0.560500  1.0
  H  H1133  1  0.028700  0.998800  0.560500  1.0
  H  H1134  1  0.998800  0.412000  0.560500  1.0
  H  H1135  1  0.537200  0.587500  0.028700  1.0
  H  H1136  1  0.846600  0.537200  0.028700  1.0
  H  H1137  1  0.587500  0.846600  0.028700  1.0
  H  H1138  1  0.653400  0.912500  0.471300  1.0
  H  H1139  1  0.912500  0.962800  0.471300  1.0
  H  H1140  1  0.962800  0.653400  0.471300  1.0
  H  H1141  1  0.462800  0.412500  0.971300  1.0
  H  H1142  1  0.153400  0.462800  0.971300  1.0
  H  H1143  1  0.412500  0.153400  0.971300  1.0
  H  H1144  1  0.346600  0.087500  0.528700  1.0
  H  H1145  1  0.087500  0.037200  0.528700  1.0
  H  H1146  1  0.037200  0.346600  0.528700  1.0
  H  H1147  1  0.471600  0.484300  0.094100  1.0
  H  H1148  1  0.950000  0.471600  0.094100  1.0
  H  H1149  1  0.484300  0.950000  0.094100  1.0
  H  H1150  1  0.550000  0.015700  0.405900  1.0
  H  H1151  1  0.015700  0.028400  0.405900  1.0
  H  H1152  1  0.028400  0.550000  0.405900  1.0
  H  H1153  1  0.528400  0.515700  0.905900  1.0
  H  H1154  1  0.050000  0.528400  0.905900  1.0
  H  H1155  1  0.515700  0.050000  0.905900  1.0
  H  H1156  1  0.450000  0.984300  0.594100  1.0
  H  H1157  1  0.984300  0.971600  0.594100  1.0
  H  H1158  1  0.971600  0.450000  0.594100  1.0
  H  H1159  1  0.813900  0.415700  0.049100  1.0
  H  H1160  1  0.721300  0.813900  0.049100  1.0
  H  H1161  1  0.415700  0.721300  0.049100  1.0
  H  H1162  1  0.778700  0.084300  0.450900  1.0
  H  H1163  1  0.084300  0.686100  0.450900  1.0
  H  H1164  1  0.686100  0.778700  0.450900  1.0
  H  H1165  1  0.186100  0.584300  0.950900  1.0
  H  H1166  1  0.278700  0.186100  0.950900  1.0
  H  H1167  1  0.584300  0.278700  0.950900  1.0
  H  H1168  1  0.221300  0.915700  0.549100  1.0
  H  H1169  1  0.915700  0.313900  0.549100  1.0
  H  H1170  1  0.313900  0.221300  0.549100  1.0
  H  H1171  1  0.851500  0.326700  0.131600  1.0
  H  H1172  1  0.690200  0.851500  0.131600  1.0
  H  H1173  1  0.326700  0.690200  0.131600  1.0
  H  H1174  1  0.809800  0.173300  0.368400  1.0
  H  H1175  1  0.173300  0.648500  0.368400  1.0
  H  H1176  1  0.648500  0.809800  0.368400  1.0
  H  H1177  1  0.148500  0.673300  0.868400  1.0
  H  H1178  1  0.309800  0.148500  0.868400  1.0
  H  H1179  1  0.673300  0.309800  0.868400  1.0
  H  H1180  1  0.190200  0.826700  0.631600  1.0
  H  H1181  1  0.826700  0.351500  0.631600  1.0
  H  H1182  1  0.351500  0.190200  0.631600  1.0
  H  H1183  1  0.757500  0.528500  0.218300  1.0
  H  H1184  1  0.495700  0.757500  0.218300  1.0
  H  H1185  1  0.528500  0.495700  0.218300  1.0
  H  H1186  1  0.004300  0.971500  0.281700  1.0
  H  H1187  1  0.971500  0.742500  0.281700  1.0
  H  H1188  1  0.742500  0.004300  0.281700  1.0
  H  H1189  1  0.242500  0.471500  0.781700  1.0
  H  H1190  1  0.504300  0.242500  0.781700  1.0
  H  H1191  1  0.471500  0.504300  0.781700  1.0
  H  H1192  1  0.995700  0.028500  0.718300  1.0
  H  H1193  1  0.028500  0.257500  0.718300  1.0
  H  H1194  1  0.257500  0.995700  0.718300  1.0
  N  N1195  1  0.923500  0.357500  0.922500  1
  N  N1196  1  0.796500  0.923500  0.922500  1
  N  N1197  1  0.357500  0.796500  0.922500  1
  N  N1198  1  0.703500  0.142500  0.577500  1
  N  N1199  1  0.142500  0.576500  0.577500  1
  N  N1200  1  0.576500  0.703500  0.577500  1
  N  N1201  1  0.076500  0.642500  0.077500  1
  N  N1202  1  0.203500  0.076500  0.077500  1
  N  N1203  1  0.642500  0.203500  0.077500  1
  N  N1204  1  0.296500  0.857500  0.422500  1
  N  N1205  1  0.857500  0.423500  0.422500  1
  N  N1206  1  0.423500  0.296500  0.422500  1
  N  N1207  1  0.701000  0.703000  0.948000  1
  N  N1208  1  0.648000  0.701000  0.948000  1
  N  N1209  1  0.703000  0.648000  0.948000  1
  N  N1210  1  0.852000  0.797000  0.552000  1
  N  N1211  1  0.797000  0.799000  0.552000  1
  N  N1212  1  0.799000  0.852000  0.552000  1
  N  N1213  1  0.299000  0.297000  0.052000  1
  N  N1214  1  0.352000  0.299000  0.052000  1
  N  N1215  1  0.297000  0.352000  0.052000  1
  N  N1216  1  0.148000  0.203000  0.448000  1
  N  N1217  1  0.203000  0.201000  0.448000  1
  N  N1218  1  0.201000  0.148000  0.448000  1
  N  N1219  1  0.503950  0.436650  0.097850  1.0
  N  N1220  1  0.961550  0.503950  0.097850  1.0
  N  N1221  1  0.436650  0.961550  0.097850  1.0
  N  N1222  1  0.538450  0.063350  0.402150  1.0
  N  N1223  1  0.063350  0.996050  0.402150  1.0
  N  N1224  1  0.996050  0.538450  0.402150  1.0
  N  N1225  1  0.496050  0.563350  0.902150  1.0
  N  N1226  1  0.038450  0.496050  0.902150  1.0
  N  N1227  1  0.563350  0.038450  0.902150  1.0
  N  N1228  1  0.461550  0.936650  0.597850  1.0
  N  N1229  1  0.936650  0.003950  0.597850  1.0
  N  N1230  1  0.003950  0.461550  0.597850  1.0
  N  N1231  1  0.784090  0.438290  0.037730  1.0
  N  N1232  1  0.739890  0.784090  0.037730  1.0
  N  N1233  1  0.438290  0.739890  0.037730  1.0
  N  N1234  1  0.760110  0.061710  0.462270  1.0
  N  N1235  1  0.061710  0.715910  0.462270  1.0
  N  N1236  1  0.715910  0.760110  0.462270  1.0
  N  N1237  1  0.215910  0.561710  0.962270  1.0
  N  N1238  1  0.260110  0.215910  0.962270  1.0
  N  N1239  1  0.561710  0.260110  0.962270  1.0
  N  N1240  1  0.239890  0.938290  0.537730  1.0
  N  N1241  1  0.938290  0.284090  0.537730  1.0
  N  N1242  1  0.284090  0.239890  0.537730  1.0
  N  N1243  1  0.825460  0.315660  0.144020  1.0
  N  N1244  1  0.714860  0.825460  0.144020  1.0
  N  N1245  1  0.315660  0.714860  0.144020  1.0
  N  N1246  1  0.785140  0.184340  0.355980  1.0
  N  N1247  1  0.184340  0.674540  0.355980  1.0
  N  N1248  1  0.674540  0.785140  0.355980  1.0
  N  N1249  1  0.174540  0.684340  0.855980  1.0
  N  N1250  1  0.285140  0.174540  0.855980  1.0
  N  N1251  1  0.684340  0.285140  0.855980  1.0
  N  N1252  1  0.214860  0.815660  0.644020  1.0
  N  N1253  1  0.815660  0.325460  0.644020  1.0
  N  N1254  1  0.325460  0.214860  0.644020  1.0
  N  N1255  1  0.805770  0.513270  0.214190  1.0
  N  N1256  1  0.466770  0.805770  0.214190  1.0
  N  N1257  1  0.513270  0.466770  0.214190  1.0
  N  N1258  1  0.033230  0.986730  0.285810  1.0
  N  N1259  1  0.986730  0.694230  0.285810  1.0
  N  N1260  1  0.694230  0.033230  0.285810  1.0
  N  N1261  1  0.194230  0.486730  0.785810  1.0
  N  N1262  1  0.533230  0.194230  0.785810  1.0
  N  N1263  1  0.486730  0.533230  0.785810  1.0
  N  N1264  1  0.966770  0.013270  0.714190  1.0
  N  N1265  1  0.013270  0.305770  0.714190  1.0
  N  N1266  1  0.305770  0.966770  0.714190  1.0
  O  O1267  1  0.886400  0.566400  0.955800  1
  O  O1268  1  0.591400  0.886400  0.955800  1
  O  O1269  1  0.566400  0.591400  0.955800  1
  O  O1270  1  0.908600  0.933600  0.544200  1
  O  O1271  1  0.933600  0.613600  0.544200  1
  O  O1272  1  0.613600  0.908600  0.544200  1
  O  O1273  1  0.113600  0.433600  0.044200  1
  O  O1274  1  0.408600  0.113600  0.044200  1
  O  O1275  1  0.433600  0.408600  0.044200  1
  O  O1276  1  0.091400  0.066400  0.455800  1
  O  O1277  1  0.066400  0.386400  0.455800  1
  O  O1278  1  0.386400  0.091400  0.455800  1
  O  O1279  1  0.082720  0.096220  0.168740  1
  O  O1280  1  0.652320  0.082720  0.168740  1
  O  O1281  1  0.096220  0.652320  0.168740  1
  O  O1282  1  0.847680  0.403780  0.331260  1
  O  O1283  1  0.403780  0.417280  0.331260  1
  O  O1284  1  0.417280  0.847680  0.331260  1
  O  O1285  1  0.917280  0.903780  0.831260  1
  O  O1286  1  0.347680  0.917280  0.831260  1
  O  O1287  1  0.903780  0.347680  0.831260  1
  O  O1288  1  0.152320  0.596220  0.668740  1
  O  O1289  1  0.596220  0.582720  0.668740  1
  O  O1290  1  0.582720  0.152320  0.668740  1
  O  O1291  1  0.050500  0.119500  0.204500  1
  O  O1292  1  0.625500  0.050500  0.204500  1
  O  O1293  1  0.119500  0.625500  0.204500  1
  O  O1294  1  0.874500  0.380500  0.295500  1
  O  O1295  1  0.380500  0.449500  0.295500  1
  O  O1296  1  0.449500  0.874500  0.295500  1
  O  O1297  1  0.949500  0.880500  0.795500  1
  O  O1298  1  0.374500  0.949500  0.795500  1
  O  O1299  1  0.880500  0.374500  0.795500  1
  O  O1300  1  0.125500  0.619500  0.704500  1
  O  O1301  1  0.619500  0.550500  0.704500  1
  O  O1302  1  0.550500  0.125500  0.704500  1
  O  O1303  1  0.012300  0.045300  0.169100  1
  O  O1304  1  0.773300  0.012300  0.169100  1
  O  O1305  1  0.045300  0.773300  0.169100  1
  O  O1306  1  0.726700  0.454700  0.330900  1
  O  O1307  1  0.454700  0.487700  0.330900  1
  O  O1308  1  0.487700  0.726700  0.330900  1
  O  O1309  1  0.987700  0.954700  0.830900  1
  O  O1310  1  0.226700  0.987700  0.830900  1
  O  O1311  1  0.954700  0.226700  0.830900  1
  O  O1312  1  0.273300  0.545300  0.669100  1
  O  O1313  1  0.545300  0.512300  0.669100  1
  O  O1314  1  0.512300  0.273300  0.669100  1
  O  O1315  1  0.905200  0.507200  0.331400  1
  O  O1316  1  0.256200  0.905200  0.331400  1
  O  O1317  1  0.507200  0.256200  0.331400  1
  O  O1318  1  0.243800  0.992800  0.168600  1
  O  O1319  1  0.992800  0.594800  0.168600  1
  O  O1320  1  0.594800  0.243800  0.168600  1
  O  O1321  1  0.094800  0.492800  0.668600  1
  O  O1322  1  0.743800  0.094800  0.668600  1
  O  O1323  1  0.492800  0.743800  0.668600  1
  O  O1324  1  0.756200  0.007200  0.831400  1
  O  O1325  1  0.007200  0.405200  0.831400  1
  O  O1326  1  0.405200  0.756200  0.831400  1
  O  O1327  1  0.274567  0.274533  0.176300  1
  O  O1328  1  0.225400  0.225467  0.323700  1
  O  O1329  1  0.725433  0.725467  0.823700  1
  O  O1330  1  0.774600  0.774533  0.676300  1
  O  O1331  1  0.555900  0.555900  0.332300  1
  O  O1332  1  0.944100  0.944100  0.167700  1
  O  O1333  1  0.444100  0.444100  0.667700  1
  O  O1334  1  0.055900  0.055900  0.832300  1
  O  O1335  1  0.773000  0.493000  0.954000  1
  O  O1336  1  0.780000  0.773000  0.954000  1
  O  O1337  1  0.493000  0.780000  0.954000  1
  O  O1338  1  0.720000  0.007000  0.546000  1
  O  O1339  1  0.007000  0.727000  0.546000  1
  O  O1340  1  0.727000  0.720000  0.546000  1
  O  O1341  1  0.227000  0.507000  0.046000  1
  O  O1342  1  0.220000  0.227000  0.046000  1
  O  O1343  1  0.507000  0.220000  0.046000  1
  O  O1344  1  0.280000  0.993000  0.454000  1
  O  O1345  1  0.993000  0.273000  0.454000  1
  O  O1346  1  0.273000  0.280000  0.454000  1
  O  O1347  1  0.879400  0.870400  0.027800  1
  O  O1348  1  0.222400  0.879400  0.027800  1
  O  O1349  1  0.870400  0.222400  0.027800  1
  O  O1350  1  0.277600  0.629600  0.472200  1
  O  O1351  1  0.629600  0.620600  0.472200  1
  O  O1352  1  0.620600  0.277600  0.472200  1
  O  O1353  1  0.120600  0.129600  0.972200  1
  O  O1354  1  0.777600  0.120600  0.972200  1
  O  O1355  1  0.129600  0.777600  0.972200  1
  O  O1356  1  0.722400  0.370400  0.527800  1
  O  O1357  1  0.370400  0.379400  0.527800  1
  O  O1358  1  0.379400  0.722400  0.527800  1
  O  O1359  1  0.831600  0.522600  0.348200  1
  O  O1360  1  0.297600  0.831600  0.348200  1
  O  O1361  1  0.522600  0.297600  0.348200  1
  O  O1362  1  0.202400  0.977400  0.151800  1
  O  O1363  1  0.977400  0.668400  0.151800  1
  O  O1364  1  0.668400  0.202400  0.151800  1
  O  O1365  1  0.168400  0.477400  0.651800  1
  O  O1366  1  0.702400  0.168400  0.651800  1
  O  O1367  1  0.477400  0.702400  0.651800  1
  O  O1368  1  0.797600  0.022600  0.848200  1
  O  O1369  1  0.022600  0.331600  0.848200  1
  O  O1370  1  0.331600  0.797600  0.848200  1
  O  O1371  1  0.021600  0.114600  0.183200  1
  O  O1372  1  0.680600  0.021600  0.183200  1
  O  O1373  1  0.114600  0.680600  0.183200  1
  O  O1374  1  0.819400  0.385400  0.316800  1
  O  O1375  1  0.385400  0.478400  0.316800  1
  O  O1376  1  0.478400  0.819400  0.316800  1
  O  O1377  1  0.978400  0.885400  0.816800  1
  O  O1378  1  0.319400  0.978400  0.816800  1
  O  O1379  1  0.885400  0.319400  0.816800  1
  O  O1380  1  0.180600  0.614600  0.683200  1
  O  O1381  1  0.614600  0.521600  0.683200  1
  O  O1382  1  0.521600  0.180600  0.683200  1
  O  O1383  1  0.031800  0.176800  0.158600  1
  O  O1384  1  0.632800  0.031800  0.158600  1
  O  O1385  1  0.176800  0.632800  0.158600  1
  O  O1386  1  0.867200  0.323200  0.341400  1
  O  O1387  1  0.323200  0.468200  0.341400  1
  O  O1388  1  0.468200  0.867200  0.341400  1
  O  O1389  1  0.968200  0.823200  0.841400  1
  O  O1390  1  0.367200  0.968200  0.841400  1
  O  O1391  1  0.823200  0.367200  0.841400  1
  O  O1392  1  0.132800  0.676800  0.658600  1
  O  O1393  1  0.676800  0.531800  0.658600  1
  O  O1394  1  0.531800  0.132800  0.658600  1
  O  O1395  1  0.043360  0.515560  0.115820  1.0
  O  O1396  1  0.325260  0.043360  0.115820  1.0
  O  O1397  1  0.515560  0.325260  0.115820  1.0
  O  O1398  1  0.174740  0.984440  0.384180  1.0
  O  O1399  1  0.984440  0.456640  0.384180  1.0
  O  O1400  1  0.456640  0.174740  0.384180  1.0
  O  O1401  1  0.956640  0.484440  0.884180  1.0
  O  O1402  1  0.674740  0.956640  0.884180  1.0
  O  O1403  1  0.484440  0.674740  0.884180  1.0
  O  O1404  1  0.825260  0.015560  0.615820  1.0
  O  O1405  1  0.015560  0.543360  0.615820  1.0
  O  O1406  1  0.543360  0.825260  0.615820  1.0
  O  O1407  1  0.921680  0.281080  0.102860  1.0
  O  O1408  1  0.694380  0.921680  0.102860  1.0
  O  O1409  1  0.281080  0.694380  0.102860  1.0
  O  O1410  1  0.805620  0.218920  0.397140  1.0
  O  O1411  1  0.218920  0.578320  0.397140  1.0
  O  O1412  1  0.578320  0.805620  0.397140  1.0
  O  O1413  1  0.078320  0.718920  0.897140  1.0
  O  O1414  1  0.305620  0.078320  0.897140  1.0
  O  O1415  1  0.718920  0.305620  0.897140  1.0
  O  O1416  1  0.194380  0.781080  0.602860  1.0
  O  O1417  1  0.781080  0.421680  0.602860  1.0
  O  O1418  1  0.421680  0.194380  0.602860  1.0
  O  O1419  1  0.920150  0.351250  0.056150  1.0
  O  O1420  1  0.672450  0.920150  0.056150  1.0
  O  O1421  1  0.351250  0.672450  0.056150  1.0
  O  O1422  1  0.827550  0.148750  0.443850  1.0
  O  O1423  1  0.148750  0.579850  0.443850  1.0
  O  O1424  1  0.579850  0.827550  0.443850  1.0
  O  O1425  1  0.079850  0.648750  0.943850  1.0
  O  O1426  1  0.327550  0.079850  0.943850  1.0
  O  O1427  1  0.648750  0.327550  0.943850  1.0
  O  O1428  1  0.172450  0.851250  0.556150  1.0
  O  O1429  1  0.851250  0.420150  0.556150  1.0
  O  O1430  1  0.420150  0.172450  0.556150  1.0
  O  O1431  1  0.997680  0.364180  0.089960  1.0
  O  O1432  1  0.548180  0.997680  0.089960  1.0
  O  O1433  1  0.364180  0.548180  0.089960  1.0
  O  O1434  1  0.951820  0.135820  0.410040  1.0
  O  O1435  1  0.135820  0.502320  0.410040  1.0
  O  O1436  1  0.502320  0.951820  0.410040  1.0
  O  O1437  1  0.002320  0.635820  0.910040  1.0
  O  O1438  1  0.451820  0.002320  0.910040  1.0
  O  O1439  1  0.635820  0.451820  0.910040  1.0
  O  O1440  1  0.048180  0.864180  0.589960  1.0
  O  O1441  1  0.864180  0.497680  0.589960  1.0
  O  O1442  1  0.497680  0.048180  0.589960  1.0
  O  O1443  1  0.998910  0.186510  0.073370  1.0
  O  O1444  1  0.741210  0.998910  0.073370  1.0
  O  O1445  1  0.186510  0.741210  0.073370  1.0
  O  O1446  1  0.758790  0.313490  0.426630  1.0
  O  O1447  1  0.313490  0.501090  0.426630  1.0
  O  O1448  1  0.501090  0.758790  0.426630  1.0
  O  O1449  1  0.001090  0.813490  0.926630  1.0
  O  O1450  1  0.258790  0.001090  0.926630  1.0
  O  O1451  1  0.813490  0.258790  0.926630  1.0
  O  O1452  1  0.241210  0.686510  0.573370  1.0
  O  O1453  1  0.686510  0.498910  0.573370  1.0
  O  O1454  1  0.498910  0.241210  0.573370  1.0
  O  O1455  1  0.061000  0.277400  0.048200  1.0
  O  O1456  1  0.613400  0.061000  0.048200  1.0
  O  O1457  1  0.277400  0.613400  0.048200  1.0
  O  O1458  1  0.886600  0.222600  0.451800  1.0
  O  O1459  1  0.222600  0.439000  0.451800  1.0
  O  O1460  1  0.439000  0.886600  0.451800  1.0
  O  O1461  1  0.939000  0.722600  0.951800  1.0
  O  O1462  1  0.386600  0.939000  0.951800  1.0
  O  O1463  1  0.722600  0.386600  0.951800  1.0
  O  O1464  1  0.113400  0.777400  0.548200  1.0
  O  O1465  1  0.777400  0.561000  0.548200  1.0
  O  O1466  1  0.561000  0.113400  0.548200  1.0
  O  O1467  1  0.785420  0.481420  0.999540  1.0
  O  O1468  1  0.733620  0.785420  0.999540  1.0
  O  O1469  1  0.481420  0.733620  0.999540  1.0
  O  O1470  1  0.766380  0.018580  0.500460  1.0
  O  O1471  1  0.018580  0.714580  0.500460  1.0
  O  O1472  1  0.714580  0.766380  0.500460  1.0
  O  O1473  1  0.214580  0.518580  0.000460  1.0
  O  O1474  1  0.266380  0.214580  0.000460  1.0
  O  O1475  1  0.518580  0.266380  0.000460  1.0
  O  O1476  1  0.233620  0.981420  0.499540  1.0
  O  O1477  1  0.981420  0.285420  0.499540  1.0
  O  O1478  1  0.285420  0.233620  0.499540  1.0
  O  O1479  1  0.609110  0.625110  0.281570  1.0
  O  O1480  1  0.484210  0.609110  0.281570  1.0
  O  O1481  1  0.625110  0.484210  0.281570  1.0
  O  O1482  1  0.015790  0.874890  0.218430  1.0
  O  O1483  1  0.874890  0.890890  0.218430  1.0
  O  O1484  1  0.890890  0.015790  0.218430  1.0
  O  O1485  1  0.390890  0.374890  0.718430  1.0
  O  O1486  1  0.515790  0.390890  0.718430  1.0
  O  O1487  1  0.374890  0.515790  0.718430  1.0
  O  O1488  1  0.984210  0.125110  0.781570  1.0
  O  O1489  1  0.125110  0.109110  0.781570  1.0
  O  O1490  1  0.109110  0.984210  0.781570  1.0
  O  O1491  1  0.086430  0.223730  0.094310  1.0
  O  O1492  1  0.595530  0.086430  0.094310  1.0
  O  O1493  1  0.223730  0.595530  0.094310  1.0
  O  O1494  1  0.904470  0.276270  0.405690  1.0
  O  O1495  1  0.276270  0.413570  0.405690  1.0
  O  O1496  1  0.413570  0.904470  0.405690  1.0
  O  O1497  1  0.913570  0.776270  0.905690  1.0
  O  O1498  1  0.404470  0.913570  0.905690  1.0
  O  O1499  1  0.776270  0.404470  0.905690  1.0
  O  O1500  1  0.095530  0.723730  0.594310  1.0
  O  O1501  1  0.723730  0.586430  0.594310  1.0
  O  O1502  1  0.586430  0.095530  0.594310  1.0
  O  O1503  1  0.675070  0.570470  0.242690  1.0
  O  O1504  1  0.511770  0.675070  0.242690  1.0
  O  O1505  1  0.570470  0.511770  0.242690  1.0
  O  O1506  1  0.988230  0.929530  0.257310  1.0
  O  O1507  1  0.929530  0.824930  0.257310  1.0
  O  O1508  1  0.824930  0.988230  0.257310  1.0
  O  O1509  1  0.324930  0.429530  0.757310  1.0
  O  O1510  1  0.488230  0.324930  0.757310  1.0
  O  O1511  1  0.429530  0.488230  0.757310  1.0
  O  O1512  1  0.011770  0.070470  0.742690  1.0
  O  O1513  1  0.070470  0.175070  0.742690  1.0
  O  O1514  1  0.175070  0.011770  0.742690  1.0
  O  O1515  1  0.906830  0.514830  0.224510  1.0
  O  O1516  1  0.353830  0.906830  0.224510  1.0
  O  O1517  1  0.514830  0.353830  0.224510  1.0
  O  O1518  1  0.146170  0.985170  0.275490  1.0
  O  O1519  1  0.985170  0.593170  0.275490  1.0
  O  O1520  1  0.593170  0.146170  0.275490  1.0
  O  O1521  1  0.093170  0.485170  0.775490  1.0
  O  O1522  1  0.646170  0.093170  0.775490  1.0
  O  O1523  1  0.485170  0.646170  0.775490  1.0
  O  O1524  1  0.853830  0.014830  0.724510  1.0
  O  O1525  1  0.014830  0.406830  0.724510  1.0
  O  O1526  1  0.406830  0.853830  0.724510  1.0
  O  O1527  1  0.784100  0.238700  0.161900  1.0
  O  O1528  1  0.815300  0.784100  0.161900  1.0
  O  O1529  1  0.238700  0.815300  0.161900  1.0
  O  O1530  1  0.684700  0.261300  0.338100  1.0
  O  O1531  1  0.261300  0.715900  0.338100  1.0
  O  O1532  1  0.715900  0.684700  0.338100  1.0
  O  O1533  1  0.215900  0.761300  0.838100  1.0
  O  O1534  1  0.184700  0.215900  0.838100  1.0
  O  O1535  1  0.761300  0.184700  0.838100  1.0
  O  O1536  1  0.315300  0.738700  0.661900  1.0
  O  O1537  1  0.738700  0.284100  0.661900  1.0
  O  O1538  1  0.284100  0.315300  0.661900  1.0
  Ti  Ti1539  1  0.579450  0.579450  0.261650  1
  Ti  Ti1540  1  0.920550  0.920550  0.238350  1
  Ti  Ti1541  1  0.420550  0.420550  0.738350  1
  Ti  Ti1542  1  0.079450  0.079450  0.761650  1
  Ti  Ti1543  1  0.998010  0.281210  0.076970  1.0
  Ti  Ti1544  1  0.643810  0.998010  0.076970  1.0
  Ti  Ti1545  1  0.281210  0.643810  0.076970  1.0
  Ti  Ti1546  1  0.856190  0.218790  0.423030  1.0
  Ti  Ti1547  1  0.218790  0.501990  0.423030  1.0
  Ti  Ti1548  1  0.501990  0.856190  0.423030  1.0
  Ti  Ti1549  1  0.001990  0.718790  0.923030  1.0
  Ti  Ti1550  1  0.356190  0.001990  0.923030  1.0
  Ti  Ti1551  1  0.718790  0.356190  0.923030  1.0
  Ti  Ti1552  1  0.143810  0.781210  0.576970  1.0
  Ti  Ti1553  1  0.781210  0.498010  0.576970  1.0
  Ti  Ti1554  1  0.498010  0.143810  0.576970  1.0
