
#######################################################################
#
#                 Cambridge Crystallographic Data Centre
#                                CCDC 
#
#######################################################################
#
# If this CIF has been generated from an entry in the Cambridge 
# Structural Database, then it will include bibliographic, chemical, 
# crystal, experimental, refinement or atomic coordinate data resulting 
# from the CCDC's data processing and validation procedures.
#
#######################################################################

data_HOMSAE
_chemical_formula_moiety         
'C144 H84 N12 O36 Ti4 8-,5.5(C2 H8 N1 1+),2.5(C10 H10 Co1 1+),3(C1 H4 O1),13.8(H2 O1)'
_chemical_name_systematic        
"pentakis(Dimethylammonium) sesquikis(cobaltocenium) hexakis(\m~2~-N,N'-bis(2,3-dioxybenzoyl)naphthalene-1,5-diamine)-tetra-titanium(iv) cobaltocenium clathrate methanol solvate hydrate"
_symmetry_cell_setting           rhombohedral
_symmetry_space_group_name_H-M   'R -3 c'
_symmetry_Int_Tables_number      167
_space_group_name_Hall           '-R 3 2"c'
loop_
_symmetry_equiv_pos_site_id
_symmetry_equiv_pos_as_xyz
1 x,y,z
2 -y,x-y,z
3 -x+y,-x,z
4 y,x,1/2-z
5 x-y,-y,1/2-z
6 -x,-x+y,1/2-z
7 2/3+x,1/3+y,1/3+z
8 2/3-y,1/3+x-y,1/3+z
9 2/3-x+y,1/3-x,1/3+z
10 2/3+y,1/3+x,5/6-z
11 2/3+x-y,1/3-y,5/6-z
12 2/3-x,1/3-x+y,5/6-z
13 1/3+x,2/3+y,2/3+z
14 1/3-y,2/3+x-y,2/3+z
15 1/3-x+y,2/3-x,2/3+z
16 1/3+y,2/3+x,1/6-z
17 1/3+x-y,2/3-y,1/6-z
18 1/3-x,2/3-x+y,1/6-z
19 -x,-y,-z
20 y,-x+y,-z
21 x-y,x,-z
22 -y,-x,1/2+z
23 -x+y,y,1/2+z
24 x,x-y,1/2+z
25 1/3-x,2/3-y,2/3-z
26 1/3+y,2/3-x+y,2/3-z
27 1/3+x-y,2/3+x,2/3-z
28 1/3-y,2/3-x,1/6+z
29 1/3-x+y,2/3+y,1/6+z
30 1/3+x,2/3+x-y,1/6+z
31 2/3-x,1/3-y,1/3-z
32 2/3+y,1/3-x+y,1/3-z
33 2/3+x-y,1/3+x,1/3-z
34 2/3-y,1/3-x,5/6+z
35 2/3-x+y,1/3+y,5/6+z
36 2/3+x,1/3+x-y,5/6+z
_cell_length_a                   20.5378(7)
_cell_length_b                   20.5378(7)
_cell_length_c                   169.966(11)
_cell_angle_alpha                90
_cell_angle_beta                 90
_cell_angle_gamma                120
_cell_volume                     62087
_exptl_crystal_colour            red
_exptl_crystal_description       plate
_cell_formula_units_Z            12
_exptl_crystal_recrystallization_method methanol/water/DMF
loop_
_atom_site_label
_atom_site_type_symbol
_atom_site_fract_x
_atom_site_fract_y
_atom_site_fract_z
Co1 Co 0.7228(3) 0.0561(3) 0.4167
C44 C 0.7174(12) -0.0375(6) 0.41277(8)
H23 H 0.6873 -0.0867 0.4148
C45 C 0.7920(10) 0.0151(12) 0.41511(10)
H24 H 0.8205 0.0072 0.4190
C46 C 0.8164(6) 0.0816(10) 0.41062(11)
H25 H 0.8641 0.1260 0.4110
C47 C 0.7569(12) 0.0700(12) 0.40548(4)
H26 H 0.7580 0.1053 0.4018
C48 C 0.6958(10) -0.0036(12) 0.40681(5)
H27 H 0.6487 -0.0262 0.4042
C44I C 0.6292(6) 0.0507(12) 0.42056(8)
H23I H 0.5800 0.0206 0.4185
C45I C 0.6818(12) 0.1253(10) 0.41822(10)
H24I H 0.6739 0.1538 0.4143
C46I C 0.7483(10) 0.1497(6) 0.42271(11)
H25I H 0.7927 0.1974 0.4223
C47I C 0.7367(12) 0.0902(12) 0.42785(4)
H26I H 0.7720 0.0913 0.4315
C48I C 0.6631(12) 0.0291(10) 0.42652(5)
H27I H 0.6405 -0.0180 0.4291
Co2 Co 1.0000 0.0000 0.37136(3)
C54 C 0.9044(9) -0.0517(17) 0.37648(18)
C55 C 0.9077(11) 0.000(2) 0.37070(16)
C56 C 0.966(2) 0.0726(16) 0.3728(2)
C57 C 0.9991(18) 0.0662(18) 0.37993(17)
C58 C 0.9609(17) -0.011(2) 0.38218(7)
C54A C 1.0517(17) -0.0439(19) 0.37648(18)
C54B C 1.0439(19) 0.0956(9) 0.37648(18)
C55A C 1.000(2) -0.0923(23) 0.37070(16)
C55B C 1.0923(23) 0.0923(11) 0.37070(16)
C56A C 0.9274(16) -0.1066(26) 0.3728(2)
C56B C 1.1066(26) 0.034(2) 0.3728(2)
C57A C 0.9338(18) -0.0671(25) 0.37993(17)
C57B C 1.0671(25) 0.0009(18) 0.37993(17)
C58B C 1.0281(26) 0.0391(17) 0.38218(7)
C58A C 1.011(2) -0.0281(26) 0.38218(7)
C65 C 0.865(6) -0.084(6) 0.3150(6)
O13 O 0.795(4) -0.090(3) 0.3186(4)
C66 C 0.769(5) 0.156(4) 0.3137(4)
C68 C 0.735(3) 0.140(3) 0.3027(3)
N5 N 0.769(3) 0.104(3) 0.3075(4)
O14 O 0.5277(16) 0.0419(14) 0.38958(15)
O15 O 0.548(3) 0.027(2) 0.4015(3)
O16 O 0.598(4) 0.163(4) 0.3897(4)
O17 O 0.651(4) -0.300(4) 0.4438(4)
O19 O 0.3333 -0.3333 0.3921(8)
O20 O 1.0000 0.0000 0.4441(5)
O21 O 0.909(2) 0.098(2) 0.3180(2)
O24 O 0.778(3) -0.435(3) 0.3426(3)
C1 C 0.8664(12) -0.1350(13) 0.41854(13)
C2 C 0.8977(14) -0.1439(14) 0.42552(13)
C3 C 0.8617(13) -0.2036(13) 0.43067(14)
H1 H 0.8859 -0.2090 0.4352
C4 C 0.7879(13) -0.2549(15) 0.42876(14)
H2 H 0.7598 -0.2957 0.4322
C5 C 0.7535(15) -0.2494(14) 0.42202(13)
H3 H 0.7028 -0.2865 0.4209
C6 C 0.7924(13) -0.1898(12) 0.41679(14)
C7 C 0.7663(12) -0.1071(12) 0.39812(15)
C8 C 0.6985(13) -0.1571(14) 0.39450(13)
H4 H 0.6691 -0.2072 0.3964
C9 C 0.6746(14) -0.1323(12) 0.38807(13)
H5 H 0.6291 -0.1672 0.3855
C10 C 0.7136(11) -0.0597(11) 0.38520(13)
H6 H 0.6947 -0.0440 0.3810
C11 C 0.7824(12) -0.0101(12) 0.38882(12)
C12 C 0.8095(12) -0.0371(13) 0.39488(13)
C13 C 0.8821(13) 0.0099(14) 0.39794(15)
H7 H 0.9021 -0.0088 0.4018
C14 C 0.9248(17) 0.0842(15) 0.39529(16)
H8 H 0.9731 0.1172 0.3974
C15 C 0.8943(13) 0.1084(15) 0.38941(14)
H9 H 0.9239 0.1581 0.3874
C16 C 0.8229(12) 0.0635(12) 0.38631(14)
C17 C 0.7560(12) 0.1762(13) 0.37529(14)
C18 C 0.7617(14) 0.2478(15) 0.37607(15)
H10 H 0.7884 0.2821 0.3802
C19 C 0.7252(13) 0.2618(14) 0.37029(15)
H11 H 0.7269 0.3087 0.3708
C20 C 0.6874(14) 0.2215(14) 0.36409(15)
H12 H 0.6661 0.2390 0.3603
C21 C 0.6816(14) 0.1490(14) 0.36370(15)
C22 C 0.7170(12) 0.1328(13) 0.36914(13)
C23 C 0.5793(12) -0.1329(12) 0.36731(11)
C24 C 0.5294(13) -0.1076(14) 0.36798(13)
C25 C 0.4584(14) -0.1514(14) 0.37226(14)
H13 H 0.4230 -0.1347 0.3726
C26 C 0.4448(14) -0.2168(14) 0.37573(14)
H14 H 0.4017 -0.2441 0.3790
C27 C 0.4937(13) -0.2430(13) 0.37454(12)
H15 H 0.4823 -0.2903 0.3767
C28 C 0.5587(12) -0.2025(12) 0.37031(12)
C29 C 0.7102(12) 0.0081(11) 0.34443(14)
C30 C 0.6295(14) -0.0295(13) 0.34310(16)
C31 C 0.6033(15) -0.0513(14) 0.33548(15)
H16 H 0.5512 -0.0727 0.3343
C32 C 0.6535(16) -0.0417(15) 0.32956(18)
H17 H 0.6340 -0.0628 0.3245
C33 C 0.7317(15) -0.0024(14) 0.33057(15)
H18 H 0.7647 0.0084 0.3262
C34 C 0.7595(12) 0.0205(11) 0.33823(12)
C35 C 1.0531(11) 0.2756(11) 0.36396(12)
C36 C 0.9977(12) 0.2698(12) 0.36872(13)
H19 H 1.0086 0.2981 0.3735
C37 C 0.9224(13) 0.2196(12) 0.36634(13)
H20 H 0.8826 0.2153 0.3696
C38 C 0.9047(12) 0.1777(11) 0.35974(12)
H21 H 0.8535 0.1483 0.3582
C39 C 0.9615(10) 0.1769(10) 0.35502(11)
C40 C 1.0381(11) 0.2276(11) 0.35729(11)
Ti1 Ti 1.0000 0.0000 0.42055(4)
C41 C 0.9466(12) 0.1347(12) 0.34842(12)
C42 C 1.0966(12) 0.2310(11) 0.35227(12)
H22 H 1.1477 0.2655 0.3535
O1 O 0.5847(8) -0.3028(9) 0.37194(9)
C43 C 1.0057(14) 0.1362(13) 0.34376(14)
C49 C 1.0801(13) 0.1868(13) 0.34599(14)
H28 H 1.1199 0.1895 0.3429
Ti2 Ti 0.6430(2) 0.0028(2) 0.35899(2)
O2 O 0.7107(7) 0.0620(7) 0.36762(7)
O3 O 0.7278(6) 0.0245(7) 0.35205(7)
O4 O 0.6390(6) -0.0885(7) 0.36332(7)
O5 O 0.6433(7) 0.0990(8) 0.35779(9)
O6 O 0.5896(8) -0.0372(9) 0.34940(9)
O7 O 0.8814(8) 0.0668(8) 0.33318(8)
O8 O 0.9637(9) -0.0886(9) 0.42719(7)
O9 O 0.5488(7) -0.0397(8) 0.36477(8)
O10 O 0.9107(8) -0.0740(8) 0.41423(7)
N1 N 1.1301(9) 0.3275(9) 0.36595(8)
H29 H 1.1637 0.3147 0.3647
N2 N 0.8700(9) 0.0858(8) 0.34591(9)
H30 H 0.8364 0.0710 0.3497
N3 N 0.7932(10) 0.0962(12) 0.38134(12)
H31 H 0.7713 0.0674 0.3772
O11 O 0.6850(12) -0.2380(11) 0.40817(11)
O12 O 0.8286(11) 0.2026(12) 0.38730(10)
C50 C 0.8416(13) 0.0594(11) 0.33881(15)
C51 C 0.7885(16) 0.1593(17) 0.38105(19)
N4 N 0.7895(11) -0.1285(11) 0.40473(10)
H32 H 0.8364 -0.0982 0.4061
C52 C 0.7485(17) -0.1924(17) 0.40959(16)
C53 C 0.6085(13) -0.2375(14) 0.36945(12)
C1A C 1.1350(13) 0.0014(18) 0.41854(13)
C1B C 0.9986(18) 0.1336(12) 0.41854(13)
C2A C 1.1439(14) 0.0416(20) 0.42552(13)
C2B C 0.9584(20) 0.1023(14) 0.42552(13)
C3A C 1.2036(13) 0.0653(18) 0.43067(14)
C3B C 0.9347(18) 0.1383(13) 0.43067(14)
H1A H 1.2090 0.0949 0.4352
H1B H 0.9051 0.1141 0.4352
C4A C 1.2549(15) 0.0428(20) 0.42876(14)
C4B C 0.9572(20) 0.2121(13) 0.42876(14)
H2A H 1.2957 0.0555 0.4322
H2B H 0.9445 0.2402 0.4322
C5A C 1.2494(14) 0.0029(21) 0.42202(13)
C5B C 0.9971(21) 0.2465(15) 0.42202(13)
H3A H 1.2865 -0.0107 0.4209
H3B H 1.0107 0.2972 0.4209
C6A C 1.1898(12) -0.0178(18) 0.41679(14)
C6B C 1.0178(18) 0.2076(13) 0.41679(14)
C7A C 1.1071(12) -0.1266(17) 0.39812(15)
C7B C 1.1266(17) 0.2337(12) 0.39812(15)
C8A C 1.1571(14) -0.1444(19) 0.39450(13)
C8B C 1.1444(19) 0.3015(13) 0.39450(13)
H4A H 1.2072 -0.1237 0.3964
H4B H 1.1237 0.3309 0.3964
C9A C 1.1323(12) -0.1931(18) 0.38807(13)
C9B C 1.1931(18) 0.3254(14) 0.38807(13)
H5A H 1.1672 -0.2037 0.3855
H5B H 1.2037 0.3709 0.3855
C10A C 1.0597(11) -0.2267(16) 0.38520(13)
C10B C 1.2267(16) 0.2864(11) 0.38520(13)
H6A H 1.0440 -0.2613 0.3810
H6B H 1.2613 0.3053 0.3810
C11A C 1.0101(12) -0.2075(17) 0.38882(12)
C11B C 1.2075(17) 0.2176(12) 0.38882(12)
C12A C 1.0371(13) -0.1534(18) 0.39488(13)
C12B C 1.1534(18) 0.1905(12) 0.39488(13)
C13A C 0.9901(14) -0.1278(19) 0.39794(15)
C13B C 1.1278(19) 0.1179(13) 0.39794(15)
H7A H 1.0088 -0.0891 0.4018
H7B H 1.0891 0.0979 0.4018
C14A C 0.9158(15) -0.1594(23) 0.39529(16)
C14B C 1.1594(23) 0.0752(17) 0.39529(16)
H8A H 0.8828 -0.1441 0.3974
H8B H 1.1441 0.0269 0.3974
C15A C 0.8916(15) -0.2141(20) 0.38941(14)
C15B C 1.2141(20) 0.1057(13) 0.38941(14)
H9A H 0.8419 -0.2342 0.3874
H9B H 1.2342 0.0761 0.3874
C16A C 0.9365(12) -0.2406(17) 0.38631(14)
C16B C 1.2406(17) 0.1771(12) 0.38631(14)
C17A C 0.8238(13) -0.4202(18) 0.37529(14)
C17B C 1.4202(18) 0.2440(12) 0.37529(14)
C18A C 0.7522(15) -0.4861(21) 0.37607(15)
C18B C 1.4861(21) 0.2383(14) 0.37607(15)
H10A H 0.7179 -0.4937 0.3802
H10B H 1.4937 0.2116 0.3802
C19A C 0.7382(14) -0.5366(19) 0.37029(15)
C19B C 1.5366(19) 0.2748(13) 0.37029(15)
H11A H 0.6913 -0.5818 0.3708
H11B H 1.5818 0.2731 0.3708
C20A C 0.7785(14) -0.5341(20) 0.36409(15)
C20B C 1.5341(20) 0.3126(14) 0.36409(15)
H12A H 0.7610 -0.5729 0.3603
H12B H 1.5729 0.3339 0.3603
C21A C 0.8510(14) -0.4674(20) 0.36370(15)
C21B C 1.4674(20) 0.3184(14) 0.36370(15)
C22A C 0.8672(13) -0.4158(18) 0.36914(13)
C22B C 1.4158(18) 0.2830(12) 0.36914(13)
C23B C 1.2878(17) 0.4207(12) 0.36731(11)
C23A C 1.1329(12) -0.2878(17) 0.36731(11)
C24B C 1.3630(19) 0.4706(13) 0.36798(13)
C24A C 1.1076(14) -0.3630(19) 0.36798(13)
C25B C 1.3902(20) 0.5416(14) 0.37226(14)
C25A C 1.1514(14) -0.3902(20) 0.37226(14)
H13B H 1.4423 0.5770 0.3726
H13A H 1.1347 -0.4423 0.3726
C26B C 1.3384(20) 0.5552(14) 0.37573(14)
C26A C 1.2168(14) -0.3384(20) 0.37573(14)
H14B H 1.3542 0.5983 0.3790
H14A H 1.2441 -0.3542 0.3790
C27B C 1.2633(18) 0.5063(13) 0.37454(12)
C27A C 1.2430(13) -0.2633(18) 0.37454(12)
H15B H 1.2274 0.5177 0.3767
H15A H 1.2903 -0.2274 0.3767
C28B C 1.2388(17) 0.4413(12) 0.37031(12)
C28A C 1.2025(12) -0.2388(17) 0.37031(12)
C29A C 0.9919(11) -0.2979(16) 0.34443(14)
C29B C 1.2979(16) 0.2898(12) 0.34443(14)
C30A C 1.0295(13) -0.3410(19) 0.34310(16)
C30B C 1.3410(19) 0.3705(14) 0.34310(16)
C31A C 1.0513(14) -0.3454(21) 0.33548(15)
C31B C 1.3454(21) 0.3967(15) 0.33548(15)
H16A H 1.0727 -0.3761 0.3343
H16B H 1.3761 0.4488 0.3343
C32A C 1.0417(15) -0.3048(22) 0.32956(18)
C32B C 1.3048(22) 0.3465(16) 0.32956(18)
H17A H 1.0628 -0.3032 0.3245
H17B H 1.3032 0.3660 0.3245
C33A C 1.0024(14) -0.2659(21) 0.33057(15)
C33B C 1.2659(21) 0.2683(15) 0.33057(15)
H18A H 0.9916 -0.2437 0.3262
H18B H 1.2437 0.2353 0.3262
C34A C 0.9795(11) -0.2610(16) 0.33823(12)
C34B C 1.2610(16) 0.2405(12) 0.33823(12)
C35A C 0.7244(11) -0.2225(16) 0.36396(12)
C35B C 1.2225(16) -0.0531(11) 0.36396(12)
C36A C 0.7302(12) -0.2721(17) 0.36872(13)
C36B C 1.2721(17) 0.0023(12) 0.36872(13)
H19B H 1.2895 -0.0086 0.3735
H19A H 0.7019 -0.2895 0.3735
C37A C 0.7804(12) -0.2972(18) 0.36634(13)
C37B C 1.2972(18) 0.0776(13) 0.36634(13)
H20B H 1.3327 0.1174 0.3696
H20A H 0.7847 -0.3327 0.3696
C38A C 0.8223(11) -0.2730(16) 0.35974(12)
C38B C 1.2730(16) 0.0953(12) 0.35974(12)
H21B H 1.2948 0.1465 0.3582
H21A H 0.8517 -0.2948 0.3582
C39A C 0.8231(10) -0.2154(14) 0.35502(11)
C39B C 1.2154(14) 0.0385(10) 0.35502(11)
C40A C 0.7724(11) -0.1895(16) 0.35729(11)
C40B C 1.1895(16) -0.0381(11) 0.35729(11)
C41A C 0.8653(12) -0.1881(17) 0.34842(12)
C41B C 1.1881(17) 0.0534(12) 0.34842(12)
C42A C 0.7690(11) -0.1344(16) 0.35227(12)
C42B C 1.1344(16) -0.0966(12) 0.35227(12)
H22A H 0.7345 -0.1178 0.3535
H22B H 1.1178 -0.1477 0.3535
O1A O 1.3028(9) -0.1125(12) 0.37194(9)
O1B O 1.1125(12) 0.4153(8) 0.37194(9)
C43A C 0.8638(13) -0.1305(19) 0.34376(14)
C43B C 1.1305(19) -0.0057(14) 0.34376(14)
C49A C 0.8132(13) -0.1067(18) 0.34599(14)
C49B C 1.1067(18) -0.0801(13) 0.34599(14)
H28A H 0.8105 -0.0696 0.3429
H28B H 1.0696 -0.1199 0.3429
Ti2A Ti 0.9972(2) -0.3598(3) 0.35899(2)
Ti2B Ti 1.3598(3) 0.3570(2) 0.35899(2)
O2A O 0.9380(7) -0.3513(10) 0.36762(7)
O2B O 1.3513(10) 0.2893(7) 0.36762(7)
O3A O 0.9755(7) -0.2967(9) 0.35205(7)
O3B O 1.2967(9) 0.2722(6) 0.35205(7)
O4A O 1.0885(7) -0.2725(9) 0.36332(7)
O4B O 1.2725(9) 0.3610(6) 0.36332(7)
O5B O 1.4557(11) 0.3567(7) 0.35779(9)
O5A O 0.9010(8) -0.4557(11) 0.35779(9)
O6A O 1.0372(9) -0.3732(12) 0.34940(9)
O6B O 1.3732(12) 0.4104(8) 0.34940(9)
O7A O 0.9332(8) -0.1854(11) 0.33318(8)
O7B O 1.1854(11) 0.1186(8) 0.33318(8)
O8A O 1.0886(9) 0.0523(13) 0.42719(7)
O8B O 0.9477(13) 0.0363(9) 0.42719(7)
O9B O 1.4115(11) 0.4512(7) 0.36477(8)
O9A O 1.0397(8) -0.4115(11) 0.36477(8)
O10A O 1.0740(8) -0.0153(11) 0.41423(7)
O10B O 1.0153(11) 0.0893(8) 0.41423(7)
N1A N 0.6725(9) -0.1974(13) 0.36595(8)
N1B N 1.1974(13) -0.1301(9) 0.36595(8)
H29A H 0.6853 -0.1510 0.3647
H29B H 1.1510 -0.1637 0.3647
N2A N 0.9142(8) -0.2158(12) 0.34591(9)
N2B N 1.2158(12) 0.1300(9) 0.34591(9)
H30B H 1.2346 0.1636 0.3497
H30A H 0.9290 -0.2346 0.3497
N3A N 0.9038(12) -0.3030(16) 0.38134(12)
N3B N 1.3030(16) 0.2068(10) 0.38134(12)
H31A H 0.9326 -0.2961 0.3772
H31B H 1.2961 0.2287 0.3772
O11A O 1.2380(11) -0.0770(16) 0.40817(11)
O11B O 1.0770(16) 0.3150(12) 0.40817(11)
O12B O 1.3740(16) 0.1714(11) 0.38730(10)
O12A O 0.7974(12) -0.3740(16) 0.38730(10)
C50A C 0.9406(11) -0.2178(17) 0.33881(15)
C50B C 1.2178(17) 0.1584(13) 0.33881(15)
C51A C 0.8407(17) -0.3708(23) 0.38105(19)
C51B C 1.3708(23) 0.2115(16) 0.38105(19)
N4A N 1.1285(11) -0.0820(16) 0.40473(10)
N4B N 1.0820(16) 0.2105(11) 0.40473(10)
H32B H 1.0654 0.1636 0.4061
H32A H 1.0982 -0.0654 0.4061
C52A C 1.1924(17) -0.0591(24) 0.40959(16)
C52B C 1.0591(24) 0.2515(17) 0.40959(16)
C53B C 1.1540(19) 0.3915(13) 0.36945(12)
C53A C 1.2375(14) -0.1540(19) 0.36945(12)
C59? C 0.894(2) -0.0230(15) 0.3666(2)
C60? C 0.9430(18) -0.022(2) 0.36054(11)
C61? C 0.9617(15) -0.078(2) 0.36227(14)
C62? C 0.9248(5) -0.114(2) 0.36939(19)
C63? C 0.8829(18) -0.080(2) 0.37206(19)
C64? C 1.0000 0.0000 0.3240(3)
C67? C 1.0000 0.0000 0.3080(3)
N6? N 0.983(6) -0.036(3) 0.3160(3)
O18? O 0.719(4) -0.253(4) 0.4494(4)
O22? O 0.584(3) 0.075(3) 0.3944(3)
O23? O 0.582(3) 0.019(3) 0.3862(3)
loop_
_geom_bond_atom_site_label_1
_geom_bond_atom_site_label_2
_geom_bond_site_symmetry_1
_geom_bond_site_symmetry_2
C1 C2 1_555 1_555
C2 C3 1_555 1_555
C3 H1 1_555 1_555
C4 C3 1_555 1_555
H2 C4 1_555 1_555
C5 C4 1_555 1_555
H3 C5 1_555 1_555
C6 C1 1_555 1_555
C7 C8 1_555 1_555
C8 H4 1_555 1_555
C9 C8 1_555 1_555
H5 C9 1_555 1_555
C10 C9 1_555 1_555
H6 C10 1_555 1_555
C11 C10 1_555 1_555
C12 C7 1_555 1_555
C13 C12 1_555 1_555
H7 C13 1_555 1_555
C14 C13 1_555 1_555
H8 C14 1_555 1_555
C15 C14 1_555 1_555
H9 C15 1_555 1_555
C16 C11 1_555 1_555
C17 C18 1_555 1_555
C18 H10 1_555 1_555
C19 C18 1_555 1_555
H11 C19 1_555 1_555
C20 C19 1_555 1_555
H12 C20 1_555 1_555
C21 C20 1_555 1_555
C22 C17 1_555 1_555
C23 C24 1_555 1_555
C24 C25 1_555 1_555
C25 H13 1_555 1_555
C26 C25 1_555 1_555
H14 C26 1_555 1_555
C27 C26 1_555 1_555
H15 C27 1_555 1_555
C28 C23 1_555 1_555
C29 C30 1_555 1_555
C30 C31 1_555 1_555
C31 H16 1_555 1_555
C32 C31 1_555 1_555
H17 C32 1_555 1_555
C33 C32 1_555 1_555
H18 C33 1_555 1_555
C34 C29 1_555 1_555
C35 C36 1_555 1_555
C36 H19 1_555 1_555
C37 C36 1_555 1_555
H20 C37 1_555 1_555
C38 C37 1_555 1_555
H21 C38 1_555 1_555
C39 C38 1_555 1_555
C40 C35 1_555 1_555
Ti1 O8 1_555 1_555
C41 C39 1_555 1_555
C42 C40 1_555 1_555
H22 C42 1_555 1_555
O1 C53 1_555 1_555
C43 C41 1_555 1_555
Co1 C44 1_555 1_555
C44 H23 1_555 1_555
C45 Co1 1_555 1_555
H24 C45 1_555 1_555
C46 Co1 1_555 1_555
H25 C46 1_555 1_555
C47 Co1 1_555 1_555
H26 C47 1_555 1_555
C48 Co1 1_555 1_555
H27 C48 1_555 1_555
C49 C42 1_555 1_555
H28 C49 1_555 1_555
Ti2 O2 1_555 1_555
O2 C22 1_555 1_555
O3 C29 1_555 1_555
O4 C23 1_555 1_555
O5 C21 1_555 1_555
O6 C30 1_555 1_555
O7 C50 1_555 1_555
O8 C2 1_555 1_555
O9 C24 1_555 1_555
O10 C1 1_555 1_555
N1 C35 1_555 1_555
H29 N1 1_555 1_555
N2 C41 1_555 1_555
H30 N2 1_555 1_555
N3 C16 1_555 1_555
H31 N3 1_555 1_555
O11 C52 1_555 1_555
O12 C51 1_555 1_555
C50 C34 1_555 1_555
C51 C17 1_555 1_555
N4 C7 1_555 1_555
H32 N4 1_555 1_555
C52 C6 1_555 1_555
C53 C28 1_555 1_555
Co2 C54 1_555 1_555
C54 C55 1_555 1_555
C55 Co2 1_555 1_555
C56 Co2 1_555 1_555
C57 Co2 1_555 1_555
C58 Co2 1_555 1_555
C65 O13 1_555 1_555
C66 N5 1_555 1_555
C68 N5 1_555 1_555
C1A C2A 1_555 1_555
C1B C2B 1_555 1_555
C2A C3A 1_555 1_555
C2B C3B 1_555 1_555
C3A H1A 1_555 1_555
C3B H1B 1_555 1_555
C4A C3A 1_555 1_555
C4B C3B 1_555 1_555
H2A C4A 1_555 1_555
H2B C4B 1_555 1_555
C5A C4A 1_555 1_555
C5B C4B 1_555 1_555
H3A C5A 1_555 1_555
H3B C5B 1_555 1_555
C6A C1A 1_555 1_555
C6B C1B 1_555 1_555
C7A C8A 1_555 1_555
C7B C8B 1_555 1_555
C8A H4A 1_555 1_555
C8B H4B 1_555 1_555
C9A C8A 1_555 1_555
C9B C8B 1_555 1_555
H5A C9A 1_555 1_555
H5B C9B 1_555 1_555
C10A C9A 1_555 1_555
C10B C9B 1_555 1_555
H6A C10A 1_555 1_555
H6B C10B 1_555 1_555
C11A C10A 1_555 1_555
C11B C10B 1_555 1_555
C12A C7A 1_555 1_555
C12B C7B 1_555 1_555
C13A C12A 1_555 1_555
C13B C12B 1_555 1_555
H7A C13A 1_555 1_555
H7B C13B 1_555 1_555
C14A C13A 1_555 1_555
C14B C13B 1_555 1_555
H8A C14A 1_555 1_555
H8B C14B 1_555 1_555
C15A C14A 1_555 1_555
C15B C14B 1_555 1_555
H9A C15A 1_555 1_555
H9B C15B 1_555 1_555
C16A C11A 1_555 1_555
C16B C11B 1_555 1_555
C17A C18A 1_555 1_555
C17B C18B 1_555 1_555
C18A H10A 1_555 1_555
C18B H10B 1_555 1_555
C19A C18A 1_555 1_555
C19B C18B 1_555 1_555
H11A C19A 1_555 1_555
H11B C19B 1_555 1_555
C20A C19A 1_555 1_555
C20B C19B 1_555 1_555
H12A C20A 1_555 1_555
H12B C20B 1_555 1_555
C21A C20A 1_555 1_555
C21B C20B 1_555 1_555
C22A C17A 1_555 1_555
C22B C17B 1_555 1_555
C23B C24B 1_555 1_555
C23A C24A 1_555 1_555
C24B C25B 1_555 1_555
C24A C25A 1_555 1_555
C25B H13B 1_555 1_555
C25A H13A 1_555 1_555
C26B C25B 1_555 1_555
C26A C25A 1_555 1_555
H14B C26B 1_555 1_555
H14A C26A 1_555 1_555
C27B C26B 1_555 1_555
C27A C26A 1_555 1_555
H15B C27B 1_555 1_555
H15A C27A 1_555 1_555
C28B C23B 1_555 1_555
C28A C23A 1_555 1_555
C29A C30A 1_555 1_555
C29B C30B 1_555 1_555
C30A C31A 1_555 1_555
C30B C31B 1_555 1_555
C31A H16A 1_555 1_555
C31B H16B 1_555 1_555
C32A C31A 1_555 1_555
C32B C31B 1_555 1_555
H17A C32A 1_555 1_555
H17B C32B 1_555 1_555
C33A C32A 1_555 1_555
C33B C32B 1_555 1_555
H18A C33A 1_555 1_555
H18B C33B 1_555 1_555
C34A C29A 1_555 1_555
C34B C29B 1_555 1_555
C35A C36A 1_555 1_555
C35B C36B 1_555 1_555
C36A H19A 1_555 1_555
C36B H19B 1_555 1_555
C37A C36A 1_555 1_555
C37B C36B 1_555 1_555
H20B C37B 1_555 1_555
H20A C37A 1_555 1_555
C38A C37A 1_555 1_555
C38B C37B 1_555 1_555
H21B C38B 1_555 1_555
H21A C38A 1_555 1_555
C39A C38A 1_555 1_555
C39B C38B 1_555 1_555
C40A C35A 1_555 1_555
C40B C35B 1_555 1_555
C41A C39A 1_555 1_555
C41B C39B 1_555 1_555
C42A C40A 1_555 1_555
C42B C40B 1_555 1_555
H22A C42A 1_555 1_555
H22B C42B 1_555 1_555
O1A C53A 1_555 1_555
O1B C53B 1_555 1_555
C43A C41A 1_555 1_555
C43B C41B 1_555 1_555
C44I Co1 1_555 1_555
H23I C44I 1_555 1_555
C45I Co1 1_555 1_555
H24I C45I 1_555 1_555
C46I Co1 1_555 1_555
H25I C46I 1_555 1_555
C47I Co1 1_555 1_555
H26I C47I 1_555 1_555
C48I Co1 1_555 1_555
H27I C48I 1_555 1_555
C49A C42A 1_555 1_555
C49B C42B 1_555 1_555
H28A C49A 1_555 1_555
H28B C49B 1_555 1_555
Ti2A O2A 1_555 1_555
Ti2B O2B 1_555 1_555
O2A C22A 1_555 1_555
O2B C22B 1_555 1_555
O3A C29A 1_555 1_555
O3B C29B 1_555 1_555
O4A C23A 1_555 1_555
O4B C23B 1_555 1_555
O5B C21B 1_555 1_555
O5A C21A 1_555 1_555
O6A C30A 1_555 1_555
O6B C30B 1_555 1_555
O7A C50A 1_555 1_555
O7B C50B 1_555 1_555
O8A Ti1 1_555 1_555
O8B Ti1 1_555 1_555
O9B C24B 1_555 1_555
O9A C24A 1_555 1_555
O10A Ti1 1_555 1_555
O10B Ti1 1_555 1_555
N1A C53 1_555 1_555
N1B C35B 1_555 1_555
H29A N1A 1_555 1_555
H29B N1B 1_555 1_555
N2A C41A 1_555 1_555
N2B C41B 1_555 1_555
H30B N2B 1_555 1_555
H30A N2A 1_555 1_555
N3A C16A 1_555 1_555
N3B C16B 1_555 1_555
H31A N3A 1_555 1_555
H31B N3B 1_555 1_555
O11A C52A 1_555 1_555
O11B C52B 1_555 1_555
O12B C51B 1_555 1_555
O12A C51A 1_555 1_555
C50A C34A 1_555 1_555
C50B C34B 1_555 1_555
C51A C17A 1_555 1_555
C51B C17B 1_555 1_555
N4A C7A 1_555 1_555
N4B C7B 1_555 1_555
H32B N4B 1_555 1_555
H32A N4A 1_555 1_555
C52A C6A 1_555 1_555
C52B C6B 1_555 1_555
C53B N1 1_555 1_555
C53A C28A 1_555 1_555
C54A Co2 1_555 1_555
C54B Co2 1_555 1_555
C55A Co2 1_555 1_555
C55B Co2 1_555 1_555
C56A Co2 1_555 1_555
C56B Co2 1_555 1_555
C57A Co2 1_555 1_555
C57B Co2 1_555 1_555
C58B Co2 1_555 1_555
C58A Co2 1_555 1_555
C5 C6 1_555 1_555
C11 C12 1_555 1_555
C15 C16 1_555 1_555
C21 C22 1_555 1_555
C27 C28 1_555 1_555
C33 C34 1_555 1_555
C39 C40 1_555 1_555
Ti1 O10 1_555 1_555
C43 C49 1_555 1_555
C44 C45 1_555 1_555
C44 C48 1_555 1_555
C45 C46 1_555 1_555
C46 C47 1_555 1_555
C47 C48 1_555 1_555
Ti2 O3 1_555 1_555
Ti2 O4 1_555 1_555
Ti2 O5 1_555 1_555
Ti2 O6 1_555 1_555
Ti2 O9 1_555 1_555
N2 C50 1_555 1_555
N3 C51 1_555 1_555
N4 C52 1_555 1_555
C54 C58 1_555 1_555
C54 C56A 1_555 1_555
C54 C57A 1_555 1_555
C55 C56 1_555 1_555
C56 C57 1_555 1_555
C56 C54B 1_555 1_555
C57 C58 1_555 1_555
C57 C54B 1_555 1_555
C57 C58B 1_555 1_555
C58 C57A 1_555 1_555
C58 C58B 1_555 1_555
C58 C58A 1_555 1_555
C1A O10A 1_555 1_555
C1B O10B 1_555 1_555
C2A O8A 1_555 1_555
C2B O8B 1_555 1_555
C5A C6A 1_555 1_555
C5B C6B 1_555 1_555
C11A C12A 1_555 1_555
C11B C12B 1_555 1_555
C15A C16A 1_555 1_555
C15B C16B 1_555 1_555
C21A C22A 1_555 1_555
C21B C22B 1_555 1_555
C27B C28B 1_555 1_555
C27A C28A 1_555 1_555
C28B C53B 1_555 1_555
C33A C34A 1_555 1_555
C33B C34B 1_555 1_555
C35A N1A 1_555 1_555
C39A C40A 1_555 1_555
C39B C40B 1_555 1_555
C43A C49A 1_555 1_555
C43B C49B 1_555 1_555
C44I C45I 1_555 1_555
C44I C48I 1_555 1_555
C45I C46I 1_555 1_555
C46I C47I 1_555 1_555
C47I C48I 1_555 1_555
Ti2A O3A 1_555 1_555
Ti2A O4A 1_555 1_555
Ti2A O5A 1_555 1_555
Ti2A O6A 1_555 1_555
Ti2A O9A 1_555 1_555
Ti2B O3B 1_555 1_555
Ti2B O4B 1_555 1_555
Ti2B O5B 1_555 1_555
Ti2B O6B 1_555 1_555
Ti2B O9B 1_555 1_555
N1B C53A 1_555 1_555
N2A C50A 1_555 1_555
N2B C50B 1_555 1_555
N3A C51A 1_555 1_555
N3B C51B 1_555 1_555
N4A C52A 1_555 1_555
N4B C52B 1_555 1_555
C54A C55A 1_555 1_555
C54A C56B 1_555 1_555
C54A C57B 1_555 1_555
C54A C58A 1_555 1_555
C54B C55B 1_555 1_555
C54B C58B 1_555 1_555
C55A C56A 1_555 1_555
C55B C56B 1_555 1_555
C56A C57A 1_555 1_555
C56B C57B 1_555 1_555
C57A C58A 1_555 1_555
C57B C58B 1_555 1_555
C57B C58A 1_555 1_555
C58B C58A 1_555 1_555

#END
