
#######################################################################
#
#                 Cambridge Crystallographic Data Centre
#                                CCDC 
#
#######################################################################
#
# If this CIF has been generated from an entry in the Cambridge 
# Structural Database, then it will include bibliographic, chemical, 
# crystal, experimental, refinement or atomic coordinate data resulting 
# from the CCDC's data processing and validation procedures.
#
#######################################################################

data_HOMSEI
_chemical_formula_moiety         
'C144 H84 Ga4 N12 O36 12-,3(C20 H30 Co1 1+),9(K1 1+),54(C1 H4 O1),70(H2 O1)'
_chemical_name_systematic        
"Nona-potassium bis(decamethylcobaltocenium) hexakis(\m~2~-N,N'-bis(2,3-dioxybenzoyl)naphthalene-1,5-diamine)-tetra-gallium(iii) decamethylcobaltocenium clathrate methanol solvate heptacontahydrate"
_symmetry_cell_setting           cubic
_symmetry_space_group_name_H-M   'F d -3 c'
_symmetry_Int_Tables_number      228
_space_group_name_Hall           '-F 4ud 2vw 3'
loop_
_symmetry_equiv_pos_site_id
_symmetry_equiv_pos_as_xyz
1 x,y,z
2 1/4-x,3/4-y,1/2+z
3 3/4-x,1/2+y,1/4-z
4 1/2+x,1/4-y,3/4-z
5 z,x,y
6 1/2+z,1/4-x,3/4-y
7 1/4-z,3/4-x,1/2+y
8 3/4-z,1/2+x,1/4-y
9 y,z,x
10 3/4-y,1/2+z,1/4-x
11 1/2+y,1/4-z,3/4-x
12 1/4-y,3/4-z,1/2+x
13 3/4+y,1/4+x,-z
14 1/2-y,1/2-x,1/2-z
15 1/4+y,-x,3/4+z
16 -y,3/4+x,1/4+z
17 3/4+x,1/4+z,-y
18 -x,3/4+z,1/4+y
19 1/2-x,1/2-z,1/2-y
20 1/4+x,-z,3/4+y
21 3/4+z,1/4+y,-x
22 1/4+z,-y,3/4+x
23 -z,3/4+y,1/4+x
24 1/2-z,1/2-y,1/2-x
25 x,1/2+y,1/2+z
26 1/4-x,1/4-y,z
27 3/4-x,y,3/4-z
28 1/2+x,3/4-y,1/4-z
29 z,1/2+x,1/2+y
30 1/2+z,3/4-x,1/4-y
31 1/4-z,1/4-x,y
32 3/4-z,x,3/4-y
33 y,1/2+z,1/2+x
34 3/4-y,z,3/4-x
35 1/2+y,3/4-z,1/4-x
36 1/4-y,1/4-z,x
37 3/4+y,3/4+x,1/2-z
38 1/2-y,-x,-z
39 1/4+y,1/2-x,1/4+z
40 -y,1/4+x,3/4+z
41 3/4+x,3/4+z,1/2-y
42 -x,1/4+z,3/4+y
43 1/2-x,-z,-y
44 1/4+x,1/2-z,1/4+y
45 3/4+z,3/4+y,1/2-x
46 1/4+z,1/2-y,1/4+x
47 -z,1/4+y,3/4+x
48 1/2-z,-y,-x
49 1/2+x,y,1/2+z
50 3/4-x,3/4-y,z
51 1/4-x,1/2+y,3/4-z
52 x,1/4-y,1/4-z
53 1/2+z,x,1/2+y
54 z,1/4-x,1/4-y
55 3/4-z,3/4-x,y
56 1/4-z,1/2+x,3/4-y
57 1/2+y,z,1/2+x
58 1/4-y,1/2+z,3/4-x
59 y,1/4-z,1/4-x
60 3/4-y,3/4-z,x
61 1/4+y,1/4+x,1/2-z
62 -y,1/2-x,-z
63 3/4+y,-x,1/4+z
64 1/2-y,3/4+x,3/4+z
65 1/4+x,1/4+z,1/2-y
66 1/2-x,3/4+z,3/4+y
67 -x,1/2-z,-y
68 3/4+x,-z,1/4+y
69 1/4+z,1/4+y,1/2-x
70 3/4+z,-y,1/4+x
71 1/2-z,3/4+y,3/4+x
72 -z,1/2-y,-x
73 1/2+x,1/2+y,z
74 3/4-x,1/4-y,1/2+z
75 1/4-x,y,1/4-z
76 x,3/4-y,3/4-z
77 1/2+z,1/2+x,y
78 z,3/4-x,3/4-y
79 3/4-z,1/4-x,1/2+y
80 1/4-z,x,1/4-y
81 1/2+y,1/2+z,x
82 1/4-y,z,1/4-x
83 y,3/4-z,3/4-x
84 3/4-y,1/4-z,1/2+x
85 1/4+y,3/4+x,-z
86 -y,-x,1/2-z
87 3/4+y,1/2-x,3/4+z
88 1/2-y,1/4+x,1/4+z
89 1/4+x,3/4+z,-y
90 1/2-x,1/4+z,1/4+y
91 -x,-z,1/2-y
92 3/4+x,1/2-z,3/4+y
93 1/4+z,3/4+y,-x
94 3/4+z,1/2-y,3/4+x
95 1/2-z,1/4+y,1/4+x
96 -z,-y,1/2-x
97 -x,-y,-z
98 3/4+x,1/4+y,1/2-z
99 1/4+x,1/2-y,3/4+z
100 1/2-x,3/4+y,1/4+z
101 -z,-x,-y
102 1/2-z,3/4+x,1/4+y
103 3/4+z,1/4+x,1/2-y
104 1/4+z,1/2-x,3/4+y
105 -y,-z,-x
106 1/4+y,1/2-z,3/4+x
107 1/2-y,3/4+z,1/4+x
108 3/4+y,1/4+z,1/2-x
109 1/4-y,3/4-x,z
110 1/2+y,1/2+x,1/2+z
111 3/4-y,x,1/4-z
112 y,1/4-x,3/4-z
113 1/4-x,3/4-z,y
114 x,1/4-z,3/4-y
115 1/2+x,1/2+z,1/2+y
116 3/4-x,z,1/4-y
117 1/4-z,3/4-y,x
118 3/4-z,y,1/4-x
119 z,1/4-y,3/4-x
120 1/2+z,1/2+y,1/2+x
121 -x,1/2-y,1/2-z
122 3/4+x,3/4+y,-z
123 1/4+x,-y,1/4+z
124 1/2-x,1/4+y,3/4+z
125 -z,1/2-x,1/2-y
126 1/2-z,1/4+x,3/4+y
127 3/4+z,3/4+x,-y
128 1/4+z,-x,1/4+y
129 -y,1/2-z,1/2-x
130 1/4+y,-z,1/4+x
131 1/2-y,1/4+z,3/4+x
132 3/4+y,3/4+z,-x
133 1/4-y,1/4-x,1/2+z
134 1/2+y,x,z
135 3/4-y,1/2+x,3/4-z
136 y,3/4-x,1/4-z
137 1/4-x,1/4-z,1/2+y
138 x,3/4-z,1/4-y
139 1/2+x,z,y
140 3/4-x,1/2+z,3/4-y
141 1/4-z,1/4-y,1/2+x
142 3/4-z,1/2+y,3/4-x
143 z,3/4-y,1/4-x
144 1/2+z,y,x
145 1/2-x,-y,1/2-z
146 1/4+x,1/4+y,-z
147 3/4+x,1/2-y,1/4+z
148 -x,3/4+y,3/4+z
149 1/2-z,-x,1/2-y
150 -z,3/4+x,3/4+y
151 1/4+z,1/4+x,-y
152 3/4+z,1/2-x,1/4+y
153 1/2-y,-z,1/2-x
154 3/4+y,1/2-z,1/4+x
155 -y,3/4+z,3/4+x
156 1/4+y,1/4+z,-x
157 3/4-y,3/4-x,1/2+z
158 y,1/2+x,z
159 1/4-y,x,3/4-z
160 1/2+y,1/4-x,1/4-z
161 3/4-x,3/4-z,1/2+y
162 1/2+x,1/4-z,1/4-y
163 x,1/2+z,y
164 1/4-x,z,3/4-y
165 3/4-z,3/4-y,1/2+x
166 1/4-z,y,3/4-x
167 1/2+z,1/4-y,1/4-x
168 z,1/2+y,x
169 1/2-x,1/2-y,-z
170 1/4+x,3/4+y,1/2-z
171 3/4+x,-y,3/4+z
172 -x,1/4+y,1/4+z
173 1/2-z,1/2-x,-y
174 -z,1/4+x,1/4+y
175 1/4+z,3/4+x,1/2-y
176 3/4+z,-x,3/4+y
177 1/2-y,1/2-z,-x
178 3/4+y,-z,3/4+x
179 -y,1/4+z,1/4+x
180 1/4+y,3/4+z,1/2-x
181 3/4-y,1/4-x,z
182 y,x,1/2+z
183 1/4-y,1/2+x,1/4-z
184 1/2+y,3/4-x,3/4-z
185 3/4-x,1/4-z,y
186 1/2+x,3/4-z,3/4-y
187 x,z,1/2+y
188 1/4-x,1/2+z,1/4-y
189 3/4-z,1/4-y,x
190 1/4-z,1/2+y,1/4-x
191 1/2+z,3/4-y,3/4-x
192 z,y,1/2+x
_cell_length_a                   50.004(2)
_cell_length_b                   50.004(2)
_cell_length_c                   50.004(2)
_cell_angle_alpha                90
_cell_angle_beta                 90
_cell_angle_gamma                90
_cell_volume                     125030
_exptl_crystal_colour            yellow
_exptl_crystal_description       cube
_cell_formula_units_Z            16
_exptl_crystal_recrystallization_method acetone/DMSO/methanol
loop_
_atom_site_label
_atom_site_type_symbol
_atom_site_fract_x
_atom_site_fract_y
_atom_site_fract_z
Co1 Co 0.3750 0.3750 0.3750
C11 C 0.3829(5) 0.3942(6) 0.4096(4)
C11D C 0.4096(4) 0.3829(5) 0.3942(6)
C11H C 0.3942(6) 0.4096(4) 0.3829(5)
C11Z C 0.3671(5) 0.3942(6) 0.3404(4)
C11EA C 0.3404(4) 0.3829(5) 0.3558(6)
C11GA C 0.3558(6) 0.4096(4) 0.3671(5)
C11WA C 0.3671(5) 0.3558(6) 0.4096(4)
C11BB C 0.3404(4) 0.3671(5) 0.3942(6)
C11GB C 0.3558(6) 0.3404(4) 0.3829(5)
C11WB C 0.3829(5) 0.3558(6) 0.3404(4)
C11YB C 0.4096(4) 0.3671(5) 0.3558(6)
C11DC C 0.3942(6) 0.3404(4) 0.3671(5)
Co2 Co 0.2500 0.5000 0.2500
C31 C 0.28791(12) 0.4857(3) 0.2560(3)
C32 C 0.2724(3) 0.4666(2) 0.2413(4)
C33 C 0.2634(3) 0.4790(3) 0.2172(2)
C34 C 0.2733(3) 0.5059(4) 0.2169(2)
C35 C 0.28858(10) 0.5098(3) 0.2407(3)
C36 C 0.3014(3) 0.4811(5) 0.2823(5)
C37 C 0.3118(5) 0.50100(14) 0.2678(6)
C38 C 0.2479(6) 0.4658(5) 0.1956(3)
C39 C 0.2760(5) 0.4452(6) 0.2311(3)
C40 C 0.2847(3) 0.4978(4) 0.1962(5)
C31GB C 0.2643(3) 0.4940(3) 0.28791(12)
C31YB C 0.2560(3) 0.46209(12) 0.2643(3)
C31CD C 0.2357(3) 0.5060(3) 0.21209(12)
C31UD C 0.2440(3) 0.53791(12) 0.2357(3)
C31NE C 0.21209(12) 0.5143(3) 0.2440(3)
C32GB C 0.2834(2) 0.5087(4) 0.2724(3)
C32YB C 0.2413(4) 0.4776(3) 0.2834(2)
C32CD C 0.2166(2) 0.4913(4) 0.2276(3)
C32UD C 0.2587(4) 0.5224(3) 0.2166(2)
C32NE C 0.2276(3) 0.5334(2) 0.2587(4)
C33GB C 0.2710(3) 0.5328(2) 0.2634(3)
C33YB C 0.2172(2) 0.4866(3) 0.2710(3)
C33CD C 0.2290(3) 0.4672(2) 0.2366(3)
C33UD C 0.2828(2) 0.5134(3) 0.2290(3)
C33NE C 0.2366(3) 0.5210(3) 0.2828(2)
C34UD C 0.2831(2) 0.5233(3) 0.2559(4)
C34GB C 0.2441(4) 0.5331(2) 0.2733(3)
C34NE C 0.2267(3) 0.4941(4) 0.2831(2)
C34YB C 0.2169(2) 0.4767(3) 0.2441(4)
C34CD C 0.2559(4) 0.4669(2) 0.2267(3)
C35YB C 0.2407(3) 0.46142(10) 0.2402(3)
C35GB C 0.2402(3) 0.5093(3) 0.28858(10)
C35NE C 0.21142(10) 0.4902(3) 0.2593(3)
C35CD C 0.2598(3) 0.4907(3) 0.21142(10)
C35UD C 0.2593(3) 0.53858(10) 0.2598(3)
C36NE C 0.1986(3) 0.5189(5) 0.2177(5)
C36UD C 0.2177(5) 0.5514(3) 0.2311(5)
C36CD C 0.2311(5) 0.5323(5) 0.1986(3)
C36YB C 0.2823(5) 0.4486(3) 0.2689(5)
C36GB C 0.2689(5) 0.4677(5) 0.3014(3)
C37NE C 0.1882(5) 0.49900(14) 0.2322(6)
C37UD C 0.2322(6) 0.5618(5) 0.25100(14)
C37CD C 0.25100(14) 0.5178(6) 0.1882(5)
C37YB C 0.2678(6) 0.4382(5) 0.24900(14)
C37GB C 0.24900(14) 0.4822(6) 0.3118(5)
C38CD C 0.2158(5) 0.4456(3) 0.2521(6)
C38GB C 0.2842(5) 0.5544(3) 0.2479(6)
C38YB C 0.1956(3) 0.5021(6) 0.2842(5)
C38NE C 0.2521(6) 0.5342(5) 0.3044(3)
C38UD C 0.3044(3) 0.4979(6) 0.2158(5)
C39CD C 0.1952(6) 0.4811(3) 0.2240(5)
C39NE C 0.2240(5) 0.5548(6) 0.2689(3)
C39UD C 0.2689(3) 0.5260(5) 0.1952(6)
C39GB C 0.3048(6) 0.5189(3) 0.2760(5)
C39YB C 0.2311(3) 0.4740(5) 0.3048(6)
C40YB C 0.1962(5) 0.4653(3) 0.2522(4)
C40NE C 0.2153(3) 0.5022(4) 0.3038(5)
C40GB C 0.2522(4) 0.5538(5) 0.2847(3)
C40UD C 0.3038(5) 0.5347(3) 0.2478(4)
C40CD C 0.2478(4) 0.4462(5) 0.2153(3)
K1 K 0.5000 0.53279(8) 0.28279(8)
O4 O 0.4521(8) 0.5719(8) 0.3145(8)
C53 C 0.4362(13) 0.5527(12) 0.3278(14)
O5 O 0.5000 0.5000 0.2500
Ga1 Ga 0.46404(3) 0.46404(3) 0.28596(3)
O1 O 0.42601(15) 0.45900(15) 0.27921(15)
O2 O 0.4571(2) 0.50115(14) 0.27676(18)
O3 O 0.3483(3) 0.46266(16) 0.2458(2)
N1 N 0.3795(2) 0.4351(2) 0.26489(19)
H1 H 0.3951 0.4348 0.2731
C41 C 0.4143(3) 0.4820(3) 0.2687(2)
C42 C 0.4307(3) 0.5042(3) 0.2681(2)
C43 C 0.4199(3) 0.5282(3) 0.2594(2)
H2 H 0.4308 0.5438 0.2591
C44 C 0.3934(3) 0.5300(3) 0.2510(3)
H3 H 0.3859 0.5466 0.2456
C45 C 0.3784(3) 0.5071(3) 0.2510(3)
H4 H 0.3606 0.5077 0.2444
C46 C 0.3883(3) 0.4832(3) 0.2602(3)
C47 C 0.3726(4) 0.4590(4) 0.2561(3)
C48 C 0.3815(3) 0.3869(2) 0.2636(3)
C49 C 0.3674(3) 0.4110(3) 0.2639(2)
C50 C 0.3400(3) 0.4103(2) 0.2635(3)
H5 H 0.3299 0.4264 0.2639
C51 C 0.3273(3) 0.3856(3) 0.2623(3)
H6 H 0.3084 0.3849 0.2613
C52 C 0.4085(3) 0.3878(3) 0.2625(3)
H7 H 0.4175 0.4045 0.2620
Ga1D Ga 0.28596(3) 0.46404(3) 0.46404(3)
Ga1GA Ga 0.28596(3) 0.28596(3) 0.28596(3)
Ga1H Ga 0.46404(3) 0.28596(3) 0.46404(3)
O1EA O 0.47079(15) 0.42601(15) 0.29100(15)
O1DC O 0.45900(15) 0.47079(15) 0.32399(15)
O1GB O 0.29100(15) 0.47079(15) 0.42601(15)
O1Z O 0.32399(15) 0.45900(15) 0.47079(15)
O1D O 0.27921(15) 0.42601(15) 0.45900(15)
O1YB O 0.27921(15) 0.32399(15) 0.29100(15)
O1GA O 0.29100(15) 0.27921(15) 0.32399(15)
O1WA O 0.32399(15) 0.29100(15) 0.27921(15)
O1H O 0.45900(15) 0.27921(15) 0.42601(15)
O1WB O 0.42601(15) 0.29100(15) 0.47079(15)
O1BB O 0.47079(15) 0.32399(15) 0.45900(15)
O2EA O 0.47324(18) 0.4571(2) 0.24885(14)
O2DC O 0.50115(14) 0.47324(18) 0.2929(2)
O2Z O 0.2929(2) 0.50115(14) 0.47324(18)
O2D O 0.27676(18) 0.4571(2) 0.50115(14)
O2GB O 0.24885(14) 0.47324(18) 0.4571(2)
O2GA O 0.24885(14) 0.27676(18) 0.2929(2)
O2WA O 0.2929(2) 0.24885(14) 0.27676(18)
O2YB O 0.27676(18) 0.2929(2) 0.24885(14)
O2WB O 0.4571(2) 0.24885(14) 0.47324(18)
O2BB O 0.47324(18) 0.2929(2) 0.50115(14)
O2H O 0.50115(14) 0.27676(18) 0.4571(2)
O3DC O 0.46266(16) 0.5042(2) 0.4017(3)
O3GB O 0.28734(16) 0.5042(2) 0.3483(3)
O3D O 0.2458(2) 0.3483(3) 0.46266(16)
O3YB O 0.2458(2) 0.4017(3) 0.28734(16)
O3WA O 0.4017(3) 0.28734(16) 0.2458(2)
O3GA O 0.28734(16) 0.2458(2) 0.4017(3)
O3H O 0.46266(16) 0.2458(2) 0.3483(3)
O3BB O 0.5042(2) 0.4017(3) 0.46266(16)
O3EA O 0.5042(2) 0.3483(3) 0.28734(16)
O3WB O 0.3483(3) 0.28734(16) 0.5042(2)
O3Z O 0.4017(3) 0.46266(16) 0.5042(2)
N1DC N 0.4351(2) 0.48511(19) 0.3705(2)
N1GB N 0.3149(2) 0.48511(19) 0.3795(2)
N1D N 0.26489(19) 0.3795(2) 0.4351(2)
N1YB N 0.26489(19) 0.3705(2) 0.3149(2)
N1WA N 0.3705(2) 0.3149(2) 0.26489(19)
N1GA N 0.3149(2) 0.26489(19) 0.3705(2)
N1H N 0.4351(2) 0.26489(19) 0.3795(2)
N1BB N 0.48511(19) 0.3705(2) 0.4351(2)
N1EA N 0.48511(19) 0.3795(2) 0.3149(2)
N1WB N 0.3795(2) 0.3149(2) 0.48511(19)
N1Z N 0.3705(2) 0.4351(2) 0.48511(19)
H1DC H 0.4348 0.4769 0.3549
H1GB H 0.3152 0.4769 0.3951
H1D H 0.2731 0.3951 0.4348
H1YB H 0.2731 0.3549 0.3152
H1WA H 0.3549 0.3152 0.2731
H1GA H 0.3152 0.2731 0.3549
H1H H 0.4348 0.2731 0.3951
H1BB H 0.4769 0.3549 0.4348
H1EA H 0.4769 0.3951 0.3152
H1WB H 0.3951 0.3152 0.4769
H1Z H 0.3549 0.4348 0.4769
C41EA C 0.4813(2) 0.4143(3) 0.2680(3)
C41DC C 0.4820(3) 0.4813(2) 0.3357(3)
C41GB C 0.2680(3) 0.4813(2) 0.4143(3)
C41Z C 0.3357(3) 0.4820(3) 0.4813(2)
C41D C 0.2687(2) 0.4143(3) 0.4820(3)
C41YB C 0.2687(2) 0.3357(3) 0.2680(3)
C41GA C 0.2680(3) 0.2687(2) 0.3357(3)
C41WA C 0.3357(3) 0.2680(3) 0.2687(2)
C41H C 0.4820(3) 0.2687(2) 0.4143(3)
C41WB C 0.4143(3) 0.2680(3) 0.4813(2)
C41BB C 0.4813(2) 0.3357(3) 0.4820(3)
C42EA C 0.4819(2) 0.4307(3) 0.2458(3)
C42DC C 0.5042(3) 0.4819(2) 0.3193(3)
C42Z C 0.3193(3) 0.5042(3) 0.4819(2)
C42D C 0.2681(2) 0.4307(3) 0.5042(3)
C42GB C 0.2458(3) 0.4819(2) 0.4307(3)
C42GA C 0.2458(3) 0.2681(2) 0.3193(3)
C42WA C 0.3193(3) 0.2458(3) 0.2681(2)
C42YB C 0.2681(2) 0.3193(3) 0.2458(3)
C42WB C 0.4307(3) 0.2458(3) 0.4819(2)
C42BB C 0.4819(2) 0.3193(3) 0.5042(3)
C42H C 0.5042(3) 0.2681(2) 0.4307(3)
C43DC C 0.5282(3) 0.4906(2) 0.3301(3)
C43GB C 0.2218(3) 0.4906(2) 0.4199(3)
C43D C 0.2594(2) 0.4199(3) 0.5282(3)
C43YB C 0.2594(2) 0.3301(3) 0.2218(3)
C43WA C 0.3301(3) 0.2218(3) 0.2594(2)
C43GA C 0.2218(3) 0.2594(2) 0.3301(3)
C43H C 0.5282(3) 0.2594(2) 0.4199(3)
C43BB C 0.4906(2) 0.3301(3) 0.5282(3)
C43EA C 0.4906(2) 0.4199(3) 0.2218(3)
C43WB C 0.4199(3) 0.2218(3) 0.4906(2)
C43Z C 0.3301(3) 0.5282(3) 0.4906(2)
H2DC H 0.5438 0.4909 0.3192
H2GB H 0.2062 0.4909 0.4308
H2D H 0.2591 0.4308 0.5438
H2YB H 0.2591 0.3192 0.2062
H2WA H 0.3192 0.2062 0.2591
H2GA H 0.2062 0.2591 0.3192
H2H H 0.5438 0.2591 0.4308
H2BB H 0.4909 0.3192 0.5438
H2EA H 0.4909 0.4308 0.2062
H2WB H 0.4308 0.2062 0.4909
H2Z H 0.3192 0.5438 0.4909
C44DC C 0.5300(3) 0.4990(3) 0.3566(3)
C44GB C 0.2200(3) 0.4990(3) 0.3934(3)
C44D C 0.2510(3) 0.3934(3) 0.5300(3)
C44YB C 0.2510(3) 0.3566(3) 0.2200(3)
C44WA C 0.3566(3) 0.2200(3) 0.2510(3)
C44GA C 0.2200(3) 0.2510(3) 0.3566(3)
C44H C 0.5300(3) 0.2510(3) 0.3934(3)
C44BB C 0.4990(3) 0.3566(3) 0.5300(3)
C44EA C 0.4990(3) 0.3934(3) 0.2200(3)
C44WB C 0.3934(3) 0.2200(3) 0.4990(3)
C44Z C 0.3566(3) 0.5300(3) 0.4990(3)
H3DC H 0.5466 0.5044 0.3641
H3GB H 0.2034 0.5044 0.3859
H3D H 0.2456 0.3859 0.5466
H3YB H 0.2456 0.3641 0.2034
H3WA H 0.3641 0.2034 0.2456
H3GA H 0.2034 0.2456 0.3641
H3H H 0.5466 0.2456 0.3859
H3BB H 0.5044 0.3641 0.5466
H3EA H 0.5044 0.3859 0.2034
H3WB H 0.3859 0.2034 0.5044
H3Z H 0.3641 0.5466 0.5044
C45DC C 0.5071(3) 0.4990(3) 0.3716(3)
C45GB C 0.2429(3) 0.4990(3) 0.3784(3)
C45D C 0.2510(3) 0.3784(3) 0.5071(3)
C45YB C 0.2510(3) 0.3716(3) 0.2429(3)
C45WA C 0.3716(3) 0.2429(3) 0.2510(3)
C45GA C 0.2429(3) 0.2510(3) 0.3716(3)
C45H C 0.5071(3) 0.2510(3) 0.3784(3)
C45BB C 0.4990(3) 0.3716(3) 0.5071(3)
C45EA C 0.4990(3) 0.3784(3) 0.2429(3)
C45WB C 0.3784(3) 0.2429(3) 0.4990(3)
C45Z C 0.3716(3) 0.5071(3) 0.4990(3)
H4DC H 0.5077 0.5056 0.3894
H4GB H 0.2423 0.5056 0.3606
H4D H 0.2444 0.3606 0.5077
H4YB H 0.2444 0.3894 0.2423
H4WA H 0.3894 0.2423 0.2444
H4GA H 0.2423 0.2444 0.3894
H4H H 0.5077 0.2444 0.3606
H4BB H 0.5056 0.3894 0.5077
H4EA H 0.5056 0.3606 0.2423
H4WB H 0.3606 0.2423 0.5056
H4Z H 0.3894 0.5077 0.5056
C46DC C 0.4832(3) 0.4898(3) 0.3617(3)
C46GB C 0.2668(3) 0.4898(3) 0.3883(3)
C46D C 0.2602(3) 0.3883(3) 0.4832(3)
C46YB C 0.2602(3) 0.3617(3) 0.2668(3)
C46WA C 0.3617(3) 0.2668(3) 0.2602(3)
C46GA C 0.2668(3) 0.2602(3) 0.3617(3)
C46H C 0.4832(3) 0.2602(3) 0.3883(3)
C46BB C 0.4898(3) 0.3617(3) 0.4832(3)
C46EA C 0.4898(3) 0.3883(3) 0.2668(3)
C46WB C 0.3883(3) 0.2668(3) 0.4898(3)
C46Z C 0.3617(3) 0.4832(3) 0.4898(3)
C47DC C 0.4590(4) 0.4939(3) 0.3774(4)
C47GB C 0.2910(4) 0.4939(3) 0.3726(4)
C47D C 0.2561(3) 0.3726(4) 0.4590(4)
C47YB C 0.2561(3) 0.3774(4) 0.2910(4)
C47WA C 0.3774(4) 0.2910(4) 0.2561(3)
C47GA C 0.2910(4) 0.2561(3) 0.3774(4)
C47H C 0.4590(4) 0.2561(3) 0.3726(4)
C47BB C 0.4939(3) 0.3774(4) 0.4590(4)
C47EA C 0.4939(3) 0.3726(4) 0.2910(4)
C47WB C 0.3726(4) 0.2910(4) 0.4939(3)
C47Z C 0.3774(4) 0.4590(4) 0.4939(3)
C48DC C 0.3869(2) 0.4864(3) 0.3685(3)
C48GB C 0.3631(2) 0.4864(3) 0.3815(3)
C48D C 0.2636(3) 0.3815(3) 0.3869(2)
C48YB C 0.2636(3) 0.3685(3) 0.3631(2)
C48WA C 0.3685(3) 0.3631(2) 0.2636(3)
C48GA C 0.3631(2) 0.2636(3) 0.3685(3)
C48H C 0.3869(2) 0.2636(3) 0.3815(3)
C48BB C 0.4864(3) 0.3685(3) 0.3869(2)
C48EA C 0.4864(3) 0.3815(3) 0.3631(2)
C48WB C 0.3815(3) 0.3631(2) 0.4864(3)
C48Z C 0.3685(3) 0.3869(2) 0.4864(3)
C49DC C 0.4110(3) 0.4861(2) 0.3826(3)
C49GB C 0.3390(3) 0.4861(2) 0.3674(3)
C49D C 0.2639(2) 0.3674(3) 0.4110(3)
C49YB C 0.2639(2) 0.3826(3) 0.3390(3)
C49WA C 0.3826(3) 0.3390(3) 0.2639(2)
C49GA C 0.3390(3) 0.2639(2) 0.3826(3)
C49H C 0.4110(3) 0.2639(2) 0.3674(3)
C49BB C 0.4861(2) 0.3826(3) 0.4110(3)
C49EA C 0.4861(2) 0.3674(3) 0.3390(3)
C49WB C 0.3674(3) 0.3390(3) 0.4861(2)
C49Z C 0.3826(3) 0.4110(3) 0.4861(2)
C50WA C 0.4100(3) 0.3397(2) 0.2635(3)
C50EA C 0.4865(3) 0.3400(3) 0.3397(2)
C50BB C 0.4865(3) 0.4100(3) 0.4103(2)
C50Z C 0.4100(3) 0.4103(2) 0.4865(3)
C50WB C 0.3400(3) 0.3397(2) 0.4865(3)
C50H C 0.4103(2) 0.2635(3) 0.3400(3)
C50GA C 0.3397(2) 0.2635(3) 0.4100(3)
C50YB C 0.2635(3) 0.4100(3) 0.3397(2)
C50D C 0.2635(3) 0.3400(3) 0.4103(2)
C50GB C 0.3397(2) 0.4865(3) 0.3400(3)
C50DC C 0.4103(2) 0.4865(3) 0.4100(3)
H5WA H 0.4201 0.3236 0.2639
H5EA H 0.4861 0.3299 0.3236
H5BB H 0.4861 0.4201 0.4264
H5Z H 0.4201 0.4264 0.4861
H5WB H 0.3299 0.3236 0.4861
H5H H 0.4264 0.2639 0.3299
H5GA H 0.3236 0.2639 0.4201
H5YB H 0.2639 0.4201 0.3236
H5D H 0.2639 0.3299 0.4264
H5GB H 0.3236 0.4861 0.3299
H5DC H 0.4264 0.4861 0.4201
C51WA C 0.4227(3) 0.3644(3) 0.2623(3)
C51EA C 0.4877(3) 0.3273(3) 0.3644(3)
C51BB C 0.4877(3) 0.4227(3) 0.3856(3)
C51Z C 0.4227(3) 0.3856(3) 0.4877(3)
C51WB C 0.3273(3) 0.3644(3) 0.4877(3)
C51H C 0.3856(3) 0.2623(3) 0.3273(3)
C51GA C 0.3644(3) 0.2623(3) 0.4227(3)
C51YB C 0.2623(3) 0.4227(3) 0.3644(3)
C51D C 0.2623(3) 0.3273(3) 0.3856(3)
C51GB C 0.3644(3) 0.4877(3) 0.3273(3)
C51DC C 0.3856(3) 0.4877(3) 0.4227(3)
H6WA H 0.4416 0.3651 0.2613
H6EA H 0.4887 0.3084 0.3651
H6BB H 0.4887 0.4416 0.3849
H6Z H 0.4416 0.3849 0.4887
H6WB H 0.3084 0.3651 0.4887
H6H H 0.3849 0.2613 0.3084
H6GA H 0.3651 0.2613 0.4416
H6YB H 0.2613 0.4416 0.3651
H6D H 0.2613 0.3084 0.3849
H6GB H 0.3651 0.4887 0.3084
H6DC H 0.3849 0.4887 0.4416
C52WA C 0.3415(3) 0.3622(3) 0.2625(3)
C52BB C 0.4875(3) 0.3415(3) 0.3878(3)
C52EA C 0.4875(3) 0.4085(3) 0.3622(3)
C52WB C 0.4085(3) 0.3622(3) 0.4875(3)
C52Z C 0.3415(3) 0.3878(3) 0.4875(3)
C52GA C 0.3622(3) 0.2625(3) 0.3415(3)
C52H C 0.3878(3) 0.2625(3) 0.4085(3)
C52D C 0.2625(3) 0.4085(3) 0.3878(3)
C52YB C 0.2625(3) 0.3415(3) 0.3622(3)
C52DC C 0.3878(3) 0.4875(3) 0.3415(3)
C52GB C 0.3622(3) 0.4875(3) 0.4085(3)
H7WA H 0.3325 0.3455 0.2620
H7BB H 0.4880 0.3325 0.4045
H7EA H 0.4880 0.4175 0.3455
H7WB H 0.4175 0.3455 0.4880
H7Z H 0.3325 0.4045 0.4880
H7GA H 0.3455 0.2620 0.3325
H7H H 0.4045 0.2620 0.4175
H7D H 0.2620 0.4175 0.4045
H7YB H 0.2620 0.3325 0.3455
H7DC H 0.4045 0.4880 0.3325
H7GB H 0.3455 0.4880 0.4175
C1? C 0.3967(5) 0.3900(8) 0.3433(4)
C2? C 0.3703(6) 0.4012(5) 0.3436(5)
C3? C 0.3518(4) 0.3797(5) 0.3411(2)
C4? C 0.3664(5) 0.3553(6) 0.3395(4)
C5? C 0.3943(4) 0.3617(8) 0.3408(3)
C6? C 0.4222(7) 0.4057(12) 0.3431(8)
C7? C 0.3635(11) 0.4303(5) 0.3458(10)
C8? C 0.3219(4) 0.3824(9) 0.3390(6)
C9? C 0.3548(9) 0.3279(6) 0.3365(9)
C10? C 0.4169(6) 0.3425(12) 0.3382(7)
C12? C 0.3551(4) 0.3877(8) 0.4083(3)
C13? C 0.3526(5) 0.3594(8) 0.4058(4)
C14? C 0.3790(6) 0.3482(5) 0.4055(5)
C15? C 0.3976(4) 0.3697(5) 0.4080(2)
C16? C 0.3946(9) 0.4216(6) 0.4125(9)
C17? C 0.3324(6) 0.4069(12) 0.4109(7)
C18? C 0.3271(7) 0.3441(12) 0.4052(8)
C19? C 0.3858(11) 0.3192(4) 0.4033(10)
C20? C 0.4269(4) 0.3674(8) 0.4102(5)
C21? C 0.2366(3) 0.5210(3) 0.2828(2)
C22? C 0.2267(3) 0.4941(4) 0.2831(2)
C23? C 0.21143(10) 0.4902(3) 0.2593(3)
C24? C 0.21212(12) 0.5143(3) 0.2441(3)
C25? C 0.2276(3) 0.5334(2) 0.2587(4)
C26? C 0.2521(6) 0.5343(5) 0.3044(3)
C27? C 0.2311(5) 0.4740(6) 0.3048(3)
C28? C 0.1962(3) 0.4653(4) 0.2522(5)
C29? C 0.1986(3) 0.5189(5) 0.2177(5)
C30? C 0.2322(5) 0.56182(14) 0.2510(6)
loop_
_geom_bond_atom_site_label_1
_geom_bond_atom_site_label_2
_geom_bond_site_symmetry_1
_geom_bond_site_symmetry_2
Ga1 O1 1_555 1_555
Co1 C11 1_555 1_555
C11 C11D 1_555 1_555
Co2 C31 1_555 1_555
C31 C32 1_555 1_555
C32 Co2 1_555 1_555
C33 Co2 1_555 1_555
C34 Co2 1_555 1_555
C35 Co2 1_555 1_555
C36 C31 1_555 1_555
C37 C31 1_555 1_555
C38 C33 1_555 1_555
C39 C32 1_555 1_555
C40 C34 1_555 1_555
O1 C41 1_555 1_555
O2 Ga1 1_555 1_555
O3 C47 1_555 1_555
N1 H1 1_555 1_555
C41 C42 1_555 1_555
C42 O2 1_555 1_555
C43 C42 1_555 1_555
H2 C43 1_555 1_555
C44 C43 1_555 1_555
H3 C44 1_555 1_555
C45 C44 1_555 1_555
H4 C45 1_555 1_555
C46 C41 1_555 1_555
C47 N1 1_555 1_555
C48 C49 1_555 1_555
C49 N1 1_555 1_555
C50 C49 1_555 1_555
H5 C50 1_555 1_555
C51 C50 1_555 1_555
H6 C51 1_555 1_555
C52 C48 1_555 1_555
H7 C52 1_555 1_555
O4 C53 1_555 1_555
Ga1D O1GB 1_555 1_555
Ga1GA O1YB 1_555 1_555
Ga1H O1H 1_555 1_555
C11D Co1 1_555 1_555
C11H Co1 1_555 1_555
C11Z Co1 1_555 1_555
C11EA Co1 1_555 1_555
C11GA Co1 1_555 1_555
C11WA Co1 1_555 1_555
C11BB Co1 1_555 1_555
C11GB Co1 1_555 1_555
C11WB Co1 1_555 1_555
C11YB Co1 1_555 1_555
C11DC Co1 1_555 1_555
C31GB Co2 1_555 1_555
C31YB Co2 1_555 1_555
C31CD Co2 1_555 1_555
C31UD Co2 1_555 1_555
C31NE Co2 1_555 1_555
C32GB Co2 1_555 1_555
C32YB Co2 1_555 1_555
C32CD Co2 1_555 1_555
C32UD Co2 1_555 1_555
C32NE Co2 1_555 1_555
C33GB Co2 1_555 1_555
C33YB Co2 1_555 1_555
C33CD Co2 1_555 1_555
C33UD Co2 1_555 1_555
C33NE Co2 1_555 1_555
C34UD Co2 1_555 1_555
C34GB Co2 1_555 1_555
C34NE Co2 1_555 1_555
C34YB Co2 1_555 1_555
C34CD Co2 1_555 1_555
C35YB Co2 1_555 1_555
C35GB Co2 1_555 1_555
C35NE Co2 1_555 1_555
C35CD Co2 1_555 1_555
C35UD Co2 1_555 1_555
C36NE C31NE 1_555 1_555
C36UD C31UD 1_555 1_555
C36CD C31CD 1_555 1_555
C36YB C32 1_555 1_555
C36GB C31GB 1_555 1_555
C37NE C31NE 1_555 1_555
C37UD C31UD 1_555 1_555
C37CD C31CD 1_555 1_555
C37YB C32 1_555 1_555
C37GB C31GB 1_555 1_555
C38CD C33CD 1_555 1_555
C38GB C33GB 1_555 1_555
C38YB C33YB 1_555 1_555
C38NE C33NE 1_555 1_555
C38UD C34 1_555 1_555
C39CD C32CD 1_555 1_555
C39NE C32NE 1_555 1_555
C39UD C34 1_555 1_555
C39GB C37 1_555 1_555
C39YB C32YB 1_555 1_555
C40YB C34YB 1_555 1_555
C40NE C34NE 1_555 1_555
C40GB C34GB 1_555 1_555
C40UD C35 1_555 1_555
C40CD C38 1_555 1_555
O1EA Ga1 1_555 1_555
O1DC Ga1 1_555 1_555
O1GB C41GB 1_555 1_555
O1Z Ga1D 1_555 1_555
O1D Ga1D 1_555 1_555
O1YB C41YB 1_555 1_555
O1GA Ga1GA 1_555 1_555
O1WA Ga1GA 1_555 1_555
O1H C41H 1_555 1_555
O1WB Ga1H 1_555 1_555
O1BB Ga1H 1_555 1_555
O2EA Ga1 1_555 1_555
O2DC Ga1 1_555 1_555
O2Z Ga1D 1_555 1_555
O2D Ga1D 1_555 1_555
O2GB Ga1D 1_555 1_555
O2GA Ga1GA 1_555 1_555
O2WA Ga1GA 1_555 1_555
O2YB Ga1GA 1_555 1_555
O2WB Ga1H 1_555 1_555
O2BB Ga1H 1_555 1_555
O2H Ga1H 1_555 1_555
O3DC C47DC 1_555 1_555
O3GB C47GB 1_555 1_555
O3D C47D 1_555 1_555
O3YB C47YB 1_555 1_555
O3WA C47WA 1_555 1_555
O3GA C47GA 1_555 1_555
O3H C47H 1_555 1_555
O3BB C47BB 1_555 1_555
O3EA C47EA 1_555 1_555
O3WB C47WB 1_555 1_555
O3Z C47Z 1_555 1_555
N1DC H1DC 1_555 1_555
N1GB H1GB 1_555 1_555
N1D H1D 1_555 1_555
N1YB H1YB 1_555 1_555
N1WA H1WA 1_555 1_555
N1GA H1GA 1_555 1_555
N1H H1H 1_555 1_555
N1BB H1BB 1_555 1_555
N1EA H1EA 1_555 1_555
N1WB H1WB 1_555 1_555
N1Z H1Z 1_555 1_555
C41EA O1EA 1_555 1_555
C41DC O1DC 1_555 1_555
C41GB C42GB 1_555 1_555
C41Z O1Z 1_555 1_555
C41D O1D 1_555 1_555
C41YB C42YB 1_555 1_555
C41GA O1GA 1_555 1_555
C41WA O1WA 1_555 1_555
C41H C42H 1_555 1_555
C41WB O1WB 1_555 1_555
C41BB O1BB 1_555 1_555
C42EA O2EA 1_555 1_555
C42DC O2DC 1_555 1_555
C42Z O2Z 1_555 1_555
C42D O2D 1_555 1_555
C42GB O2GB 1_555 1_555
C42GA O2GA 1_555 1_555
C42WA O2WA 1_555 1_555
C42YB O2YB 1_555 1_555
C42WB O2WB 1_555 1_555
C42BB O2BB 1_555 1_555
C42H O2H 1_555 1_555
C43DC C42DC 1_555 1_555
C43GB C42GB 1_555 1_555
C43D C42D 1_555 1_555
C43YB C42YB 1_555 1_555
C43WA C42WA 1_555 1_555
C43GA C42GA 1_555 1_555
C43H C42H 1_555 1_555
C43BB C42BB 1_555 1_555
C43EA C42EA 1_555 1_555
C43WB C42WB 1_555 1_555
C43Z C42Z 1_555 1_555
H2DC C43DC 1_555 1_555
H2GB C43GB 1_555 1_555
H2D C43D 1_555 1_555
H2YB C43YB 1_555 1_555
H2WA C43WA 1_555 1_555
H2GA C43GA 1_555 1_555
H2H C43H 1_555 1_555
H2BB C43BB 1_555 1_555
H2EA C43EA 1_555 1_555
H2WB C43WB 1_555 1_555
H2Z C43Z 1_555 1_555
C44DC C43DC 1_555 1_555
C44GB C43GB 1_555 1_555
C44D C43D 1_555 1_555
C44YB C43YB 1_555 1_555
C44WA C43WA 1_555 1_555
C44GA C43GA 1_555 1_555
C44H C43H 1_555 1_555
C44BB C43BB 1_555 1_555
C44EA C43EA 1_555 1_555
C44WB C43WB 1_555 1_555
C44Z C43Z 1_555 1_555
H3DC C44DC 1_555 1_555
H3GB C44GB 1_555 1_555
H3D C44D 1_555 1_555
H3YB C44YB 1_555 1_555
H3WA C44WA 1_555 1_555
H3GA C44GA 1_555 1_555
H3H C44H 1_555 1_555
H3BB C44BB 1_555 1_555
H3EA C44EA 1_555 1_555
H3WB C44WB 1_555 1_555
H3Z C44Z 1_555 1_555
C45DC C44DC 1_555 1_555
C45GB C44GB 1_555 1_555
C45D C44D 1_555 1_555
C45YB C44YB 1_555 1_555
C45WA C44WA 1_555 1_555
C45GA C44GA 1_555 1_555
C45H C44H 1_555 1_555
C45BB C44BB 1_555 1_555
C45EA C44EA 1_555 1_555
C45WB C44WB 1_555 1_555
C45Z C44Z 1_555 1_555
H4DC C45DC 1_555 1_555
H4GB C45GB 1_555 1_555
H4D C45D 1_555 1_555
H4YB C45YB 1_555 1_555
H4WA C45WA 1_555 1_555
H4GA C45GA 1_555 1_555
H4H C45H 1_555 1_555
H4BB C45BB 1_555 1_555
H4EA C45EA 1_555 1_555
H4WB C45WB 1_555 1_555
H4Z C45Z 1_555 1_555
C46DC C41DC 1_555 1_555
C46GB C41GB 1_555 1_555
C46D C41D 1_555 1_555
C46YB C41YB 1_555 1_555
C46WA C41WA 1_555 1_555
C46GA C41GA 1_555 1_555
C46H C41H 1_555 1_555
C46BB C41BB 1_555 1_555
C46EA C41EA 1_555 1_555
C46WB C41WB 1_555 1_555
C46Z C41Z 1_555 1_555
C47DC N1DC 1_555 1_555
C47GB N1GB 1_555 1_555
C47D N1D 1_555 1_555
C47YB N1YB 1_555 1_555
C47WA N1WA 1_555 1_555
C47GA N1GA 1_555 1_555
C47H N1H 1_555 1_555
C47BB N1BB 1_555 1_555
C47EA N1EA 1_555 1_555
C47WB N1WB 1_555 1_555
C47Z N1Z 1_555 1_555
C48DC C48GB 1_555 1_555
C48GB C49GB 1_555 1_555
C48D C48YB 1_555 1_555
C48YB C49YB 1_555 1_555
C48WA C48 1_555 1_555
C48GA C48H 1_555 1_555
C48H C49H 1_555 1_555
C48BB C48EA 1_555 1_555
C48EA C49EA 1_555 1_555
C48WB C48Z 1_555 1_555
C48Z C49Z 1_555 1_555
C49DC N1DC 1_555 1_555
C49GB N1GB 1_555 1_555
C49D N1D 1_555 1_555
C49YB N1YB 1_555 1_555
C49WA N1WA 1_555 1_555
C49GA N1GA 1_555 1_555
C49H N1H 1_555 1_555
C49BB N1BB 1_555 1_555
C49EA N1EA 1_555 1_555
C49WB N1WB 1_555 1_555
C49Z N1Z 1_555 1_555
C50WA C49WA 1_555 1_555
C50EA C49EA 1_555 1_555
C50BB C49BB 1_555 1_555
C50Z C49Z 1_555 1_555
C50WB C49WB 1_555 1_555
C50H C49H 1_555 1_555
C50GA C49GA 1_555 1_555
C50YB C49YB 1_555 1_555
C50D C49D 1_555 1_555
C50GB C49GB 1_555 1_555
C50DC C49DC 1_555 1_555
H5WA C50WA 1_555 1_555
H5EA C50EA 1_555 1_555
H5BB C50BB 1_555 1_555
H5Z C50Z 1_555 1_555
H5WB C50WB 1_555 1_555
H5H C50H 1_555 1_555
H5GA C50GA 1_555 1_555
H5YB C50YB 1_555 1_555
H5D C50D 1_555 1_555
H5GB C50GB 1_555 1_555
H5DC C50DC 1_555 1_555
C51WA C52 1_555 1_555
C51EA C50EA 1_555 1_555
C51BB C50BB 1_555 1_555
C51Z C50Z 1_555 1_555
C51WB C50WB 1_555 1_555
C51H C50H 1_555 1_555
C51GA C50GA 1_555 1_555
C51YB C50YB 1_555 1_555
C51D C50D 1_555 1_555
C51GB C50GB 1_555 1_555
C51DC C50DC 1_555 1_555
H6WA C51WA 1_555 1_555
H6EA C51EA 1_555 1_555
H6BB C51BB 1_555 1_555
H6Z C51Z 1_555 1_555
H6WB C51WB 1_555 1_555
H6H C51H 1_555 1_555
H6GA C51GA 1_555 1_555
H6YB C51YB 1_555 1_555
H6D C51D 1_555 1_555
H6GB C51GB 1_555 1_555
H6DC C51DC 1_555 1_555
C52WA C51 1_555 1_555
C52BB C48BB 1_555 1_555
C52EA C48EA 1_555 1_555
C52WB C48WB 1_555 1_555
C52Z C48Z 1_555 1_555
C52GA C48GA 1_555 1_555
C52H C48H 1_555 1_555
C52D C48D 1_555 1_555
C52YB C48YB 1_555 1_555
C52DC C48DC 1_555 1_555
C52GB C48GB 1_555 1_555
H7WA C52WA 1_555 1_555
H7BB C52BB 1_555 1_555
H7EA C52EA 1_555 1_555
H7WB C52WB 1_555 1_555
H7Z C52Z 1_555 1_555
H7GA C52GA 1_555 1_555
H7H C52H 1_555 1_555
H7D C52D 1_555 1_555
H7YB C52YB 1_555 1_555
H7DC C52DC 1_555 1_555
H7GB C52GB 1_555 1_555
C11 C11H 1_555 1_555
C31 C35 1_555 1_555
C31 C32GB 1_555 1_555
C32 C33 1_555 1_555
C32 C31YB 1_555 1_555
C32 C34CD 1_555 1_555
C32 C35YB 1_555 1_555
C33 C34 1_555 1_555
C33 C34CD 1_555 1_555
C33 C35CD 1_555 1_555
C34 C35 1_555 1_555
C34 C32UD 1_555 1_555
C34 C33UD 1_555 1_555
C34 C35CD 1_555 1_555
C35 C32GB 1_555 1_555
C35 C33UD 1_555 1_555
C35 C34UD 1_555 1_555
C35 C38UD 1_555 1_555
C36 C37 1_555 1_555
C36 C32GB 1_555 1_555
C37 C32GB 1_555 1_555
C38 C34CD 1_555 1_555
C38 C35CD 1_555 1_555
C39 C34CD 1_555 1_555
C39 C37YB 1_555 1_555
C39 C40CD 1_555 1_555
C40 C35CD 1_555 1_555
C40 C38UD 1_555 1_555
C40 C39UD 1_555 1_555
C45 C46 1_555 1_555
C46 C47 1_555 1_555
C11D C11H 1_555 1_555
C11Z C11EA 1_555 1_555
C11Z C11GA 1_555 1_555
C11EA C11GA 1_555 1_555
C11WA C11BB 1_555 1_555
C11WA C11GB 1_555 1_555
C11BB C11GB 1_555 1_555
C11WB C11YB 1_555 1_555
C11WB C11DC 1_555 1_555
C11YB C11DC 1_555 1_555
C31GB C32GB 1_555 1_555
C31GB C32YB 1_555 1_555
C31GB C35GB 1_555 1_555
C31YB C32YB 1_555 1_555
C31YB C35YB 1_555 1_555
C31YB C36YB 1_555 1_555
C31YB C37YB 1_555 1_555
C31CD C32CD 1_555 1_555
C31CD C32UD 1_555 1_555
C31CD C35CD 1_555 1_555
C31UD C32UD 1_555 1_555
C31UD C32NE 1_555 1_555
C31UD C35UD 1_555 1_555
C31NE C32CD 1_555 1_555
C31NE C32NE 1_555 1_555
C31NE C35NE 1_555 1_555
C32GB C33GB 1_555 1_555
C32GB C34UD 1_555 1_555
C32GB C39GB 1_555 1_555
C32YB C33YB 1_555 1_555
C32YB C34NE 1_555 1_555
C32YB C35GB 1_555 1_555
C32YB C36GB 1_555 1_555
C32YB C37GB 1_555 1_555
C32CD C33CD 1_555 1_555
C32CD C34YB 1_555 1_555
C32CD C35NE 1_555 1_555
C32CD C36NE 1_555 1_555
C32CD C37NE 1_555 1_555
C32UD C33UD 1_555 1_555
C32UD C35CD 1_555 1_555
C32UD C36CD 1_555 1_555
C32UD C37CD 1_555 1_555
C32UD C39UD 1_555 1_555
C32NE C33NE 1_555 1_555
C32NE C34GB 1_555 1_555
C32NE C35UD 1_555 1_555
C32NE C36UD 1_555 1_555
C32NE C37UD 1_555 1_555
C33GB C34UD 1_555 1_555
C33GB C34GB 1_555 1_555
C33GB C35UD 1_555 1_555
C33YB C34NE 1_555 1_555
C33YB C34YB 1_555 1_555
C33YB C35NE 1_555 1_555
C33CD C34YB 1_555 1_555
C33CD C34CD 1_555 1_555
C33CD C35YB 1_555 1_555
C33UD C34UD 1_555 1_555
C33UD C38UD 1_555 1_555
C33NE C34GB 1_555 1_555
C33NE C34NE 1_555 1_555
C33NE C35GB 1_555 1_555
C34UD C35UD 1_555 1_555
C34UD C38GB 1_555 1_555
C34UD C39GB 1_555 1_555
C34UD C40UD 1_555 1_555
C34GB C35GB 1_555 1_555
C34GB C35UD 1_555 1_555
C34GB C38NE 1_555 1_555
C34GB C39NE 1_555 1_555
C34NE C35GB 1_555 1_555
C34NE C35NE 1_555 1_555
C34NE C38YB 1_555 1_555
C34NE C39YB 1_555 1_555
C34YB C35YB 1_555 1_555
C34YB C35NE 1_555 1_555
C34YB C38CD 1_555 1_555
C34YB C39CD 1_555 1_555
C34CD C35YB 1_555 1_555
C34CD C35CD 1_555 1_555
C34CD C40CD 1_555 1_555
C35YB C38CD 1_555 1_555
C35YB C40CD 1_555 1_555
C35GB C38NE 1_555 1_555
C35GB C40NE 1_555 1_555
C35NE C38YB 1_555 1_555
C35NE C40YB 1_555 1_555
C35UD C38GB 1_555 1_555
C35UD C40GB 1_555 1_555
C36NE C37NE 1_555 1_555
C36UD C37UD 1_555 1_555
C36CD C37CD 1_555 1_555
C36YB C37YB 1_555 1_555
C36GB C37GB 1_555 1_555
C37NE C39CD 1_555 1_555
C37UD C39NE 1_555 1_555
C37CD C39UD 1_555 1_555
C37GB C39YB 1_555 1_555
C38CD C40YB 1_555 1_555
C38GB C40UD 1_555 1_555
C38YB C40NE 1_555 1_555
C38NE C40GB 1_555 1_555
C39CD C40YB 1_555 1_555
C39NE C40GB 1_555 1_555
C39GB C40UD 1_555 1_555
C39YB C40NE 1_555 1_555
C41EA C42EA 1_555 1_555
C41DC C42DC 1_555 1_555
C41Z C42Z 1_555 1_555
C41D C42D 1_555 1_555
C41GA C42GA 1_555 1_555
C41WA C42WA 1_555 1_555
C41WB C42WB 1_555 1_555
C41BB C42BB 1_555 1_555
C45DC C46DC 1_555 1_555
C45GB C46GB 1_555 1_555
C45D C46D 1_555 1_555
C45YB C46YB 1_555 1_555
C45WA C46WA 1_555 1_555
C45GA C46GA 1_555 1_555
C45H C46H 1_555 1_555
C45BB C46BB 1_555 1_555
C45EA C46EA 1_555 1_555
C45WB C46WB 1_555 1_555
C45Z C46Z 1_555 1_555
C46DC C47DC 1_555 1_555
C46GB C47GB 1_555 1_555
C46D C47D 1_555 1_555
C46YB C47YB 1_555 1_555
C46WA C47WA 1_555 1_555
C46GA C47GA 1_555 1_555
C46H C47H 1_555 1_555
C46BB C47BB 1_555 1_555
C46EA C47EA 1_555 1_555
C46WB C47WB 1_555 1_555
C46Z C47Z 1_555 1_555
C48DC C49DC 1_555 1_555
C48D C49D 1_555 1_555
C48WA C49WA 1_555 1_555
C48WA C52WA 1_555 1_555
C48GA C49GA 1_555 1_555
C48BB C49BB 1_555 1_555
C48WB C49WB 1_555 1_555
C50WA C51WA 1_555 1_555
C51EA C52BB 1_555 1_555
C51BB C52EA 1_555 1_555
C51Z C52WB 1_555 1_555
C51WB C52Z 1_555 1_555
C51H C52GA 1_555 1_555
C51GA C52H 1_555 1_555
C51YB C52D 1_555 1_555
C51D C52YB 1_555 1_555
C51GB C52DC 1_555 1_555
C51DC C52GB 1_555 1_555

#END
